AV-unprocessed.smi:3163|AV-procd|sdf|12072|dock6
  -GOLD-   2272017503D 1   1.00000     0.00000
 Structure written by MMmdl.
 36 37  0  0  0  0  0  0  0  0  2 V2000
  143.3299  132.5437  150.8259 C   0  0  0  0  0  0  0  0  0  0  0  0
  143.4809  134.0137  150.8447 N   0  3  2  0  0  0  0  0  0  0  0  0
  144.4287  134.5379  149.8379 C   0  0  0  0  0  0  0  0  0  0  0  0
  145.0129  135.8060  150.4545 C   0  0  0  0  0  0  0  0  0  0  0  0
  145.1065  135.4418  151.9336 C   0  0  1  0  0  0  0  0  0  0  0  0
  145.2327  136.6575  152.8725 C   0  0  0  0  0  0  0  0  0  0  0  0
  146.6136  137.1095  153.0107 N   0  0  0  0  0  0  0  0  0  0  0  0
  147.0361  138.0367  153.8825 C   0  0  0  0  0  0  0  0  0  0  0  0
  146.2853  138.6145  154.6676 O   0  0  0  0  0  0  0  0  0  0  0  0
  148.3631  138.2284  153.7799 N   0  0  0  0  0  0  0  0  0  0  0  0
  149.2032  139.1209  154.5017 C   0  0  0  0  0  0  0  0  0  0  0  0
  150.5130  138.6863  154.7928 C   0  0  0  0  0  0  0  0  0  0  0  0
  151.3765  139.5494  155.4964 C   0  0  0  0  0  0  0  0  0  0  0  0
  151.0188  140.7847  155.9047 N   0  0  0  0  0  0  0  0  0  0  0  0
  149.7689  141.2044  155.6164 C   0  0  0  0  0  0  0  0  0  0  0  0
  148.8270  140.4211  154.9195 C   0  0  0  0  0  0  0  0  0  0  0  0
  143.8585  134.5752  152.1633 C   0  0  0  0  0  0  0  0  0  0  0  0
  144.2693  132.0491  151.0769 H   0  0  0  0  0  0  0  0  0  0  0  0
  143.0165  132.2058  149.8377 H   0  0  0  0  0  0  0  0  0  0  0  0
  142.5729  132.2295  151.5450 H   0  0  0  0  0  0  0  0  0  0  0  0
  145.2298  133.8158  149.6691 H   0  0  0  0  0  0  0  0  0  0  0  0
  143.9370  134.7231  148.8825 H   0  0  0  0  0  0  0  0  0  0  0  0
  145.9761  136.0802  150.0227 H   0  0  0  0  0  0  0  0  0  0  0  0
  144.3256  136.6410  150.3094 H   0  0  0  0  0  0  0  0  0  0  0  0
  145.9844  134.8046  152.0553 H   0  0  0  0  0  0  0  0  0  0  0  0
  144.6107  137.4788  152.5125 H   0  0  0  0  0  0  0  0  0  0  0  0
  144.8618  136.4042  153.8660 H   0  0  0  0  0  0  0  0  0  0  0  0
  147.2976  136.6751  152.4083 H   0  0  0  0  0  0  0  0  0  0  0  0
  148.8428  137.6305  153.1233 H   0  0  0  0  0  0  0  0  0  0  0  0
  150.8543  137.7075  154.4883 H   0  0  0  0  0  0  0  0  0  0  0  0
  152.3826  139.2384  155.7358 H   0  0  0  0  0  0  0  0  0  0  0  0
  149.5117  142.2000  155.9467 H   0  0  0  0  0  0  0  0  0  0  0  0
  147.8534  140.8385  154.7183 H   0  0  0  0  0  0  0  0  0  0  0  0
  143.0239  135.1798  152.5205 H   0  0  0  0  0  0  0  0  0  0  0  0
  144.0469  133.8035  152.9116 H   0  0  0  0  0  0  0  0  0  0  0  0
  142.5782  134.4085  150.6220 H   0  0  0  0  0  0  0  0  0  0  0  0
  1  2  1  0  0  0  0
  1 18  1  0  0  0  0
  1 19  1  0  0  0  0
  1 20  1  0  0  0  0
  2 17  1  0  0  0  0
  2  3  1  0  0  0  0
  2 36  1  0  0  0  0
  3  4  1  0  0  0  0
  3 21  1  0  0  0  0
  3 22  1  0  0  0  0
  4  5  1  0  0  0  0
  4 23  1  0  0  0  0
  4 24  1  0  0  0  0
  5  6  1  0  0  0  0
  5 17  1  0  0  0  0
  5 25  1  0  0  0  0
  6  7  1  0  0  0  0
  6 26  1  0  0  0  0
  6 27  1  0  0  0  0
  7  8  1  0  0  0  0
  7 28  1  0  0  0  0
  8  9  2  0  0  0  0
  8 10  1  0  0  0  0
 10 11  1  0  0  0  0
 10 29  1  0  0  0  0
 11 16  1  0  0  0  0
 11 12  2  0  0  0  0
 12 13  1  0  0  0  0
 12 30  1  0  0  0  0
 13 14  2  0  0  0  0
 13 31  1  0  0  0  0
 14 15  1  0  0  0  0
 15 16  2  0  0  0  0
 15 32  1  0  0  0  0
 16 33  1  0  0  0  0
 17 34  1  0  0  0  0
 17 35  1  0  0  0  0
M  CHG  1   2   1
M  END
> <s_m_source_file>
AV-unprocessed.smi

> <i_m_source_file_index>
3163

> <i_lp_mmshare_version>
43012

> <i_f3d_flags>
0

> <s_epik_input>
W0NIM11OMVtDSDJdW0NIMl1bQ0BIXShbQ0gyXTEpW0NIMl1bTkhdQyg9TylbTkhdYzJbY0hdW2NIXW5bY0hdW2NIXTI=

> <s_epik_cmdline>
J2VwaWtfcHl0aG9uJywgJy1waCcsICc3LjAnLCAnLXRuJywgJzgnLCAnLW1hJywgJzIwMCcsICctbWV0YWxfYmluZGluZycsICctaW1hZScsICc8aW5maWxlLm1hZT4nLCAnLW9tYWUnLCAnPG91dGZpbGUubWFlPic=

> <r_epik_Ionization_Penalty>
0.103936

> <r_epik_Ionization_Penalty_Charging>
0.0012301

> <r_epik_Ionization_Penalty_Neutral>
0.102706

> <r_epik_State_Penalty>
0.0926275

> <r_epik_Charging_Adjusted_Penalty>
0.0938576

> <i_epik_Tot_Q>
1

> <i_epik_Tot_abs_Q>
1

> <r_epik_Metal_State_Penalty>
0.0788376

> <b_epik_Metal_Only>
0

> <s_lp_Force_Field>
OPLS_2005

> <r_lp_Energy>
31.7685

> <b_lp_Chiralities_Consistent>
1

> <s_lp_Variant>
AV-unprocessed.smi:3163-2

> <Gold.Version>
5.8.1

> <Gold.Id.Protein>
6NUR|6NUR_protein|mol2

> <Gold.PLP.Fitness>
44.1594

> <Gold.PLP.PLP>
-30.2518

> <Gold.PLP.part.hbond>
-4.1947

> <Gold.PLP.part.metal>
0.0000

> <Gold.PLP.part.buried>
0.0384

> <Gold.PLP.part.nonpolar>
-25.8181

> <Gold.PLP.part.repulsive>
0.1786

> <Gold.PLP.ligand.clash>
0.0000

> <Gold.PLP.ligand.torsion>
0.5471

> <Gold.PLP.Chemscore.Hbond>
4.0000

> <Gold.PLP.Chemscore.CHOScore>
1.0000

> <Gold.PLP.Chemscore.Metal>
0.0000

> <Gold.Chemscore.Hbonds>
donor molecule, donor type, donor heavy atom, donor atom, acceptor molecule, acceptor atom, score
      L1  H     2    36       P1 10186  2.00
      L1  H     7    28       P1  7948  1.00
      L1  H    10    29       P1  7948  1.00
      L1  C    15    32       P1  8028  0.80

> <Gold.PLP.Chemscore.Internal.Correction>
0.0017

> <Gold.Rescore>
     Score         DG    S(hbond)    S(metal)    S(lipo)     H(rot)  DE(clash)    DE(int)     intcor
     18.45     -19.90       2.77        0.00      71.51       1.26       0.89       0.56       ----

> <Gold.Chemscore.Fitness>
18.4543

> <Gold.Chemscore.DG>
-19.8985

> <Gold.Chemscore.ZeroCoef>
-5.4800

> <Gold.Chemscore.Hbond>
2.7746

> <Gold.Chemscore.Metal>
0.0000

> <Gold.Chemscore.Lipo>
71.5067

> <Gold.Chemscore.Internal_Hbond>
0.0000

> <Gold.Chemscore.DEClash>
0.8855

> <Gold.Chemscore.DEInternal>
0.5586

> <Gold.Chemscore.Rot>
1.2559

> <Gold.Chemscore.Internal.Correction>
   9.000000E+99

> <Gold.Chemscore.Hbonds>
donor molecule, donor type, donor heavy atom, donor atom, acceptor molecule, acceptor atom, score
      L1  H     2    36       P1 10186  0.33
      L1  H     7    28       P1  7948  0.99
      L1  H    10    29       P1  7948  0.98

> <Gold.Chemscore.Hbond.Weighted>
-9.2673

> <Gold.Chemscore.Metal.Weighted>
-0.0000

> <Gold.Chemscore.Lipo.Weighted>
-8.3663

> <Gold.Chemscore.Internal_Hbond.Weighted>
0.0000

> <Gold.Chemscore.DEClash.Weighted>
0.8855

> <Gold.Chemscore.DEInternal.Weighted>
0.5586

> <Gold.Chemscore.Rot.Weighted>
3.2151

> <Gold.Chemscore.Internal.Correction.Weighted>
   9.000000E+99

> <Gold.Protein.RotatedTorsions>
[ 6907 6896 6895 6894 ] final  -51.49 input  -60.11 | X-H torsion
[ 7974 7965 7964 7962 ] final   72.70 input  175.53 | X-H torsion
[ 8008 7997 7996 7995 ] final  -21.06 input   59.86 | X-H torsion
[ 10167 10162 10161 10158 ] final  145.25 input  -65.29 | X-H torsion
[ 10718 10713 10712 10709 ] final  178.79 input   66.30 | X-H torsion
[ 10763 10752 10751 10750 ] final   92.99 input  -60.55 | X-H torsion
[ 11005 11000 10999 10996 ] final   58.18 input  -57.11 | X-H torsion

> <Gold.Protein.ActiveResidues>
 VAL166  LYS551  ARG553  GLY616  TRP617  ASP618  TYR619  PRO620  LYS621  CYS622 
 ASP623  PHE694  ASN695  SER759  ASP760  ASP761  ALA762  ILE779  LEU786  VAL792 
 PHE793  MET794  SER795  GLU796  ALA797  LYS798  CYS799  TRP800  GLU811  SER814 

> <Gold.Protein.RotatedAtoms>
  150.8606  134.7957  159.7079 H   0  0  0  0  0  0  0  0  0  0  0  0  # atno 6907 bound_to 6896
  152.4644  134.5105  159.9762 H   0  0  0  0  0  0  0  0  0  0  0  0  # atno 6908 bound_to 6896
  151.5210  133.3428  159.2937 H   0  0  0  0  0  0  0  0  0  0  0  0  # atno 6909 bound_to 6896
  145.7501  139.2756  143.1436 H   0  0  0  0  0  0  0  0  0  0  0  0  # atno 7974 bound_to 7965
  154.4730  140.2045  155.9948 H   0  0  0  0  0  0  0  0  0  0  0  0  # atno 8008 bound_to 7997
  156.1042  140.3239  155.7953 H   0  0  0  0  0  0  0  0  0  0  0  0  # atno 8009 bound_to 7997
  155.4746  140.0534  157.2966 H   0  0  0  0  0  0  0  0  0  0  0  0  # atno 8010 bound_to 7997
  139.4930  144.5915  151.6671 H   0  0  0  0  0  0  0  0  0  0  0  0  # atno 10167 bound_to 10162
  156.8854  130.9829  151.3056 H   0  0  0  0  0  0  0  0  0  0  0  0  # atno 10718 bound_to 10713
  153.2253  135.4341  155.0535 H   0  0  0  0  0  0  0  0  0  0  0  0  # atno 10763 bound_to 10752
  154.8270  135.3366  154.6866 H   0  0  0  0  0  0  0  0  0  0  0  0  # atno 10764 bound_to 10752
  153.7296  135.7012  153.5048 H   0  0  0  0  0  0  0  0  0  0  0  0  # atno 10765 bound_to 10752
  140.0396  134.5892  155.9398 H   0  0  0  0  0  0  0  0  0  0  0  0  # atno 11005 bound_to 11000
  146.0364  140.8207  142.9850 LP  0  0  0  0  0  0  0  0  0  0  0  0  # atno 17320 bound_to 7965
  144.6851  140.2846  143.7287 LP  0  0  0  0  0  0  0  0  0  0  0  0  # atno 17321 bound_to 7965
  140.5543  144.0374  150.6140 LP  0  0  0  0  0  0  0  0  0  0  0  0  # atno 17342 bound_to 10162
  140.3439  143.3003  152.0559 LP  0  0  0  0  0  0  0  0  0  0  0  0  # atno 17343 bound_to 10162
  157.6116  130.8587  149.8960 LP  0  0  0  0  0  0  0  0  0  0  0  0  # atno 17370 bound_to 10713
  156.0656  130.3693  150.0886 LP  0  0  0  0  0  0  0  0  0  0  0  0  # atno 17371 bound_to 10713
  141.1876  133.6560  156.5289 LP  0  0  0  0  0  0  0  0  0  0  0  0  # atno 17394 bound_to 11000
  140.4090  134.7289  157.4825 LP  0  0  0  0  0  0  0  0  0  0  0  0  # atno 17395 bound_to 11000

$$$$
