AV-unprocessed.smi:3163|AV-procd|sdf|12078|dock2
  -GOLD-   2272017503D 1   1.00000     0.00000
 Structure written by MMmdl.
 37 38  0  0  0  0  0  0  0  0  3 V2000
  145.9969  131.7969  149.3281 C   0  0  0  0  0  0  0  0  0  0  0  0
  146.4305  132.3003  150.6481 N   0  3  2  0  0  0  0  0  0  0  0  0
  145.7347  131.6814  151.8009 C   0  0  0  0  0  0  0  0  0  0  0  0
  145.2991  132.8282  152.7213 C   0  0  0  0  0  0  0  0  0  0  0  0
  146.1811  134.0043  152.3007 C   0  0  2  0  0  0  0  0  0  0  0  0
  145.6197  135.3945  152.6567 C   0  0  0  0  0  0  0  0  0  0  0  0
  146.6737  136.3925  152.8073 N   0  0  0  0  0  0  0  0  0  0  0  0
  146.5020  137.6239  153.3088 C   0  0  0  0  0  0  0  0  0  0  0  0
  145.4155  138.0480  153.7010 O   0  0  0  0  0  0  0  0  0  0  0  0
  147.6607  138.3057  153.3313 N   0  0  0  0  0  0  0  0  0  0  0  0
  147.9099  139.6329  153.7789 C   0  0  0  0  0  0  0  0  0  0  0  0
  149.1565  139.8859  154.3937 C   0  0  0  0  0  0  0  0  0  0  0  0
  149.4608  141.1867  154.8438 C   0  0  0  0  0  0  0  0  0  0  0  0
  148.5641  142.1823  154.6778 N   0  3  0  0  0  0  0  0  0  0  0  0
  147.3657  141.9932  154.0854 C   0  0  0  0  0  0  0  0  0  0  0  0
  147.0056  140.7139  153.6145 C   0  0  0  0  0  0  0  0  0  0  0  0
  146.3382  133.7671  150.7991 C   0  0  0  0  0  0  0  0  0  0  0  0
  144.9409  132.0076  149.1541 H   0  0  0  0  0  0  0  0  0  0  0  0
  146.1469  130.7186  149.2645 H   0  0  0  0  0  0  0  0  0  0  0  0
  146.5765  132.2658  148.5323 H   0  0  0  0  0  0  0  0  0  0  0  0
  144.8771  131.0794  151.4966 H   0  0  0  0  0  0  0  0  0  0  0  0
  146.4363  131.0211  152.3114 H   0  0  0  0  0  0  0  0  0  0  0  0
  144.2500  133.0649  152.5371 H   0  0  0  0  0  0  0  0  0  0  0  0
  145.4026  132.5790  153.7780 H   0  0  0  0  0  0  0  0  0  0  0  0
  147.1614  133.8807  152.7646 H   0  0  0  0  0  0  0  0  0  0  0  0
  144.9065  135.7203  151.8976 H   0  0  0  0  0  0  0  0  0  0  0  0
  145.0668  135.3463  153.5955 H   0  0  0  0  0  0  0  0  0  0  0  0
  147.6013  136.1205  152.5153 H   0  0  0  0  0  0  0  0  0  0  0  0
  148.4781  137.7921  153.0358 H   0  0  0  0  0  0  0  0  0  0  0  0
  149.8759  139.0904  154.5258 H   0  0  0  0  0  0  0  0  0  0  0  0
  150.3881  141.4585  155.3268 H   0  0  0  0  0  0  0  0  0  0  0  0
  146.7357  142.8667  154.0010 H   0  0  0  0  0  0  0  0  0  0  0  0
  146.0494  140.5955  153.1292 H   0  0  0  0  0  0  0  0  0  0  0  0
  147.2143  134.2672  150.3851 H   0  0  0  0  0  0  0  0  0  0  0  0
  145.4581  134.1371  150.2700 H   0  0  0  0  0  0  0  0  0  0  0  0
  147.4074  132.0652  150.7532 H   0  0  0  0  0  0  0  0  0  0  0  0
  148.8036  143.1171  155.0095 H   0  0  0  0  0  0  0  0  0  0  0  0
  1  2  1  0  0  0  0
  1 18  1  0  0  0  0
  1 19  1  0  0  0  0
  1 20  1  0  0  0  0
  2 17  1  0  0  0  0
  2  3  1  0  0  0  0
  2 36  1  0  0  0  0
  3  4  1  0  0  0  0
  3 21  1  0  0  0  0
  3 22  1  0  0  0  0
  4  5  1  0  0  0  0
  4 23  1  0  0  0  0
  4 24  1  0  0  0  0
  5  6  1  0  0  0  0
  5 17  1  0  0  0  0
  5 25  1  0  0  0  0
  6  7  1  0  0  0  0
  6 26  1  0  0  0  0
  6 27  1  0  0  0  0
  7  8  1  0  0  0  0
  7 28  1  0  0  0  0
  8  9  2  0  0  0  0
  8 10  1  0  0  0  0
 10 11  1  0  0  0  0
 10 29  1  0  0  0  0
 11 16  1  0  0  0  0
 11 12  2  0  0  0  0
 12 13  1  0  0  0  0
 12 30  1  0  0  0  0
 13 14  2  0  0  0  0
 13 31  1  0  0  0  0
 14 15  1  0  0  0  0
 14 37  1  0  0  0  0
 15 16  2  0  0  0  0
 15 32  1  0  0  0  0
 16 33  1  0  0  0  0
 17 34  1  0  0  0  0
 17 35  1  0  0  0  0
M  CHG  1   2   1
M  CHG  1  14   1
M  END
> <s_m_source_file>
AV-unprocessed.smi

> <i_m_source_file_index>
3163

> <i_lp_mmshare_version>
43012

> <i_f3d_flags>
0

> <s_epik_input>
W0NIM11OMVtDSDJdW0NIMl1bQ0BIXShbQ0gyXTEpW0NIMl1bTkhdQyg9TylbTkhdYzJbY0hdW2NIXW5bY0hdW2NIXTI=

> <s_epik_cmdline>
J2VwaWtfcHl0aG9uJywgJy1waCcsICc3LjAnLCAnLXRuJywgJzgnLCAnLW1hJywgJzIwMCcsICctbWV0YWxfYmluZGluZycsICctaW1hZScsICc8aW5maWxlLm1hZT4nLCAnLW9tYWUnLCAnPG91dGZpbGUubWFlPic=

> <r_epik_Ionization_Penalty>
1.09034

> <r_epik_Ionization_Penalty_Charging>
1.09032

> <r_epik_Ionization_Penalty_Neutral>
1.86664e-05

> <r_epik_State_Penalty>
1.14521

> <r_epik_Charging_Adjusted_Penalty>
2.23553

> <i_epik_Tot_Q>
2

> <i_epik_Tot_abs_Q>
2

> <r_epik_Metal_State_Penalty>
1.23399

> <b_epik_Metal_Only>
0

> <s_lp_Force_Field>
OPLS_2005

> <r_lp_Energy>
38.5846

> <b_lp_Chiralities_Consistent>
1

> <s_lp_Variant>
AV-unprocessed.smi:3163-8

> <Gold.Version>
5.8.1

> <Gold.Id.Protein>
6NUR|6NUR_protein|mol2

> <Gold.PLP.Fitness>
43.3578

> <Gold.PLP.PLP>
-30.4753

> <Gold.PLP.part.hbond>
-3.7839

> <Gold.PLP.part.metal>
0.0000

> <Gold.PLP.part.buried>
-4.1683

> <Gold.PLP.part.nonpolar>
-23.7933

> <Gold.PLP.part.repulsive>
0.4966

> <Gold.PLP.ligand.clash>
0.0000

> <Gold.PLP.ligand.torsion>
0.6247

> <Gold.PLP.Chemscore.Hbond>
4.7096

> <Gold.PLP.Chemscore.CHOScore>
0.0000

> <Gold.PLP.Chemscore.Metal>
0.0000

> <Gold.Chemscore.Hbonds>
donor molecule, donor type, donor heavy atom, donor atom, acceptor molecule, acceptor atom, score
      L1  H     2    36       P1 10747  0.97
      L1  H     7    28       P1  7948  0.91
      L1  H    10    29       P1  7948  0.80
      L1  H    14    37       P1  8028  2.00

> <Gold.PLP.Chemscore.Internal.Correction>
0.0032

> <Gold.Rescore>
     Score         DG    S(hbond)    S(metal)    S(lipo)     H(rot)  DE(clash)    DE(int)     intcor
     23.31     -24.05       3.83        0.00      77.20       1.27       0.09       0.65       ----

> <Gold.Chemscore.Fitness>
23.3094

> <Gold.Chemscore.DG>
-24.0517

> <Gold.Chemscore.ZeroCoef>
-5.4800

> <Gold.Chemscore.Hbond>
3.8312

> <Gold.Chemscore.Metal>
0.0000

> <Gold.Chemscore.Lipo>
77.1955

> <Gold.Chemscore.Internal_Hbond>
0.0000

> <Gold.Chemscore.DEClash>
0.0912

> <Gold.Chemscore.DEInternal>
0.6511

> <Gold.Chemscore.Rot>
1.2721

> <Gold.Chemscore.Internal.Correction>
   9.000000E+99

> <Gold.Chemscore.Hbonds>
donor molecule, donor type, donor heavy atom, donor atom, acceptor molecule, acceptor atom, score
      L1  H     2    36       P1 10747  0.86
      L1  H     7    28       P1  7948  0.88
      L1  H    10    29       P1  7948  0.77
      L1  H    14    37       P1  8028  1.00

> <Gold.Chemscore.Hbond.Weighted>
-12.7963

> <Gold.Chemscore.Metal.Weighted>
-0.0000

> <Gold.Chemscore.Lipo.Weighted>
-9.0319

> <Gold.Chemscore.Internal_Hbond.Weighted>
0.0000

> <Gold.Chemscore.DEClash.Weighted>
0.0912

> <Gold.Chemscore.DEInternal.Weighted>
0.6511

> <Gold.Chemscore.Rot.Weighted>
3.2565

> <Gold.Chemscore.Internal.Correction.Weighted>
   9.000000E+99

> <Gold.Protein.RotatedTorsions>
[ 6907 6896 6895 6894 ] final   -2.89 input  -60.11 | X-H torsion
[ 7974 7965 7964 7962 ] final   46.67 input  175.53 | X-H torsion
[ 8008 7997 7996 7995 ] final   76.95 input   59.86 | X-H torsion
[ 10167 10162 10161 10158 ] final -101.61 input  -65.29 | X-H torsion
[ 10718 10713 10712 10709 ] final  -57.55 input   66.30 | X-H torsion
[ 10763 10752 10751 10750 ] final  -55.07 input  -60.55 | X-H torsion
[ 11005 11000 10999 10996 ] final   25.01 input  -57.11 | X-H torsion

> <Gold.Protein.ActiveResidues>
 VAL166  LYS551  ARG553  GLY616  TRP617  ASP618  TYR619  PRO620  LYS621  CYS622 
 ASP623  PHE694  ASN695  SER759  ASP760  ASP761  ALA762  ILE779  LEU786  VAL792 
 PHE793  MET794  SER795  GLU796  ALA797  LYS798  CYS799  TRP800  GLU811  SER814 

> <Gold.Protein.RotatedAtoms>
  151.5227  135.1067  159.9882 H   0  0  0  0  0  0  0  0  0  0  0  0  # atno 6907 bound_to 6896
  152.4613  133.7825  159.6869 H   0  0  0  0  0  0  0  0  0  0  0  0  # atno 6908 bound_to 6896
  150.8577  133.7626  159.3028 H   0  0  0  0  0  0  0  0  0  0  0  0  # atno 6909 bound_to 6896
  146.0368  139.4831  142.9803 H   0  0  0  0  0  0  0  0  0  0  0  0  # atno 7974 bound_to 7965
  155.8347  140.3465  155.5594 H   0  0  0  0  0  0  0  0  0  0  0  0  # atno 8008 bound_to 7997
  155.8205  140.0912  157.1871 H   0  0  0  0  0  0  0  0  0  0  0  0  # atno 8009 bound_to 7997
  154.4004  140.1431  156.3481 H   0  0  0  0  0  0  0  0  0  0  0  0  # atno 8010 bound_to 7997
  140.2395  143.3549  152.0815 H   0  0  0  0  0  0  0  0  0  0  0  0  # atno 10167 bound_to 10162
  156.1202  130.4167  150.0456 H   0  0  0  0  0  0  0  0  0  0  0  0  # atno 10718 bound_to 10713
  154.1849  135.6437  153.5044 H   0  0  0  0  0  0  0  0  0  0  0  0  # atno 10763 bound_to 10752
  153.0050  135.5415  154.6476 H   0  0  0  0  0  0  0  0  0  0  0  0  # atno 10764 bound_to 10752
  154.5849  135.2928  155.0667 H   0  0  0  0  0  0  0  0  0  0  0  0  # atno 10765 bound_to 10752
  140.3525  134.2213  155.7679 H   0  0  0  0  0  0  0  0  0  0  0  0  # atno 11005 bound_to 11000
  145.6950  141.0153  143.1535 LP  0  0  0  0  0  0  0  0  0  0  0  0  # atno 17320 bound_to 7965
  144.7056  139.8577  143.7431 LP  0  0  0  0  0  0  0  0  0  0  0  0  # atno 17321 bound_to 7965
  139.5082  144.6846  151.5921 LP  0  0  0  0  0  0  0  0  0  0  0  0  # atno 17342 bound_to 10162
  140.6125  143.9410  150.6463 LP  0  0  0  0  0  0  0  0  0  0  0  0  # atno 17343 bound_to 10162
  156.8397  130.9421  151.3632 LP  0  0  0  0  0  0  0  0  0  0  0  0  # atno 17370 bound_to 10713
  157.6385  130.8786  149.9404 LP  0  0  0  0  0  0  0  0  0  0  0  0  # atno 17371 bound_to 10713
  141.2008  133.7978  157.0472 LP  0  0  0  0  0  0  0  0  0  0  0  0  # atno 17394 bound_to 11000
  140.0692  134.9712  157.1438 LP  0  0  0  0  0  0  0  0  0  0  0  0  # atno 17395 bound_to 11000

$$$$
