#       Name:                AV-unprocessed.smi:861
#       Creating user name   scv26
#       Creation time:       Fri Mar 27 01:44:12 2020


#       File generated by GOLD software.
#

@<TRIPOS>MOLECULE
AV-unprocessed.smi:861
    48    49     1
SMALL
NO_CHARGES


@<TRIPOS>ATOM
      1 ****        -1.1597   3.5148  -0.3073 C.3            1 S1                 0.0000
      2 ****        -1.1551   2.7886  -1.6630 C.3            1 S1                 0.0000
      3 ****        -2.5790   2.7178  -2.2359 C.3            1 S1                 0.0000
      4 ****        -0.5348   1.3794  -1.5743 C.3            1 S1                 0.0000
      5 ****         0.9626   1.3764  -1.2072 C.3            1 S1                 0.0000
      6 ****         1.5816   0.0297  -1.3342 N.4            1 S1                 1.0000
      7 ****         3.0625   0.0651  -1.4060 C.3            1 S1                 0.0000
      8 ****         3.6821   0.2718  -0.0121 C.3            1 S1                 0.0000
      9 ****         3.2260  -0.7503   0.8658 O.3            1 S1                 0.0000
     10 ****         1.8141  -0.7289   1.0490 C.3            1 S1                 0.0000
     11 ****         1.4722  -1.8111   2.0889 C.3            1 S1                 0.0000
     12 ****         0.1145  -1.6857   2.6088 N.pl3          1 S1                 0.0000
     13 ****        -0.9644  -2.4036   2.0724 C.ar           1 S1                 0.0000
     14 ****        -2.2525  -2.1849   2.5995 C.ar           1 S1                 0.0000
     15 ****        -3.3195  -2.9083   2.0391 C.ar           1 S1                 0.0000
     16 ****        -3.0168  -3.7967   0.9913 C.ar           1 S1                 0.0000
     17 ****        -1.7599  -3.9690   0.5240 N.ar           1 S1                 0.0000
     18 ****        -0.7458  -3.2819   1.0616 N.ar           1 S1                 0.0000
     19 ****         1.1385  -0.9630  -0.3222 C.3            1 S1                 0.0000
     20 ****        -1.7039   2.9452   0.4466 H              1 S1                 0.0000
     21 ****        -1.6349   4.4927  -0.3901 H              1 S1                 0.0000
     22 ****        -0.1493   3.6827   0.0646 H              1 S1                 0.0000
     23 ****        -0.5575   3.3807  -2.3574 H              1 S1                 0.0000
     24 ****        -3.2372   2.1349  -1.5907 H              1 S1                 0.0000
     25 ****        -2.5857   2.2547  -3.2230 H              1 S1                 0.0000
     26 ****        -3.0123   3.7132  -2.3393 H              1 S1                 0.0000
     27 ****        -1.1067   0.7914  -0.8569 H              1 S1                 0.0000
     28 ****        -0.6542   0.8821  -2.5380 H              1 S1                 0.0000
     29 ****         1.4759   2.0581  -1.8864 H              1 S1                 0.0000
     30 ****         1.1176   1.7698  -0.2033 H              1 S1                 0.0000
     31 ****         3.4088  -0.8847  -1.8151 H              1 S1                 0.0000
     32 ****         3.3984   0.8371  -2.0995 H              1 S1                 0.0000
     33 ****         4.7688   0.2187  -0.0759 H              1 S1                 0.0000
     34 ****         3.4372   1.2555   0.3911 H              1 S1                 0.0000
     35 ****         1.5312   0.2429   1.4566 H              1 S1                 0.0000
     36 ****         1.6637  -2.8081   1.6913 H              1 S1                 0.0000
     37 ****         2.1413  -1.7009   2.9426 H              1 S1                 0.0000
     38 ****        -0.0512  -1.0418   3.3689 H              1 S1                 0.0000
     39 ****        -2.4209  -1.4860   3.4058 H              1 S1                 0.0000
     40 ****        -4.3307  -2.7868   2.3979 H              1 S1                 0.0000
     41 ****        -3.7945  -4.3787   0.5195 H              1 S1                 0.0000
     42 ****         0.0545  -0.9589  -0.2298 H              1 S1                 0.0000
     43 ****         1.4032  -1.9562  -0.6878 H              1 S1                 0.0000
     44 ****         1.2706  -0.3179  -2.2303 H              1 S1                 0.0000
     45 ****         3.6658  -0.6274   1.7555 LP             1 S1                 0.0000
     46 ****         3.4857  -1.6379   0.4854 LP             1 S1                 0.0000
     47 ****        -1.5882  -4.6103  -0.2238 LP             1 S1                 0.0000
     48 ****         0.1825  -3.4169   0.7151 LP             1 S1                 0.0000
@<TRIPOS>BOND
    1    1    2 1     
    2    1   20 1     
    3    1   21 1     
    4    1   22 1     
    5    2    3 1     
    6    2    4 1     
    7    2   23 1     
    8    3   24 1     
    9    3   25 1     
   10    3   26 1     
   11    4    5 1     
   12    4   27 1     
   13    4   28 1     
   14    5    6 1     
   15    5   29 1     
   16    5   30 1     
   17    6   19 1     
   18    6    7 1     
   19    6   44 1     
   20    7    8 1     
   21    7   31 1     
   22    7   32 1     
   23    8    9 1     
   24    8   33 1     
   25    8   34 1     
   26    9   10 1     
   27   10   11 1     
   28   10   19 1     
   29   10   35 1     
   30   11   12 1     
   31   11   36 1     
   32   11   37 1     
   33   12   13 1     
   34   12   38 1     
   35   13   18 ar    
   36   13   14 ar    
   37   14   15 ar    
   38   14   39 1     
   39   15   16 ar    
   40   15   40 1     
   41   16   17 ar    
   42   16   41 1     
   43   17   18 ar    
   44   19   42 1     
   45   19   43 1     
   46    9   45 1     
   47    9   46 1     
   48   17   47 1     
   49   18   48 1     
@<TRIPOS>SUBSTRUCTURE
      1 S1             1
@<TRIPOS>SET
LONE_PAIRS      STATIC     ATOMS    <user>   **** ""
4 45 46 47 48
DONOR_HYDROGENS      STATIC     ATOMS    <user>   **** ""
2 44 38
ATOM$BLUE        STATIC     ATOMS    COLORGROUP SYSTEM
4 45 46 47 48
ATOM$RED        STATIC     ATOMS    COLORGROUP SYSTEM
2 44 38
