AV-unprocessed.smi:1024|AV-procd|sdf|4464|dock2
  -GOLD-   22720 2443D 1   1.00000     0.00000
 Structure written by MMmdl.
 48 50  0  0  0  0  0  0  0  0  2 V2000
  146.3815  128.5160  153.1192 O   0  0  0  0  0  0  0  0  0  0  0  0
  147.2540  128.7769  152.2891 C   0  0  0  0  0  0  0  0  0  0  0  0
  147.1741  129.8553  151.4908 N   0  0  0  0  0  0  0  0  0  0  0  0
  146.0744  130.8121  151.4845 C   0  0  0  0  0  0  0  0  0  0  0  0
  146.5890  132.2608  151.5163 C   0  0  0  0  0  0  0  0  0  0  0  0
  145.5900  133.1994  151.0048 N   0  0  0  0  0  0  0  0  0  0  0  0
  145.7069  134.5604  150.8864 C   0  0  0  0  0  0  0  0  0  0  0  0
  144.5204  135.0098  150.3662 C   0  0  0  0  0  0  0  0  0  0  0  0
  143.7307  133.9048  150.1896 N   0  3  0  0  0  0  0  0  0  0  0  0
  144.3830  132.8048  150.5796 C   0  0  0  0  0  0  0  0  0  0  0  0
  148.3706  128.0240  152.1205 N   0  0  0  0  0  0  0  0  0  0  0  0
  149.2066  127.9630  150.9118 C   0  0  0  0  0  0  0  0  0  0  0  0
  148.9281  126.6322  150.1867 C   0  0  0  0  0  0  0  0  0  0  0  0
  149.1772  125.3852  151.0813 C   0  0  0  0  0  0  0  0  0  0  0  0
  148.5896  124.1454  150.3576 C   0  0  0  0  0  0  0  0  0  0  0  0
  148.9325  122.8123  151.0457 C   0  0  0  0  0  0  0  0  0  0  0  0
  150.4498  122.6394  151.1931 C   0  0  0  0  0  0  0  0  0  0  0  0
  151.0709  123.8305  151.9346 C   0  0  0  0  0  0  0  0  0  0  0  0
  150.7077  125.1654  151.2578 C   0  0  0  0  0  0  0  0  0  0  0  0
  148.4600  125.6011  152.4477 C   0  0  0  0  0  0  0  0  0  0  0  0
  148.7529  126.9782  153.0744 C   0  0  0  0  0  0  0  0  0  0  0  0
  147.9294  130.0186  150.8406 H   0  0  0  0  0  0  0  0  0  0  0  0
  145.4449  130.6463  150.6083 H   0  0  0  0  0  0  0  0  0  0  0  0
  145.4485  130.6198  152.3565 H   0  0  0  0  0  0  0  0  0  0  0  0
  146.8431  132.5590  152.5343 H   0  0  0  0  0  0  0  0  0  0  0  0
  147.4927  132.3717  150.9150 H   0  0  0  0  0  0  0  0  0  0  0  0
  146.6012  135.0940  151.1746 H   0  0  0  0  0  0  0  0  0  0  0  0
  144.1874  136.0065  150.1156 H   0  0  0  0  0  0  0  0  0  0  0  0
  144.0081  131.7968  150.5578 H   0  0  0  0  0  0  0  0  0  0  0  0
  149.0473  128.7924  150.2231 H   0  0  0  0  0  0  0  0  0  0  0  0
  150.2569  128.0323  151.1959 H   0  0  0  0  0  0  0  0  0  0  0  0
  147.8894  126.6381  149.8523 H   0  0  0  0  0  0  0  0  0  0  0  0
  149.5300  126.5750  149.2790 H   0  0  0  0  0  0  0  0  0  0  0  0
  147.5066  124.2381  150.2685 H   0  0  0  0  0  0  0  0  0  0  0  0
  148.9687  124.1112  149.3350 H   0  0  0  0  0  0  0  0  0  0  0  0
  148.4563  122.7602  152.0249 H   0  0  0  0  0  0  0  0  0  0  0  0
  148.5241  121.9844  150.4661 H   0  0  0  0  0  0  0  0  0  0  0  0
  150.6704  121.7122  151.7228 H   0  0  0  0  0  0  0  0  0  0  0  0
  150.9037  122.5479  150.2056 H   0  0  0  0  0  0  0  0  0  0  0  0
  150.7436  123.8314  152.9740 H   0  0  0  0  0  0  0  0  0  0  0  0
  152.1550  123.7177  151.9626 H   0  0  0  0  0  0  0  0  0  0  0  0
  151.1865  125.1860  150.2779 H   0  0  0  0  0  0  0  0  0  0  0  0
  151.1601  125.9817  151.8191 H   0  0  0  0  0  0  0  0  0  0  0  0
  147.3817  125.5173  152.3044 H   0  0  0  0  0  0  0  0  0  0  0  0
  148.7185  124.8195  153.1603 H   0  0  0  0  0  0  0  0  0  0  0  0
  149.8103  127.0760  153.3211 H   0  0  0  0  0  0  0  0  0  0  0  0
  148.2276  127.0675  154.0259 H   0  0  0  0  0  0  0  0  0  0  0  0
  142.7889  133.9154  149.8186 H   0  0  0  0  0  0  0  0  0  0  0  0
  1  2  2  0  0  0  0
  2  3  1  0  0  0  0
  2 11  1  0  0  0  0
  3  4  1  0  0  0  0
  3 22  1  0  0  0  0
  4  5  1  0  0  0  0
  4 23  1  0  0  0  0
  4 24  1  0  0  0  0
  5  6  1  0  0  0  0
  5 25  1  0  0  0  0
  5 26  1  0  0  0  0
  6 10  1  0  0  0  0
  6  7  1  0  0  0  0
  7  8  2  0  0  0  0
  7 27  1  0  0  0  0
  8  9  1  0  0  0  0
  8 28  1  0  0  0  0
  9 10  2  0  0  0  0
  9 48  1  0  0  0  0
 10 29  1  0  0  0  0
 11 21  1  0  0  0  0
 11 12  1  0  0  0  0
 12 13  1  0  0  0  0
 12 30  1  0  0  0  0
 12 31  1  0  0  0  0
 13 14  1  0  0  0  0
 13 32  1  0  0  0  0
 13 33  1  0  0  0  0
 14 19  1  0  0  0  0
 14 15  1  0  0  0  0
 14 20  1  0  0  0  0
 15 16  1  0  0  0  0
 15 34  1  0  0  0  0
 15 35  1  0  0  0  0
 16 17  1  0  0  0  0
 16 36  1  0  0  0  0
 16 37  1  0  0  0  0
 17 18  1  0  0  0  0
 17 38  1  0  0  0  0
 17 39  1  0  0  0  0
 18 19  1  0  0  0  0
 18 40  1  0  0  0  0
 18 41  1  0  0  0  0
 19 42  1  0  0  0  0
 19 43  1  0  0  0  0
 20 21  1  0  0  0  0
 20 44  1  0  0  0  0
 20 45  1  0  0  0  0
 21 46  1  0  0  0  0
 21 47  1  0  0  0  0
M  CHG  1   9   1
M  END
> <s_m_source_file>
AV-unprocessed.smi

> <i_m_source_file_index>
1024

> <i_lp_mmshare_version>
43012

> <i_f3d_flags>
0

> <s_epik_input>
W2NIXTFuW2NIXVtjSF1uMVtDSDJdW0NIMl1bTkhdQyg9TylOKFtDSDJdW0NIMl0yKVtDSDJdW0NIMl1DMjNbQ0gyXVtDSDJdW0NIMl1bQ0gyXVtDSDJdMw==

> <s_epik_cmdline>
J2VwaWtfcHl0aG9uJywgJy1waCcsICc3LjAnLCAnLXRuJywgJzgnLCAnLW1hJywgJzIwMCcsICctbWV0YWxfYmluZGluZycsICctaW1hZScsICc8aW5maWxlLm1hZT4nLCAnLW9tYWUnLCAnPG91dGZpbGUubWFlPic=

> <r_lp_tautomer_probability>
1

> <r_epik_Ionization_Penalty>
0.249817

> <r_epik_Ionization_Penalty_Charging>
0

> <r_epik_Ionization_Penalty_Neutral>
0.249817

> <r_epik_State_Penalty>
0.241048

> <r_epik_Charging_Adjusted_Penalty>
0.241048

> <i_epik_Tot_Q>
1

> <i_epik_Tot_abs_Q>
1

> <r_epik_Metal_State_Penalty>
0.532587

> <b_epik_Metal_Only>
0

> <s_lp_Force_Field>
OPLS_2005

> <r_lp_Energy>
44.4362

> <b_lp_Chiralities_Consistent>
1

> <s_lp_Variant>
AV-unprocessed.smi:1024-1

> <Gold.Version>
5.8.1

> <Gold.Id.Protein>
6NUR|6NUR_protein|mol2

> <Gold.PLP.Fitness>
45.6845

> <Gold.PLP.PLP>
-34.3005

> <Gold.PLP.part.hbond>
-2.0000

> <Gold.PLP.part.metal>
0.0000

> <Gold.PLP.part.buried>
-2.3120

> <Gold.PLP.part.nonpolar>
-29.2703

> <Gold.PLP.part.repulsive>
0.1504

> <Gold.PLP.ligand.clash>
0.0000

> <Gold.PLP.ligand.torsion>
0.3254

> <Gold.PLP.Chemscore.Hbond>
3.0000

> <Gold.PLP.Chemscore.CHOScore>
1.0000

> <Gold.PLP.Chemscore.Metal>
0.0000

> <Gold.Chemscore.Hbonds>
donor molecule, donor type, donor heavy atom, donor atom, acceptor molecule, acceptor atom, score
      L1  H     3    22       P1 10747  0.73
      L1  H     9    48       P1 10186  2.00
      L1  C     7    27       P1  7948  0.70

> <Gold.PLP.Chemscore.Internal.Correction>
0.0348

> <Gold.Rescore>
     Score         DG    S(hbond)    S(metal)    S(lipo)     H(rot)  DE(clash)    DE(int)     intcor
     16.12     -17.12       1.98        0.00      77.30       1.57       0.55       0.45       ----

> <Gold.Chemscore.Fitness>
16.1225

> <Gold.Chemscore.DG>
-17.1224

> <Gold.Chemscore.ZeroCoef>
-5.4800

> <Gold.Chemscore.Hbond>
1.9848

> <Gold.Chemscore.Metal>
0.0000

> <Gold.Chemscore.Lipo>
77.3017

> <Gold.Chemscore.Internal_Hbond>
0.0000

> <Gold.Chemscore.DEClash>
0.5526

> <Gold.Chemscore.DEInternal>
0.4473

> <Gold.Chemscore.Rot>
1.5747

> <Gold.Chemscore.Internal.Correction>
   9.000000E+99

> <Gold.Chemscore.Hbonds>
donor molecule, donor type, donor heavy atom, donor atom, acceptor molecule, acceptor atom, score
      L1  H     3    22       P1 10747  0.71
      L1  H     9    48       P1 10186  1.00

> <Gold.Chemscore.Hbond.Weighted>
-6.6294

> <Gold.Chemscore.Metal.Weighted>
-0.0000

> <Gold.Chemscore.Lipo.Weighted>
-9.0443

> <Gold.Chemscore.Internal_Hbond.Weighted>
0.0000

> <Gold.Chemscore.DEClash.Weighted>
0.5526

> <Gold.Chemscore.DEInternal.Weighted>
0.4473

> <Gold.Chemscore.Rot.Weighted>
4.0313

> <Gold.Chemscore.Internal.Correction.Weighted>
   9.000000E+99

> <Gold.Protein.RotatedTorsions>
[ 6907 6896 6895 6894 ] final   75.04 input  -60.11 | X-H torsion
[ 7974 7965 7964 7962 ] final  -73.25 input  175.53 | X-H torsion
[ 8008 7997 7996 7995 ] final  179.61 input   59.86 | X-H torsion
[ 10167 10162 10161 10158 ] final  -65.54 input  -65.29 | X-H torsion
[ 10718 10713 10712 10709 ] final -174.46 input   66.30 | X-H torsion
[ 10763 10752 10751 10750 ] final  115.96 input  -60.55 | X-H torsion
[ 11005 11000 10999 10996 ] final  -87.43 input  -57.11 | X-H torsion

> <Gold.Protein.ActiveResidues>
 VAL166  LYS551  ARG553  GLY616  TRP617  ASP618  TYR619  PRO620  LYS621  CYS622 
 ASP623  PHE694  ASN695  SER759  ASP760  ASP761  ALA762  ILE779  LEU786  VAL792 
 PHE793  MET794  SER795  GLU796  ALA797  LYS798  CYS799  TRP800  GLU811  SER814 

> <Gold.Protein.RotatedAtoms>
  152.5006  134.4180  159.9470 H   0  0  0  0  0  0  0  0  0  0  0  0  # atno 6907 bound_to 6896
  151.4151  133.3709  159.2757 H   0  0  0  0  0  0  0  0  0  0  0  0  # atno 6908 bound_to 6896
  150.9263  134.8701  159.7581 H   0  0  0  0  0  0  0  0  0  0  0  0  # atno 6909 bound_to 6896
  145.6546  140.9272  143.0966 H   0  0  0  0  0  0  0  0  0  0  0  0  # atno 7974 bound_to 7965
  156.0414  140.1304  157.0151 H   0  0  0  0  0  0  0  0  0  0  0  0  # atno 8008 bound_to 7997
  154.4393  140.1029  156.6313 H   0  0  0  0  0  0  0  0  0  0  0  0  # atno 8009 bound_to 7997
  155.5661  140.3465  155.4505 H   0  0  0  0  0  0  0  0  0  0  0  0  # atno 8010 bound_to 7997
  140.5722  143.2319  151.6515 H   0  0  0  0  0  0  0  0  0  0  0  0  # atno 10167 bound_to 10162
  156.7854  130.9499  151.3120 H   0  0  0  0  0  0  0  0  0  0  0  0  # atno 10718 bound_to 10713
  153.5301  135.3580  155.2671 H   0  0  0  0  0  0  0  0  0  0  0  0  # atno 10763 bound_to 10752
  154.8727  135.4066  154.3162 H   0  0  0  0  0  0  0  0  0  0  0  0  # atno 10764 bound_to 10752
  153.3848  135.7069  153.6605 H   0  0  0  0  0  0  0  0  0  0  0  0  # atno 10765 bound_to 10752
  141.1617  133.7511  156.9305 H   0  0  0  0  0  0  0  0  0  0  0  0  # atno 11005 bound_to 11000
  144.7110  139.8370  143.7414 LP  0  0  0  0  0  0  0  0  0  0  0  0  # atno 17320 bound_to 7965
  146.1175  139.4189  143.0249 LP  0  0  0  0  0  0  0  0  0  0  0  0  # atno 17321 bound_to 7965
  139.5123  144.3479  152.0679 LP  0  0  0  0  0  0  0  0  0  0  0  0  # atno 17342 bound_to 10162
  140.2618  144.4059  150.6183 LP  0  0  0  0  0  0  0  0  0  0  0  0  # atno 17343 bound_to 10162
  157.6626  130.8979  149.9862 LP  0  0  0  0  0  0  0  0  0  0  0  0  # atno 17370 bound_to 10713
  156.1192  130.3646  149.9917 LP  0  0  0  0  0  0  0  0  0  0  0  0  # atno 17371 bound_to 10713
  140.1389  134.9306  157.2440 LP  0  0  0  0  0  0  0  0  0  0  0  0  # atno 17394 bound_to 11000
  140.2861  134.3294  155.7329 LP  0  0  0  0  0  0  0  0  0  0  0  0  # atno 17395 bound_to 11000

$$$$
