AV-unprocessed.smi:16|AV-procd|sdf|94|dock2
  -GOLD-   2262015233D 1   1.00000     0.00000
 Structure written by MMmdl.
 60 64  0  0  0  0  0  0  0  0  2 V2000
  149.0230  137.2272  157.8701 C   0  0  0  0  0  0  0  0  0  0  0  0
  149.1225  138.7327  157.5893 C   0  0  0  0  0  0  0  0  0  0  0  0
  150.2520  139.0683  156.6824 N   0  3  2  0  0  0  0  0  0  0  0  0
  150.7516  140.4645  156.7930 C   0  0  0  0  0  0  0  0  0  0  0  0
  149.8195  141.4669  156.0943 C   0  0  0  0  0  0  0  0  0  0  0  0
  149.6104  141.0798  154.6170 C   0  0  2  0  0  0  0  0  0  0  0  0
  148.7541  141.9923  153.9293 O   0  0  0  0  0  0  0  0  0  0  0  0
  147.3831  141.9175  154.3085 C   0  0  0  0  0  0  0  0  0  0  0  0
  146.8602  140.4918  154.0925 C   0  0  0  0  0  0  0  0  0  0  0  0
  147.6885  139.5242  154.8031 N   0  0  0  0  0  0  0  0  0  0  0  0
  147.1121  138.2993  154.7626 C   0  0  0  0  0  0  0  0  0  0  0  0
  147.0987  137.5065  155.8666 N   0  0  0  0  0  0  0  0  0  0  0  0
  146.5384  136.2945  155.8106 C   0  0  0  0  0  0  0  0  0  0  0  0
  145.9515  135.6939  154.7732 N   0  0  0  0  0  0  0  0  0  0  0  0
  145.9716  136.4838  153.6606 C   0  0  0  0  0  0  0  0  0  0  0  0
  146.5311  137.7887  153.5721 C   0  0  0  0  0  0  0  0  0  0  0  0
  146.3687  138.2950  152.2900 N   0  0  0  0  0  0  0  0  0  0  0  0
  145.7505  137.3394  151.6510 C   0  0  0  0  0  0  0  0  0  0  0  0
  145.4707  136.2147  152.3963 N   0  0  0  0  0  0  0  0  0  0  0  0
  144.8066  135.0294  151.9298 C   0  0  0  0  0  0  0  0  0  0  0  0
  145.4842  133.6583  151.9737 C   0  0  0  0  0  0  0  0  0  0  0  0
  144.7155  133.2491  150.6955 C   0  0  0  0  0  0  0  0  0  0  0  0
  145.5542  132.4533  149.6796 C   0  0  0  0  0  0  0  0  0  0  0  0
  144.9136  132.3500  148.4245 O   0  0  0  0  0  0  0  0  0  0  0  0
  143.4002  132.4922  150.9765 C   0  0  0  0  0  0  0  0  0  0  0  0
  142.5881  132.3830  149.8253 O   0  0  0  0  0  0  0  0  0  0  0  0
  144.5934  134.7697  150.4383 C   0  0  0  0  0  0  0  0  0  0  0  0
  149.1140  139.6223  154.4630 C   0  0  2  0  0  0  0  0  0  0  0  0
  150.0365  138.6604  155.2666 C   0  0  0  0  0  0  0  0  0  0  0  0
  150.5813  141.1534  154.1251 H   0  0  0  0  0  0  0  0  0  0  0  0
  149.2004  139.3606  153.4071 H   0  0  0  0  0  0  0  0  0  0  0  0
  148.1287  137.0070  158.4534 H   0  0  0  0  0  0  0  0  0  0  0  0
  149.8766  136.8588  158.4383 H   0  0  0  0  0  0  0  0  0  0  0  0
  148.9613  136.6558  156.9434 H   0  0  0  0  0  0  0  0  0  0  0  0
  148.1877  139.0397  157.1190 H   0  0  0  0  0  0  0  0  0  0  0  0
  149.1923  139.2872  158.5246 H   0  0  0  0  0  0  0  0  0  0  0  0
  150.8975  140.7447  157.8354 H   0  0  0  0  0  0  0  0  0  0  0  0
  151.7387  140.5093  156.3309 H   0  0  0  0  0  0  0  0  0  0  0  0
  148.8735  141.5088  156.6315 H   0  0  0  0  0  0  0  0  0  0  0  0
  150.2466  142.4685  156.1536 H   0  0  0  0  0  0  0  0  0  0  0  0
  147.2423  142.2334  155.3418 H   0  0  0  0  0  0  0  0  0  0  0  0
  146.8146  142.6165  153.6949 H   0  0  0  0  0  0  0  0  0  0  0  0
  145.8246  140.4293  154.4306 H   0  0  0  0  0  0  0  0  0  0  0  0
  146.8632  140.2555  153.0271 H   0  0  0  0  0  0  0  0  0  0  0  0
  146.5654  135.7230  156.7268 H   0  0  0  0  0  0  0  0  0  0  0  0
  145.4810  137.4315  150.6086 H   0  0  0  0  0  0  0  0  0  0  0  0
  143.8486  134.9864  152.4515 H   0  0  0  0  0  0  0  0  0  0  0  0
  146.5637  133.7127  151.8260 H   0  0  0  0  0  0  0  0  0  0  0  0
  145.2475  133.0688  152.8600 H   0  0  0  0  0  0  0  0  0  0  0  0
  146.5172  132.9363  149.5115 H   0  0  0  0  0  0  0  0  0  0  0  0
  145.7752  131.4510  150.0477 H   0  0  0  0  0  0  0  0  0  0  0  0
  145.1225  133.1184  147.9159 H   0  0  0  0  0  0  0  0  0  0  0  0
  143.5967  131.4910  151.3612 H   0  0  0  0  0  0  0  0  0  0  0  0
  142.8124  132.9980  151.7429 H   0  0  0  0  0  0  0  0  0  0  0  0
  141.9829  131.6681  149.9497 H   0  0  0  0  0  0  0  0  0  0  0  0
  143.6254  135.0993  150.0603 H   0  0  0  0  0  0  0  0  0  0  0  0
  145.4021  135.1581  149.8174 H   0  0  0  0  0  0  0  0  0  0  0  0
  151.0167  138.6588  154.7884 H   0  0  0  0  0  0  0  0  0  0  0  0
  149.7011  137.6247  155.2191 H   0  0  0  0  0  0  0  0  0  0  0  0
  151.0093  138.4828  157.0049 H   0  0  0  0  0  0  0  0  0  0  0  0
  1  2  1  0  0  0  0
  1 32  1  0  0  0  0
  1 33  1  0  0  0  0
  1 34  1  0  0  0  0
  2  3  1  0  0  0  0
  2 35  1  0  0  0  0
  2 36  1  0  0  0  0
  3 29  1  0  0  0  0
  3  4  1  0  0  0  0
  3 60  1  0  0  0  0
  4  5  1  0  0  0  0
  4 37  1  0  0  0  0
  4 38  1  0  0  0  0
  5  6  1  0  0  0  0
  5 39  1  0  0  0  0
  5 40  1  0  0  0  0
  6 30  1  0  0  0  0
  6 28  1  0  0  0  0
  6  7  1  0  0  0  0
  7  8  1  0  0  0  0
  8  9  1  0  0  0  0
  8 41  1  0  0  0  0
  8 42  1  0  0  0  0
  9 10  1  0  0  0  0
  9 43  1  0  0  0  0
  9 44  1  0  0  0  0
 10 11  1  0  0  0  0
 10 28  1  0  0  0  0
 11 16  1  0  0  0  0
 11 12  2  0  0  0  0
 12 13  1  0  0  0  0
 13 14  2  0  0  0  0
 13 45  1  0  0  0  0
 14 15  1  0  0  0  0
 15 19  1  0  0  0  0
 15 16  2  0  0  0  0
 16 17  1  0  0  0  0
 17 18  2  0  0  0  0
 18 19  1  0  0  0  0
 18 46  1  0  0  0  0
 19 20  1  0  0  0  0
 20 27  1  0  0  0  0
 20 21  1  0  0  0  0
 20 47  1  0  0  0  0
 21 22  1  0  0  0  0
 21 48  1  0  0  0  0
 21 49  1  0  0  0  0
 22 23  1  0  0  0  0
 22 25  1  0  0  0  0
 22 27  1  0  0  0  0
 23 24  1  0  0  0  0
 23 50  1  0  0  0  0
 23 51  1  0  0  0  0
 24 52  1  0  0  0  0
 25 26  1  0  0  0  0
 25 53  1  0  0  0  0
 25 54  1  0  0  0  0
 26 55  1  0  0  0  0
 27 56  1  0  0  0  0
 27 57  1  0  0  0  0
 28 31  1  0  0  0  0
 28 29  1  0  0  0  0
 29 58  1  0  0  0  0
 29 59  1  0  0  0  0
M  CHG  1   3   1
M  END
> <s_m_source_file>
AV-unprocessed.smi

> <i_m_source_file_index>
16

> <i_lp_mmshare_version>
43012

> <i_f3d_flags>
0

> <s_epik_input>
W0NIM11bQ0gyXU4oW0NIMl1bQ0gyXTEpW0NIMl1bQ0BASF0oW0NAQEhdMTIpTihbQ0gyXVtDSDJdTzIpYyhuW2NIXW4zKWMoYzM0KW5bY0hdbjRbQ0hdKFtDSDJdNSlbQ0gyXUM1KFtDSDJdW09IXSlbQ0gyXVtPSF0=

> <s_epik_cmdline>
J2VwaWtfcHl0aG9uJywgJy1waCcsICc3LjAnLCAnLXRuJywgJzgnLCAnLW1hJywgJzIwMCcsICctbWV0YWxfYmluZGluZycsICctaW1hZScsICc8aW5maWxlLm1hZT4nLCAnLW9tYWUnLCAnPG91dGZpbGUubWFlPic=

> <r_lp_tautomer_probability>
1

> <r_epik_Ionization_Penalty>
0.0135603

> <r_epik_Ionization_Penalty_Charging>
0.0131385

> <r_epik_Ionization_Penalty_Neutral>
0.000421734

> <r_epik_State_Penalty>
0.0102091

> <r_epik_Charging_Adjusted_Penalty>
0.0233476

> <i_epik_Tot_Q>
1

> <i_epik_Tot_abs_Q>
1

> <r_epik_Metal_State_Penalty>
0.0103746

> <b_epik_Metal_Only>
0

> <s_lp_Force_Field>
OPLS_2005

> <r_lp_Energy>
67.696

> <b_lp_Chiralities_Consistent>
1

> <s_lp_Variant>
AV-unprocessed.smi:16-8

> <Gold.Version>
5.8.1

> <Gold.Id.Protein>
6NUR|6NUR_protein|mol2

> <Gold.PLP.Fitness>
49.7459

> <Gold.PLP.PLP>
-40.9214

> <Gold.PLP.part.hbond>
-5.0065

> <Gold.PLP.part.metal>
0.0000

> <Gold.PLP.part.buried>
-3.3318

> <Gold.PLP.part.nonpolar>
-33.4358

> <Gold.PLP.part.repulsive>
0.6658

> <Gold.PLP.ligand.clash>
0.0000

> <Gold.PLP.ligand.torsion>
1.0719

> <Gold.PLP.Chemscore.Hbond>
2.4320

> <Gold.PLP.Chemscore.CHOScore>
0.9851

> <Gold.PLP.Chemscore.Metal>
0.0000

> <Gold.Chemscore.Hbonds>
donor molecule, donor type, donor heavy atom, donor atom, acceptor molecule, acceptor atom, score
      L1  H    24    52       P1  7921  0.90
      L1  H    26    55       P1 10952  1.00
      P1  H  8011  8017       L1     7  0.43
      L1  C    18    46       P1 10171  0.94

> <Gold.PLP.Chemscore.Internal.Correction>
0.7170

> <Gold.Rescore>
     Score         DG    S(hbond)    S(metal)    S(lipo)     H(rot)  DE(clash)    DE(int)     intcor
      8.16     -13.53       1.90        0.00      87.18       3.33       0.18       5.19       ----

> <Gold.Chemscore.Fitness>
8.1642

> <Gold.Chemscore.DG>
-13.5299

> <Gold.Chemscore.ZeroCoef>
-5.4800

> <Gold.Chemscore.Hbond>
1.9048

> <Gold.Chemscore.Metal>
0.0000

> <Gold.Chemscore.Lipo>
87.1807

> <Gold.Chemscore.Internal_Hbond>
0.0000

> <Gold.Chemscore.DEClash>
0.1800

> <Gold.Chemscore.DEInternal>
5.1857

> <Gold.Chemscore.Rot>
3.3251

> <Gold.Chemscore.Internal.Correction>
   9.000000E+99

> <Gold.Chemscore.Hbonds>
donor molecule, donor type, donor heavy atom, donor atom, acceptor molecule, acceptor atom, score
      L1  H    24    52       P1  7921  0.17
      L1  H    26    55       P1 10952  0.92
      P1  H  8011  8017       L1     7  0.17

> <Gold.Chemscore.Hbond.Weighted>
-6.3619

> <Gold.Chemscore.Metal.Weighted>
-0.0000

> <Gold.Chemscore.Lipo.Weighted>
-10.2001

> <Gold.Chemscore.Internal_Hbond.Weighted>
0.0000

> <Gold.Chemscore.DEClash.Weighted>
0.1800

> <Gold.Chemscore.DEInternal.Weighted>
5.1857

> <Gold.Chemscore.Rot.Weighted>
8.5122

> <Gold.Chemscore.Internal.Correction.Weighted>
   9.000000E+99

> <Gold.Protein.RotatedTorsions>
[ 6907 6896 6895 6894 ] final   28.41 input  -60.11 | X-H torsion
[ 7974 7965 7964 7962 ] final  147.17 input  175.53 | X-H torsion
[ 8008 7997 7996 7995 ] final  -69.08 input   59.86 | X-H torsion
[ 10167 10162 10161 10158 ] final -170.26 input  -65.29 | X-H torsion
[ 10718 10713 10712 10709 ] final   41.28 input   66.30 | X-H torsion
[ 10763 10752 10751 10750 ] final   -8.42 input  -60.55 | X-H torsion
[ 11005 11000 10999 10996 ] final -134.04 input  -57.11 | X-H torsion

> <Gold.Protein.ActiveResidues>
 VAL166  LYS551  ARG553  GLY616  TRP617  ASP618  TYR619  PRO620  LYS621  CYS622 
 ASP623  PHE694  ASN695  SER759  ASP760  ASP761  ALA762  ILE779  LEU786  VAL792 
 PHE793  MET794  SER795  GLU796  ALA797  LYS798  CYS799  TRP800  GLU811  SER814 

> <Gold.Protein.RotatedAtoms>
  152.0166  134.9846  160.0569 H   0  0  0  0  0  0  0  0  0  0  0  0  # atno 6907 bound_to 6896
  152.1378  133.4441  159.4760 H   0  0  0  0  0  0  0  0  0  0  0  0  # atno 6908 bound_to 6896
  150.6862  134.2261  159.4459 H   0  0  0  0  0  0  0  0  0  0  0  0  # atno 6909 bound_to 6896
  144.8612  139.5996  143.5929 H   0  0  0  0  0  0  0  0  0  0  0  0  # atno 7974 bound_to 7965
  154.4913  140.0860  156.7600 H   0  0  0  0  0  0  0  0  0  0  0  0  # atno 8008 bound_to 7997
  155.4224  140.3446  155.4254 H   0  0  0  0  0  0  0  0  0  0  0  0  # atno 8009 bound_to 7997
  156.1333  140.1508  156.9020 H   0  0  0  0  0  0  0  0  0  0  0  0  # atno 8010 bound_to 7997
  139.5872  144.1292  152.1590 H   0  0  0  0  0  0  0  0  0  0  0  0  # atno 10167 bound_to 10162
  157.3918  130.7811  149.7276 H   0  0  0  0  0  0  0  0  0  0  0  0  # atno 10718 bound_to 10713
  153.4402  135.7013  153.6174 H   0  0  0  0  0  0  0  0  0  0  0  0  # atno 10763 bound_to 10752
  153.4552  135.3749  155.2307 H   0  0  0  0  0  0  0  0  0  0  0  0  # atno 10764 bound_to 10752
  154.8727  135.4006  154.3799 H   0  0  0  0  0  0  0  0  0  0  0  0  # atno 10765 bound_to 10752
  140.9026  134.1671  157.4449 H   0  0  0  0  0  0  0  0  0  0  0  0  # atno 11005 bound_to 11000
  146.2862  139.7011  142.9194 LP  0  0  0  0  0  0  0  0  0  0  0  0  # atno 17320 bound_to 7965
  145.4308  141.0415  143.2912 LP  0  0  0  0  0  0  0  0  0  0  0  0  # atno 17321 bound_to 7965
  140.0858  144.5662  150.7090 LP  0  0  0  0  0  0  0  0  0  0  0  0  # atno 17342 bound_to 10162
  140.7142  143.2530  151.4487 LP  0  0  0  0  0  0  0  0  0  0  0  0  # atno 17343 bound_to 10162
  155.9800  130.4034  150.3552 LP  0  0  0  0  0  0  0  0  0  0  0  0  # atno 17370 bound_to 10713
  157.1670  131.0359  151.2814 LP  0  0  0  0  0  0  0  0  0  0  0  0  # atno 17371 bound_to 10713
  139.8744  134.9904  156.5501 LP  0  0  0  0  0  0  0  0  0  0  0  0  # atno 17394 bound_to 11000
  140.8211  133.8353  155.8897 LP  0  0  0  0  0  0  0  0  0  0  0  0  # atno 17395 bound_to 11000

$$$$
