AV-unprocessed.smi:2155|AV-procd|sdf|8778|dock6
  -GOLD-   2272011563D 1   1.00000     0.00000
 Structure written by MMmdl.
 42 43  0  0  0  0  0  0  0  0  1 V2000
  151.0350  141.8169  156.5021 C   0  0  0  0  0  0  0  0  0  0  0  0
  150.6530  140.6744  155.6981 N   0  0  0  0  0  0  0  0  0  0  0  0
  151.5136  139.5509  155.6453 C   0  0  0  0  0  0  0  0  0  0  0  0
  152.5807  139.5015  156.2580 O   0  0  0  0  0  0  0  0  0  0  0  0
  151.0268  138.4576  154.8125 C   0  0  0  0  0  0  0  0  0  0  0  0
  149.8426  138.5490  154.1688 C   0  0  0  0  0  0  0  0  0  0  0  0
  149.0160  139.6552  154.2456 N   0  0  0  0  0  0  0  0  0  0  0  0
  147.7484  139.6685  153.5036 C   0  0  0  0  0  0  0  0  0  0  0  0
  146.8389  138.4767  153.8338 C   0  0  0  0  0  0  0  0  0  0  0  0
  146.1796  138.4505  154.8742 O   0  0  0  0  0  0  0  0  0  0  0  0
  146.8013  137.4981  152.9191 N   0  0  0  0  0  0  0  0  0  0  0  0
  145.9987  136.2873  153.0397 C   0  0  0  0  0  0  0  0  0  0  0  0
  145.2316  135.9880  151.7403 C   0  0  0  0  0  0  0  0  0  0  0  0
  145.1179  134.5038  151.4247 C   0  0  0  0  0  0  0  0  0  0  0  0
  145.7516  133.5674  152.1575 C   0  0  0  0  0  0  0  0  0  0  0  0
  145.6577  132.0739  151.8993 C   0  0  0  0  0  0  0  0  0  0  0  0
  144.5068  131.7156  150.9444 C   0  0  0  0  0  0  0  0  0  0  0  0
  144.4478  132.6873  149.7593 C   0  0  0  0  0  0  0  0  0  0  0  0
  144.2406  134.1370  150.2332 C   0  0  0  0  0  0  0  0  0  0  0  0
  149.4120  140.7600  155.0293 C   0  0  0  0  0  0  0  0  0  0  0  0
  148.6917  141.7575  155.1212 O   0  0  0  0  0  0  0  0  0  0  0  0
  152.0677  141.7341  156.8396 H   0  0  0  0  0  0  0  0  0  0  0  0
  150.3544  141.8483  157.3542 H   0  0  0  0  0  0  0  0  0  0  0  0
  150.9370  142.7086  155.8801 H   0  0  0  0  0  0  0  0  0  0  0  0
  151.6228  137.5625  154.7101 H   0  0  0  0  0  0  0  0  0  0  0  0
  149.5285  137.7126  153.5614 H   0  0  0  0  0  0  0  0  0  0  0  0
  147.2005  140.5858  153.7242 H   0  0  0  0  0  0  0  0  0  0  0  0
  147.9421  139.6934  152.4294 H   0  0  0  0  0  0  0  0  0  0  0  0
  147.3703  137.5927  152.0904 H   0  0  0  0  0  0  0  0  0  0  0  0
  146.6483  135.4496  153.2970 H   0  0  0  0  0  0  0  0  0  0  0  0
  145.2912  136.4007  153.8624 H   0  0  0  0  0  0  0  0  0  0  0  0
  144.2271  136.4077  151.8016 H   0  0  0  0  0  0  0  0  0  0  0  0
  145.7220  136.4981  150.9100 H   0  0  0  0  0  0  0  0  0  0  0  0
  146.3804  133.8658  152.9837 H   0  0  0  0  0  0  0  0  0  0  0  0
  146.6098  131.7451  151.4817 H   0  0  0  0  0  0  0  0  0  0  0  0
  145.5290  131.5515  152.8476 H   0  0  0  0  0  0  0  0  0  0  0  0
  144.6214  130.6904  150.5909 H   0  0  0  0  0  0  0  0  0  0  0  0
  143.5597  131.7528  151.4840 H   0  0  0  0  0  0  0  0  0  0  0  0
  145.3783  132.6187  149.1939 H   0  0  0  0  0  0  0  0  0  0  0  0
  143.6488  132.4027  149.0742 H   0  0  0  0  0  0  0  0  0  0  0  0
  143.1989  134.2841  150.5201 H   0  0  0  0  0  0  0  0  0  0  0  0
  144.4410  134.8210  149.4079 H   0  0  0  0  0  0  0  0  0  0  0  0
  1  2  1  0  0  0  0
  1 22  1  0  0  0  0
  1 23  1  0  0  0  0
  1 24  1  0  0  0  0
  2 20  1  0  0  0  0
  2  3  1  0  0  0  0
  3  4  2  0  0  0  0
  3  5  1  0  0  0  0
  5  6  2  0  0  0  0
  5 25  1  0  0  0  0
  6  7  1  0  0  0  0
  6 26  1  0  0  0  0
  7  8  1  0  0  0  0
  7 20  1  0  0  0  0
  8  9  1  0  0  0  0
  8 27  1  0  0  0  0
  8 28  1  0  0  0  0
  9 10  2  0  0  0  0
  9 11  1  0  0  0  0
 11 12  1  0  0  0  0
 11 29  1  0  0  0  0
 12 13  1  0  0  0  0
 12 30  1  0  0  0  0
 12 31  1  0  0  0  0
 13 14  1  0  0  0  0
 13 32  1  0  0  0  0
 13 33  1  0  0  0  0
 14 19  1  0  0  0  0
 14 15  2  0  0  0  0
 15 16  1  0  0  0  0
 15 34  1  0  0  0  0
 16 17  1  0  0  0  0
 16 35  1  0  0  0  0
 16 36  1  0  0  0  0
 17 18  1  0  0  0  0
 17 37  1  0  0  0  0
 17 38  1  0  0  0  0
 18 19  1  0  0  0  0
 18 39  1  0  0  0  0
 18 40  1  0  0  0  0
 19 41  1  0  0  0  0
 19 42  1  0  0  0  0
 20 21  2  0  0  0  0
M  END
> <s_m_source_file>
AV-unprocessed.smi

> <i_m_source_file_index>
2155

> <i_lp_mmshare_version>
43012

> <i_f3d_flags>
0

> <s_epik_input>
W0NIM11uMWMoPU8pW2NIXVtjSF1uKGMxPU8pW0NIMl1DKD1PKVtOSF1bQ0gyXVtDSDJdQzI9W0NIXVtDSDJdW0NIMl1bQ0gyXVtDSDJdMg==

> <s_epik_cmdline>
J2VwaWtfcHl0aG9uJywgJy1waCcsICc3LjAnLCAnLXRuJywgJzgnLCAnLW1hJywgJzIwMCcsICctbWV0YWxfYmluZGluZycsICctaW1hZScsICc8aW5maWxlLm1hZT4nLCAnLW9tYWUnLCAnPG91dGZpbGUubWFlPic=

> <r_lp_tautomer_probability>
1

> <r_epik_Ionization_Penalty>
3.01725e-08

> <r_epik_Ionization_Penalty_Charging>
1.20689e-08

> <r_epik_Ionization_Penalty_Neutral>
1.81035e-08

> <r_epik_State_Penalty>
-0

> <r_epik_Charging_Adjusted_Penalty>
1.20689e-08

> <i_epik_Tot_Q>
0

> <i_epik_Tot_abs_Q>
0

> <r_epik_Metal_State_Penalty>
-0

> <b_epik_Metal_Only>
0

> <s_lp_Force_Field>
OPLS_2005

> <r_lp_Energy>
16.2907

> <b_lp_Chiralities_Consistent>
1

> <s_lp_Variant>
AV-unprocessed.smi:2155-1

> <Gold.Version>
5.8.1

> <Gold.Id.Protein>
6NUR|6NUR_protein|mol2

> <Gold.PLP.Fitness>
45.9493

> <Gold.PLP.PLP>
-40.2652

> <Gold.PLP.part.hbond>
-2.0000

> <Gold.PLP.part.metal>
0.0000

> <Gold.PLP.part.buried>
-2.5677

> <Gold.PLP.part.nonpolar>
-35.8587

> <Gold.PLP.part.repulsive>
0.6993

> <Gold.PLP.ligand.clash>
0.0000

> <Gold.PLP.ligand.torsion>
0.6170

> <Gold.PLP.Chemscore.Hbond>
1.2880

> <Gold.PLP.Chemscore.CHOScore>
1.0000

> <Gold.PLP.Chemscore.Metal>
0.0000

> <Gold.Chemscore.Hbonds>
donor molecule, donor type, donor heavy atom, donor atom, acceptor molecule, acceptor atom, score
      L1  H    11    29       P1  7948  0.32
      P1  H  7997  8010       L1     4  1.00
      L1  C     6    26       P1  7948  1.00

> <Gold.PLP.Chemscore.Internal.Correction>
0.0541

> <Gold.Rescore>
     Score         DG    S(hbond)    S(metal)    S(lipo)     H(rot)  DE(clash)    DE(int)     intcor
     14.14     -14.67       1.54        0.00      77.04       1.94       0.04       0.49       ----

> <Gold.Chemscore.Fitness>
14.1430

> <Gold.Chemscore.DG>
-14.6726

> <Gold.Chemscore.ZeroCoef>
-5.4800

> <Gold.Chemscore.Hbond>
1.5398

> <Gold.Chemscore.Metal>
0.0000

> <Gold.Chemscore.Lipo>
77.0384

> <Gold.Chemscore.Internal_Hbond>
0.0000

> <Gold.Chemscore.DEClash>
0.0383

> <Gold.Chemscore.DEInternal>
0.4913

> <Gold.Chemscore.Rot>
1.9390

> <Gold.Chemscore.Internal.Correction>
   9.000000E+99

> <Gold.Chemscore.Hbonds>
donor molecule, donor type, donor heavy atom, donor atom, acceptor molecule, acceptor atom, score
      L1  H    11    29       P1  7948  0.31
      P1  H  7997  8010       L1     4  1.00

> <Gold.Chemscore.Hbond.Weighted>
-5.1431

> <Gold.Chemscore.Metal.Weighted>
-0.0000

> <Gold.Chemscore.Lipo.Weighted>
-9.0135

> <Gold.Chemscore.Internal_Hbond.Weighted>
0.0000

> <Gold.Chemscore.DEClash.Weighted>
0.0383

> <Gold.Chemscore.DEInternal.Weighted>
0.4913

> <Gold.Chemscore.Rot.Weighted>
4.9639

> <Gold.Chemscore.Internal.Correction.Weighted>
   9.000000E+99

> <Gold.Protein.RotatedTorsions>
[ 6907 6896 6895 6894 ] final  166.67 input  -60.11 | X-H torsion
[ 7974 7965 7964 7962 ] final -177.22 input  175.53 | X-H torsion
[ 8008 7997 7996 7995 ] final   73.09 input   59.86 | X-H torsion
[ 10167 10162 10161 10158 ] final  -24.97 input  -65.29 | X-H torsion
[ 10718 10713 10712 10709 ] final -144.87 input   66.30 | X-H torsion
[ 10763 10752 10751 10750 ] final  -91.31 input  -60.55 | X-H torsion
[ 11005 11000 10999 10996 ] final    4.20 input  -57.11 | X-H torsion

> <Gold.Protein.ActiveResidues>
 VAL166  LYS551  ARG553  GLY616  TRP617  ASP618  TYR619  PRO620  LYS621  CYS622 
 ASP623  PHE694  ASN695  SER759  ASP760  ASP761  ALA762  ILE779  LEU786  VAL792 
 PHE793  MET794  SER795  GLU796  ALA797  LYS798  CYS799  TRP800  GLU811  SER814 

> <Gold.Protein.RotatedAtoms>
  151.8753  133.3484  159.3747 H   0  0  0  0  0  0  0  0  0  0  0  0  # atno 6907 bound_to 6896
  150.7142  134.5073  159.5599 H   0  0  0  0  0  0  0  0  0  0  0  0  # atno 6908 bound_to 6896
  152.2613  134.8031  160.0481 H   0  0  0  0  0  0  0  0  0  0  0  0  # atno 6909 bound_to 6896
  144.7127  140.1052  143.6414 H   0  0  0  0  0  0  0  0  0  0  0  0  # atno 7974 bound_to 7965
  155.7785  140.3482  155.5284 H   0  0  0  0  0  0  0  0  0  0  0  0  # atno 8008 bound_to 7997
  155.8752  140.0993  157.1544 H   0  0  0  0  0  0  0  0  0  0  0  0  # atno 8009 bound_to 7997
  154.4020  140.1333  156.4115 H   0  0  0  0  0  0  0  0  0  0  0  0  # atno 8010 bound_to 7997
  140.7287  143.4306  151.0807 H   0  0  0  0  0  0  0  0  0  0  0  0  # atno 10167 bound_to 10162
  156.3754  130.7809  151.1995 H   0  0  0  0  0  0  0  0  0  0  0  0  # atno 10718 bound_to 10713
  154.6748  135.5272  153.8185 H   0  0  0  0  0  0  0  0  0  0  0  0  # atno 10763 bound_to 10752
  153.0525  135.6538  154.0669 H   0  0  0  0  0  0  0  0  0  0  0  0  # atno 10764 bound_to 10752
  154.0563  135.2965  155.3312 H   0  0  0  0  0  0  0  0  0  0  0  0  # atno 10765 bound_to 10752
  140.5845  133.9981  155.8062 H   0  0  0  0  0  0  0  0  0  0  0  0  # atno 11005 bound_to 11000
  145.9503  139.2729  143.1216 LP  0  0  0  0  0  0  0  0  0  0  0  0  # atno 17320 bound_to 7965
  145.9330  140.9035  143.0346 LP  0  0  0  0  0  0  0  0  0  0  0  0  # atno 17321 bound_to 7965
  139.7963  143.8147  152.3158 LP  0  0  0  0  0  0  0  0  0  0  0  0  # atno 17342 bound_to 10162
  139.8148  144.7320  150.9649 LP  0  0  0  0  0  0  0  0  0  0  0  0  # atno 17343 bound_to 10162
  157.7488  131.0360  150.4388 LP  0  0  0  0  0  0  0  0  0  0  0  0  # atno 17370 bound_to 10713
  156.4622  130.4034  149.6569 LP  0  0  0  0  0  0  0  0  0  0  0  0  # atno 17371 bound_to 10713
  141.0975  133.9821  157.3136 LP  0  0  0  0  0  0  0  0  0  0  0  0  # atno 17394 bound_to 11000
  139.9302  135.0200  156.8373 LP  0  0  0  0  0  0  0  0  0  0  0  0  # atno 17395 bound_to 11000

$$$$
