#       Name:                AV-unprocessed.smi:786
#       Creating user name   scv26
#       Creation time:       Fri Mar 27 01:14:55 2020


#       File generated by GOLD software.
#

@<TRIPOS>MOLECULE
AV-unprocessed.smi:786
    43    44     1
SMALL
NO_CHARGES


@<TRIPOS>ATOM
      1 ****        -2.8278  -0.4262   2.0534 O.2            1 S1                 0.0000
      2 ****        -1.7829   0.0774   1.1496 S.o2           1 S1                 0.0000
      3 ****        -1.7436  -0.3622  -0.2535 O.2            1 S1                 0.0000
      4 ****        -1.7590   1.9259   1.2369 C.3            1 S1                 0.0000
      5 ****        -1.2585   2.5925  -0.0606 C.3            1 S1                 0.0000
      6 ****        -0.7498   4.0194   0.2032 C.3            1 S1                 0.0000
      7 ****        -0.3030   4.6932  -1.1047 C.3            1 S1                 0.0000
      8 ****        -1.3764   4.7022  -2.0389 O.3            1 S1                 0.0000
      9 ****        -1.8076   3.3948  -2.3999 C.3            1 S1                 0.0000
     10 ****        -2.3359   2.6546  -1.1604 C.3            1 S1                 0.0000
     11 ****        -0.2679  -0.3367   1.8685 N.3            1 S1                 0.0000
     12 ****         0.2912  -1.6639   1.6097 C.3            1 S1                 0.0000
     13 ****         1.2085  -1.6433   0.3767 C.3            1 S1                 0.0000
     14 ****         1.7803  -3.0128   0.0655 C.ar           1 S1                 0.0000
     15 ****         1.2385  -3.8390  -0.9429 C.ar           1 S1                 0.0000
     16 ****         1.8124  -5.1057  -1.1784 C.ar           1 S1                 0.0000
     17 ****         2.9144  -5.5194  -0.4014 C.ar           1 S1                 0.0000
     18 ****         3.4142  -4.6549   0.5939 C.ar           1 S1                 0.0000
     19 ****         2.8368  -3.4489   0.7893 N.pl3          1 S1                 1.0000
     20 ****        -2.7692   2.2658   1.4665 H              1 S1                 0.0000
     21 ****        -1.1371   2.2023   2.0885 H              1 S1                 0.0000
     22 ****        -0.4128   2.0130  -0.4339 H              1 S1                 0.0000
     23 ****        -1.5386   4.6147   0.6650 H              1 S1                 0.0000
     24 ****         0.0810   4.0006   0.9092 H              1 S1                 0.0000
     25 ****         0.0024   5.7214  -0.9104 H              1 S1                 0.0000
     26 ****         0.5602   4.1804  -1.5317 H              1 S1                 0.0000
     27 ****        -2.5949   3.4794  -3.1491 H              1 S1                 0.0000
     28 ****        -0.9868   2.8441  -2.8618 H              1 S1                 0.0000
     29 ****        -2.6665   1.6578  -1.4477 H              1 S1                 0.0000
     30 ****        -3.2186   3.1730  -0.7838 H              1 S1                 0.0000
     31 ****        -0.2774  -0.1354   2.8684 H              1 S1                 0.0000
     32 ****         0.8552  -1.9787   2.4880 H              1 S1                 0.0000
     33 ****        -0.5212  -2.3804   1.4806 H              1 S1                 0.0000
     34 ****         0.6690  -1.2831  -0.4992 H              1 S1                 0.0000
     35 ****         2.0309  -0.9443   0.5355 H              1 S1                 0.0000
     36 ****         0.3924  -3.5086  -1.5283 H              1 S1                 0.0000
     37 ****         1.4114  -5.7519  -1.9455 H              1 S1                 0.0000
     38 ****         3.3688  -6.4857  -0.5662 H              1 S1                 0.0000
     39 ****         4.2515  -4.8900   1.2346 H              1 S1                 0.0000
     40 ****         3.2149  -2.8399   1.5153 H              1 S1                 0.0000
     41 ****        -1.0762   5.1786  -2.8652 LP             1 S1                 0.0000
     42 ****        -2.1481   5.1921  -1.6334 LP             1 S1                 0.0000
     43 ****         0.3700   0.2576   1.3787 LP             1 S1                 0.0000
@<TRIPOS>BOND
    1    1    2 2     
    2    2    3 2     
    3    2    4 1     
    4    2   11 1     
    5    4    5 1     
    6    4   20 1     
    7    4   21 1     
    8    5   10 1     
    9    5    6 1     
   10    5   22 1     
   11    6    7 1     
   12    6   23 1     
   13    6   24 1     
   14    7    8 1     
   15    7   25 1     
   16    7   26 1     
   17    8    9 1     
   18    9   10 1     
   19    9   27 1     
   20    9   28 1     
   21   10   29 1     
   22   10   30 1     
   23   11   12 1     
   24   11   31 1     
   25   12   13 1     
   26   12   32 1     
   27   12   33 1     
   28   13   14 1     
   29   13   34 1     
   30   13   35 1     
   31   14   19 ar    
   32   14   15 ar    
   33   15   16 ar    
   34   15   36 1     
   35   16   17 ar    
   36   16   37 1     
   37   17   18 ar    
   38   17   38 1     
   39   18   19 ar    
   40   18   39 1     
   41   19   40 1     
   42    8   41 1     
   43    8   42 1     
   44   11   43 1     
@<TRIPOS>SUBSTRUCTURE
      1 S1             1
@<TRIPOS>SET
LONE_PAIRS      STATIC     ATOMS    <user>   **** ""
5 1 3 41 42 43
DONOR_HYDROGENS      STATIC     ATOMS    <user>   **** ""
2 31 40
ATOM$BLUE        STATIC     ATOMS    COLORGROUP SYSTEM
5 1 3 41 42 43
ATOM$RED        STATIC     ATOMS    COLORGROUP SYSTEM
2 31 40
