AV-unprocessed.smi:1911|AV-procd|sdf|7744|dock3
  -GOLD-   22720 9483D 1   1.00000     0.00000
 Structure written by MMmdl.
 51 53  0  0  0  0  0  0  0  0  3 V2000
  142.8924  132.0568  149.3373 N   0  5  0  0  0  0  0  0  0  0  0  0
  144.0385  132.3910  149.9640 C   0  0  0  0  0  0  0  0  0  0  0  0
  145.1902  132.2439  149.5616 O   0  0  0  0  0  0  0  0  0  0  0  0
  143.7898  133.0254  151.3369 C   0  0  0  0  0  0  0  0  0  0  0  0
  144.7178  134.1615  151.5702 N   0  3  2  0  0  0  0  0  0  0  0  0
  144.5990  134.7159  152.9422 C   0  0  0  0  0  0  0  0  0  0  0  0
  145.6679  135.7904  153.2032 C   0  0  0  0  0  0  0  0  0  0  0  0
  145.5876  136.9149  152.1591 C   0  0  1  0  0  0  0  0  0  0  0  0
  146.6560  137.8843  152.3863 N   0  0  0  0  0  0  0  0  0  0  0  0
  147.0029  138.3821  153.5821 C   0  0  0  0  0  0  0  0  0  0  0  0
  146.4289  138.0887  154.6306 O   0  0  0  0  0  0  0  0  0  0  0  0
  148.0286  139.2441  153.4727 N   0  0  0  0  0  0  0  0  0  0  0  0
  148.7241  139.9232  154.5097 C   0  0  0  0  0  0  0  0  0  0  0  0
  148.6761  139.3809  155.8086 C   0  0  0  0  0  0  0  0  0  0  0  0
  149.3378  140.0455  156.8584 C   0  0  0  0  0  0  0  0  0  0  0  0
  150.0294  141.2487  156.5820 C   0  0  0  0  0  0  0  0  0  0  0  0
  150.7000  141.9549  157.6003 N   0  0  0  0  0  0  0  0  0  0  0  0
  151.3423  141.2892  158.7215 C   0  0  0  0  0  0  0  0  0  0  0  0
  152.0224  142.4137  159.5021 C   0  0  0  0  0  0  0  0  0  0  0  0
  152.3826  143.4269  158.4154 C   0  0  0  0  0  0  0  0  0  0  0  0
  151.2525  143.2870  157.3898 C   0  0  0  0  0  0  0  0  0  0  0  0
  150.0608  141.7803  155.3373 N   0  0  0  0  0  0  0  0  0  0  0  0
  149.4269  141.1388  154.3333 C   0  0  0  0  0  0  0  0  0  0  0  0
  145.6844  136.3118  150.7466 C   0  0  0  0  0  0  0  0  0  0  0  0
  144.6171  135.2250  150.5344 C   0  0  0  0  0  0  0  0  0  0  0  0
  142.1171  132.7305  149.3380 H   0  0  0  0  0  0  0  0  0  0  0  0
  142.7536  133.3550  151.4282 H   0  0  0  0  0  0  0  0  0  0  0  0
  143.9372  132.2518  152.0926 H   0  0  0  0  0  0  0  0  0  0  0  0
  143.6006  135.1339  153.0813 H   0  0  0  0  0  0  0  0  0  0  0  0
  144.7130  133.9146  153.6732 H   0  0  0  0  0  0  0  0  0  0  0  0
  145.5406  136.1999  154.2059 H   0  0  0  0  0  0  0  0  0  0  0  0
  146.6567  135.3297  153.1796 H   0  0  0  0  0  0  0  0  0  0  0  0
  144.6213  137.4114  152.2686 H   0  0  0  0  0  0  0  0  0  0  0  0
  147.1754  138.1892  151.5758 H   0  0  0  0  0  0  0  0  0  0  0  0
  148.3294  139.4633  152.5344 H   0  0  0  0  0  0  0  0  0  0  0  0
  148.1406  138.4629  156.0028 H   0  0  0  0  0  0  0  0  0  0  0  0
  149.3022  139.6260  157.8525 H   0  0  0  0  0  0  0  0  0  0  0  0
  150.6227  140.7522  159.3401 H   0  0  0  0  0  0  0  0  0  0  0  0
  152.0798  140.5780  158.3467 H   0  0  0  0  0  0  0  0  0  0  0  0
  151.3122  142.8612  160.1986 H   0  0  0  0  0  0  0  0  0  0  0  0
  152.8860  142.0722  160.0730 H   0  0  0  0  0  0  0  0  0  0  0  0
  152.4855  144.4432  158.7961 H   0  0  0  0  0  0  0  0  0  0  0  0
  153.3304  143.1442  157.9553 H   0  0  0  0  0  0  0  0  0  0  0  0
  151.6254  143.4287  156.3746 H   0  0  0  0  0  0  0  0  0  0  0  0
  150.4699  144.0239  157.5728 H   0  0  0  0  0  0  0  0  0  0  0  0
  149.4761  141.6388  153.3788 H   0  0  0  0  0  0  0  0  0  0  0  0
  145.5663  137.0923  149.9939 H   0  0  0  0  0  0  0  0  0  0  0  0
  146.6751  135.8812  150.5926 H   0  0  0  0  0  0  0  0  0  0  0  0
  144.7402  134.7947  149.5402 H   0  0  0  0  0  0  0  0  0  0  0  0
  143.6208  135.6687  150.5637 H   0  0  0  0  0  0  0  0  0  0  0  0
  145.6449  133.7649  151.4997 H   0  0  0  0  0  0  0  0  0  0  0  0
  1  2  1  0  0  0  0
  1 26  1  0  0  0  0
  2  3  2  0  0  0  0
  2  4  1  0  0  0  0
  4  5  1  0  0  0  0
  4 27  1  0  0  0  0
  4 28  1  0  0  0  0
  5 25  1  0  0  0  0
  5  6  1  0  0  0  0
  5 51  1  0  0  0  0
  6  7  1  0  0  0  0
  6 29  1  0  0  0  0
  6 30  1  0  0  0  0
  7  8  1  0  0  0  0
  7 31  1  0  0  0  0
  7 32  1  0  0  0  0
  8  9  1  0  0  0  0
  8 24  1  0  0  0  0
  8 33  1  0  0  0  0
  9 10  1  0  0  0  0
  9 34  1  0  0  0  0
 10 11  2  0  0  0  0
 10 12  1  0  0  0  0
 12 13  1  0  0  0  0
 12 35  1  0  0  0  0
 13 23  1  0  0  0  0
 13 14  2  0  0  0  0
 14 15  1  0  0  0  0
 14 36  1  0  0  0  0
 15 16  2  0  0  0  0
 15 37  1  0  0  0  0
 16 17  1  0  0  0  0
 16 22  1  0  0  0  0
 17 21  1  0  0  0  0
 17 18  1  0  0  0  0
 18 19  1  0  0  0  0
 18 38  1  0  0  0  0
 18 39  1  0  0  0  0
 19 20  1  0  0  0  0
 19 40  1  0  0  0  0
 19 41  1  0  0  0  0
 20 21  1  0  0  0  0
 20 42  1  0  0  0  0
 20 43  1  0  0  0  0
 21 44  1  0  0  0  0
 21 45  1  0  0  0  0
 22 23  2  0  0  0  0
 23 46  1  0  0  0  0
 24 25  1  0  0  0  0
 24 47  1  0  0  0  0
 24 48  1  0  0  0  0
 25 49  1  0  0  0  0
 25 50  1  0  0  0  0
M  CHG  1   1  -1
M  CHG  1   5   1
M  END
> <s_m_source_file>
AV-unprocessed.smi

> <i_m_source_file_index>
1911

> <i_lp_mmshare_version>
43012

> <i_f3d_flags>
0

> <s_epik_input>
W05IMl1DKD1PKVtDSDJdTjFbQ0gyXVtDSDJdW0NIXShbQ0gyXVtDSDJdMSlbTkhdQyg9TylbTkhdYzJbY0hdW2NIXWMobltjSF0yKU4zW0NIMl1bQ0gyXVtDSDJdW0NIMl0z

> <s_epik_cmdline>
J2VwaWtfcHl0aG9uJywgJy1waCcsICc3LjAnLCAnLXRuJywgJzgnLCAnLW1hJywgJzIwMCcsICctbWV0YWxfYmluZGluZycsICctaW1hZScsICc8aW5maWxlLm1hZT4nLCAnLW9tYWUnLCAnPG91dGZpbGUubWFlPic=

> <r_lp_tautomer_probability>
1

> <r_epik_Ionization_Penalty>
5.80652

> <r_epik_Ionization_Penalty_Charging>
5.7288

> <r_epik_Ionization_Penalty_Neutral>
0.0777157

> <r_epik_State_Penalty>
6.60246

> <r_epik_Charging_Adjusted_Penalty>
12.3313

> <i_epik_Tot_Q>
0

> <i_epik_Tot_abs_Q>
2

> <r_epik_Metal_State_Penalty>
2.64988

> <b_epik_Metal_Only>
1

> <s_lp_Force_Field>
OPLS_2005

> <r_lp_Energy>
33.5559

> <b_lp_Chiralities_Consistent>
1

> <s_lp_Variant>
AV-unprocessed.smi:1911-7

> <Gold.Version>
5.8.1

> <Gold.Id.Protein>
6NUR|6NUR_protein|mol2

> <Gold.PLP.Fitness>
52.0433

> <Gold.PLP.PLP>
-43.0258

> <Gold.PLP.part.hbond>
-5.6609

> <Gold.PLP.part.metal>
0.0000

> <Gold.PLP.part.buried>
-4.0956

> <Gold.PLP.part.nonpolar>
-33.9863

> <Gold.PLP.part.repulsive>
0.4731

> <Gold.PLP.ligand.clash>
0.0000

> <Gold.PLP.ligand.torsion>
0.8124

> <Gold.PLP.Chemscore.Hbond>
2.9913

> <Gold.PLP.Chemscore.CHOScore>
0.5019

> <Gold.PLP.Chemscore.Metal>
0.0000

> <Gold.Chemscore.Hbonds>
donor molecule, donor type, donor heavy atom, donor atom, acceptor molecule, acceptor atom, score
      L1  H     1    26       P1 10186  1.00
      L1  H    12    35       P1  7957  1.00
      P1  H 10785 10796       L1     1  1.00
      L1  C    23    46       P1  7957  0.39

> <Gold.PLP.Chemscore.Internal.Correction>
0.1629

> <Gold.Rescore>
     Score         DG    S(hbond)    S(metal)    S(lipo)     H(rot)  DE(clash)    DE(int)     intcor
     15.26     -19.45       2.53        0.00      88.39       1.88       0.44       3.75       ----

> <Gold.Chemscore.Fitness>
15.2614

> <Gold.Chemscore.DG>
-19.4540

> <Gold.Chemscore.ZeroCoef>
-5.4800

> <Gold.Chemscore.Hbond>
2.5280

> <Gold.Chemscore.Metal>
0.0000

> <Gold.Chemscore.Lipo>
88.3871

> <Gold.Chemscore.Internal_Hbond>
0.0000

> <Gold.Chemscore.DEClash>
0.4450

> <Gold.Chemscore.DEInternal>
3.7476

> <Gold.Chemscore.Rot>
1.8793

> <Gold.Chemscore.Internal.Correction>
   9.000000E+99

> <Gold.Chemscore.Hbonds>
donor molecule, donor type, donor heavy atom, donor atom, acceptor molecule, acceptor atom, score
      L1  H     1    26       P1 10186  0.94
      L1  H    12    35       P1  7957  0.97
      P1  H 10785 10796       L1     1  0.42

> <Gold.Chemscore.Hbond.Weighted>
-8.4436

> <Gold.Chemscore.Metal.Weighted>
-0.0000

> <Gold.Chemscore.Lipo.Weighted>
-10.3413

> <Gold.Chemscore.Internal_Hbond.Weighted>
0.0000

> <Gold.Chemscore.DEClash.Weighted>
0.4450

> <Gold.Chemscore.DEInternal.Weighted>
3.7476

> <Gold.Chemscore.Rot.Weighted>
4.8109

> <Gold.Chemscore.Internal.Correction.Weighted>
   9.000000E+99

> <Gold.Protein.RotatedTorsions>
[ 6907 6896 6895 6894 ] final  144.89 input  -60.11 | X-H torsion
[ 7974 7965 7964 7962 ] final   23.19 input  175.53 | X-H torsion
[ 8008 7997 7996 7995 ] final  112.48 input   59.86 | X-H torsion
[ 10167 10162 10161 10158 ] final  -39.22 input  -65.29 | X-H torsion
[ 10718 10713 10712 10709 ] final -141.39 input   66.30 | X-H torsion
[ 10763 10752 10751 10750 ] final   60.93 input  -60.55 | X-H torsion
[ 11005 11000 10999 10996 ] final  112.15 input  -57.11 | X-H torsion

> <Gold.Protein.ActiveResidues>
 VAL166  LYS551  ARG553  GLY616  TRP617  ASP618  TYR619  PRO620  LYS621  CYS622 
 ASP623  PHE694  ASN695  SER759  ASP760  ASP761  ALA762  ILE779  LEU786  VAL792 
 PHE793  MET794  SER795  GLU796  ALA797  LYS798  CYS799  TRP800  GLU811  SER814 

> <Gold.Protein.RotatedAtoms>
  152.1878  133.4752  159.4991 H   0  0  0  0  0  0  0  0  0  0  0  0  # atno 6907 bound_to 6896
  150.6945  134.1751  159.4236 H   0  0  0  0  0  0  0  0  0  0  0  0  # atno 6908 bound_to 6896
  151.9664  135.0098  160.0601 H   0  0  0  0  0  0  0  0  0  0  0  0  # atno 6909 bound_to 6896
  146.1995  139.7779  142.8772 H   0  0  0  0  0  0  0  0  0  0  0  0  # atno 7974 bound_to 7965
  156.2195  140.2998  155.9919 H   0  0  0  0  0  0  0  0  0  0  0  0  # atno 8008 bound_to 7997
  155.2518  140.0426  157.3004 H   0  0  0  0  0  0  0  0  0  0  0  0  # atno 8009 bound_to 7997
  154.5819  140.2377  155.8050 H   0  0  0  0  0  0  0  0  0  0  0  0  # atno 8010 bound_to 7997
  140.7070  143.3228  151.2752 H   0  0  0  0  0  0  0  0  0  0  0  0  # atno 10167 bound_to 10162
  156.3335  130.7599  151.1721 H   0  0  0  0  0  0  0  0  0  0  0  0  # atno 10718 bound_to 10713
  152.9935  135.5518  154.5953 H   0  0  0  0  0  0  0  0  0  0  0  0  # atno 10763 bound_to 10752
  154.5306  135.2813  155.1185 H   0  0  0  0  0  0  0  0  0  0  0  0  # atno 10764 bound_to 10752
  154.2502  135.6400  153.5290 H   0  0  0  0  0  0  0  0  0  0  0  0  # atno 10765 bound_to 10752
  139.8920  134.9523  156.6541 H   0  0  0  0  0  0  0  0  0  0  0  0  # atno 11005 bound_to 11000
  145.3531  141.0311  143.3327 LP  0  0  0  0  0  0  0  0  0  0  0  0  # atno 17320 bound_to 7965
  144.8653  139.5117  143.6793 LP  0  0  0  0  0  0  0  0  0  0  0  0  # atno 17321 bound_to 7965
  139.6687  144.0059  152.2739 LP  0  0  0  0  0  0  0  0  0  0  0  0  # atno 17342 bound_to 10162
  139.9651  144.6532  150.8043 LP  0  0  0  0  0  0  0  0  0  0  0  0  # atno 17343 bound_to 10162
  157.7434  131.0474  150.4945 LP  0  0  0  0  0  0  0  0  0  0  0  0  # atno 17370 bound_to 10713
  156.5114  130.4140  149.6299 LP  0  0  0  0  0  0  0  0  0  0  0  0  # atno 17371 bound_to 10713
  140.7497  133.8907  155.8338 LP  0  0  0  0  0  0  0  0  0  0  0  0  # atno 17394 bound_to 11000
  141.0010  134.1150  157.4317 LP  0  0  0  0  0  0  0  0  0  0  0  0  # atno 17395 bound_to 11000

$$$$
