AV-unprocessed.smi:1302|AV-procd|sdf|5426|dock10
  -GOLD-   22720 4583D 1   1.00000     0.00000
 Structure written by MMmdl.
 43 44  0  0  0  0  0  0  0  0  1 V2000
  154.3063  135.2128  164.2244 C   0  0  0  0  0  0  0  0  0  0  0  0
  155.1915  135.5233  163.0094 C   0  0  0  0  0  0  0  0  0  0  0  0
  156.6474  135.7878  163.4154 C   0  0  0  0  0  0  0  0  0  0  0  0
  154.6630  136.6858  162.3011 N   0  0  0  0  0  0  0  0  0  0  0  0
  154.2397  136.7076  161.0260 C   0  0  0  0  0  0  0  0  0  0  0  0
  154.2810  135.7352  160.2722 O   0  0  0  0  0  0  0  0  0  0  0  0
  153.7557  138.0394  160.5318 C   0  0  0  0  0  0  0  0  0  0  0  0
  154.3755  139.2334  160.9590 C   0  0  0  0  0  0  0  0  0  0  0  0
  153.9087  140.4640  160.4582 C   0  0  0  0  0  0  0  0  0  0  0  0
  152.8448  140.4607  159.5329 C   0  0  0  0  0  0  0  0  0  0  0  0
  152.3738  141.6836  159.0353 N   0  0  0  0  0  0  0  0  0  0  0  0
  152.2994  142.7235  160.0512 C   0  0  0  0  0  0  0  0  0  0  0  0
  151.9513  144.0747  159.4004 C   0  0  2  0  0  0  0  0  0  0  0  0
  151.7386  145.1739  160.4464 C   0  0  0  0  0  0  0  0  0  0  0  0
  150.7465  143.9457  158.6441 O   0  0  0  0  0  0  0  0  0  0  0  0
  150.7741  142.9329  157.6346 C   0  0  1  0  0  0  0  0  0  0  0  0
  151.6695  143.3228  156.4446 C   0  0  0  0  0  0  0  0  0  0  0  0
  151.1424  141.5746  158.2631 C   0  0  0  0  0  0  0  0  0  0  0  0
  152.2516  139.3199  159.1081 N   0  0  0  0  0  0  0  0  0  0  0  0
  152.7014  138.1440  159.5958 C   0  0  0  0  0  0  0  0  0  0  0  0
  154.6765  134.3417  164.7657 H   0  0  0  0  0  0  0  0  0  0  0  0
  153.2812  134.9995  163.9196 H   0  0  0  0  0  0  0  0  0  0  0  0
  154.2795  136.0512  164.9214 H   0  0  0  0  0  0  0  0  0  0  0  0
  155.1859  134.6496  162.3559 H   0  0  0  0  0  0  0  0  0  0  0  0
  157.0692  134.9297  163.9393 H   0  0  0  0  0  0  0  0  0  0  0  0
  156.7263  136.6526  164.0752 H   0  0  0  0  0  0  0  0  0  0  0  0
  157.2703  135.9769  162.5403 H   0  0  0  0  0  0  0  0  0  0  0  0
  154.6111  137.5466  162.8263 H   0  0  0  0  0  0  0  0  0  0  0  0
  155.1929  139.2144  161.6652 H   0  0  0  0  0  0  0  0  0  0  0  0
  154.3618  141.3912  160.7777 H   0  0  0  0  0  0  0  0  0  0  0  0
  151.5423  142.4571  160.7906 H   0  0  0  0  0  0  0  0  0  0  0  0
  153.2528  142.7945  160.5762 H   0  0  0  0  0  0  0  0  0  0  0  0
  152.7645  144.3852  158.7437 H   0  0  0  0  0  0  0  0  0  0  0  0
  152.6341  145.3199  161.0510 H   0  0  0  0  0  0  0  0  0  0  0  0
  150.9175  144.9245  161.1190 H   0  0  0  0  0  0  0  0  0  0  0  0
  151.5011  146.1249  159.9693 H   0  0  0  0  0  0  0  0  0  0  0  0
  149.7563  142.8565  157.2512 H   0  0  0  0  0  0  0  0  0  0  0  0
  151.5773  142.5953  155.6381 H   0  0  0  0  0  0  0  0  0  0  0  0
  152.7237  143.3702  156.7168 H   0  0  0  0  0  0  0  0  0  0  0  0
  151.3826  144.2955  156.0449 H   0  0  0  0  0  0  0  0  0  0  0  0
  151.2504  140.8130  157.4897 H   0  0  0  0  0  0  0  0  0  0  0  0
  150.3336  141.2496  158.9192 H   0  0  0  0  0  0  0  0  0  0  0  0
  152.2018  137.2640  159.2176 H   0  0  0  0  0  0  0  0  0  0  0  0
  1  2  1  0  0  0  0
  1 21  1  0  0  0  0
  1 22  1  0  0  0  0
  1 23  1  0  0  0  0
  2  3  1  0  0  0  0
  2  4  1  0  0  0  0
  2 24  1  0  0  0  0
  3 25  1  0  0  0  0
  3 26  1  0  0  0  0
  3 27  1  0  0  0  0
  4  5  1  0  0  0  0
  4 28  1  0  0  0  0
  5  6  2  0  0  0  0
  5  7  1  0  0  0  0
  7 20  1  0  0  0  0
  7  8  2  0  0  0  0
  8  9  1  0  0  0  0
  8 29  1  0  0  0  0
  9 10  2  0  0  0  0
  9 30  1  0  0  0  0
 10 11  1  0  0  0  0
 10 19  1  0  0  0  0
 11 18  1  0  0  0  0
 11 12  1  0  0  0  0
 12 13  1  0  0  0  0
 12 31  1  0  0  0  0
 12 32  1  0  0  0  0
 13 14  1  0  0  0  0
 13 15  1  0  0  0  0
 13 33  1  0  0  0  0
 14 34  1  0  0  0  0
 14 35  1  0  0  0  0
 14 36  1  0  0  0  0
 15 16  1  0  0  0  0
 16 17  1  0  0  0  0
 16 18  1  0  0  0  0
 16 37  1  0  0  0  0
 17 38  1  0  0  0  0
 17 39  1  0  0  0  0
 17 40  1  0  0  0  0
 18 41  1  0  0  0  0
 18 42  1  0  0  0  0
 19 20  2  0  0  0  0
 20 43  1  0  0  0  0
M  END
> <s_m_source_file>
AV-unprocessed.smi

> <i_m_source_file_index>
1302

> <i_lp_mmshare_version>
43012

> <i_f3d_flags>
0

> <s_epik_input>
W0NIM11bQ0hdKFtDSDNdKVtOSF1DKD1PKWMxW2NIXVtjSF1jKG5bY0hdMSlOMltDSDJdW0NAQEhdKFtDSDNdKU9bQ0BASF0oW0NIM10pW0NIMl0y

> <s_epik_cmdline>
J2VwaWtfcHl0aG9uJywgJy1waCcsICc3LjAnLCAnLXRuJywgJzgnLCAnLW1hJywgJzIwMCcsICctbWV0YWxfYmluZGluZycsICctaW1hZScsICc8aW5maWxlLm1hZT4nLCAnLW9tYWUnLCAnPG91dGZpbGUubWFlPic=

> <r_lp_tautomer_probability>
1

> <r_epik_Ionization_Penalty>
2.23089e-05

> <r_epik_Ionization_Penalty_Charging>
0

> <r_epik_Ionization_Penalty_Neutral>
2.23089e-05

> <r_epik_State_Penalty>
-0

> <r_epik_Charging_Adjusted_Penalty>
0

> <i_epik_Tot_Q>
0

> <i_epik_Tot_abs_Q>
0

> <r_epik_Metal_State_Penalty>
-0

> <b_epik_Metal_Only>
0

> <s_lp_Force_Field>
OPLS_2005

> <r_lp_Energy>
23.1748

> <b_lp_Chiralities_Consistent>
1

> <s_lp_Variant>
AV-unprocessed.smi:1302-2

> <Gold.Version>
5.8.1

> <Gold.Id.Protein>
6NUR|6NUR_protein|mol2

> <Gold.PLP.Fitness>
35.2174

> <Gold.PLP.PLP>
-33.8600

> <Gold.PLP.part.hbond>
-1.0000

> <Gold.PLP.part.metal>
0.0000

> <Gold.PLP.part.buried>
-4.6186

> <Gold.PLP.part.nonpolar>
-27.4691

> <Gold.PLP.part.repulsive>
0.1587

> <Gold.PLP.ligand.clash>
0.0000

> <Gold.PLP.ligand.torsion>
0.8754

> <Gold.PLP.Chemscore.Hbond>
1.0000

> <Gold.PLP.Chemscore.CHOScore>
0.0000

> <Gold.PLP.Chemscore.Metal>
0.0000

> <Gold.Chemscore.Hbonds>
donor molecule, donor type, donor heavy atom, donor atom, acceptor molecule, acceptor atom, score
      P1  H  6896  6908       L1     6  0.75

> <Gold.PLP.Chemscore.Internal.Correction>
0.1083

> <Gold.Rescore>
     Score         DG    S(hbond)    S(metal)    S(lipo)     H(rot)  DE(clash)    DE(int)     intcor
     16.54     -17.89       1.00        0.00     102.78       1.15       0.34       1.02       ----

> <Gold.Chemscore.Fitness>
16.5383

> <Gold.Chemscore.DG>
-17.8893

> <Gold.Chemscore.ZeroCoef>
-5.4800

> <Gold.Chemscore.Hbond>
0.9970

> <Gold.Chemscore.Metal>
0.0000

> <Gold.Chemscore.Lipo>
102.7818

> <Gold.Chemscore.Internal_Hbond>
0.0000

> <Gold.Chemscore.DEClash>
0.3355

> <Gold.Chemscore.DEInternal>
1.0156

> <Gold.Chemscore.Rot>
1.1508

> <Gold.Chemscore.Internal.Correction>
   9.000000E+99

> <Gold.Chemscore.Hbonds>
donor molecule, donor type, donor heavy atom, donor atom, acceptor molecule, acceptor atom, score
      P1  H  6896  6908       L1     6  0.71

> <Gold.Chemscore.Hbond.Weighted>
-3.3300

> <Gold.Chemscore.Metal.Weighted>
-0.0000

> <Gold.Chemscore.Lipo.Weighted>
-12.0255

> <Gold.Chemscore.Internal_Hbond.Weighted>
0.0000

> <Gold.Chemscore.DEClash.Weighted>
0.3355

> <Gold.Chemscore.DEInternal.Weighted>
1.0156

> <Gold.Chemscore.Rot.Weighted>
2.9461

> <Gold.Chemscore.Internal.Correction.Weighted>
   9.000000E+99

> <Gold.Protein.RotatedTorsions>
[ 6907 6896 6895 6894 ] final  -57.30 input  -60.11 | X-H torsion
[ 7974 7965 7964 7962 ] final   32.93 input  175.53 | X-H torsion
[ 8008 7997 7996 7995 ] final  -50.10 input   59.86 | X-H torsion
[ 10167 10162 10161 10158 ] final  121.77 input  -65.29 | X-H torsion
[ 10718 10713 10712 10709 ] final  -98.07 input   66.30 | X-H torsion
[ 10763 10752 10751 10750 ] final   86.56 input  -60.55 | X-H torsion
[ 11005 11000 10999 10996 ] final -121.85 input  -57.11 | X-H torsion

> <Gold.Protein.ActiveResidues>
 VAL166  LYS551  ARG553  GLY616  TRP617  ASP618  TYR619  PRO620  LYS621  CYS622 
 ASP623  PHE694  ASN695  SER759  ASP760  ASP761  ALA762  ILE779  LEU786  VAL792 
 PHE793  MET794  SER795  GLU796  ALA797  LYS798  CYS799  TRP800  GLU811  SER814 

> <Gold.Protein.RotatedAtoms>
  150.8097  134.7244  159.6676 H   0  0  0  0  0  0  0  0  0  0  0  0  # atno 6907 bound_to 6896
  152.4217  134.5940  159.9991 H   0  0  0  0  0  0  0  0  0  0  0  0  # atno 6908 bound_to 6896
  151.6153  133.3306  159.3112 H   0  0  0  0  0  0  0  0  0  0  0  0  # atno 6909 bound_to 6896
  146.1454  139.6463  142.9135 H   0  0  0  0  0  0  0  0  0  0  0  0  # atno 7974 bound_to 7965
  154.4056  140.1280  156.4611 H   0  0  0  0  0  0  0  0  0  0  0  0  # atno 8008 bound_to 7997
  155.7272  140.3492  155.5023 H   0  0  0  0  0  0  0  0  0  0  0  0  # atno 8009 bound_to 7997
  155.9160  140.1044  157.1233 H   0  0  0  0  0  0  0  0  0  0  0  0  # atno 8010 bound_to 7997
  139.5899  144.7021  151.3316 H   0  0  0  0  0  0  0  0  0  0  0  0  # atno 10167 bound_to 10162
  156.0098  130.5222  150.6468 H   0  0  0  0  0  0  0  0  0  0  0  0  # atno 10718 bound_to 10713
  153.1582  135.4576  154.9735 H   0  0  0  0  0  0  0  0  0  0  0  0  # atno 10763 bound_to 10752
  154.7878  135.3210  154.7850 H   0  0  0  0  0  0  0  0  0  0  0  0  # atno 10764 bound_to 10752
  153.8344  135.6935  153.4865 H   0  0  0  0  0  0  0  0  0  0  0  0  # atno 10765 bound_to 10752
  141.0040  134.0362  157.3501 H   0  0  0  0  0  0  0  0  0  0  0  0  # atno 11005 bound_to 11000
  145.4949  141.0438  143.2572 LP  0  0  0  0  0  0  0  0  0  0  0  0  # atno 17320 bound_to 7965
  144.7840  139.6465  143.7142 LP  0  0  0  0  0  0  0  0  0  0  0  0  # atno 17321 bound_to 7965
  140.7164  143.7255  150.7663 LP  0  0  0  0  0  0  0  0  0  0  0  0  # atno 17342 bound_to 10162
  140.0808  143.4970  152.2531 LP  0  0  0  0  0  0  0  0  0  0  0  0  # atno 17343 bound_to 10162
  157.4237  131.0840  151.1106 LP  0  0  0  0  0  0  0  0  0  0  0  0  # atno 17370 bound_to 10713
  157.1700  130.6263  149.5637 LP  0  0  0  0  0  0  0  0  0  0  0  0  # atno 17371 bound_to 10713
  139.9053  135.0177  156.7458 LP  0  0  0  0  0  0  0  0  0  0  0  0  # atno 17394 bound_to 11000
  140.6844  133.9446  155.7929 LP  0  0  0  0  0  0  0  0  0  0  0  0  # atno 17395 bound_to 11000

$$$$
