#       Name:                AV-unprocessed.smi:1277
#       Creating user name   scv26
#       Creation time:       Fri Mar 27 04:48:01 2020


#       File generated by GOLD software.
#

@<TRIPOS>MOLECULE
AV-unprocessed.smi:1277
    52    53     1
SMALL
NO_CHARGES


@<TRIPOS>ATOM
      1 ****        -5.9616   6.7005   0.1590 C.3            1 S1                 0.0000
      2 ****        -5.4714   5.3713   0.1714 O.3            1 S1                 0.0000
      3 ****        -4.0548   5.3157   0.1705 C.3            1 S1                 0.0000
      4 ****        -3.6121   3.8503   0.1807 C.3            1 S1                 0.0000
      5 ****        -2.1888   3.8033   0.1511 O.3            1 S1                 0.0000
      6 ****        -1.5701   2.5700   0.1442 C.ar           1 S1                 0.0000
      7 ****        -0.1626   2.5227   0.0962 C.ar           1 S1                 0.0000
      8 ****         0.4773   1.2685   0.0866 C.ar           1 S1                 0.0000
      9 ****        -0.3156   0.0971   0.1183 C.ar           1 S1                 0.0000
     10 ****         0.2145  -1.2202   0.1397 N.am           1 S1                 0.0000
     11 ****         1.4011  -1.6479  -0.3277 C.2            1 S1                 0.0000
     12 ****         2.2071  -0.9401  -0.9331 O.2            1 S1                 0.0000
     13 ****         1.6957  -3.1468  -0.1207 C.3            1 S1                 0.0000
     14 ****         1.3822  -3.9260  -1.4077 C.3            1 S1                 0.0000
     15 ****         2.3301  -5.1097  -1.3835 C.3            1 S1                 0.0000
     16 ****         3.5543  -4.6127  -0.6158 C.3            1 S1                 0.0000
     17 ****         3.1000  -3.4787   0.1940 N.am           1 S1                 0.0000
     18 ****         3.8685  -2.8834   1.1388 C.2            1 S1                 0.0000
     19 ****         5.3210  -3.3400   1.2954 C.3            1 S1                 0.0000
     20 ****         3.4496  -2.0004   1.8872 O.2            1 S1                 0.0000
     21 ****        -1.7155   0.2523   0.1819 C.ar           1 S1                 0.0000
     22 ****        -2.3352   1.4511   0.1888 N.ar           1 S1                 0.0000
     23 ****         1.0840  -3.5328   0.6971 H              1 S1                 0.0000
     24 ****        -7.0514   6.6889   0.1576 H              1 S1                 0.0000
     25 ****        -5.6298   7.2350  -0.7321 H              1 S1                 0.0000
     26 ****        -5.6317   7.2507   1.0412 H              1 S1                 0.0000
     27 ****        -3.6619   5.8168  -0.7155 H              1 S1                 0.0000
     28 ****        -3.6578   5.8316   1.0461 H              1 S1                 0.0000
     29 ****        -3.9920   3.3579   1.0775 H              1 S1                 0.0000
     30 ****        -4.0253   3.3367  -0.6891 H              1 S1                 0.0000
     31 ****         0.4177   3.4334   0.0720 H              1 S1                 0.0000
     32 ****         1.5557   1.2289   0.0717 H              1 S1                 0.0000
     33 ****        -0.3996  -1.9310   0.5099 H              1 S1                 0.0000
     34 ****         0.3373  -4.2332  -1.4649 H              1 S1                 0.0000
     35 ****         1.5962  -3.3256  -2.2940 H              1 S1                 0.0000
     36 ****         1.8656  -5.9274  -0.8308 H              1 S1                 0.0000
     37 ****         2.5749  -5.4800  -2.3794 H              1 S1                 0.0000
     38 ****         3.9808  -5.4125  -0.0087 H              1 S1                 0.0000
     39 ****         4.3193  -4.2683  -1.3129 H              1 S1                 0.0000
     40 ****         5.8565  -3.2657   0.3487 H              1 S1                 0.0000
     41 ****         5.3664  -4.3712   1.6456 H              1 S1                 0.0000
     42 ****         5.8426  -2.7172   2.0227 H              1 S1                 0.0000
     43 ****        -2.3615  -0.6126   0.2232 H              1 S1                 0.0000
     44 ****        -5.8116   4.8963  -0.6402 LP             1 S1                 0.0000
     45 ****        -5.8099   4.9122   0.9927 LP             1 S1                 0.0000
     46 ****        -1.8605   4.2936   0.9585 LP             1 S1                 0.0000
     47 ****        -1.8947   4.2856  -0.6741 LP             1 S1                 0.0000
     48 ****         1.9965   0.0221  -1.1058 LP             1 S1                 0.0000
     49 ****         3.0721  -1.3276  -1.2520 LP             1 S1                 0.0000
     50 ****         2.5015  -1.6909   1.8138 LP             1 S1                 0.0000
     51 ****         4.0574  -1.5925   2.5685 LP             1 S1                 0.0000
     52 ****        -3.3326   1.5128   0.2258 LP             1 S1                 0.0000
@<TRIPOS>BOND
    1    1    2 1     
    2    1   24 1     
    3    1   25 1     
    4    1   26 1     
    5    2    3 1     
    6    3    4 1     
    7    3   27 1     
    8    3   28 1     
    9    4    5 1     
   10    4   29 1     
   11    4   30 1     
   12    5    6 1     
   13    6   22 ar    
   14    6    7 ar    
   15    7    8 ar    
   16    7   31 1     
   17    8    9 ar    
   18    8   32 1     
   19    9   10 1     
   20    9   21 ar    
   21   10   11 am    
   22   10   33 1     
   23   11   12 2     
   24   11   13 1     
   25   13   23 1     
   26   13   17 1     
   27   13   14 1     
   28   14   15 1     
   29   14   34 1     
   30   14   35 1     
   31   15   16 1     
   32   15   36 1     
   33   15   37 1     
   34   16   17 1     
   35   16   38 1     
   36   16   39 1     
   37   17   18 am    
   38   18   19 1     
   39   18   20 2     
   40   19   40 1     
   41   19   41 1     
   42   19   42 1     
   43   21   22 ar    
   44   21   43 1     
   45    2   44 1     
   46    2   45 1     
   47    5   46 1     
   48    5   47 1     
   49   12   48 1     
   50   12   49 1     
   51   20   50 1     
   52   20   51 1     
   53   22   52 1     
@<TRIPOS>SUBSTRUCTURE
      1 S1             1
@<TRIPOS>SET
LONE_PAIRS      STATIC     ATOMS    <user>   **** ""
9 44 45 46 47 48 49 50 51 52
DONOR_HYDROGENS      STATIC     ATOMS    <user>   **** ""
1 33
ATOM$BLUE        STATIC     ATOMS    COLORGROUP SYSTEM
9 44 45 46 47 48 49 50 51 52
ATOM$RED        STATIC     ATOMS    COLORGROUP SYSTEM
1 33
