AV-unprocessed.smi:1072|AV-procd|sdf|4686|dock1
  -GOLD-   22720 3203D 1   1.00000     0.00000
 Structure written by MMmdl.
 46 47  0  0  0  0  0  0  0  0  1 V2000
  150.1288  133.0147  153.6724 C   0  0  0  0  0  0  0  0  0  0  0  0
  149.9647  133.9665  154.8371 C   0  0  0  0  0  0  0  0  0  0  0  0
  150.0341  135.3026  154.4782 N   0  0  0  0  0  0  0  0  0  0  0  0
  149.8953  136.2493  155.4776 C   0  0  0  0  0  0  0  0  0  0  0  0
  149.9847  137.6885  155.0005 C   0  0  0  0  0  0  0  0  0  0  0  0
  149.6926  135.8834  156.7687 C   0  0  0  0  0  0  0  0  0  0  0  0
  149.5312  136.8994  157.8986 C   0  0  0  0  0  0  0  0  0  0  0  0
  150.6551  137.9298  158.0329 C   0  0  0  0  0  0  0  0  0  0  0  0
  151.7442  137.5952  158.4980 O   0  0  0  0  0  0  0  0  0  0  0  0
  150.3591  139.1773  157.6246 N   0  0  0  0  0  0  0  0  0  0  0  0
  151.1930  140.3875  157.6441 C   0  0  1  0  0  0  0  0  0  0  0  0
  152.3769  140.0820  156.7014 C   0  0  0  0  0  0  0  0  0  0  0  0
  150.3877  141.6068  157.1155 C   0  0  0  0  0  0  0  0  0  0  0  0
  151.1428  142.9404  157.2594 C   0  0  0  0  0  0  0  0  0  0  0  0
  151.5949  143.1849  158.7101 C   0  0  2  0  0  0  0  0  0  0  0  0
  152.3367  144.5219  158.8491 C   0  0  0  0  0  0  0  0  0  0  0  0
  152.4543  142.0091  159.2083 C   0  0  0  0  0  0  0  0  0  0  0  0
  151.7111  140.6670  159.0823 C   0  0  0  0  0  0  0  0  0  0  0  0
  149.6185  134.4385  157.0900 C   0  0  0  0  0  0  0  0  0  0  0  0
  149.4214  134.0427  158.2380 O   0  0  0  0  0  0  0  0  0  0  0  0
  149.7743  133.5182  156.0407 N   0  0  0  0  0  0  0  0  0  0  0  0
  150.1786  135.6181  153.5298 H   0  0  0  0  0  0  0  0  0  0  0  0
  150.2478  131.9882  154.0216 H   0  0  0  0  0  0  0  0  0  0  0  0
  151.0087  133.2771  153.0840 H   0  0  0  0  0  0  0  0  0  0  0  0
  149.2524  133.0565  153.0251 H   0  0  0  0  0  0  0  0  0  0  0  0
  150.8232  138.1967  155.4768 H   0  0  0  0  0  0  0  0  0  0  0  0
  149.0694  138.2287  155.2440 H   0  0  0  0  0  0  0  0  0  0  0  0
  150.1289  137.7459  153.9209 H   0  0  0  0  0  0  0  0  0  0  0  0
  149.4470  136.3508  158.8375 H   0  0  0  0  0  0  0  0  0  0  0  0
  148.5866  137.4359  157.8060 H   0  0  0  0  0  0  0  0  0  0  0  0
  149.4270  139.3107  157.2601 H   0  0  0  0  0  0  0  0  0  0  0  0
  153.0793  140.9111  156.6279 H   0  0  0  0  0  0  0  0  0  0  0  0
  152.0301  139.8659  155.6899 H   0  0  0  0  0  0  0  0  0  0  0  0
  152.9413  139.2139  157.0442 H   0  0  0  0  0  0  0  0  0  0  0  0
  150.1114  141.4519  156.0720 H   0  0  0  0  0  0  0  0  0  0  0  0
  149.4481  141.7084  157.6578 H   0  0  0  0  0  0  0  0  0  0  0  0
  152.0052  142.9572  156.5927 H   0  0  0  0  0  0  0  0  0  0  0  0
  150.4960  143.7554  156.9330 H   0  0  0  0  0  0  0  0  0  0  0  0
  150.7028  143.2378  159.3361 H   0  0  0  0  0  0  0  0  0  0  0  0
  153.2442  144.5364  158.2446 H   0  0  0  0  0  0  0  0  0  0  0  0
  152.6229  144.7068  159.8847 H   0  0  0  0  0  0  0  0  0  0  0  0
  151.7092  145.3536  158.5277 H   0  0  0  0  0  0  0  0  0  0  0  0
  153.3916  141.9717  158.6529 H   0  0  0  0  0  0  0  0  0  0  0  0
  152.7298  142.1696  160.2511 H   0  0  0  0  0  0  0  0  0  0  0  0
  150.8827  140.6899  159.7894 H   0  0  0  0  0  0  0  0  0  0  0  0
  152.3596  139.8550  159.4137 H   0  0  0  0  0  0  0  0  0  0  0  0
  1 23  1  0  0  0  0
  1 24  1  0  0  0  0
  1 25  1  0  0  0  0
  1  2  1  0  0  0  0
  2  3  1  0  0  0  0
  2 21  2  0  0  0  0
  3  4  1  0  0  0  0
  3 22  1  0  0  0  0
  4  6  2  0  0  0  0
  4  5  1  0  0  0  0
  5 26  1  0  0  0  0
  5 27  1  0  0  0  0
  5 28  1  0  0  0  0
  6 19  1  0  0  0  0
  6  7  1  0  0  0  0
  7  8  1  0  0  0  0
  7 29  1  0  0  0  0
  7 30  1  0  0  0  0
  8  9  2  0  0  0  0
  8 10  1  0  0  0  0
 10 11  1  0  0  0  0
 10 31  1  0  0  0  0
 11 18  1  0  0  0  0
 11 12  1  0  0  0  0
 11 13  1  0  0  0  0
 12 32  1  0  0  0  0
 12 33  1  0  0  0  0
 12 34  1  0  0  0  0
 13 14  1  0  0  0  0
 13 35  1  0  0  0  0
 13 36  1  0  0  0  0
 14 15  1  0  0  0  0
 14 37  1  0  0  0  0
 14 38  1  0  0  0  0
 15 16  1  0  0  0  0
 15 17  1  0  0  0  0
 15 39  1  0  0  0  0
 16 40  1  0  0  0  0
 16 41  1  0  0  0  0
 16 42  1  0  0  0  0
 17 18  1  0  0  0  0
 17 43  1  0  0  0  0
 17 44  1  0  0  0  0
 18 45  1  0  0  0  0
 18 46  1  0  0  0  0
 19 20  2  0  0  0  0
 19 21  1  0  0  0  0
M  END
> <s_m_source_file>
AV-unprocessed.smi

> <i_m_source_file_index>
1072

> <i_lp_mmshare_version>
43012

> <i_f3d_flags>
0

> <s_epik_input>
W0NIM11jMW5jKFtDSDNdKWMoYyg9TylbbkhdMSlbQ0gyXUMoPU8pW05IXVtDQEBdMihbQ0gzXSlbQ0gyXVtDSDJdW0NAQEhdKFtDSDNdKVtDSDJdW0NIMl0y

> <s_epik_cmdline>
J2VwaWtfcHl0aG9uJywgJy1waCcsICc3LjAnLCAnLXRuJywgJzgnLCAnLW1hJywgJzIwMCcsICctbWV0YWxfYmluZGluZycsICctaW1hZScsICc8aW5maWxlLm1hZT4nLCAnLW9tYWUnLCAnPG91dGZpbGUubWFlPic=

> <r_lp_tautomer_probability>
0.156392

> <r_epik_Ionization_Penalty>
0.0131066

> <r_epik_Ionization_Penalty_Charging>
0.0129643

> <r_epik_Ionization_Penalty_Neutral>
0.000142248

> <r_epik_State_Penalty>
1.15342

> <r_epik_Charging_Adjusted_Penalty>
1.16638

> <i_epik_Tot_Q>
0

> <i_epik_Tot_abs_Q>
0

> <r_epik_Metal_State_Penalty>
1.30766

> <b_epik_Metal_Only>
0

> <s_lp_Force_Field>
OPLS_2005

> <r_lp_Energy>
18.066

> <b_lp_Chiralities_Consistent>
1

> <s_lp_Variant>
AV-unprocessed.smi:1072-4

> <Gold.Version>
5.8.1

> <Gold.Id.Protein>
6NUR|6NUR_protein|mol2

> <Gold.PLP.Fitness>
37.9085

> <Gold.PLP.PLP>
-32.3416

> <Gold.PLP.part.hbond>
-2.0000

> <Gold.PLP.part.metal>
0.0000

> <Gold.PLP.part.buried>
-3.8526

> <Gold.PLP.part.nonpolar>
-26.3641

> <Gold.PLP.part.repulsive>
0.1261

> <Gold.PLP.ligand.clash>
0.0000

> <Gold.PLP.ligand.torsion>
0.2201

> <Gold.PLP.Chemscore.Hbond>
2.0000

> <Gold.PLP.Chemscore.CHOScore>
0.0000

> <Gold.PLP.Chemscore.Metal>
0.0000

> <Gold.Chemscore.Hbonds>
donor molecule, donor type, donor heavy atom, donor atom, acceptor molecule, acceptor atom, score
      L1  H     3    22       P1  7948  0.12
      P1  H  6896  6908       L1    20  1.00

> <Gold.PLP.Chemscore.Internal.Correction>
0.0071

> <Gold.Rescore>
     Score         DG    S(hbond)    S(metal)    S(lipo)     H(rot)  DE(clash)    DE(int)     intcor
     18.29     -18.49       1.99        0.00      86.45       1.47       0.04       0.15       ----

> <Gold.Chemscore.Fitness>
18.2939

> <Gold.Chemscore.DG>
-18.4865

> <Gold.Chemscore.ZeroCoef>
-5.4800

> <Gold.Chemscore.Hbond>
1.9918

> <Gold.Chemscore.Metal>
0.0000

> <Gold.Chemscore.Lipo>
86.4482

> <Gold.Chemscore.Internal_Hbond>
0.0000

> <Gold.Chemscore.DEClash>
0.0414

> <Gold.Chemscore.DEInternal>
0.1512

> <Gold.Chemscore.Rot>
1.4690

> <Gold.Chemscore.Internal.Correction>
   9.000000E+99

> <Gold.Chemscore.Hbonds>
donor molecule, donor type, donor heavy atom, donor atom, acceptor molecule, acceptor atom, score
      P1  H  6896  6908       L1    20  0.97

> <Gold.Chemscore.Hbond.Weighted>
-6.6527

> <Gold.Chemscore.Metal.Weighted>
-0.0000

> <Gold.Chemscore.Lipo.Weighted>
-10.1144

> <Gold.Chemscore.Internal_Hbond.Weighted>
0.0000

> <Gold.Chemscore.DEClash.Weighted>
0.0414

> <Gold.Chemscore.DEInternal.Weighted>
0.1512

> <Gold.Chemscore.Rot.Weighted>
3.7607

> <Gold.Chemscore.Internal.Correction.Weighted>
   9.000000E+99

> <Gold.Protein.RotatedTorsions>
[ 6907 6896 6895 6894 ] final  132.47 input  -60.11 | X-H torsion
[ 7974 7965 7964 7962 ] final  -80.18 input  175.53 | X-H torsion
[ 8008 7997 7996 7995 ] final -145.24 input   59.86 | X-H torsion
[ 10167 10162 10161 10158 ] final -179.94 input  -65.29 | X-H torsion
[ 10718 10713 10712 10709 ] final  161.52 input   66.30 | X-H torsion
[ 10763 10752 10751 10750 ] final -118.26 input  -60.55 | X-H torsion
[ 11005 11000 10999 10996 ] final -174.69 input  -57.11 | X-H torsion

> <Gold.Protein.ActiveResidues>
 VAL166  LYS551  ARG553  GLY616  TRP617  ASP618  TYR619  PRO620  LYS621  CYS622 
 ASP623  PHE694  ASN695  SER759  ASP760  ASP761  ALA762  ILE779  LEU786  VAL792 
 PHE793  MET794  SER795  GLU796  ALA797  LYS798  CYS799  TRP800  GLU811  SER814 

> <Gold.Protein.RotatedAtoms>
  152.3321  133.5970  159.5816 H   0  0  0  0  0  0  0  0  0  0  0  0  # atno 6907 bound_to 6896
  150.7429  133.9852  159.3598 H   0  0  0  0  0  0  0  0  0  0  0  0  # atno 6908 bound_to 6896
  151.7726  135.0783  160.0413 H   0  0  0  0  0  0  0  0  0  0  0  0  # atno 6909 bound_to 6896
  145.5633  140.9478  143.1435 H   0  0  0  0  0  0  0  0  0  0  0  0  # atno 7974 bound_to 7965
  155.5400  140.0607  157.2872 H   0  0  0  0  0  0  0  0  0  0  0  0  # atno 8008 bound_to 7997
  154.4455  140.1921  156.0625 H   0  0  0  0  0  0  0  0  0  0  0  0  # atno 8009 bound_to 7997
  156.0591  140.3274  155.7444 H   0  0  0  0  0  0  0  0  0  0  0  0  # atno 8010 bound_to 7997
  139.5363  144.2487  152.0802 H   0  0  0  0  0  0  0  0  0  0  0  0  # atno 10167 bound_to 10162
  157.1354  131.0527  151.2352 H   0  0  0  0  0  0  0  0  0  0  0  0  # atno 10718 bound_to 10713
  154.8581  135.4280  154.2110 H   0  0  0  0  0  0  0  0  0  0  0  0  # atno 10763 bound_to 10752
  153.3136  135.6977  153.7099 H   0  0  0  0  0  0  0  0  0  0  0  0  # atno 10764 bound_to 10752
  153.6182  135.3506  155.2976 H   0  0  0  0  0  0  0  0  0  0  0  0  # atno 10765 bound_to 10752
  140.4717  134.6159  157.4884 H   0  0  0  0  0  0  0  0  0  0  0  0  # atno 11005 bound_to 11000
  144.7472  139.7288  143.7287 LP  0  0  0  0  0  0  0  0  0  0  0  0  # atno 17320 bound_to 7965
  146.1835  139.5040  142.9851 LP  0  0  0  0  0  0  0  0  0  0  0  0  # atno 17321 bound_to 7965
  140.1958  144.4707  150.6456 LP  0  0  0  0  0  0  0  0  0  0  0  0  # atno 17342 bound_to 10162
  140.6572  143.2241  151.5941 LP  0  0  0  0  0  0  0  0  0  0  0  0  # atno 17343 bound_to 10162
  157.4355  130.7514  149.7025 LP  0  0  0  0  0  0  0  0  0  0  0  0  # atno 17370 bound_to 10713
  155.9799  130.4035  150.3559 LP  0  0  0  0  0  0  0  0  0  0  0  0  # atno 17371 bound_to 10713
  139.9881  134.7029  155.9738 LP  0  0  0  0  0  0  0  0  0  0  0  0  # atno 17394 bound_to 11000
  141.1574  133.6541  156.4205 LP  0  0  0  0  0  0  0  0  0  0  0  0  # atno 17395 bound_to 11000

$$$$
