AV-unprocessed.smi:109|AV-procd|sdf|1035|dock3
  -GOLD-   2262018 53D 1   1.00000     0.00000
 Structure written by MMmdl.
 58 61  0  0  0  0  0  0  0  0  1 V2000
  152.8491  136.7242  159.7385 O   0  0  0  0  0  0  0  0  0  0  0  0
  152.5329  137.7639  160.6390 C   0  0  0  0  0  0  0  0  0  0  0  0
  152.8996  139.1220  160.0171 C   0  0  0  0  0  0  0  0  0  0  0  0
  151.8110  139.7155  159.0887 C   0  0  2  0  0  0  0  0  0  0  0  0
  151.6496  138.8580  157.9124 N   0  0  0  0  0  0  0  0  0  0  0  0
  150.7611  137.8394  157.8771 C   0  0  0  0  0  0  0  0  0  0  0  0
  149.8545  137.6517  158.8703 N   0  0  0  0  0  0  0  0  0  0  0  0
  148.9935  136.6328  158.8054 C   0  0  0  0  0  0  0  0  0  0  0  0
  148.8725  135.7033  157.8557 N   0  0  0  0  0  0  0  0  0  0  0  0
  149.7831  135.8810  156.8532 C   0  0  0  0  0  0  0  0  0  0  0  0
  150.7493  136.9247  156.7925 C   0  0  0  0  0  0  0  0  0  0  0  0
  151.4903  136.8140  155.6250 N   0  0  0  0  0  0  0  0  0  0  0  0
  150.9813  135.7714  155.0275 C   0  0  0  0  0  0  0  0  0  0  0  0
  149.9731  135.1224  155.7108 N   0  0  0  0  0  0  0  0  0  0  0  0
  149.1820  133.9226  155.2592 C   0  0  2  0  0  0  0  0  0  0  0  0
  149.3932  132.8765  156.1566 O   0  0  0  0  0  0  0  0  0  0  0  0
  150.5025  132.1045  155.7174 C   0  0  1  0  0  0  0  0  0  0  0  0
  150.5865  130.7662  156.4701 C   0  0  0  0  0  0  0  0  0  0  0  0
  151.6892  130.0222  155.9977 O   0  0  0  0  0  0  0  0  0  0  0  0
  150.2227  132.0137  154.2127 C   0  0  1  0  0  0  0  0  0  0  0  0
  149.2805  130.9889  153.9365 O   0  0  0  0  0  0  0  0  0  0  0  0
  149.6900  133.4132  153.8914 C   0  0  1  0  0  0  0  0  0  0  0  0
  148.6866  133.4095  152.8936 O   0  0  0  0  0  0  0  0  0  0  0  0
  152.1188  141.1692  158.6244 C   0  0  0  0  0  0  0  0  0  0  0  0
  152.3755  142.1483  159.7981 C   0  0  0  0  0  0  0  0  0  0  0  0
  152.6470  143.5835  159.3169 C   0  0  0  0  0  0  0  0  0  0  0  0
  151.5054  144.1087  158.4386 C   0  0  0  0  0  0  0  0  0  0  0  0
  151.2540  143.1631  157.2584 C   0  0  0  0  0  0  0  0  0  0  0  0
  150.9737  141.7323  157.7433 C   0  0  0  0  0  0  0  0  0  0  0  0
  148.1451  134.2611  155.2690 H   0  0  0  0  0  0  0  0  0  0  0  0
  151.4221  132.6751  155.8664 H   0  0  0  0  0  0  0  0  0  0  0  0
  151.1318  131.7938  153.6520 H   0  0  0  0  0  0  0  0  0  0  0  0
  150.5201  134.0282  153.5439 H   0  0  0  0  0  0  0  0  0  0  0  0
  153.7070  136.8894  159.3785 H   0  0  0  0  0  0  0  0  0  0  0  0
  151.4695  137.7082  160.8717 H   0  0  0  0  0  0  0  0  0  0  0  0
  153.0821  137.6057  161.5675 H   0  0  0  0  0  0  0  0  0  0  0  0
  153.0889  139.8009  160.8466 H   0  0  0  0  0  0  0  0  0  0  0  0
  153.8397  139.0347  159.4706 H   0  0  0  0  0  0  0  0  0  0  0  0
  150.8808  139.7630  159.6550 H   0  0  0  0  0  0  0  0  0  0  0  0
  152.1694  139.1467  157.0962 H   0  0  0  0  0  0  0  0  0  0  0  0
  148.3047  136.5490  159.6329 H   0  0  0  0  0  0  0  0  0  0  0  0
  151.3362  135.4438  154.0610 H   0  0  0  0  0  0  0  0  0  0  0  0
  150.6657  130.9165  157.5472 H   0  0  0  0  0  0  0  0  0  0  0  0
  149.6894  130.1742  156.2867 H   0  0  0  0  0  0  0  0  0  0  0  0
  151.4567  129.1059  156.0071 H   0  0  0  0  0  0  0  0  0  0  0  0
  149.5978  130.4813  153.2049 H   0  0  0  0  0  0  0  0  0  0  0  0
  148.8049  134.1752  152.3521 H   0  0  0  0  0  0  0  0  0  0  0  0
  153.0249  141.1409  158.0166 H   0  0  0  0  0  0  0  0  0  0  0  0
  151.5201  142.1448  160.4751 H   0  0  0  0  0  0  0  0  0  0  0  0
  153.2379  141.8367  160.3847 H   0  0  0  0  0  0  0  0  0  0  0  0
  152.7871  144.2419  160.1746 H   0  0  0  0  0  0  0  0  0  0  0  0
  153.5811  143.6077  158.7539 H   0  0  0  0  0  0  0  0  0  0  0  0
  150.5968  144.2042  159.0344 H   0  0  0  0  0  0  0  0  0  0  0  0
  151.7446  145.1075  158.0725 H   0  0  0  0  0  0  0  0  0  0  0  0
  150.4135  143.5257  156.6660 H   0  0  0  0  0  0  0  0  0  0  0  0
  152.1217  143.1614  156.5973 H   0  0  0  0  0  0  0  0  0  0  0  0
  150.8115  141.1033  156.8679 H   0  0  0  0  0  0  0  0  0  0  0  0
  150.0388  141.7175  158.3052 H   0  0  0  0  0  0  0  0  0  0  0  0
  1  2  1  0  0  0  0
  1 34  1  0  0  0  0
  2  3  1  0  0  0  0
  2 35  1  0  0  0  0
  2 36  1  0  0  0  0
  3  4  1  0  0  0  0
  3 37  1  0  0  0  0
  3 38  1  0  0  0  0
  4  5  1  0  0  0  0
  4 24  1  0  0  0  0
  4 39  1  0  0  0  0
  5  6  1  0  0  0  0
  5 40  1  0  0  0  0
  6 11  1  0  0  0  0
  6  7  2  0  0  0  0
  7  8  1  0  0  0  0
  8  9  2  0  0  0  0
  8 41  1  0  0  0  0
  9 10  1  0  0  0  0
 10 14  1  0  0  0  0
 10 11  2  0  0  0  0
 11 12  1  0  0  0  0
 12 13  2  0  0  0  0
 13 14  1  0  0  0  0
 13 42  1  0  0  0  0
 14 15  1  0  0  0  0
 15 30  1  0  0  0  0
 15 22  1  0  0  0  0
 15 16  1  0  0  0  0
 16 17  1  0  0  0  0
 17 31  1  0  0  0  0
 17 18  1  0  0  0  0
 17 20  1  0  0  0  0
 18 19  1  0  0  0  0
 18 43  1  0  0  0  0
 18 44  1  0  0  0  0
 19 45  1  0  0  0  0
 20 32  1  0  0  0  0
 20 21  1  0  0  0  0
 20 22  1  0  0  0  0
 21 46  1  0  0  0  0
 22 33  1  0  0  0  0
 22 23  1  0  0  0  0
 23 47  1  0  0  0  0
 24 29  1  0  0  0  0
 24 25  1  0  0  0  0
 24 48  1  0  0  0  0
 25 26  1  0  0  0  0
 25 49  1  0  0  0  0
 25 50  1  0  0  0  0
 26 27  1  0  0  0  0
 26 51  1  0  0  0  0
 26 52  1  0  0  0  0
 27 28  1  0  0  0  0
 27 53  1  0  0  0  0
 27 54  1  0  0  0  0
 28 29  1  0  0  0  0
 28 55  1  0  0  0  0
 28 56  1  0  0  0  0
 29 57  1  0  0  0  0
 29 58  1  0  0  0  0
M  END
> <s_m_source_file>
AV-unprocessed.smi

> <i_m_source_file_index>
109

> <i_lp_mmshare_version>
43012

> <i_f3d_flags>
0

> <s_epik_input>
W0NIMl0xW0NIMl1bQ0gyXVtDSDJdW0NIMl1bQ0hdMVtDQEhdKFtDSDJdW0NIMl1bT0hdKVtOSF1jKG5bY0hdbjIpYyhjMjMpbltjSF1uM1tDQEBIXTRPW0NASF0oW0NIMl1bT0hdKVtDQEBIXShbT0hdKVtDQEhdNFtPSF0=

> <s_epik_cmdline>
J2VwaWtfcHl0aG9uJywgJy1waCcsICc3LjAnLCAnLXRuJywgJzgnLCAnLW1hJywgJzIwMCcsICctbWV0YWxfYmluZGluZycsICctaW1hZScsICc8aW5maWxlLm1hZT4nLCAnLW9tYWUnLCAnPG91dGZpbGUubWFlPic=

> <r_lp_tautomer_probability>
1

> <r_epik_Ionization_Penalty>
0.000793976

> <r_epik_Ionization_Penalty_Charging>
0

> <r_epik_Ionization_Penalty_Neutral>
0.000793976

> <r_epik_State_Penalty>
-0

> <r_epik_Charging_Adjusted_Penalty>
0

> <i_epik_Tot_Q>
0

> <i_epik_Tot_abs_Q>
0

> <r_epik_Metal_State_Penalty>
-0

> <b_epik_Metal_Only>
0

> <s_epik_Chemistry_Notes>
This compound contains an acetal/aminal-like group ( X-CH(R)-Y where X, Y are N, S, or O) that may be acid/base labile, releasing an aldehyde.

> <s_lp_Force_Field>
OPLS_2005

> <r_lp_Energy>
57.9127

> <b_lp_Chiralities_Consistent>
1

> <s_lp_Variant>
AV-unprocessed.smi:109-5

> <Gold.Version>
5.8.1

> <Gold.Id.Protein>
6NUR|6NUR_protein|mol2

> <Gold.PLP.Fitness>
50.8775

> <Gold.PLP.PLP>
-43.6014

> <Gold.PLP.part.hbond>
-2.0452

> <Gold.PLP.part.metal>
0.0000

> <Gold.PLP.part.buried>
-6.8982

> <Gold.PLP.part.nonpolar>
-33.8162

> <Gold.PLP.part.repulsive>
0.1262

> <Gold.PLP.ligand.clash>
0.0000

> <Gold.PLP.ligand.torsion>
0.5758

> <Gold.PLP.Chemscore.Hbond>
1.9913

> <Gold.PLP.Chemscore.CHOScore>
0.7841

> <Gold.PLP.Chemscore.Metal>
0.0000

> <Gold.Chemscore.Hbonds>
donor molecule, donor type, donor heavy atom, donor atom, acceptor molecule, acceptor atom, score
      L1  H    23    47       P1  7948  0.05
      P1  H  6896  6908       L1     1  1.00
      L1  C    13    42       P1  7949  0.79

> <Gold.PLP.Chemscore.Internal.Correction>
0.1016

> <Gold.Rescore>
     Score         DG    S(hbond)    S(metal)    S(lipo)     H(rot)  DE(clash)    DE(int)     intcor
      9.35     -10.09       1.93        0.00     103.87       5.47       0.08       0.66       ----

> <Gold.Chemscore.Fitness>
9.3470

> <Gold.Chemscore.DG>
-10.0913

> <Gold.Chemscore.ZeroCoef>
-5.4800

> <Gold.Chemscore.Hbond>
1.9319

> <Gold.Chemscore.Metal>
0.0000

> <Gold.Chemscore.Lipo>
103.8657

> <Gold.Chemscore.Internal_Hbond>
0.0000

> <Gold.Chemscore.DEClash>
0.0823

> <Gold.Chemscore.DEInternal>
0.6621

> <Gold.Chemscore.Rot>
5.4662

> <Gold.Chemscore.Internal.Correction>
   9.000000E+99

> <Gold.Chemscore.Hbonds>
donor molecule, donor type, donor heavy atom, donor atom, acceptor molecule, acceptor atom, score
      P1  H  6896  6908       L1     1  0.96

> <Gold.Chemscore.Hbond.Weighted>
-6.4525

> <Gold.Chemscore.Metal.Weighted>
-0.0000

> <Gold.Chemscore.Lipo.Weighted>
-12.1523

> <Gold.Chemscore.Internal_Hbond.Weighted>
0.0000

> <Gold.Chemscore.DEClash.Weighted>
0.0823

> <Gold.Chemscore.DEInternal.Weighted>
0.6621

> <Gold.Chemscore.Rot.Weighted>
13.9935

> <Gold.Chemscore.Internal.Correction.Weighted>
   9.000000E+99

> <Gold.Protein.RotatedTorsions>
[ 6907 6896 6895 6894 ] final  -85.75 input  -60.11 | X-H torsion
[ 7974 7965 7964 7962 ] final   42.94 input  175.53 | X-H torsion
[ 8008 7997 7996 7995 ] final   95.29 input   59.86 | X-H torsion
[ 10167 10162 10161 10158 ] final    0.56 input  -65.29 | X-H torsion
[ 10718 10713 10712 10709 ] final -164.22 input   66.30 | X-H torsion
[ 10763 10752 10751 10750 ] final -169.87 input  -60.55 | X-H torsion
[ 11005 11000 10999 10996 ] final   42.19 input  -57.11 | X-H torsion

> <Gold.Protein.ActiveResidues>
 VAL166  LYS551  ARG553  GLY616  TRP617  ASP618  TYR619  PRO620  LYS621  CYS622 
 ASP623  PHE694  ASN695  SER759  ASP760  ASP761  ALA762  ILE779  LEU786  VAL792 
 PHE793  MET794  SER795  GLU796  ALA797  LYS798  CYS799  TRP800  GLU811  SER814 

> <Gold.Protein.RotatedAtoms>
  150.6869  134.3156  159.4764 H   0  0  0  0  0  0  0  0  0  0  0  0  # atno 6907 bound_to 6896
  152.1037  134.9321  160.0578 H   0  0  0  0  0  0  0  0  0  0  0  0  # atno 6908 bound_to 6896
  152.0590  133.4018  159.4446 H   0  0  0  0  0  0  0  0  0  0  0  0  # atno 6909 bound_to 6896
  146.0698  139.5243  142.9605 H   0  0  0  0  0  0  0  0  0  0  0  0  # atno 7974 bound_to 7965
  156.0672  140.3288  155.7532 H   0  0  0  0  0  0  0  0  0  0  0  0  # atno 8008 bound_to 7997
  155.5362  140.0597  157.2896 H   0  0  0  0  0  0  0  0  0  0  0  0  # atno 8009 bound_to 7997
  154.4511  140.1918  156.0534 H   0  0  0  0  0  0  0  0  0  0  0  0  # atno 8010 bound_to 7997
  140.6723  143.7013  150.7949 H   0  0  0  0  0  0  0  0  0  0  0  0  # atno 10167 bound_to 10162
  156.6359  130.8949  151.2987 H   0  0  0  0  0  0  0  0  0  0  0  0  # atno 10718 bound_to 10713
  154.6477  135.2907  155.0026 H   0  0  0  0  0  0  0  0  0  0  0  0  # atno 10763 bound_to 10752
  154.1130  135.6559  153.4892 H   0  0  0  0  0  0  0  0  0  0  0  0  # atno 10764 bound_to 10752
  153.0359  135.5269  154.7371 H   0  0  0  0  0  0  0  0  0  0  0  0  # atno 10765 bound_to 10752
  140.1762  134.4160  155.8227 H   0  0  0  0  0  0  0  0  0  0  0  0  # atno 11005 bound_to 11000
  145.6412  141.0284  143.1810 LP  0  0  0  0  0  0  0  0  0  0  0  0  # atno 17320 bound_to 7965
  144.7224  139.7985  143.7377 LP  0  0  0  0  0  0  0  0  0  0  0  0  # atno 17321 bound_to 7965
  140.0701  143.5070  152.2584 LP  0  0  0  0  0  0  0  0  0  0  0  0  # atno 17342 bound_to 10162
  139.5998  144.7579  151.3200 LP  0  0  0  0  0  0  0  0  0  0  0  0  # atno 17343 bound_to 10162
  157.7186  130.9529  150.1349 LP  0  0  0  0  0  0  0  0  0  0  0  0  # atno 17370 bound_to 10713
  156.2197  130.3673  149.8570 LP  0  0  0  0  0  0  0  0  0  0  0  0  # atno 17371 bound_to 10713
  141.2220  133.6979  156.7851 LP  0  0  0  0  0  0  0  0  0  0  0  0  # atno 17394 bound_to 11000
  140.2320  134.8679  157.3486 LP  0  0  0  0  0  0  0  0  0  0  0  0  # atno 17395 bound_to 11000

$$$$
