AV-unprocessed.smi:1671|AV-procd|sdf|6697|dock9
  -GOLD-   22720 7433D 1   1.00000     0.00000
 Structure written by MMmdl.
 44 45  0  0  0  0  0  0  0  0  1 V2000
  149.0001  132.5853  153.8536 C   0  0  0  0  0  0  0  0  0  0  0  0
  149.9328  134.0424  153.3083 S   0  0  0  0  0  0  0  0  0  0  0  0
  149.9472  135.0400  154.8283 C   0  0  2  0  0  0  0  0  0  0  0  0
  148.5428  135.5968  155.1128 C   0  0  0  0  0  0  0  0  0  0  0  0
  150.9906  136.1622  154.7621 C   0  0  0  0  0  0  0  0  0  0  0  0
  151.9492  136.1684  155.5352 O   0  0  0  0  0  0  0  0  0  0  0  0
  150.7784  137.1187  153.8441 N   0  0  0  0  0  0  0  0  0  0  0  0
  151.6024  138.3068  153.6447 C   0  0  0  0  0  0  0  0  0  0  0  0
  151.7345  139.1644  154.8938 C   0  0  0  0  0  0  0  0  0  0  0  0
  150.8546  140.2413  155.1184 C   0  0  0  0  0  0  0  0  0  0  0  0
  151.0025  141.0149  156.2854 C   0  0  0  0  0  0  0  0  0  0  0  0
  152.0350  140.6964  157.1997 C   0  0  0  0  0  0  0  0  0  0  0  0
  152.2003  141.4556  158.3789 N   0  0  0  0  0  0  0  0  0  0  0  0
  153.3201  141.1231  159.2574 C   0  0  0  0  0  0  0  0  0  0  0  0
  153.1708  141.8398  160.6094 C   0  0  0  0  0  0  0  0  0  0  0  0
  153.0313  143.2402  160.3962 O   0  0  0  0  0  0  0  0  0  0  0  0
  151.8693  143.5538  159.6333 C   0  0  1  0  0  0  0  0  0  0  0  0
  151.7540  145.0786  159.5374 C   0  0  0  0  0  0  0  0  0  0  0  0
  151.9785  142.8932  158.2451 C   0  0  0  0  0  0  0  0  0  0  0  0
  152.8816  139.6604  156.9784 N   0  0  0  0  0  0  0  0  0  0  0  0
  152.7368  138.9237  155.8572 C   0  0  0  0  0  0  0  0  0  0  0  0
  148.8607  131.8977  153.0195 H   0  0  0  0  0  0  0  0  0  0  0  0
  148.0188  132.8778  154.2268 H   0  0  0  0  0  0  0  0  0  0  0  0
  149.5317  132.0571  154.6443 H   0  0  0  0  0  0  0  0  0  0  0  0
  150.2056  134.3720  155.6514 H   0  0  0  0  0  0  0  0  0  0  0  0
  148.5330  136.2103  156.0146 H   0  0  0  0  0  0  0  0  0  0  0  0
  147.8282  134.7868  155.2615 H   0  0  0  0  0  0  0  0  0  0  0  0
  148.1775  136.2095  154.2876 H   0  0  0  0  0  0  0  0  0  0  0  0
  149.9649  137.0291  153.2529 H   0  0  0  0  0  0  0  0  0  0  0  0
  152.6006  138.0417  153.2925 H   0  0  0  0  0  0  0  0  0  0  0  0
  151.1460  138.8944  152.8476 H   0  0  0  0  0  0  0  0  0  0  0  0
  150.0692  140.4704  154.4130 H   0  0  0  0  0  0  0  0  0  0  0  0
  150.3159  141.8270  156.4717 H   0  0  0  0  0  0  0  0  0  0  0  0
  153.3653  140.0461  159.4231 H   0  0  0  0  0  0  0  0  0  0  0  0
  154.2546  141.4202  158.7792 H   0  0  0  0  0  0  0  0  0  0  0  0
  152.3106  141.4566  161.1608 H   0  0  0  0  0  0  0  0  0  0  0  0
  154.0501  141.6604  161.2281 H   0  0  0  0  0  0  0  0  0  0  0  0
  150.9880  143.1720  160.1520 H   0  0  0  0  0  0  0  0  0  0  0  0
  150.8683  145.3700  158.9725 H   0  0  0  0  0  0  0  0  0  0  0  0
  152.6245  145.5099  159.0424 H   0  0  0  0  0  0  0  0  0  0  0  0
  151.6782  145.5268  160.5283 H   0  0  0  0  0  0  0  0  0  0  0  0
  152.8116  143.3241  157.6880 H   0  0  0  0  0  0  0  0  0  0  0  0
  151.0743  143.1097  157.6780 H   0  0  0  0  0  0  0  0  0  0  0  0
  153.4444  138.1177  155.7330 H   0  0  0  0  0  0  0  0  0  0  0  0
  1  2  1  0  0  0  0
  1 22  1  0  0  0  0
  1 23  1  0  0  0  0
  1 24  1  0  0  0  0
  2  3  1  0  0  0  0
  3  4  1  0  0  0  0
  3  5  1  0  0  0  0
  3 25  1  0  0  0  0
  4 26  1  0  0  0  0
  4 27  1  0  0  0  0
  4 28  1  0  0  0  0
  5  6  2  0  0  0  0
  5  7  1  0  0  0  0
  7  8  1  0  0  0  0
  7 29  1  0  0  0  0
  8  9  1  0  0  0  0
  8 30  1  0  0  0  0
  8 31  1  0  0  0  0
  9 21  1  0  0  0  0
  9 10  2  0  0  0  0
 10 11  1  0  0  0  0
 10 32  1  0  0  0  0
 11 12  2  0  0  0  0
 11 33  1  0  0  0  0
 12 13  1  0  0  0  0
 12 20  1  0  0  0  0
 13 19  1  0  0  0  0
 13 14  1  0  0  0  0
 14 15  1  0  0  0  0
 14 34  1  0  0  0  0
 14 35  1  0  0  0  0
 15 16  1  0  0  0  0
 15 36  1  0  0  0  0
 15 37  1  0  0  0  0
 16 17  1  0  0  0  0
 17 18  1  0  0  0  0
 17 19  1  0  0  0  0
 17 38  1  0  0  0  0
 18 39  1  0  0  0  0
 18 40  1  0  0  0  0
 18 41  1  0  0  0  0
 19 42  1  0  0  0  0
 19 43  1  0  0  0  0
 20 21  2  0  0  0  0
 21 44  1  0  0  0  0
M  END
> <s_m_source_file>
AV-unprocessed.smi

> <i_m_source_file_index>
1671

> <i_lp_mmshare_version>
43012

> <i_f3d_flags>
0

> <s_epik_input>
W0NIM11TW0NASF0oW0NIM10pQyg9TylbTkhdW0NIMl1jMVtjSF1bY0hdYyhuW2NIXTEpTjJbQ0gyXVtDSDJdT1tDQEBIXShbQ0gzXSlbQ0gyXTI=

> <s_epik_cmdline>
J2VwaWtfcHl0aG9uJywgJy1waCcsICc3LjAnLCAnLXRuJywgJzgnLCAnLW1hJywgJzIwMCcsICctbWV0YWxfYmluZGluZycsICctaW1hZScsICc8aW5maWxlLm1hZT4nLCAnLW9tYWUnLCAnPG91dGZpbGUubWFlPic=

> <r_lp_tautomer_probability>
1

> <r_epik_Ionization_Penalty>
0.00480033

> <r_epik_Ionization_Penalty_Charging>
0

> <r_epik_Ionization_Penalty_Neutral>
0.00480033

> <r_epik_State_Penalty>
0.00347981

> <r_epik_Charging_Adjusted_Penalty>
0.00347981

> <i_epik_Tot_Q>
0

> <i_epik_Tot_abs_Q>
0

> <r_epik_Metal_State_Penalty>
-0

> <b_epik_Metal_Only>
0

> <s_lp_Force_Field>
OPLS_2005

> <r_lp_Energy>
16.3373

> <b_lp_Chiralities_Consistent>
1

> <s_lp_Variant>
AV-unprocessed.smi:1671-1

> <Gold.Version>
5.8.1

> <Gold.Id.Protein>
6NUR|6NUR_protein|mol2

> <Gold.PLP.Fitness>
50.6643

> <Gold.PLP.PLP>
-42.9284

> <Gold.PLP.part.hbond>
-4.0000

> <Gold.PLP.part.metal>
0.0000

> <Gold.PLP.part.buried>
-4.1609

> <Gold.PLP.part.nonpolar>
-35.7038

> <Gold.PLP.part.repulsive>
0.0905

> <Gold.PLP.ligand.clash>
0.0000

> <Gold.PLP.ligand.torsion>
0.8005

> <Gold.PLP.Chemscore.Hbond>
2.9913

> <Gold.PLP.Chemscore.CHOScore>
0.0000

> <Gold.PLP.Chemscore.Metal>
0.0000

> <Gold.Chemscore.Hbonds>
donor molecule, donor type, donor heavy atom, donor atom, acceptor molecule, acceptor atom, score
      L1  H     7    29       P1  7948  0.95
      P1  H  7997  8009       L1    20  0.78
      P1  H 10752 10763       L1     6  0.76

> <Gold.PLP.Chemscore.Internal.Correction>
0.3631

> <Gold.Rescore>
     Score         DG    S(hbond)    S(metal)    S(lipo)     H(rot)  DE(clash)    DE(int)     intcor
     18.63     -20.59       2.02        0.00     106.94       1.63       0.99       0.97       ----

> <Gold.Chemscore.Fitness>
18.6302

> <Gold.Chemscore.DG>
-20.5863

> <Gold.Chemscore.ZeroCoef>
-5.4800

> <Gold.Chemscore.Hbond>
2.0241

> <Gold.Chemscore.Metal>
0.0000

> <Gold.Chemscore.Lipo>
106.9363

> <Gold.Chemscore.Internal_Hbond>
0.0000

> <Gold.Chemscore.DEClash>
0.9886

> <Gold.Chemscore.DEInternal>
0.9675

> <Gold.Chemscore.Rot>
1.6272

> <Gold.Chemscore.Internal.Correction>
   9.000000E+99

> <Gold.Chemscore.Hbonds>
donor molecule, donor type, donor heavy atom, donor atom, acceptor molecule, acceptor atom, score
      L1  H     7    29       P1  7948  0.21
      P1  H  7997  8009       L1    20  0.29
      P1  H 10752 10763       L1     6  0.61

> <Gold.Chemscore.Hbond.Weighted>
-6.7605

> <Gold.Chemscore.Metal.Weighted>
-0.0000

> <Gold.Chemscore.Lipo.Weighted>
-12.5116

> <Gold.Chemscore.Internal_Hbond.Weighted>
0.0000

> <Gold.Chemscore.DEClash.Weighted>
0.9886

> <Gold.Chemscore.DEInternal.Weighted>
0.9675

> <Gold.Chemscore.Rot.Weighted>
4.1657

> <Gold.Chemscore.Internal.Correction.Weighted>
   9.000000E+99

> <Gold.Protein.RotatedTorsions>
[ 6907 6896 6895 6894 ] final -132.18 input  -60.11 | X-H torsion
[ 7974 7965 7964 7962 ] final  -30.69 input  175.53 | X-H torsion
[ 8008 7997 7996 7995 ] final  153.83 input   59.86 | X-H torsion
[ 10167 10162 10161 10158 ] final  -62.77 input  -65.29 | X-H torsion
[ 10718 10713 10712 10709 ] final  178.44 input   66.30 | X-H torsion
[ 10763 10752 10751 10750 ] final   84.89 input  -60.55 | X-H torsion
[ 11005 11000 10999 10996 ] final  170.78 input  -57.11 | X-H torsion

> <Gold.Protein.ActiveResidues>
 VAL166  LYS551  ARG553  GLY616  TRP617  ASP618  TYR619  PRO620  LYS621  CYS622 
 ASP623  PHE694  ASN695  SER759  ASP760  ASP761  ALA762  ILE779  LEU786  VAL792 
 PHE793  MET794  SER795  GLU796  ALA797  LYS798  CYS799  TRP800  GLU811  SER814 

> <Gold.Protein.RotatedAtoms>
  150.9594  133.6462  159.2756 H   0  0  0  0  0  0  0  0  0  0  0  0  # atno 6907 bound_to 6896
  151.3790  135.0935  159.9499 H   0  0  0  0  0  0  0  0  0  0  0  0  # atno 6908 bound_to 6896
  152.5142  133.9132  159.7553 H   0  0  0  0  0  0  0  0  0  0  0  0  # atno 6909 bound_to 6896
  146.1123  140.5573  142.8772 H   0  0  0  0  0  0  0  0  0  0  0  0  # atno 7974 bound_to 7965
  156.2562  140.1983  156.6551 H   0  0  0  0  0  0  0  0  0  0  0  0  # atno 8008 bound_to 7997
  154.6507  140.0572  156.9977 H   0  0  0  0  0  0  0  0  0  0  0  0  # atno 8009 bound_to 7997
  155.1423  140.3244  155.4452 H   0  0  0  0  0  0  0  0  0  0  0  0  # atno 8010 bound_to 7997
  140.5916  143.2343  151.6126 H   0  0  0  0  0  0  0  0  0  0  0  0  # atno 10167 bound_to 10162
  156.8905  130.9846  151.3050 H   0  0  0  0  0  0  0  0  0  0  0  0  # atno 10718 bound_to 10713
  153.1424  135.4637  154.9515 H   0  0  0  0  0  0  0  0  0  0  0  0  # atno 10763 bound_to 10752
  154.7758  135.3172  154.8098 H   0  0  0  0  0  0  0  0  0  0  0  0  # atno 10764 bound_to 10752
  153.8618  135.6912  153.4836 H   0  0  0  0  0  0  0  0  0  0  0  0  # atno 10765 bound_to 10752
  140.3120  134.7509  157.3999 H   0  0  0  0  0  0  0  0  0  0  0  0  # atno 11005 bound_to 11000
  144.7523  140.5221  143.6793 LP  0  0  0  0  0  0  0  0  0  0  0  0  # atno 17320 bound_to 7965
  145.5637  139.1480  143.3327 LP  0  0  0  0  0  0  0  0  0  0  0  0  # atno 17321 bound_to 7965
  139.5231  144.3142  152.0967 LP  0  0  0  0  0  0  0  0  0  0  0  0  # atno 17342 bound_to 10162
  140.2307  144.4371  150.6301 LP  0  0  0  0  0  0  0  0  0  0  0  0  # atno 17343 bound_to 10162
  157.6086  130.8566  149.8915 LP  0  0  0  0  0  0  0  0  0  0  0  0  # atno 17370 bound_to 10713
  156.0631  130.3696  150.0938 LP  0  0  0  0  0  0  0  0  0  0  0  0  # atno 17371 bound_to 10713
  140.1016  134.5465  155.8347 LP  0  0  0  0  0  0  0  0  0  0  0  0  # atno 17394 bound_to 11000
  141.2106  133.6696  156.6521 LP  0  0  0  0  0  0  0  0  0  0  0  0  # atno 17395 bound_to 11000

$$$$
