AV-unprocessed.smi:1261|AV-procd|sdf|5308|dock9
  -GOLD-   22720 4433D 1   1.00000     0.00000
 Structure written by MMmdl.
 50 51  0  0  0  0  0  0  0  0  2 V2000
  145.7765  134.6782  155.3536 C   0  0  0  0  0  0  0  0  0  0  0  0
  146.1353  135.5682  154.1552 C   0  0  1  0  0  0  0  0  0  0  0  0
  144.8758  136.0033  153.3845 C   0  0  0  0  0  0  0  0  0  0  0  0
  145.2196  136.9500  152.2197 C   0  0  2  0  0  0  0  0  0  0  0  0
  145.8716  136.2237  151.0295 C   0  0  0  0  0  0  0  0  0  0  0  0
  146.0735  138.1321  152.7199 C   0  0  0  0  0  0  0  0  0  0  0  0
  147.2911  137.6665  153.4337 N   0  3  1  0  0  0  0  0  0  0  0  0
  148.1995  138.7869  153.7869 C   0  0  0  0  0  0  0  0  0  0  0  0
  149.5029  138.2979  154.4396 C   0  0  0  0  0  0  0  0  0  0  0  0
  150.3680  139.4572  154.9601 C   0  0  0  0  0  0  0  0  0  0  0  0
  150.5345  139.3847  156.4058 N   0  0  0  0  0  0  0  0  0  0  0  0
  151.7134  139.3173  157.0484 C   0  0  0  0  0  0  0  0  0  0  0  0
  152.7915  139.2880  156.4559 O   0  0  0  0  0  0  0  0  0  0  0  0
  151.7051  139.2901  158.5870 C   0  0  0  0  0  0  0  0  0  0  0  0
  152.1692  140.5279  159.2352 N   0  0  0  0  0  0  0  0  0  0  0  0
  153.1764  140.3352  160.1687 N   0  0  0  0  0  0  0  0  0  0  0  0
  153.6704  141.3447  160.8025 C   0  0  0  0  0  0  0  0  0  0  0  0
  154.6639  141.1085  161.7207 O   0  0  0  0  0  0  0  0  0  0  0  0
  153.1940  142.6885  160.5569 C   0  0  0  0  0  0  0  0  0  0  0  0
  152.2107  142.8660  159.6477 C   0  0  0  0  0  0  0  0  0  0  0  0
  151.6236  141.7421  158.9160 C   0  0  0  0  0  0  0  0  0  0  0  0
  150.7150  141.8724  158.0962 O   0  0  0  0  0  0  0  0  0  0  0  0
  146.9466  136.8026  154.5943 C   0  0  0  0  0  0  0  0  0  0  0  0
  154.3129  140.4598  162.3111 H   0  0  0  0  0  0  0  0  0  0  0  0
  145.1489  135.2094  156.0697 H   0  0  0  0  0  0  0  0  0  0  0  0
  146.6726  134.3462  155.8788 H   0  0  0  0  0  0  0  0  0  0  0  0
  145.2349  133.7875  155.0332 H   0  0  0  0  0  0  0  0  0  0  0  0
  146.7597  134.9730  153.4878 H   0  0  0  0  0  0  0  0  0  0  0  0
  144.3355  135.1309  153.0147 H   0  0  0  0  0  0  0  0  0  0  0  0
  144.1956  136.5143  154.0677 H   0  0  0  0  0  0  0  0  0  0  0  0
  144.2794  137.3603  151.8488 H   0  0  0  0  0  0  0  0  0  0  0  0
  146.8452  135.8077  151.2876 H   0  0  0  0  0  0  0  0  0  0  0  0
  146.0182  136.9043  150.1905 H   0  0  0  0  0  0  0  0  0  0  0  0
  145.2437  135.4044  150.6781 H   0  0  0  0  0  0  0  0  0  0  0  0
  146.3521  138.7610  151.8732 H   0  0  0  0  0  0  0  0  0  0  0  0
  145.4849  138.7583  153.3927 H   0  0  0  0  0  0  0  0  0  0  0  0
  148.4655  139.3338  152.8811 H   0  0  0  0  0  0  0  0  0  0  0  0
  147.6821  139.4972  154.4337 H   0  0  0  0  0  0  0  0  0  0  0  0
  149.2795  137.6235  155.2657 H   0  0  0  0  0  0  0  0  0  0  0  0
  150.0761  137.7179  153.7148 H   0  0  0  0  0  0  0  0  0  0  0  0
  151.3576  139.4188  154.5042 H   0  0  0  0  0  0  0  0  0  0  0  0
  149.9329  140.4180  154.6796 H   0  0  0  0  0  0  0  0  0  0  0  0
  149.6936  139.3997  156.9652 H   0  0  0  0  0  0  0  0  0  0  0  0
  150.6876  139.0626  158.9100 H   0  0  0  0  0  0  0  0  0  0  0  0
  152.3071  138.4444  158.9239 H   0  0  0  0  0  0  0  0  0  0  0  0
  153.6203  143.5246  161.0917 H   0  0  0  0  0  0  0  0  0  0  0  0
  151.8464  143.8643  159.4540 H   0  0  0  0  0  0  0  0  0  0  0  0
  146.3839  137.3851  155.3258 H   0  0  0  0  0  0  0  0  0  0  0  0
  147.8545  136.4664  155.0939 H   0  0  0  0  0  0  0  0  0  0  0  0
  147.7949  137.0890  152.7756 H   0  0  0  0  0  0  0  0  0  0  0  0
  1  2  1  0  0  0  0
  1 25  1  0  0  0  0
  1 26  1  0  0  0  0
  1 27  1  0  0  0  0
  2 23  1  0  0  0  0
  2  3  1  0  0  0  0
  2 28  1  0  0  0  0
  3  4  1  0  0  0  0
  3 29  1  0  0  0  0
  3 30  1  0  0  0  0
  4  5  1  0  0  0  0
  4  6  1  0  0  0  0
  4 31  1  0  0  0  0
  5 32  1  0  0  0  0
  5 33  1  0  0  0  0
  5 34  1  0  0  0  0
  6  7  1  0  0  0  0
  6 35  1  0  0  0  0
  6 36  1  0  0  0  0
  7  8  1  0  0  0  0
  7 23  1  0  0  0  0
  7 50  1  0  0  0  0
  8  9  1  0  0  0  0
  8 37  1  0  0  0  0
  8 38  1  0  0  0  0
  9 10  1  0  0  0  0
  9 39  1  0  0  0  0
  9 40  1  0  0  0  0
 10 11  1  0  0  0  0
 10 41  1  0  0  0  0
 10 42  1  0  0  0  0
 11 12  1  0  0  0  0
 11 43  1  0  0  0  0
 12 13  2  0  0  0  0
 12 14  1  0  0  0  0
 14 44  1  0  0  0  0
 14 45  1  0  0  0  0
 14 15  1  0  0  0  0
 15 16  1  0  0  0  0
 15 21  1  0  0  0  0
 16 17  2  0  0  0  0
 17 18  1  0  0  0  0
 17 19  1  0  0  0  0
 18 24  1  0  0  0  0
 19 46  1  0  0  0  0
 19 20  2  0  0  0  0
 20 47  1  0  0  0  0
 20 21  1  0  0  0  0
 21 22  2  0  0  0  0
 23 48  1  0  0  0  0
 23 49  1  0  0  0  0
M  CHG  1   7   1
M  END
> <s_m_source_file>
AV-unprocessed.smi

> <i_m_source_file_index>
1261

> <i_lp_mmshare_version>
43012

> <i_f3d_flags>
0

> <s_epik_input>
W0NIM11bQ0BASF0xW0NIMl1bQ0BASF0oW0NIM10pW0NIMl1OKFtDSDJdMSlbQ0gyXVtDSDJdW0NIMl1bTkhdQyg9TylbQ0gyXW4yW25IXWMoPU8pW2NIXVtjSF1jMj1P

> <s_epik_cmdline>
J2VwaWtfcHl0aG9uJywgJy1waCcsICc3LjAnLCAnLXRuJywgJzgnLCAnLW1hJywgJzIwMCcsICctbWV0YWxfYmluZGluZycsICctaW1hZScsICc8aW5maWxlLm1hZT4nLCAnLW9tYWUnLCAnPG91dGZpbGUubWFlPic=

> <r_lp_tautomer_probability>
0.9996

> <r_epik_Ionization_Penalty>
2.1425

> <r_epik_Ionization_Penalty_Charging>
0.000312112

> <r_epik_Ionization_Penalty_Neutral>
2.14218

> <r_epik_State_Penalty>
1.71978

> <r_epik_Charging_Adjusted_Penalty>
1.72009

> <i_epik_Tot_Q>
1

> <i_epik_Tot_abs_Q>
1

> <r_epik_Metal_State_Penalty>
1.71978

> <b_epik_Metal_Only>
0

> <s_lp_Force_Field>
OPLS_2005

> <r_lp_Energy>
29.1446

> <b_lp_Chiralities_Consistent>
1

> <s_lp_Variant>
AV-unprocessed.smi:1261-8

> <Gold.Version>
5.8.1

> <Gold.Id.Protein>
6NUR|6NUR_protein|mol2

> <Gold.PLP.Fitness>
43.0348

> <Gold.PLP.PLP>
-35.1321

> <Gold.PLP.part.hbond>
-3.0000

> <Gold.PLP.part.metal>
0.0000

> <Gold.PLP.part.buried>
-4.0037

> <Gold.PLP.part.nonpolar>
-28.6251

> <Gold.PLP.part.repulsive>
0.1019

> <Gold.PLP.ligand.clash>
0.0000

> <Gold.PLP.ligand.torsion>
0.5711

> <Gold.PLP.Chemscore.Hbond>
3.0000

> <Gold.PLP.Chemscore.CHOScore>
0.0000

> <Gold.PLP.Chemscore.Metal>
0.0000

> <Gold.Chemscore.Hbonds>
donor molecule, donor type, donor heavy atom, donor atom, acceptor molecule, acceptor atom, score
      L1  H     7    50       P1  7948  2.00
      P1  H  7997  8009       L1    13  1.00

> <Gold.PLP.Chemscore.Internal.Correction>
0.0449

> <Gold.Rescore>
     Score         DG    S(hbond)    S(metal)    S(lipo)     H(rot)  DE(clash)    DE(int)     intcor
     11.38     -12.49       2.00        0.00      71.57       3.14       0.08       1.04       ----

> <Gold.Chemscore.Fitness>
11.3763

> <Gold.Chemscore.DG>
-12.4947

> <Gold.Chemscore.ZeroCoef>
-5.4800

> <Gold.Chemscore.Hbond>
1.9962

> <Gold.Chemscore.Metal>
0.0000

> <Gold.Chemscore.Lipo>
71.5670

> <Gold.Chemscore.Internal_Hbond>
0.0000

> <Gold.Chemscore.DEClash>
0.0789

> <Gold.Chemscore.DEInternal>
1.0394

> <Gold.Chemscore.Rot>
3.1352

> <Gold.Chemscore.Internal.Correction>
   9.000000E+99

> <Gold.Chemscore.Hbonds>
donor molecule, donor type, donor heavy atom, donor atom, acceptor molecule, acceptor atom, score
      L1  H     7    50       P1  7948  1.00
      P1  H  7997  8009       L1    13  1.00

> <Gold.Chemscore.Hbond.Weighted>
-6.6673

> <Gold.Chemscore.Metal.Weighted>
-0.0000

> <Gold.Chemscore.Lipo.Weighted>
-8.3733

> <Gold.Chemscore.Internal_Hbond.Weighted>
0.0000

> <Gold.Chemscore.DEClash.Weighted>
0.0789

> <Gold.Chemscore.DEInternal.Weighted>
1.0394

> <Gold.Chemscore.Rot.Weighted>
8.0260

> <Gold.Chemscore.Internal.Correction.Weighted>
   9.000000E+99

> <Gold.Protein.RotatedTorsions>
[ 6907 6896 6895 6894 ] final  122.41 input  -60.11 | X-H torsion
[ 7974 7965 7964 7962 ] final   51.35 input  175.53 | X-H torsion
[ 8008 7997 7996 7995 ] final -172.88 input   59.86 | X-H torsion
[ 10167 10162 10161 10158 ] final   79.64 input  -65.29 | X-H torsion
[ 10718 10713 10712 10709 ] final  118.16 input   66.30 | X-H torsion
[ 10763 10752 10751 10750 ] final  -76.97 input  -60.55 | X-H torsion
[ 11005 11000 10999 10996 ] final  -71.90 input  -57.11 | X-H torsion

> <Gold.Protein.ActiveResidues>
 VAL166  LYS551  ARG553  GLY616  TRP617  ASP618  TYR619  PRO620  LYS621  CYS622 
 ASP623  PHE694  ASN695  SER759  ASP760  ASP761  ALA762  ILE779  LEU786  VAL792 
 PHE793  MET794  SER795  GLU796  ALA797  LYS798  CYS799  TRP800  GLU811  SER814 

> <Gold.Protein.RotatedAtoms>
  152.4245  133.7172  159.6512 H   0  0  0  0  0  0  0  0  0  0  0  0  # atno 6907 bound_to 6896
  150.8121  133.8391  159.3183 H   0  0  0  0  0  0  0  0  0  0  0  0  # atno 6908 bound_to 6896
  151.6098  135.1043  160.0130 H   0  0  0  0  0  0  0  0  0  0  0  0  # atno 6909 bound_to 6896
  145.9921  139.4350  143.0067 H   0  0  0  0  0  0  0  0  0  0  0  0  # atno 7974 bound_to 7965
  155.9503  140.1125  157.0982 H   0  0  0  0  0  0  0  0  0  0  0  0  # atno 8008 bound_to 7997
  154.4108  140.1202  156.5110 H   0  0  0  0  0  0  0  0  0  0  0  0  # atno 8009 bound_to 7997
  155.6851  140.3473  155.4873 H   0  0  0  0  0  0  0  0  0  0  0  0  # atno 8010 bound_to 7997
  139.9582  144.5979  150.8097 H   0  0  0  0  0  0  0  0  0  0  0  0  # atno 10167 bound_to 10162
  157.6049  131.1045  150.7716 H   0  0  0  0  0  0  0  0  0  0  0  0  # atno 10718 bound_to 10713
  154.5068  135.5780  153.6573 H   0  0  0  0  0  0  0  0  0  0  0  0  # atno 10763 bound_to 10752
  152.9889  135.6149  154.2931 H   0  0  0  0  0  0  0  0  0  0  0  0  # atno 10764 bound_to 10752
  154.2842  135.2850  155.2663 H   0  0  0  0  0  0  0  0  0  0  0  0  # atno 10765 bound_to 10752
  141.1600  133.6831  156.6976 H   0  0  0  0  0  0  0  0  0  0  0  0  # atno 11005 bound_to 11000
  145.7614  140.9934  143.1198 LP  0  0  0  0  0  0  0  0  0  0  0  0  # atno 17320 bound_to 7965
  144.6892  139.9334  143.7472 LP  0  0  0  0  0  0  0  0  0  0  0  0  # atno 17321 bound_to 7965
  140.7561  143.3060  151.2960 LP  0  0  0  0  0  0  0  0  0  0  0  0  # atno 17342 bound_to 10162
  139.6575  144.0250  152.2669 LP  0  0  0  0  0  0  0  0  0  0  0  0  # atno 17343 bound_to 10162
  156.8107  130.4951  149.5356 LP  0  0  0  0  0  0  0  0  0  0  0  0  # atno 17370 bound_to 10713
  156.1132  130.6056  151.0080 LP  0  0  0  0  0  0  0  0  0  0  0  0  # atno 17371 bound_to 10713
  140.2983  134.8184  157.4076 LP  0  0  0  0  0  0  0  0  0  0  0  0  # atno 17394 bound_to 11000
  140.1285  134.5127  155.8125 LP  0  0  0  0  0  0  0  0  0  0  0  0  # atno 17395 bound_to 11000

$$$$
