AV-unprocessed.smi:2962|AV-procd|sdf|11315|dock10
  -GOLD-   2272016223D 1   1.00000     0.00000
 Structure written by MMmdl.
 36 37  0  0  0  0  0  0  0  0  1 V2000
  146.9815  141.6201  153.7794 C   0  0  0  0  0  0  0  0  0  0  0  0
  148.3889  141.7366  153.9173 O   0  0  0  0  0  0  0  0  0  0  0  0
  148.8609  141.4112  155.2170 C   0  0  0  0  0  0  0  0  0  0  0  0
  150.2549  142.0040  155.4869 C   0  0  0  0  0  0  0  0  0  0  0  0
  150.7273  141.6990  156.8304 N   0  0  0  0  0  0  0  0  0  0  0  0
  150.6868  140.5174  157.4961 C   0  0  0  0  0  0  0  0  0  0  0  0
  150.0143  139.0505  156.7886 S   0  0  0  0  0  0  0  0  0  0  0  0
  151.4700  138.5195  155.8358 C   0  0  2  0  0  0  0  0  0  0  0  0
  152.2320  139.7463  155.3061 C   0  0  0  0  0  0  0  0  0  0  0  0
  151.0847  137.5436  154.7151 C   0  0  0  0  0  0  0  0  0  0  0  0
  150.2782  138.0092  153.7577 N   0  0  0  0  0  0  0  0  0  0  0  0
  151.4988  136.3857  154.7065 O   0  0  0  0  0  0  0  0  0  0  0  0
  151.1930  140.5307  158.7290 N   0  0  0  0  0  0  0  0  0  0  0  0
  151.6021  141.8410  158.8776 C   0  0  0  0  0  0  0  0  0  0  0  0
  152.2228  142.4921  159.9677 C   0  0  0  0  0  0  0  0  0  0  0  0
  152.5537  143.8608  159.8869 C   0  0  0  0  0  0  0  0  0  0  0  0
  152.2697  144.5959  158.7177 C   0  0  0  0  0  0  0  0  0  0  0  0
  151.6526  143.9659  157.6200 C   0  0  0  0  0  0  0  0  0  0  0  0
  151.3249  142.5996  157.7059 C   0  0  0  0  0  0  0  0  0  0  0  0
  146.6879  141.9226  152.7743 H   0  0  0  0  0  0  0  0  0  0  0  0
  146.4481  142.2539  154.4878 H   0  0  0  0  0  0  0  0  0  0  0  0
  146.6586  140.5888  153.9262 H   0  0  0  0  0  0  0  0  0  0  0  0
  148.1490  141.7245  155.9822 H   0  0  0  0  0  0  0  0  0  0  0  0
  148.9179  140.3243  155.2839 H   0  0  0  0  0  0  0  0  0  0  0  0
  150.9781  141.6578  154.7504 H   0  0  0  0  0  0  0  0  0  0  0  0
  150.2174  143.0883  155.3789 H   0  0  0  0  0  0  0  0  0  0  0  0
  152.1460  137.9917  156.5097 H   0  0  0  0  0  0  0  0  0  0  0  0
  153.1087  139.4519  154.7278 H   0  0  0  0  0  0  0  0  0  0  0  0
  152.5801  140.3716  156.1285 H   0  0  0  0  0  0  0  0  0  0  0  0
  151.6008  140.3655  154.6674 H   0  0  0  0  0  0  0  0  0  0  0  0
  149.9777  137.4010  153.0099 H   0  0  0  0  0  0  0  0  0  0  0  0
  149.9538  138.9646  153.7978 H   0  0  0  0  0  0  0  0  0  0  0  0
  152.4439  141.9380  160.8680 H   0  0  0  0  0  0  0  0  0  0  0  0
  153.0270  144.3492  160.7260 H   0  0  0  0  0  0  0  0  0  0  0  0
  152.5257  145.6441  158.6641 H   0  0  0  0  0  0  0  0  0  0  0  0
  151.4328  144.5265  156.7235 H   0  0  0  0  0  0  0  0  0  0  0  0
  1  2  1  0  0  0  0
  1 20  1  0  0  0  0
  1 21  1  0  0  0  0
  1 22  1  0  0  0  0
  2  3  1  0  0  0  0
  3  4  1  0  0  0  0
  3 23  1  0  0  0  0
  3 24  1  0  0  0  0
  4  5  1  0  0  0  0
  4 25  1  0  0  0  0
  4 26  1  0  0  0  0
  5 19  1  0  0  0  0
  5  6  1  0  0  0  0
  6  7  1  0  0  0  0
  6 13  2  0  0  0  0
  7  8  1  0  0  0  0
  8  9  1  0  0  0  0
  8 10  1  0  0  0  0
  8 27  1  0  0  0  0
  9 28  1  0  0  0  0
  9 29  1  0  0  0  0
  9 30  1  0  0  0  0
 10 11  1  0  0  0  0
 10 12  2  0  0  0  0
 11 31  1  0  0  0  0
 11 32  1  0  0  0  0
 13 14  1  0  0  0  0
 14 19  2  0  0  0  0
 14 15  1  0  0  0  0
 15 16  2  0  0  0  0
 15 33  1  0  0  0  0
 16 17  1  0  0  0  0
 16 34  1  0  0  0  0
 17 18  2  0  0  0  0
 17 35  1  0  0  0  0
 18 19  1  0  0  0  0
 18 36  1  0  0  0  0
M  END
> <s_m_source_file>
AV-unprocessed.smi

> <i_m_source_file_index>
2962

> <i_lp_mmshare_version>
43012

> <i_f3d_flags>
0

> <s_epik_input>
W2NIXTFbY0hdW2NIXVtjSF1jKGMxMiluKFtDSDJdW0NIMl1PW0NIM10pYyhuMilTW0NASF0oW0NIM10pQyg9TylbTkgyXQ==

> <s_epik_cmdline>
J2VwaWtfcHl0aG9uJywgJy1waCcsICc3LjAnLCAnLXRuJywgJzgnLCAnLW1hJywgJzIwMCcsICctbWV0YWxfYmluZGluZycsICctaW1hZScsICc8aW5maWxlLm1hZT4nLCAnLW9tYWUnLCAnPG91dGZpbGUubWFlPic=

> <r_epik_Ionization_Penalty>
0.0199986

> <r_epik_Ionization_Penalty_Charging>
0

> <r_epik_Ionization_Penalty_Neutral>
0.0199986

> <r_epik_State_Penalty>
0.0160044

> <r_epik_Charging_Adjusted_Penalty>
0.0160044

> <i_epik_Tot_Q>
0

> <i_epik_Tot_abs_Q>
0

> <r_epik_Metal_State_Penalty>
0.015472

> <b_epik_Metal_Only>
0

> <s_lp_Force_Field>
OPLS_2005

> <r_lp_Energy>
7.16755

> <b_lp_Chiralities_Consistent>
1

> <s_lp_Variant>
AV-unprocessed.smi:2962-1

> <Gold.Version>
5.8.1

> <Gold.Id.Protein>
6NUR|6NUR_protein|mol2

> <Gold.PLP.Fitness>
46.6582

> <Gold.PLP.PLP>
-41.3520

> <Gold.PLP.part.hbond>
-3.5934

> <Gold.PLP.part.metal>
0.0000

> <Gold.PLP.part.buried>
-3.3510

> <Gold.PLP.part.nonpolar>
-35.3501

> <Gold.PLP.part.repulsive>
0.3965

> <Gold.PLP.ligand.clash>
0.0000

> <Gold.PLP.ligand.torsion>
0.8512

> <Gold.PLP.Chemscore.Hbond>
2.3185

> <Gold.PLP.Chemscore.CHOScore>
0.0000

> <Gold.PLP.Chemscore.Metal>
0.0000

> <Gold.Chemscore.Hbonds>
donor molecule, donor type, donor heavy atom, donor atom, acceptor molecule, acceptor atom, score
      L1  H    11    31       P1  7948  0.95
      P1  H  8011  8017       L1     2  0.29
      P1  H 10752 10763       L1    12  1.00

> <Gold.PLP.Chemscore.Internal.Correction>
0.0530

> <Gold.Rescore>
     Score         DG    S(hbond)    S(metal)    S(lipo)     H(rot)  DE(clash)    DE(int)     intcor
     15.76     -17.91       1.94        0.00     105.64       2.50       0.14       2.01       ----

> <Gold.Chemscore.Fitness>
15.7559

> <Gold.Chemscore.DG>
-17.9077

> <Gold.Chemscore.ZeroCoef>
-5.4800

> <Gold.Chemscore.Hbond>
1.9386

> <Gold.Chemscore.Metal>
0.0000

> <Gold.Chemscore.Lipo>
105.6398

> <Gold.Chemscore.Internal_Hbond>
0.0000

> <Gold.Chemscore.DEClash>
0.1435

> <Gold.Chemscore.DEInternal>
2.0084

> <Gold.Chemscore.Rot>
2.5027

> <Gold.Chemscore.Internal.Correction>
   9.000000E+99

> <Gold.Chemscore.Hbonds>
donor molecule, donor type, donor heavy atom, donor atom, acceptor molecule, acceptor atom, score
      L1  H    11    31       P1  7948  0.22
      P1  H  8011  8017       L1     2  0.29
      P1  H 10752 10763       L1    12  1.00

> <Gold.Chemscore.Hbond.Weighted>
-6.4749

> <Gold.Chemscore.Metal.Weighted>
-0.0000

> <Gold.Chemscore.Lipo.Weighted>
-12.3599

> <Gold.Chemscore.Internal_Hbond.Weighted>
0.0000

> <Gold.Chemscore.DEClash.Weighted>
0.1435

> <Gold.Chemscore.DEInternal.Weighted>
2.0084

> <Gold.Chemscore.Rot.Weighted>
6.4070

> <Gold.Chemscore.Internal.Correction.Weighted>
   9.000000E+99

> <Gold.Protein.RotatedTorsions>
[ 6907 6896 6895 6894 ] final  136.41 input  -60.11 | X-H torsion
[ 7974 7965 7964 7962 ] final  -33.98 input  175.53 | X-H torsion
[ 8008 7997 7996 7995 ] final  113.49 input   59.86 | X-H torsion
[ 10167 10162 10161 10158 ] final -177.15 input  -65.29 | X-H torsion
[ 10718 10713 10712 10709 ] final -124.40 input   66.30 | X-H torsion
[ 10763 10752 10751 10750 ] final   44.67 input  -60.55 | X-H torsion
[ 11005 11000 10999 10996 ] final -119.07 input  -57.11 | X-H torsion

> <Gold.Protein.ActiveResidues>
 VAL166  LYS551  ARG553  GLY616  TRP617  ASP618  TYR619  PRO620  LYS621  CYS622 
 ASP623  PHE694  ASN695  SER759  ASP760  ASP761  ALA762  ILE779  LEU786  VAL792 
 PHE793  MET794  SER795  GLU796  ALA797  LYS798  CYS799  TRP800  GLU811  SER814 

> <Gold.Protein.RotatedAtoms>
  152.2897  133.5549  159.5549 H   0  0  0  0  0  0  0  0  0  0  0  0  # atno 6907 bound_to 6896
  150.7230  134.0447  159.3786 H   0  0  0  0  0  0  0  0  0  0  0  0  # atno 6908 bound_to 6896
  151.8353  135.0608  160.0492 H   0  0  0  0  0  0  0  0  0  0  0  0  # atno 6909 bound_to 6896
  146.0867  140.5982  142.8883 H   0  0  0  0  0  0  0  0  0  0  0  0  # atno 7974 bound_to 7965
  156.2261  140.2978  156.0071 H   0  0  0  0  0  0  0  0  0  0  0  0  # atno 8008 bound_to 7997
  155.2352  140.0420  157.2985 H   0  0  0  0  0  0  0  0  0  0  0  0  # atno 8009 bound_to 7997
  154.5918  140.2403  155.7918 H   0  0  0  0  0  0  0  0  0  0  0  0  # atno 8010 bound_to 7997
  139.5494  144.2149  152.1049 H   0  0  0  0  0  0  0  0  0  0  0  0  # atno 10167 bound_to 10162
  156.1584  130.6584  151.0015 H   0  0  0  0  0  0  0  0  0  0  0  0  # atno 10718 bound_to 10713
  152.9837  135.6063  154.3312 H   0  0  0  0  0  0  0  0  0  0  0  0  # atno 10763 bound_to 10752
  154.3016  135.2773  155.2610 H   0  0  0  0  0  0  0  0  0  0  0  0  # atno 10764 bound_to 10752
  154.4860  135.5904  153.6480 H   0  0  0  0  0  0  0  0  0  0  0  0  # atno 10765 bound_to 10752
  141.0241  134.0080  157.3240 H   0  0  0  0  0  0  0  0  0  0  0  0  # atno 11005 bound_to 11000
  144.7331  140.4729  143.6923 LP  0  0  0  0  0  0  0  0  0  0  0  0  # atno 17320 bound_to 7965
  145.6116  139.1514  143.3072 LP  0  0  0  0  0  0  0  0  0  0  0  0  # atno 17321 bound_to 7965
  140.1642  144.4997  150.6615 LP  0  0  0  0  0  0  0  0  0  0  0  0  # atno 17342 bound_to 10162
  140.6752  143.2302  151.5525 LP  0  0  0  0  0  0  0  0  0  0  0  0  # atno 17343 bound_to 10162
  157.6713  131.0860  150.7604 LP  0  0  0  0  0  0  0  0  0  0  0  0  # atno 17370 bound_to 10713
  156.7668  130.4816  149.5426 LP  0  0  0  0  0  0  0  0  0  0  0  0  # atno 17371 bound_to 10713
  139.9165  135.0197  156.7900 LP  0  0  0  0  0  0  0  0  0  0  0  0  # atno 17394 bound_to 11000
  140.6521  133.9721  155.7761 LP  0  0  0  0  0  0  0  0  0  0  0  0  # atno 17395 bound_to 11000

$$$$
