#       Name:                AV-unprocessed.smi:2689
#       Creating user name   scv26
#       Creation time:       Fri Mar 27 14:42:04 2020


#       File generated by GOLD software.
#

@<TRIPOS>MOLECULE
AV-unprocessed.smi:2689
    41    41     1
SMALL
NO_CHARGES


@<TRIPOS>ATOM
      1 ****        -1.1385   3.2336  -1.4827 C.3            1 S1                 0.0000
      2 ****        -1.3258   2.9592   0.0139 C.3            1 S1                 0.0000
      3 ****        -1.5029   1.4927   0.2994 C.2            1 S1                 0.0000
      4 ****        -2.6869   0.9344   0.1081 N.2            1 S1                 0.0000
      5 ****        -2.5306  -0.4165   0.4302 O.3            1 S1                 0.0000
      6 ****        -1.2431  -0.6229   0.8073 C.2            1 S1                 0.0000
      7 ****        -0.8746  -2.0221   1.1784 C.3            1 S1                 0.0000
      8 ****        -1.5372  -2.4956   2.4758 C.3            1 S1                 0.0000
      9 ****        -0.5374   0.5488   0.7561 C.2            1 S1                 0.0000
     10 ****         0.9150   0.7881   1.0842 C.3            1 S1                 0.0000
     11 ****         1.7634   0.5704  -0.1677 C.2            1 S1                 0.0000
     12 ****         2.1219   1.5341  -0.8441 O.2            1 S1                 0.0000
     13 ****         2.0618  -0.7035  -0.4624 N.am           1 S1                 0.0000
     14 ****         2.7595  -1.1710  -1.6530 C.3            1 S1                 0.0000
     15 ****         1.8764  -2.1655  -2.4042 C.2            1 S1                 0.0000
     16 ****         1.4410  -1.8153  -3.5226 O.co2          1 S1                 0.0000
     17 ****         1.6456  -3.2589  -1.8417 O.co2          1 S1                -1.0000
     18 ****        -1.0036   4.2992  -1.6685 H              1 S1                 0.0000
     19 ****        -2.0045   2.9024  -2.0564 H              1 S1                 0.0000
     20 ****        -0.2620   2.7144  -1.8710 H              1 S1                 0.0000
     21 ****        -0.4673   3.3487   0.5604 H              1 S1                 0.0000
     22 ****        -2.1891   3.5171   0.3781 H              1 S1                 0.0000
     23 ****        -1.1506  -2.6927   0.3639 H              1 S1                 0.0000
     24 ****         0.2076  -2.1031   1.2787 H              1 S1                 0.0000
     25 ****        -1.2400  -3.5174   2.7127 H              1 S1                 0.0000
     26 ****        -2.6243  -2.4755   2.3933 H              1 S1                 0.0000
     27 ****        -1.2520  -1.8616   3.3157 H              1 S1                 0.0000
     28 ****         1.0818   1.7988   1.4571 H              1 S1                 0.0000
     29 ****         1.2610   0.1192   1.8733 H              1 S1                 0.0000
     30 ****         1.7128  -1.4222   0.1547 H              1 S1                 0.0000
     31 ****         3.0410  -0.3504  -2.3152 H              1 S1                 0.0000
     32 ****         3.6821  -1.6673  -1.3514 H              1 S1                 0.0000
     33 ****        -3.5228   1.3865  -0.2033 LP             1 S1                 0.0000
     34 ****        -2.7429  -0.9804  -0.3679 LP             1 S1                 0.0000
     35 ****        -3.1450  -0.6574   1.1815 LP             1 S1                 0.0000
     36 ****         1.8579   2.4602  -0.5743 LP             1 S1                 0.0000
     37 ****         2.6771   1.3911  -1.6634 LP             1 S1                 0.0000
     38 ****         0.8540  -2.4326  -4.0464 LP             1 S1                 0.0000
     39 ****         1.6797  -0.9178  -3.8935 LP             1 S1                 0.0000
     40 ****         1.0676  -3.9401  -2.2910 LP             1 S1                 0.0000
     41 ****         2.0391  -3.4516  -0.9428 LP             1 S1                 0.0000
@<TRIPOS>BOND
    1    1    2 1     
    2    1   18 1     
    3    1   19 1     
    4    1   20 1     
    5    2    3 1     
    6    2   21 1     
    7    2   22 1     
    8    3    9 1     
    9    3    4 2     
   10    4    5 1     
   11    5    6 1     
   12    6    7 1     
   13    6    9 2     
   14    7    8 1     
   15    7   23 1     
   16    7   24 1     
   17    8   25 1     
   18    8   26 1     
   19    8   27 1     
   20    9   10 1     
   21   10   11 1     
   22   10   28 1     
   23   10   29 1     
   24   11   12 2     
   25   11   13 am    
   26   13   14 1     
   27   13   30 1     
   28   14   15 1     
   29   14   31 1     
   30   14   32 1     
   31   15   16 ar    
   32   15   17 ar    
   33    4   33 1     
   34    5   34 1     
   35    5   35 1     
   36   12   36 1     
   37   12   37 1     
   38   16   38 1     
   39   16   39 1     
   40   17   40 1     
   41   17   41 1     
@<TRIPOS>SUBSTRUCTURE
      1 S1             1
@<TRIPOS>SET
LONE_PAIRS      STATIC     ATOMS    <user>   **** ""
9 33 34 35 36 37 38 39 40 41
DONOR_HYDROGENS      STATIC     ATOMS    <user>   **** ""
1 30
ATOM$BLUE        STATIC     ATOMS    COLORGROUP SYSTEM
9 33 34 35 36 37 38 39 40 41
ATOM$RED        STATIC     ATOMS    COLORGROUP SYSTEM
1 30
