AV-unprocessed.smi:733|AV-procd|sdf|3529|dock7
  -GOLD-   22720 0523D 1   1.00000     0.00000
 Structure written by MMmdl.
 43 44  0  0  0  0  0  0  0  0  1 V2000
  152.0189  144.1763  161.5491 C   0  0  0  0  0  0  0  0  0  0  0  0
  151.9158  143.1988  160.4189 C   0  0  0  0  0  0  0  0  0  0  0  0
  151.0847  143.4848  159.3318 N   0  0  0  0  0  0  0  0  0  0  0  0
  151.1046  142.5161  158.4106 C   0  0  0  0  0  0  0  0  0  0  0  0
  150.3588  142.5423  157.2031 N   0  0  0  0  0  0  0  0  0  0  0  0
  150.1686  141.5452  156.3217 C   0  0  0  0  0  0  0  0  0  0  0  0
  150.6394  140.4115  156.4183 O   0  0  0  0  0  0  0  0  0  0  0  0
  149.3857  141.9412  155.3076 N   0  0  0  0  0  0  0  0  0  0  0  0
  148.9545  141.1123  154.1825 C   0  0  0  0  0  0  0  0  0  0  0  0
  147.4427  141.2709  153.8566 C   0  0  0  0  0  0  0  0  0  0  0  0
  147.0015  140.3655  152.6675 C   0  0  0  0  0  0  0  0  0  0  0  0
  146.9511  138.8433  152.9194 C   0  0  0  0  0  0  0  0  0  0  0  0
  148.2000  138.3327  153.3334 O   0  0  0  0  0  0  0  0  0  0  0  0
  146.6068  140.9834  155.1279 C   0  0  0  0  0  0  0  0  0  0  0  0
  146.3228  142.3371  155.7707 C   0  0  0  0  0  0  0  0  0  0  0  0
  146.1028  143.2465  154.5711 C   0  0  0  0  0  0  0  0  0  0  0  0
  147.1164  142.7578  153.5334 C   0  0  0  0  0  0  0  0  0  0  0  0
  152.1572  141.1738  158.8233 S   0  0  0  0  0  0  0  0  0  0  0  0
  152.5687  141.9925  160.3098 C   0  0  0  0  0  0  0  0  0  0  0  0
  153.5222  141.3823  161.2825 C   0  0  0  0  0  0  0  0  0  0  0  0
  151.6254  143.7506  162.4723 H   0  0  0  0  0  0  0  0  0  0  0  0
  151.4614  145.0911  161.3448 H   0  0  0  0  0  0  0  0  0  0  0  0
  153.0560  144.4587  161.7304 H   0  0  0  0  0  0  0  0  0  0  0  0
  149.9111  143.4212  156.9898 H   0  0  0  0  0  0  0  0  0  0  0  0
  149.0493  142.8928  155.3176 H   0  0  0  0  0  0  0  0  0  0  0  0
  149.5581  141.3952  153.3201 H   0  0  0  0  0  0  0  0  0  0  0  0
  149.1903  140.0612  154.3582 H   0  0  0  0  0  0  0  0  0  0  0  0
  146.0286  140.6951  152.2995 H   0  0  0  0  0  0  0  0  0  0  0  0
  147.6853  140.5325  151.8345 H   0  0  0  0  0  0  0  0  0  0  0  0
  146.2322  138.6349  153.7123 H   0  0  0  0  0  0  0  0  0  0  0  0
  146.6043  138.2981  152.0424 H   0  0  0  0  0  0  0  0  0  0  0  0
  148.5272  137.7541  152.6616 H   0  0  0  0  0  0  0  0  0  0  0  0
  145.6503  140.5326  154.8598 H   0  0  0  0  0  0  0  0  0  0  0  0
  147.0975  140.2958  155.8177 H   0  0  0  0  0  0  0  0  0  0  0  0
  145.4650  142.3128  156.4433 H   0  0  0  0  0  0  0  0  0  0  0  0
  147.1906  142.6718  156.3406 H   0  0  0  0  0  0  0  0  0  0  0  0
  145.0901  143.1114  154.1888 H   0  0  0  0  0  0  0  0  0  0  0  0
  146.2284  144.3019  154.8154 H   0  0  0  0  0  0  0  0  0  0  0  0
  148.0079  143.3802  153.6065 H   0  0  0  0  0  0  0  0  0  0  0  0
  146.7312  142.8979  152.5227 H   0  0  0  0  0  0  0  0  0  0  0  0
  154.4238  141.9888  161.3718 H   0  0  0  0  0  0  0  0  0  0  0  0
  153.8200  140.3812  160.9699 H   0  0  0  0  0  0  0  0  0  0  0  0
  153.0687  141.3035  162.2707 H   0  0  0  0  0  0  0  0  0  0  0  0
  1  2  1  0  0  0  0
  1 21  1  0  0  0  0
  1 22  1  0  0  0  0
  1 23  1  0  0  0  0
  2 19  2  0  0  0  0
  2  3  1  0  0  0  0
  3  4  2  0  0  0  0
  4  5  1  0  0  0  0
  4 18  1  0  0  0  0
  5  6  1  0  0  0  0
  5 24  1  0  0  0  0
  6  7  2  0  0  0  0
  6  8  1  0  0  0  0
  8  9  1  0  0  0  0
  8 25  1  0  0  0  0
  9 10  1  0  0  0  0
  9 26  1  0  0  0  0
  9 27  1  0  0  0  0
 10 17  1  0  0  0  0
 10 11  1  0  0  0  0
 10 14  1  0  0  0  0
 11 12  1  0  0  0  0
 11 28  1  0  0  0  0
 11 29  1  0  0  0  0
 12 13  1  0  0  0  0
 12 30  1  0  0  0  0
 12 31  1  0  0  0  0
 13 32  1  0  0  0  0
 14 15  1  0  0  0  0
 14 33  1  0  0  0  0
 14 34  1  0  0  0  0
 15 16  1  0  0  0  0
 15 35  1  0  0  0  0
 15 36  1  0  0  0  0
 16 17  1  0  0  0  0
 16 37  1  0  0  0  0
 16 38  1  0  0  0  0
 17 39  1  0  0  0  0
 17 40  1  0  0  0  0
 18 19  1  0  0  0  0
 19 20  1  0  0  0  0
 20 41  1  0  0  0  0
 20 42  1  0  0  0  0
 20 43  1  0  0  0  0
M  END
> <s_m_source_file>
AV-unprocessed.smi

> <i_m_source_file_index>
733

> <i_lp_mmshare_version>
43012

> <i_f3d_flags>
0

> <s_epik_input>
W0NIM11jMW5jKHNjMVtDSDNdKVtOSF1DKD1PKVtOSF1bQ0gyXUMyKFtDSDJdW0NIMl1bT0hdKVtDSDJdW0NIMl1bQ0gyXVtDSDJdMg==

> <s_epik_cmdline>
J2VwaWtfcHl0aG9uJywgJy1waCcsICc3LjAnLCAnLXRuJywgJzgnLCAnLW1hJywgJzIwMCcsICctbWV0YWxfYmluZGluZycsICctaW1hZScsICc8aW5maWxlLm1hZT4nLCAnLW9tYWUnLCAnPG91dGZpbGUubWFlPic=

> <r_lp_tautomer_probability>
0.999

> <r_epik_Ionization_Penalty>
0.000695797

> <r_epik_Ionization_Penalty_Charging>
0

> <r_epik_Ionization_Penalty_Neutral>
0.000695797

> <r_epik_State_Penalty>
0.000177984

> <r_epik_Charging_Adjusted_Penalty>
0.000177984

> <i_epik_Tot_Q>
0

> <i_epik_Tot_abs_Q>
0

> <r_epik_Metal_State_Penalty>
-0

> <b_epik_Metal_Only>
0

> <s_lp_Force_Field>
OPLS_2005

> <r_lp_Energy>
29.226

> <b_lp_Chiralities_Consistent>
1

> <s_lp_Variant>
AV-unprocessed.smi:733-1

> <Gold.Version>
5.8.1

> <Gold.Id.Protein>
6NUR|6NUR_protein|mol2

> <Gold.PLP.Fitness>
52.5884

> <Gold.PLP.PLP>
-44.2828

> <Gold.PLP.part.hbond>
-4.0000

> <Gold.PLP.part.metal>
0.0000

> <Gold.PLP.part.buried>
-4.6541

> <Gold.PLP.part.nonpolar>
-35.5293

> <Gold.PLP.part.repulsive>
0.2800

> <Gold.PLP.ligand.clash>
0.0000

> <Gold.PLP.ligand.torsion>
0.2106

> <Gold.PLP.Chemscore.Hbond>
2.8880

> <Gold.PLP.Chemscore.CHOScore>
0.0000

> <Gold.PLP.Chemscore.Metal>
0.0000

> <Gold.Chemscore.Hbonds>
donor molecule, donor type, donor heavy atom, donor atom, acceptor molecule, acceptor atom, score
      L1  H     5    24       P1  8028  0.80
      L1  H     8    25       P1  8028  1.00
      L1  H    13    32       P1  7948  1.00

> <Gold.PLP.Chemscore.Internal.Correction>
0.0628

> <Gold.Rescore>
     Score         DG    S(hbond)    S(metal)    S(lipo)     H(rot)  DE(clash)    DE(int)     intcor
     17.89     -21.56       2.95        0.00     103.40       2.30       1.70       1.96       ----

> <Gold.Chemscore.Fitness>
17.8924

> <Gold.Chemscore.DG>
-21.5573

> <Gold.Chemscore.ZeroCoef>
-5.4800

> <Gold.Chemscore.Hbond>
2.9534

> <Gold.Chemscore.Metal>
0.0000

> <Gold.Chemscore.Lipo>
103.4045

> <Gold.Chemscore.Internal_Hbond>
0.0000

> <Gold.Chemscore.DEClash>
1.7047

> <Gold.Chemscore.DEInternal>
1.9602

> <Gold.Chemscore.Rot>
2.2990

> <Gold.Chemscore.Internal.Correction>
   9.000000E+99

> <Gold.Chemscore.Hbonds>
donor molecule, donor type, donor heavy atom, donor atom, acceptor molecule, acceptor atom, score
      L1  H     5    24       P1  8028  0.75
      L1  H     8    25       P1  8028  1.00
      L1  H    13    32       P1  7948  1.00

> <Gold.Chemscore.Hbond.Weighted>
-9.8643

> <Gold.Chemscore.Metal.Weighted>
-0.0000

> <Gold.Chemscore.Lipo.Weighted>
-12.0983

> <Gold.Chemscore.Internal_Hbond.Weighted>
0.0000

> <Gold.Chemscore.DEClash.Weighted>
1.7047

> <Gold.Chemscore.DEInternal.Weighted>
1.9602

> <Gold.Chemscore.Rot.Weighted>
5.8854

> <Gold.Chemscore.Internal.Correction.Weighted>
   9.000000E+99

> <Gold.Protein.RotatedTorsions>
[ 6907 6896 6895 6894 ] final -124.05 input  -60.11 | X-H torsion
[ 7974 7965 7964 7962 ] final -117.99 input  175.53 | X-H torsion
[ 8008 7997 7996 7995 ] final  -51.41 input   59.86 | X-H torsion
[ 10167 10162 10161 10158 ] final  109.73 input  -65.29 | X-H torsion
[ 10718 10713 10712 10709 ] final   99.89 input   66.30 | X-H torsion
[ 10763 10752 10751 10750 ] final   16.60 input  -60.55 | X-H torsion
[ 11005 11000 10999 10996 ] final -131.73 input  -57.11 | X-H torsion

> <Gold.Protein.ActiveResidues>
 VAL166  LYS551  ARG553  GLY616  TRP617  ASP618  TYR619  PRO620  LYS621  CYS622 
 ASP623  PHE694  ASN695  SER759  ASP760  ASP761  ALA762  ILE779  LEU786  VAL792 
 PHE793  MET794  SER795  GLU796  ALA797  LYS798  CYS799  TRP800  GLU811  SER814 

> <Gold.Protein.RotatedAtoms>
  150.8731  133.7478  159.2954 H   0  0  0  0  0  0  0  0  0  0  0  0  # atno 6907 bound_to 6896
  151.5083  135.1062  159.9857 H   0  0  0  0  0  0  0  0  0  0  0  0  # atno 6908 bound_to 6896
  152.4709  133.7981  159.6994 H   0  0  0  0  0  0  0  0  0  0  0  0  # atno 6909 bound_to 6896
  145.0789  140.8412  143.4051 H   0  0  0  0  0  0  0  0  0  0  0  0  # atno 7974 bound_to 7965
  154.4082  140.1249  156.4824 H   0  0  0  0  0  0  0  0  0  0  0  0  # atno 8008 bound_to 7997
  155.7072  140.3494  155.4938 H   0  0  0  0  0  0  0  0  0  0  0  0  # atno 8009 bound_to 7997
  155.9333  140.1073  157.1105 H   0  0  0  0  0  0  0  0  0  0  0  0  # atno 8010 bound_to 7997
  139.6743  144.7123  151.1630 H   0  0  0  0  0  0  0  0  0  0  0  0  # atno 10167 bound_to 10162
  157.6866  131.0683  150.5017 H   0  0  0  0  0  0  0  0  0  0  0  0  # atno 10718 bound_to 10713
  153.1415  135.6761  153.9019 H   0  0  0  0  0  0  0  0  0  0  0  0  # atno 10763 bound_to 10752
  153.8474  135.3097  155.3431 H   0  0  0  0  0  0  0  0  0  0  0  0  # atno 10764 bound_to 10752
  154.7791  135.4898  153.9891 H   0  0  0  0  0  0  0  0  0  0  0  0  # atno 10765 bound_to 10752
  140.9232  134.1416  157.4296 H   0  0  0  0  0  0  0  0  0  0  0  0  # atno 11005 bound_to 11000
  145.1202  139.2699  143.5592 LP  0  0  0  0  0  0  0  0  0  0  0  0  # atno 17320 bound_to 7965
  146.3530  140.0823  142.8617 LP  0  0  0  0  0  0  0  0  0  0  0  0  # atno 17321 bound_to 7965
  140.7630  143.5795  150.8909 LP  0  0  0  0  0  0  0  0  0  0  0  0  # atno 17342 bound_to 10162
  139.9463  143.6323  152.3041 LP  0  0  0  0  0  0  0  0  0  0  0  0  # atno 17343 bound_to 10162
  156.5339  130.4191  149.6188 LP  0  0  0  0  0  0  0  0  0  0  0  0  # atno 17370 bound_to 10713
  156.3045  130.7195  151.2074 LP  0  0  0  0  0  0  0  0  0  0  0  0  # atno 17371 bound_to 10713
  139.8780  134.9979  156.5871 LP  0  0  0  0  0  0  0  0  0  0  0  0  # atno 17394 bound_to 11000
  140.7960  133.8544  155.8686 LP  0  0  0  0  0  0  0  0  0  0  0  0  # atno 17395 bound_to 11000

$$$$
