AV-unprocessed.smi:1978|AV-procd|sdf|7998|dock1
  -GOLD-   2272010183D 1   1.00000     0.00000
 Structure written by MMmdl.
 45 46  0  0  0  0  0  0  0  0  2 V2000
  137.7460  137.1542  153.9577 C   0  0  0  0  0  0  0  0  0  0  0  0
  139.2328  137.0897  153.8816 C   0  0  0  0  0  0  0  0  0  0  0  0
  140.1742  137.9295  153.3560 C   0  0  0  0  0  0  0  0  0  0  0  0
  141.3935  137.2560  153.6334 C   0  0  0  0  0  0  0  0  0  0  0  0
  142.6385  137.8143  153.2466 N   0  0  0  0  0  0  0  0  0  0  0  0
  143.8403  137.2129  153.2497 C   0  0  0  0  0  0  0  0  0  0  0  0
  144.0509  136.0459  153.5811 O   0  0  0  0  0  0  0  0  0  0  0  0
  144.8076  138.0498  152.8472 N   0  0  0  0  0  0  0  0  0  0  0  0
  146.2237  137.7037  152.7533 C   0  0  0  0  0  0  0  0  0  0  0  0
  147.1322  138.5613  153.6824 C   0  0  2  0  0  0  0  0  0  0  0  0
  147.3457  139.9564  153.0387 C   0  0  0  0  0  0  0  0  0  0  0  0
  148.4270  137.8594  153.9938 N   0  3  2  0  0  0  0  0  0  0  0  0
  148.3184  136.8384  155.0811 C   0  0  0  0  0  0  0  0  0  0  0  0
  149.5929  135.9849  155.1909 C   0  0  0  0  0  0  0  0  0  0  0  0
  150.8324  136.8545  155.4099 C   0  0  0  0  0  0  0  0  0  0  0  0
  150.9153  137.9135  154.3054 C   0  0  0  0  0  0  0  0  0  0  0  0
  149.6211  138.7477  154.1983 C   0  0  2  0  0  0  0  0  0  0  0  0
  149.4657  139.7254  155.3858 C   0  0  0  0  0  0  0  0  0  0  0  0
  141.2129  136.1077  154.2677 N   0  0  0  0  0  0  0  0  0  0  0  0
  139.8270  135.9948  154.4292 O   0  0  0  0  0  0  0  0  0  0  0  0
  137.3933  138.1759  153.8156 H   0  0  0  0  0  0  0  0  0  0  0  0
  137.3913  136.8073  154.9286 H   0  0  0  0  0  0  0  0  0  0  0  0
  137.2931  136.5294  153.1880 H   0  0  0  0  0  0  0  0  0  0  0  0
  140.0123  138.8732  152.8568 H   0  0  0  0  0  0  0  0  0  0  0  0
  142.6115  138.7774  152.9459 H   0  0  0  0  0  0  0  0  0  0  0  0
  144.5487  138.9914  152.5906 H   0  0  0  0  0  0  0  0  0  0  0  0
  146.2940  136.6384  152.9631 H   0  0  0  0  0  0  0  0  0  0  0  0
  146.5321  137.8316  151.7151 H   0  0  0  0  0  0  0  0  0  0  0  0
  146.6104  138.7115  154.6287 H   0  0  0  0  0  0  0  0  0  0  0  0
  146.4025  140.4354  152.7777 H   0  0  0  0  0  0  0  0  0  0  0  0
  147.9368  139.8839  152.1253 H   0  0  0  0  0  0  0  0  0  0  0  0
  147.8416  140.6583  153.7072 H   0  0  0  0  0  0  0  0  0  0  0  0
  148.0995  137.3239  156.0325 H   0  0  0  0  0  0  0  0  0  0  0  0
  147.5023  136.1444  154.9037 H   0  0  0  0  0  0  0  0  0  0  0  0
  149.4933  135.2697  156.0083 H   0  0  0  0  0  0  0  0  0  0  0  0
  149.7163  135.3967  154.2805 H   0  0  0  0  0  0  0  0  0  0  0  0
  150.7878  137.3299  156.3901 H   0  0  0  0  0  0  0  0  0  0  0  0
  151.7306  136.2364  155.4069 H   0  0  0  0  0  0  0  0  0  0  0  0
  151.7727  138.5651  154.4784 H   0  0  0  0  0  0  0  0  0  0  0  0
  151.1020  137.4177  153.3515 H   0  0  0  0  0  0  0  0  0  0  0  0
  149.7628  139.3464  153.2999 H   0  0  0  0  0  0  0  0  0  0  0  0
  150.3407  140.3708  155.4673 H   0  0  0  0  0  0  0  0  0  0  0  0
  149.3591  139.2096  156.3392 H   0  0  0  0  0  0  0  0  0  0  0  0
  148.6019  140.3790  155.2716 H   0  0  0  0  0  0  0  0  0  0  0  0
  148.6410  137.3348  153.1579 H   0  0  0  0  0  0  0  0  0  0  0  0
  1  2  1  0  0  0  0
  1 21  1  0  0  0  0
  1 22  1  0  0  0  0
  1 23  1  0  0  0  0
  2 20  1  0  0  0  0
  2  3  2  0  0  0  0
  3  4  1  0  0  0  0
  3 24  1  0  0  0  0
  4  5  1  0  0  0  0
  4 19  2  0  0  0  0
  5  6  1  0  0  0  0
  5 25  1  0  0  0  0
  6  7  2  0  0  0  0
  6  8  1  0  0  0  0
  8  9  1  0  0  0  0
  8 26  1  0  0  0  0
  9 10  1  0  0  0  0
  9 27  1  0  0  0  0
  9 28  1  0  0  0  0
 10 11  1  0  0  0  0
 10 12  1  0  0  0  0
 10 29  1  0  0  0  0
 11 30  1  0  0  0  0
 11 31  1  0  0  0  0
 11 32  1  0  0  0  0
 12 17  1  0  0  0  0
 12 13  1  0  0  0  0
 12 45  1  0  0  0  0
 13 14  1  0  0  0  0
 13 33  1  0  0  0  0
 13 34  1  0  0  0  0
 14 15  1  0  0  0  0
 14 35  1  0  0  0  0
 14 36  1  0  0  0  0
 15 16  1  0  0  0  0
 15 37  1  0  0  0  0
 15 38  1  0  0  0  0
 16 17  1  0  0  0  0
 16 39  1  0  0  0  0
 16 40  1  0  0  0  0
 17 18  1  0  0  0  0
 17 41  1  0  0  0  0
 18 42  1  0  0  0  0
 18 43  1  0  0  0  0
 18 44  1  0  0  0  0
 19 20  1  0  0  0  0
M  CHG  1  12   1
M  END
> <s_m_source_file>
AV-unprocessed.smi

> <i_m_source_file_index>
1978

> <i_lp_mmshare_version>
43012

> <i_f3d_flags>
0

> <s_epik_input>
W0NIM11jMVtjSF1jKG5vMSlbTkhdQyg9TylbTkhdW0NIMl1bQ0BIXShbQ0gzXSlOMltDSDJdW0NIMl1bQ0gyXVtDSDJdW0NASF0yW0NIM10=

> <s_epik_cmdline>
J2VwaWtfcHl0aG9uJywgJy1waCcsICc3LjAnLCAnLXRuJywgJzgnLCAnLW1hJywgJzIwMCcsICctbWV0YWxfYmluZGluZycsICctaW1hZScsICc8aW5maWxlLm1hZT4nLCAnLW9tYWUnLCAnPG91dGZpbGUubWFlPic=

> <r_epik_Ionization_Penalty>
0.00265971

> <r_epik_Ionization_Penalty_Charging>
0.00262393

> <r_epik_Ionization_Penalty_Neutral>
3.57846e-05

> <r_epik_State_Penalty>
0.00182566

> <r_epik_Charging_Adjusted_Penalty>
0.00444959

> <i_epik_Tot_Q>
1

> <i_epik_Tot_abs_Q>
1

> <r_epik_Metal_State_Penalty>
0.0216344

> <b_epik_Metal_Only>
0

> <s_lp_Force_Field>
OPLS_2005

> <r_lp_Energy>
22.9215

> <b_lp_Chiralities_Consistent>
1

> <s_lp_Variant>
AV-unprocessed.smi:1978-7

> <Gold.Version>
5.8.1

> <Gold.Id.Protein>
6NUR|6NUR_protein|mol2

> <Gold.PLP.Fitness>
45.5726

> <Gold.PLP.PLP>
-32.4011

> <Gold.PLP.part.hbond>
-4.7147

> <Gold.PLP.part.metal>
0.0000

> <Gold.PLP.part.buried>
-2.0205

> <Gold.PLP.part.nonpolar>
-25.6850

> <Gold.PLP.part.repulsive>
0.2274

> <Gold.PLP.ligand.clash>
0.0000

> <Gold.PLP.ligand.torsion>
0.9041

> <Gold.PLP.Chemscore.Hbond>
4.9600

> <Gold.PLP.Chemscore.CHOScore>
0.0000

> <Gold.PLP.Chemscore.Metal>
0.0000

> <Gold.Chemscore.Hbonds>
donor molecule, donor type, donor heavy atom, donor atom, acceptor molecule, acceptor atom, score
      L1  H     5    25       P1 10175  0.98
      L1  H     8    26       P1 10175  1.00
      L1  H    12    45       P1  7948  2.00
      P1  H 11000 11005       L1    20  0.74

> <Gold.PLP.Chemscore.Internal.Correction>
0.0996

> <Gold.Rescore>
     Score         DG    S(hbond)    S(metal)    S(lipo)     H(rot)  DE(clash)    DE(int)     intcor
     20.06     -22.32       3.65        0.00      73.55       1.55       0.06       2.21       ----

> <Gold.Chemscore.Fitness>
20.0565

> <Gold.Chemscore.DG>
-22.3233

> <Gold.Chemscore.ZeroCoef>
-5.4800

> <Gold.Chemscore.Hbond>
3.6523

> <Gold.Chemscore.Metal>
0.0000

> <Gold.Chemscore.Lipo>
73.5550

> <Gold.Chemscore.Internal_Hbond>
0.0000

> <Gold.Chemscore.DEClash>
0.0605

> <Gold.Chemscore.DEInternal>
2.2063

> <Gold.Chemscore.Rot>
1.5474

> <Gold.Chemscore.Internal.Correction>
   9.000000E+99

> <Gold.Chemscore.Hbonds>
donor molecule, donor type, donor heavy atom, donor atom, acceptor molecule, acceptor atom, score
      L1  H     5    25       P1 10175  0.90
      L1  H     8    26       P1 10175  1.00
      L1  H    12    45       P1  7948  1.00
      P1  H 11000 11005       L1    20  0.09

> <Gold.Chemscore.Hbond.Weighted>
-12.1986

> <Gold.Chemscore.Metal.Weighted>
-0.0000

> <Gold.Chemscore.Lipo.Weighted>
-8.6059

> <Gold.Chemscore.Internal_Hbond.Weighted>
0.0000

> <Gold.Chemscore.DEClash.Weighted>
0.0605

> <Gold.Chemscore.DEInternal.Weighted>
2.2063

> <Gold.Chemscore.Rot.Weighted>
3.9612

> <Gold.Chemscore.Internal.Correction.Weighted>
   9.000000E+99

> <Gold.Protein.RotatedTorsions>
[ 6907 6896 6895 6894 ] final   95.67 input  -60.11 | X-H torsion
[ 7974 7965 7964 7962 ] final -109.28 input  175.53 | X-H torsion
[ 8008 7997 7996 7995 ] final -146.33 input   59.86 | X-H torsion
[ 10167 10162 10161 10158 ] final   50.86 input  -65.29 | X-H torsion
[ 10718 10713 10712 10709 ] final   10.42 input   66.30 | X-H torsion
[ 10763 10752 10751 10750 ] final  160.34 input  -60.55 | X-H torsion
[ 11005 11000 10999 10996 ] final   74.30 input  -57.11 | X-H torsion

> <Gold.Protein.ActiveResidues>
 VAL166  LYS551  ARG553  GLY616  TRP617  ASP618  TYR619  PRO620  LYS621  CYS622 
 ASP623  PHE694  ASN695  SER759  ASP760  ASP761  ALA762  ILE779  LEU786  VAL792 
 PHE793  MET794  SER795  GLU796  ALA797  LYS798  CYS799  TRP800  GLU811  SER814 

> <Gold.Protein.RotatedAtoms>
  152.5442  134.1004  159.8314 H   0  0  0  0  0  0  0  0  0  0  0  0  # atno 6907 bound_to 6896
  151.1082  133.5185  159.2614 H   0  0  0  0  0  0  0  0  0  0  0  0  # atno 6908 bound_to 6896
  151.1914  135.0413  159.8888 H   0  0  0  0  0  0  0  0  0  0  0  0  # atno 6909 bound_to 6896
  145.1825  140.8977  143.3472 H   0  0  0  0  0  0  0  0  0  0  0  0  # atno 7974 bound_to 7965
  155.5577  140.0622  157.2836 H   0  0  0  0  0  0  0  0  0  0  0  0  # atno 8008 bound_to 7997
  154.4400  140.1891  156.0795 H   0  0  0  0  0  0  0  0  0  0  0  0  # atno 8009 bound_to 7997
  156.0470  140.3289  155.7311 H   0  0  0  0  0  0  0  0  0  0  0  0  # atno 8010 bound_to 7997
  140.2680  144.3297  150.6298 H   0  0  0  0  0  0  0  0  0  0  0  0  # atno 10167 bound_to 10162
  156.9807  130.6005  149.5676 H   0  0  0  0  0  0  0  0  0  0  0  0  # atno 10718 bound_to 10713
  154.2458  135.2773  155.2836 H   0  0  0  0  0  0  0  0  0  0  0  0  # atno 10763 bound_to 10752
  154.5506  135.5676  153.6922 H   0  0  0  0  0  0  0  0  0  0  0  0  # atno 10764 bound_to 10752
  152.9990  135.6273  154.2604 H   0  0  0  0  0  0  0  0  0  0  0  0  # atno 10765 bound_to 10752
  139.9398  134.7421  156.1131 H   0  0  0  0  0  0  0  0  0  0  0  0  # atno 11005 bound_to 11000
  145.0122  139.3499  143.6114 LP  0  0  0  0  0  0  0  0  0  0  0  0  # atno 17320 bound_to 7965
  146.3450  139.9389  142.8743 LP  0  0  0  0  0  0  0  0  0  0  0  0  # atno 17321 bound_to 7965
  140.5912  143.2168  151.7249 LP  0  0  0  0  0  0  0  0  0  0  0  0  # atno 17342 bound_to 10162
  139.4997  144.3935  152.0255 LP  0  0  0  0  0  0  0  0  0  0  0  0  # atno 17343 bound_to 10162
  156.0245  130.5339  150.8369 LP  0  0  0  0  0  0  0  0  0  0  0  0  # atno 17370 bound_to 10713
  157.5528  131.0944  150.9671 LP  0  0  0  0  0  0  0  0  0  0  0  0  # atno 17371 bound_to 10713
  141.1027  133.6671  156.2792 LP  0  0  0  0  0  0  0  0  0  0  0  0  # atno 17394 bound_to 11000
  140.5982  134.5582  157.5512 LP  0  0  0  0  0  0  0  0  0  0  0  0  # atno 17395 bound_to 11000

$$$$
