AV-unprocessed.smi:1646|AV-procd|sdf|6624|dock4
  -GOLD-   22720 7323D 1   1.00000     0.00000
 Structure written by MMmdl.
 29 30  0  0  0  0  0  0  0  0  1 V2000
  151.8249  141.1626  157.2180 O   0  0  0  0  0  0  0  0  0  0  0  0
  150.9924  141.9984  156.8661 C   0  0  0  0  0  0  0  0  0  0  0  0
  149.8306  141.5864  155.9622 C   0  0  0  0  0  0  0  0  0  0  0  0
  150.0124  140.2332  155.4700 N   0  0  0  0  0  0  0  0  0  0  0  0
  150.2698  139.0881  156.1997 C   0  0  0  0  0  0  0  0  0  0  0  0
  150.3440  138.0838  155.2840 C   0  0  0  0  0  0  0  0  0  0  0  0
  150.6736  136.2435  155.6363 Br  0  0  0  0  0  0  0  0  0  0  0  0
  150.1221  138.6795  154.0164 C   0  0  0  0  0  0  0  0  0  0  0  0
  149.9224  139.9841  154.1376 N   0  0  0  0  0  0  0  0  0  0  0  0
  151.0330  143.2871  157.2376 N   0  0  0  0  0  0  0  0  0  0  0  0
  152.0389  143.8789  158.1155 C   0  0  0  0  0  0  0  0  0  0  0  0
  152.2022  143.0428  159.3999 C   0  0  0  0  0  0  0  0  0  0  0  0
  152.1252  144.0316  160.5648 C   0  0  0  0  0  0  0  0  0  0  0  0
  151.2403  145.1604  160.0463 C   0  0  0  0  0  0  0  0  0  0  0  0
  151.6318  145.2935  158.5747 C   0  0  0  0  0  0  0  0  0  0  0  0
  148.8821  141.6563  156.4977 H   0  0  0  0  0  0  0  0  0  0  0  0
  149.7678  142.2648  155.1103 H   0  0  0  0  0  0  0  0  0  0  0  0
  150.3708  139.0903  157.2751 H   0  0  0  0  0  0  0  0  0  0  0  0
  150.0988  138.2218  153.0384 H   0  0  0  0  0  0  0  0  0  0  0  0
  150.3048  143.9002  156.9005 H   0  0  0  0  0  0  0  0  0  0  0  0
  152.9945  143.9274  157.5900 H   0  0  0  0  0  0  0  0  0  0  0  0
  151.3911  142.3190  159.4955 H   0  0  0  0  0  0  0  0  0  0  0  0
  153.1358  142.4794  159.4075 H   0  0  0  0  0  0  0  0  0  0  0  0
  151.7359  143.5768  161.4761 H   0  0  0  0  0  0  0  0  0  0  0  0
  153.1210  144.4189  160.7845 H   0  0  0  0  0  0  0  0  0  0  0  0
  150.1914  144.8711  160.1238 H   0  0  0  0  0  0  0  0  0  0  0  0
  151.3732  146.0886  160.6023 H   0  0  0  0  0  0  0  0  0  0  0  0
  152.4943  145.9564  158.4927 H   0  0  0  0  0  0  0  0  0  0  0  0
  150.8331  145.7356  157.9773 H   0  0  0  0  0  0  0  0  0  0  0  0
  1  2  2  0  0  0  0
  2  3  1  0  0  0  0
  2 10  1  0  0  0  0
  3  4  1  0  0  0  0
  3 16  1  0  0  0  0
  3 17  1  0  0  0  0
  4  9  1  0  0  0  0
  4  5  1  0  0  0  0
  5  6  2  0  0  0  0
  5 18  1  0  0  0  0
  6  7  1  0  0  0  0
  6  8  1  0  0  0  0
  8  9  2  0  0  0  0
  8 19  1  0  0  0  0
 10 11  1  0  0  0  0
 10 20  1  0  0  0  0
 11 15  1  0  0  0  0
 11 12  1  0  0  0  0
 11 21  1  0  0  0  0
 12 13  1  0  0  0  0
 12 22  1  0  0  0  0
 12 23  1  0  0  0  0
 13 14  1  0  0  0  0
 13 24  1  0  0  0  0
 13 25  1  0  0  0  0
 14 15  1  0  0  0  0
 14 26  1  0  0  0  0
 14 27  1  0  0  0  0
 15 28  1  0  0  0  0
 15 29  1  0  0  0  0
M  END
> <s_m_source_file>
AV-unprocessed.smi

> <i_m_source_file_index>
1646

> <i_lp_mmshare_version>
43012

> <i_f3d_flags>
0

> <s_epik_input>
W0NIMl0xW0NIMl1bQ0gyXVtDSDJdW0NIXTFbTkhdQyg9TylbQ0gyXW4yW2NIXWMoQnIpW2NIXW4y

> <s_epik_cmdline>
J2VwaWtfcHl0aG9uJywgJy1waCcsICc3LjAnLCAnLXRuJywgJzgnLCAnLW1hJywgJzIwMCcsICctbWV0YWxfYmluZGluZycsICctaW1hZScsICc8aW5maWxlLm1hZT4nLCAnLW9tYWUnLCAnPG91dGZpbGUubWFlPic=

> <r_lp_tautomer_probability>
1

> <r_epik_Ionization_Penalty>
2.35926e-07

> <r_epik_Ionization_Penalty_Charging>
0

> <r_epik_Ionization_Penalty_Neutral>
2.35926e-07

> <r_epik_State_Penalty>
-0

> <r_epik_Charging_Adjusted_Penalty>
0

> <i_epik_Tot_Q>
0

> <i_epik_Tot_abs_Q>
0

> <r_epik_Metal_State_Penalty>
-0

> <b_epik_Metal_Only>
0

> <s_lp_Force_Field>
OPLS_2005

> <r_lp_Energy>
20.2229

> <b_lp_Chiralities_Consistent>
1

> <s_lp_Variant>
AV-unprocessed.smi:1646-1

> <Gold.Version>
5.8.1

> <Gold.Id.Protein>
6NUR|6NUR_protein|mol2

> <Gold.PLP.Fitness>
42.5725

> <Gold.PLP.PLP>
-32.6216

> <Gold.PLP.part.hbond>
-2.0000

> <Gold.PLP.part.metal>
0.0000

> <Gold.PLP.part.buried>
-3.4151

> <Gold.PLP.part.nonpolar>
-28.4004

> <Gold.PLP.part.repulsive>
1.2636

> <Gold.PLP.ligand.clash>
0.0000

> <Gold.PLP.ligand.torsion>
0.2494

> <Gold.PLP.Chemscore.Hbond>
1.8868

> <Gold.PLP.Chemscore.CHOScore>
1.5953

> <Gold.PLP.Chemscore.Metal>
0.0000

> <Gold.Chemscore.Hbonds>
donor molecule, donor type, donor heavy atom, donor atom, acceptor molecule, acceptor atom, score
      L1  H    10    20       P1  8028  0.98
      P1  H  7989  7998       L1     9  0.94
      L1  C     8    19       P1  7948  1.00
      L1  C     8    19       P1  7949  0.01
      L1  C     8    19       P1  7957  0.47

> <Gold.PLP.Chemscore.Internal.Correction>
0.0037

> <Gold.Rescore>
     Score         DG    S(hbond)    S(metal)    S(lipo)     H(rot)  DE(clash)    DE(int)     intcor
     16.79     -18.29       1.95        0.00      84.81       1.41       0.05       1.45       ----

> <Gold.Chemscore.Fitness>
16.7907

> <Gold.Chemscore.DG>
-18.2903

> <Gold.Chemscore.ZeroCoef>
-5.4800

> <Gold.Chemscore.Hbond>
1.9488

> <Gold.Chemscore.Metal>
0.0000

> <Gold.Chemscore.Lipo>
84.8146

> <Gold.Chemscore.Internal_Hbond>
0.0000

> <Gold.Chemscore.DEClash>
0.0525

> <Gold.Chemscore.DEInternal>
1.4471

> <Gold.Chemscore.Rot>
1.4148

> <Gold.Chemscore.Internal.Correction>
   9.000000E+99

> <Gold.Chemscore.Hbonds>
donor molecule, donor type, donor heavy atom, donor atom, acceptor molecule, acceptor atom, score
      L1  H    10    20       P1  8028  0.91
      P1  H  7989  7998       L1     9  0.14

> <Gold.Chemscore.Hbond.Weighted>
-6.5090

> <Gold.Chemscore.Metal.Weighted>
-0.0000

> <Gold.Chemscore.Lipo.Weighted>
-9.9233

> <Gold.Chemscore.Internal_Hbond.Weighted>
0.0000

> <Gold.Chemscore.DEClash.Weighted>
0.0525

> <Gold.Chemscore.DEInternal.Weighted>
1.4471

> <Gold.Chemscore.Rot.Weighted>
3.6220

> <Gold.Chemscore.Internal.Correction.Weighted>
   9.000000E+99

> <Gold.Protein.RotatedTorsions>
[ 6907 6896 6895 6894 ] final  -80.78 input  -60.11 | X-H torsion
[ 7974 7965 7964 7962 ] final   33.53 input  175.53 | X-H torsion
[ 8008 7997 7996 7995 ] final  -96.76 input   59.86 | X-H torsion
[ 10167 10162 10161 10158 ] final  -96.83 input  -65.29 | X-H torsion
[ 10718 10713 10712 10709 ] final   52.97 input   66.30 | X-H torsion
[ 10763 10752 10751 10750 ] final  140.39 input  -60.55 | X-H torsion
[ 11005 11000 10999 10996 ] final   -6.21 input  -57.11 | X-H torsion

> <Gold.Protein.ActiveResidues>
 VAL166  LYS551  ARG553  GLY616  TRP617  ASP618  TYR619  PRO620  LYS621  CYS622 
 ASP623  PHE694  ASN695  SER759  ASP760  ASP761  ALA762  ILE779  LEU786  VAL792 
 PHE793  MET794  SER795  GLU796  ALA797  LYS798  CYS799  TRP800  GLU811  SER814 

> <Gold.Protein.RotatedAtoms>
  150.6923  134.3918  159.5079 H   0  0  0  0  0  0  0  0  0  0  0  0  # atno 6907 bound_to 6896
  152.1705  134.8835  160.0544 H   0  0  0  0  0  0  0  0  0  0  0  0  # atno 6908 bound_to 6896
  151.9863  133.3740  159.4164 H   0  0  0  0  0  0  0  0  0  0  0  0  # atno 6909 bound_to 6896
  146.1414  139.6385  142.9160 H   0  0  0  0  0  0  0  0  0  0  0  0  # atno 7974 bound_to 7965
  154.7787  140.0468  157.1110 H   0  0  0  0  0  0  0  0  0  0  0  0  # atno 8008 bound_to 7997
  154.9731  140.3092  155.4959 H   0  0  0  0  0  0  0  0  0  0  0  0  # atno 8009 bound_to 7997
  156.2933  140.2249  156.4825 H   0  0  0  0  0  0  0  0  0  0  0  0  # atno 8010 bound_to 7997
  140.2898  143.3229  152.0358 H   0  0  0  0  0  0  0  0  0  0  0  0  # atno 10167 bound_to 10162
  157.5124  130.8509  149.8452 H   0  0  0  0  0  0  0  0  0  0  0  0  # atno 10718 bound_to 10713
  153.9219  135.2999  155.3447 H   0  0  0  0  0  0  0  0  0  0  0  0  # atno 10763 bound_to 10752
  154.7571  135.4952  153.9398 H   0  0  0  0  0  0  0  0  0  0  0  0  # atno 10764 bound_to 10752
  153.1137  135.6765  153.9558 H   0  0  0  0  0  0  0  0  0  0  0  0  # atno 10765 bound_to 10752
  140.6995  133.9002  155.8673 H   0  0  0  0  0  0  0  0  0  0  0  0  # atno 11005 bound_to 11000
  145.5037  141.0437  143.2526 LP  0  0  0  0  0  0  0  0  0  0  0  0  # atno 17320 bound_to 7965
  144.7797  139.6552  143.7159 LP  0  0  0  0  0  0  0  0  0  0  0  0  # atno 17321 bound_to 7965
  139.4941  144.6533  151.6628 LP  0  0  0  0  0  0  0  0  0  0  0  0  # atno 17342 bound_to 10162
  140.5742  144.0057  150.6233 LP  0  0  0  0  0  0  0  0  0  0  0  0  # atno 17343 bound_to 10162
  156.0298  130.3768  150.1721 LP  0  0  0  0  0  0  0  0  0  0  0  0  # atno 17370 bound_to 10713
  156.9910  130.9893  151.3414 LP  0  0  0  0  0  0  0  0  0  0  0  0  # atno 17371 bound_to 10713
  141.0176  134.0934  157.4156 LP  0  0  0  0  0  0  0  0  0  0  0  0  # atno 17394 bound_to 11000
  139.8901  135.0109  156.6715 LP  0  0  0  0  0  0  0  0  0  0  0  0  # atno 17395 bound_to 11000

$$$$
