AV-unprocessed.smi:2712|AV-procd|sdf|10477|dock3
  -GOLD-   2272014513D 1   1.00000     0.00000
 Structure written by MMmdl.
 52 53  0  0  0  0  0  0  0  0  1 V2000
  145.0800  131.4570  151.6434 C   0  0  0  0  0  0  0  0  0  0  0  0
  146.3579  131.1687  152.3738 C   0  0  0  0  0  0  0  0  0  0  0  0
  146.8450  129.8226  152.6074 C   0  0  0  0  0  0  0  0  0  0  0  0
  148.0048  129.6454  153.2757 C   0  0  0  0  0  0  0  0  0  0  0  0
  148.7868  130.7763  153.7709 C   0  0  0  0  0  0  0  0  0  0  0  0
  149.8449  130.6480  154.3866 O   0  0  0  0  0  0  0  0  0  0  0  0
  148.2343  131.9930  153.4859 N   0  0  0  0  0  0  0  0  0  0  0  0
  148.8933  133.2417  153.8952 C   0  0  0  0  0  0  0  0  0  0  0  0
  149.0018  133.3998  155.4188 C   0  0  0  0  0  0  0  0  0  0  0  0
  149.6619  132.6046  156.0894 O   0  0  0  0  0  0  0  0  0  0  0  0
  148.3535  134.4488  155.9491 N   0  0  0  0  0  0  0  0  0  0  0  0
  148.3155  134.7936  157.3689 C   0  0  1  0  0  0  0  0  0  0  0  0
  148.9490  136.1864  157.5451 C   0  0  0  0  0  0  0  0  0  0  0  0
  148.6562  136.9016  158.8738 C   0  0  0  0  0  0  0  0  0  0  0  0
  148.6188  136.0005  160.1197 C   0  0  0  0  0  0  0  0  0  0  0  0
  147.2111  135.4160  160.4283 C   0  0  2  0  0  0  0  0  0  0  0  0
  147.0449  134.9636  161.9271 C   0  0  0  0  0  0  0  0  0  0  0  0
  147.6527  133.5661  162.1772 C   0  0  0  0  0  0  0  0  0  0  0  0
  145.5544  134.9237  162.3376 C   0  0  0  0  0  0  0  0  0  0  0  0
  147.7243  135.9743  162.8817 C   0  0  0  0  0  0  0  0  0  0  0  0
  146.8159  134.3127  159.4083 C   0  0  0  0  0  0  0  0  0  0  0  0
  146.8764  134.6922  157.9162 C   0  0  0  0  0  0  0  0  0  0  0  0
  147.0418  132.1773  152.8054 N   0  0  0  0  0  0  0  0  0  0  0  0
  144.5296  130.5393  151.4342 H   0  0  0  0  0  0  0  0  0  0  0  0
  145.2810  131.9506  150.6921 H   0  0  0  0  0  0  0  0  0  0  0  0
  144.4318  132.1069  152.2320 H   0  0  0  0  0  0  0  0  0  0  0  0
  146.2792  128.9759  152.2473 H   0  0  0  0  0  0  0  0  0  0  0  0
  148.3663  128.6425  153.4489 H   0  0  0  0  0  0  0  0  0  0  0  0
  149.9010  133.2918  153.4787 H   0  0  0  0  0  0  0  0  0  0  0  0
  148.3599  134.0962  153.4740 H   0  0  0  0  0  0  0  0  0  0  0  0
  147.8389  135.0507  155.3227 H   0  0  0  0  0  0  0  0  0  0  0  0
  148.9405  134.0751  157.9026 H   0  0  0  0  0  0  0  0  0  0  0  0
  150.0288  136.0844  157.4288 H   0  0  0  0  0  0  0  0  0  0  0  0
  148.6294  136.8463  156.7369 H   0  0  0  0  0  0  0  0  0  0  0  0
  149.4226  137.6650  159.0130 H   0  0  0  0  0  0  0  0  0  0  0  0
  147.7203  137.4554  158.7942 H   0  0  0  0  0  0  0  0  0  0  0  0
  149.3663  135.2101  160.0443 H   0  0  0  0  0  0  0  0  0  0  0  0
  148.9491  136.6259  160.9450 H   0  0  0  0  0  0  0  0  0  0  0  0
  146.4935  136.2253  160.2855 H   0  0  0  0  0  0  0  0  0  0  0  0
  147.5200  133.2614  163.2160 H   0  0  0  0  0  0  0  0  0  0  0  0
  148.7234  133.5442  161.9756 H   0  0  0  0  0  0  0  0  0  0  0  0
  147.1843  132.8008  161.5590 H   0  0  0  0  0  0  0  0  0  0  0  0
  145.0125  134.1144  161.8485 H   0  0  0  0  0  0  0  0  0  0  0  0
  145.0493  135.8601  162.0983 H   0  0  0  0  0  0  0  0  0  0  0  0
  145.4397  134.7581  163.4095 H   0  0  0  0  0  0  0  0  0  0  0  0
  147.5001  135.7460  163.9243 H   0  0  0  0  0  0  0  0  0  0  0  0
  147.3813  136.9925  162.6947 H   0  0  0  0  0  0  0  0  0  0  0  0
  148.8100  135.9693  162.8026 H   0  0  0  0  0  0  0  0  0  0  0  0
  147.4158  133.4172  159.5688 H   0  0  0  0  0  0  0  0  0  0  0  0
  145.7852  134.0124  159.5884 H   0  0  0  0  0  0  0  0  0  0  0  0
  146.3170  135.6082  157.7217 H   0  0  0  0  0  0  0  0  0  0  0  0
  146.3446  133.9085  157.3746 H   0  0  0  0  0  0  0  0  0  0  0  0
  1  2  1  0  0  0  0
  1 24  1  0  0  0  0
  1 25  1  0  0  0  0
  1 26  1  0  0  0  0
  2 23  2  0  0  0  0
  2  3  1  0  0  0  0
  3  4  2  0  0  0  0
  3 27  1  0  0  0  0
  4  5  1  0  0  0  0
  4 28  1  0  0  0  0
  5  6  2  0  0  0  0
  5  7  1  0  0  0  0
  7  8  1  0  0  0  0
  7 23  1  0  0  0  0
  8  9  1  0  0  0  0
  8 29  1  0  0  0  0
  8 30  1  0  0  0  0
  9 10  2  0  0  0  0
  9 11  1  0  0  0  0
 11 12  1  0  0  0  0
 11 31  1  0  0  0  0
 12 22  1  0  0  0  0
 12 13  1  0  0  0  0
 12 32  1  0  0  0  0
 13 14  1  0  0  0  0
 13 33  1  0  0  0  0
 13 34  1  0  0  0  0
 14 15  1  0  0  0  0
 14 35  1  0  0  0  0
 14 36  1  0  0  0  0
 15 16  1  0  0  0  0
 15 37  1  0  0  0  0
 15 38  1  0  0  0  0
 16 17  1  0  0  0  0
 16 21  1  0  0  0  0
 16 39  1  0  0  0  0
 17 18  1  0  0  0  0
 17 19  1  0  0  0  0
 17 20  1  0  0  0  0
 18 40  1  0  0  0  0
 18 41  1  0  0  0  0
 18 42  1  0  0  0  0
 19 43  1  0  0  0  0
 19 44  1  0  0  0  0
 19 45  1  0  0  0  0
 20 46  1  0  0  0  0
 20 47  1  0  0  0  0
 20 48  1  0  0  0  0
 21 22  1  0  0  0  0
 21 49  1  0  0  0  0
 21 50  1  0  0  0  0
 22 51  1  0  0  0  0
 22 52  1  0  0  0  0
M  END
> <s_m_source_file>
AV-unprocessed.smi

> <i_m_source_file_index>
2712

> <i_lp_mmshare_version>
43012

> <i_f3d_flags>
0

> <s_epik_input>
W0NIM11jMVtjSF1bY0hdYyg9TyluKG4xKVtDSDJdQyg9TylbTkhdW0NAQEhdMltDSDJdW0NIMl1bQ0gyXVtDQEBIXShDKFtDSDNdKShbQ0gzXSlbQ0gzXSlbQ0gyXVtDSDJdMg==

> <s_epik_cmdline>
J2VwaWtfcHl0aG9uJywgJy1waCcsICc3LjAnLCAnLXRuJywgJzgnLCAnLW1hJywgJzIwMCcsICctbWV0YWxfYmluZGluZycsICctaW1hZScsICc8aW5maWxlLm1hZT4nLCAnLW9tYWUnLCAnPG91dGZpbGUubWFlPic=

> <r_lp_tautomer_probability>
1

> <r_epik_Ionization_Penalty>
8.71758e-07

> <r_epik_Ionization_Penalty_Charging>
8.50442e-07

> <r_epik_Ionization_Penalty_Neutral>
2.13165e-08

> <r_epik_State_Penalty>
-0

> <r_epik_Charging_Adjusted_Penalty>
8.50442e-07

> <i_epik_Tot_Q>
0

> <i_epik_Tot_abs_Q>
0

> <r_epik_Metal_State_Penalty>
-0

> <b_epik_Metal_Only>
0

> <s_lp_Force_Field>
OPLS_2005

> <r_lp_Energy>
38.5576

> <b_lp_Chiralities_Consistent>
1

> <s_lp_Variant>
AV-unprocessed.smi:2712-4

> <Gold.Version>
5.8.1

> <Gold.Id.Protein>
6NUR|6NUR_protein|mol2

> <Gold.PLP.Fitness>
36.9846

> <Gold.PLP.PLP>
-37.8357

> <Gold.PLP.part.hbond>
0.0000

> <Gold.PLP.part.metal>
0.0000

> <Gold.PLP.part.buried>
-4.9990

> <Gold.PLP.part.nonpolar>
-32.5075

> <Gold.PLP.part.repulsive>
0.1747

> <Gold.PLP.ligand.clash>
0.0000

> <Gold.PLP.ligand.torsion>
0.4743

> <Gold.PLP.Chemscore.Hbond>
0.0000

> <Gold.PLP.Chemscore.CHOScore>
0.0000

> <Gold.PLP.Chemscore.Metal>
0.0000

> <Gold.PLP.Chemscore.Internal.Correction>
0.0974

> <Gold.Rescore>
     Score         DG    S(hbond)    S(metal)    S(lipo)     H(rot)  DE(clash)    DE(int)     intcor
     10.51     -12.33       0.00        0.00      91.75       1.52       0.03       1.79       ----

> <Gold.Chemscore.Fitness>
10.5114

> <Gold.Chemscore.DG>
-12.3333

> <Gold.Chemscore.ZeroCoef>
-5.4800

> <Gold.Chemscore.Hbond>
0.0000

> <Gold.Chemscore.Metal>
0.0000

> <Gold.Chemscore.Lipo>
91.7495

> <Gold.Chemscore.Internal_Hbond>
0.0000

> <Gold.Chemscore.DEClash>
0.0300

> <Gold.Chemscore.DEInternal>
1.7919

> <Gold.Chemscore.Rot>
1.5162

> <Gold.Chemscore.Internal.Correction>
   9.000000E+99

> <Gold.Chemscore.Hbond.Weighted>
-0.0000

> <Gold.Chemscore.Metal.Weighted>
-0.0000

> <Gold.Chemscore.Lipo.Weighted>
-10.7347

> <Gold.Chemscore.Internal_Hbond.Weighted>
0.0000

> <Gold.Chemscore.DEClash.Weighted>
0.0300

> <Gold.Chemscore.DEInternal.Weighted>
1.7919

> <Gold.Chemscore.Rot.Weighted>
3.8814

> <Gold.Chemscore.Internal.Correction.Weighted>
   9.000000E+99

> <Gold.Protein.RotatedTorsions>
[ 6907 6896 6895 6894 ] final  -52.33 input  -60.11 | X-H torsion
[ 7974 7965 7964 7962 ] final  -87.08 input  175.53 | X-H torsion
[ 8008 7997 7996 7995 ] final   72.75 input   59.86 | X-H torsion
[ 10167 10162 10161 10158 ] final   62.56 input  -65.29 | X-H torsion
[ 10718 10713 10712 10709 ] final  -57.17 input   66.30 | X-H torsion
[ 10763 10752 10751 10750 ] final  147.21 input  -60.55 | X-H torsion
[ 11005 11000 10999 10996 ] final   60.33 input  -57.11 | X-H torsion

> <Gold.Protein.ActiveResidues>
 VAL166  LYS551  ARG553  GLY616  TRP617  ASP618  TYR619  PRO620  LYS621  CYS622 
 ASP623  PHE694  ASN695  SER759  ASP760  ASP761  ALA762  ILE779  LEU786  VAL792 
 PHE793  MET794  SER795  GLU796  ALA797  LYS798  CYS799  TRP800  GLU811  SER814 

> <Gold.Protein.RotatedAtoms>
  150.8527  134.7857  159.7021 H   0  0  0  0  0  0  0  0  0  0  0  0  # atno 6907 bound_to 6896
  152.4588  134.5229  159.9798 H   0  0  0  0  0  0  0  0  0  0  0  0  # atno 6908 bound_to 6896
  151.5347  133.3405  159.2960 H   0  0  0  0  0  0  0  0  0  0  0  0  # atno 6909 bound_to 6896
  145.4714  140.9559  143.1915 H   0  0  0  0  0  0  0  0  0  0  0  0  # atno 7974 bound_to 7965
  155.7735  140.3484  155.5259 H   0  0  0  0  0  0  0  0  0  0  0  0  # atno 8008 bound_to 7997
  155.8799  140.1000  157.1513 H   0  0  0  0  0  0  0  0  0  0  0  0  # atno 8009 bound_to 7997
  154.4024  140.1324  156.4170 H   0  0  0  0  0  0  0  0  0  0  0  0  # atno 8010 bound_to 7997
  140.1425  144.4539  150.6803 H   0  0  0  0  0  0  0  0  0  0  0  0  # atno 10167 bound_to 10162
  156.1231  130.4164  150.0404 H   0  0  0  0  0  0  0  0  0  0  0  0  # atno 10718 bound_to 10713
  154.0345  135.2895  155.3364 H   0  0  0  0  0  0  0  0  0  0  0  0  # atno 10763 bound_to 10752
  154.6967  135.5205  153.8472 H   0  0  0  0  0  0  0  0  0  0  0  0  # atno 10764 bound_to 10752
  153.0626  135.6619  154.0555 H   0  0  0  0  0  0  0  0  0  0  0  0  # atno 10765 bound_to 10752
  140.0239  134.6112  155.9600 H   0  0  0  0  0  0  0  0  0  0  0  0  # atno 11005 bound_to 11000
  144.7943  139.6265  143.7099 LP  0  0  0  0  0  0  0  0  0  0  0  0  # atno 17320 bound_to 7965
  146.2395  139.5972  142.9501 LP  0  0  0  0  0  0  0  0  0  0  0  0  # atno 17321 bound_to 7965
  140.6751  143.2302  151.5526 LP  0  0  0  0  0  0  0  0  0  0  0  0  # atno 17342 bound_to 10162
  139.5465  144.2508  152.1451 LP  0  0  0  0  0  0  0  0  0  0  0  0  # atno 17343 bound_to 10162
  156.8337  130.9401  151.3636 LP  0  0  0  0  0  0  0  0  0  0  0  0  # atno 17370 bound_to 10713
  157.6414  130.8809  149.9456 LP  0  0  0  0  0  0  0  0  0  0  0  0  # atno 17371 bound_to 10713
  141.1791  133.6544  156.4946 LP  0  0  0  0  0  0  0  0  0  0  0  0  # atno 17394 bound_to 11000
  140.4340  134.7076  157.4957 LP  0  0  0  0  0  0  0  0  0  0  0  0  # atno 17395 bound_to 11000

$$$$
