AV-unprocessed.smi:2473|AV-procd|sdf|9749|dock8
  -GOLD-   2272013393D 1   1.00000     0.00000
 Structure written by MMmdl.
 47 48  0  0  0  0  0  0  0  0  1 V2000
  153.5353  140.5493  159.9418 C   0  0  0  0  0  0  0  0  0  0  0  0
  152.4350  141.4665  159.3892 C   0  0  2  0  0  0  0  0  0  0  0  0
  151.9824  141.0125  157.9912 C   0  0  0  0  0  0  0  0  0  0  0  0
  150.8710  141.9225  157.4324 C   0  0  2  0  0  0  0  0  0  0  0  0
  150.4437  141.4498  156.0368 C   0  0  0  0  0  0  0  0  0  0  0  0
  151.0880  140.5776  155.4535 O   0  0  0  0  0  0  0  0  0  0  0  0
  149.3357  142.0125  155.5278 N   0  0  0  0  0  0  0  0  0  0  0  0
  148.6805  141.6197  154.2826 C   0  0  0  0  0  0  0  0  0  0  0  0
  147.3434  140.8942  154.5315 C   0  0  0  0  0  0  0  0  0  0  0  0
  146.3380  141.7126  155.2882 C   0  0  0  0  0  0  0  0  0  0  0  0
  145.9630  141.4415  156.5346 N   0  0  0  0  0  0  0  0  0  0  0  0
  145.0652  142.4507  156.8639 C   0  0  0  0  0  0  0  0  0  0  0  0
  144.9231  143.3012  155.7945 C   0  0  0  0  0  0  0  0  0  0  0  0
  145.7457  142.8156  154.7871 N   0  0  0  0  0  0  0  0  0  0  0  0
  145.9135  143.4055  153.4724 C   0  0  0  0  0  0  0  0  0  0  0  0
  151.3494  143.3914  157.4003 C   0  0  0  0  0  0  0  0  0  0  0  0
  151.8372  143.9118  158.7758 C   0  0  0  0  0  0  0  0  0  0  0  0
  152.4891  145.2947  158.5797 C   0  0  0  0  0  0  0  0  0  0  0  0
  150.6543  144.0843  159.7540 C   0  0  0  0  0  0  0  0  0  0  0  0
  152.8967  142.9384  159.3518 C   0  0  0  0  0  0  0  0  0  0  0  0
  154.4245  140.5717  159.3110 H   0  0  0  0  0  0  0  0  0  0  0  0
  153.1928  139.5156  159.9976 H   0  0  0  0  0  0  0  0  0  0  0  0
  153.8313  140.8524  160.9464 H   0  0  0  0  0  0  0  0  0  0  0  0
  151.5837  141.3842  160.0651 H   0  0  0  0  0  0  0  0  0  0  0  0
  152.8401  141.0107  157.3160 H   0  0  0  0  0  0  0  0  0  0  0  0
  151.6295  139.9818  158.0387 H   0  0  0  0  0  0  0  0  0  0  0  0
  150.0043  141.8473  158.0903 H   0  0  0  0  0  0  0  0  0  0  0  0
  148.8779  142.7275  156.0745 H   0  0  0  0  0  0  0  0  0  0  0  0
  148.5038  142.5177  153.6907 H   0  0  0  0  0  0  0  0  0  0  0  0
  149.3388  140.9884  153.6835 H   0  0  0  0  0  0  0  0  0  0  0  0
  146.9151  140.5737  153.5818 H   0  0  0  0  0  0  0  0  0  0  0  0
  147.5301  139.9794  155.0944 H   0  0  0  0  0  0  0  0  0  0  0  0
  144.5956  142.4866  157.8356 H   0  0  0  0  0  0  0  0  0  0  0  0
  144.3219  144.1898  155.6715 H   0  0  0  0  0  0  0  0  0  0  0  0
  145.3605  144.3429  153.4079 H   0  0  0  0  0  0  0  0  0  0  0  0
  145.5389  142.7217  152.7107 H   0  0  0  0  0  0  0  0  0  0  0  0
  146.9675  143.6095  153.2860 H   0  0  0  0  0  0  0  0  0  0  0  0
  152.1653  143.4817  156.6807 H   0  0  0  0  0  0  0  0  0  0  0  0
  150.5502  144.0326  157.0252 H   0  0  0  0  0  0  0  0  0  0  0  0
  152.8554  145.6993  159.5239 H   0  0  0  0  0  0  0  0  0  0  0  0
  151.7802  146.0136  158.1674 H   0  0  0  0  0  0  0  0  0  0  0  0
  153.3373  145.2450  157.8958 H   0  0  0  0  0  0  0  0  0  0  0  0
  150.9919  144.4743  160.7148 H   0  0  0  0  0  0  0  0  0  0  0  0
  150.1332  143.1495  159.9536 H   0  0  0  0  0  0  0  0  0  0  0  0
  149.9174  144.7848  159.3600 H   0  0  0  0  0  0  0  0  0  0  0  0
  153.1863  143.2584  160.3538 H   0  0  0  0  0  0  0  0  0  0  0  0
  153.8030  142.9991  158.7472 H   0  0  0  0  0  0  0  0  0  0  0  0
  1  2  1  0  0  0  0
  1 21  1  0  0  0  0
  1 22  1  0  0  0  0
  1 23  1  0  0  0  0
  2 20  1  0  0  0  0
  2  3  1  0  0  0  0
  2 24  1  0  0  0  0
  3  4  1  0  0  0  0
  3 25  1  0  0  0  0
  3 26  1  0  0  0  0
  4  5  1  0  0  0  0
  4 16  1  0  0  0  0
  4 27  1  0  0  0  0
  5  6  2  0  0  0  0
  5  7  1  0  0  0  0
  7  8  1  0  0  0  0
  7 28  1  0  0  0  0
  8  9  1  0  0  0  0
  8 29  1  0  0  0  0
  8 30  1  0  0  0  0
  9 10  1  0  0  0  0
  9 31  1  0  0  0  0
  9 32  1  0  0  0  0
 10 14  1  0  0  0  0
 10 11  2  0  0  0  0
 11 12  1  0  0  0  0
 12 13  2  0  0  0  0
 12 33  1  0  0  0  0
 13 14  1  0  0  0  0
 13 34  1  0  0  0  0
 14 15  1  0  0  0  0
 15 35  1  0  0  0  0
 15 36  1  0  0  0  0
 15 37  1  0  0  0  0
 16 17  1  0  0  0  0
 16 38  1  0  0  0  0
 16 39  1  0  0  0  0
 17 18  1  0  0  0  0
 17 19  1  0  0  0  0
 17 20  1  0  0  0  0
 18 40  1  0  0  0  0
 18 41  1  0  0  0  0
 18 42  1  0  0  0  0
 19 43  1  0  0  0  0
 19 44  1  0  0  0  0
 19 45  1  0  0  0  0
 20 46  1  0  0  0  0
 20 47  1  0  0  0  0
M  END
> <s_m_source_file>
AV-unprocessed.smi

> <i_m_source_file_index>
2473

> <i_lp_mmshare_version>
43012

> <i_f3d_flags>
0

> <s_epik_input>
W0NIM11bQ0BASF0oW0NIMl0xKVtDSDJdW0NASF0oW0NIMl1DMShbQ0gzXSlbQ0gzXSlDKD1PKVtOSF1bQ0gyXVtDSDJdYzJuW2NIXVtjSF1uMltDSDNd

> <s_epik_cmdline>
J2VwaWtfcHl0aG9uJywgJy1waCcsICc3LjAnLCAnLXRuJywgJzgnLCAnLW1hJywgJzIwMCcsICctbWV0YWxfYmluZGluZycsICctaW1hZScsICc8aW5maWxlLm1hZT4nLCAnLW9tYWUnLCAnPG91dGZpbGUubWFlPic=

> <r_lp_tautomer_probability>
1

> <r_epik_Ionization_Penalty>
1.22858

> <r_epik_Ionization_Penalty_Charging>
1.22858

> <r_epik_Ionization_Penalty_Neutral>
2.12671e-08

> <r_epik_State_Penalty>
1.2965

> <r_epik_Charging_Adjusted_Penalty>
2.52508

> <i_epik_Tot_Q>
0

> <i_epik_Tot_abs_Q>
0

> <r_epik_Metal_State_Penalty>
0.411461

> <b_epik_Metal_Only>
0

> <s_lp_Force_Field>
OPLS_2005

> <r_lp_Energy>
12.8127

> <b_lp_Chiralities_Consistent>
1

> <s_lp_Variant>
AV-unprocessed.smi:2473-7

> <Gold.Version>
5.8.1

> <Gold.Id.Protein>
6NUR|6NUR_protein|mol2

> <Gold.PLP.Fitness>
48.6794

> <Gold.PLP.PLP>
-45.0515

> <Gold.PLP.part.hbond>
-2.0000

> <Gold.PLP.part.metal>
0.0000

> <Gold.PLP.part.buried>
-5.6802

> <Gold.PLP.part.nonpolar>
-35.9816

> <Gold.PLP.part.repulsive>
0.2397

> <Gold.PLP.ligand.clash>
0.0000

> <Gold.PLP.ligand.torsion>
0.2821

> <Gold.PLP.Chemscore.Hbond>
1.3920

> <Gold.PLP.Chemscore.CHOScore>
0.0000

> <Gold.PLP.Chemscore.Metal>
0.0000

> <Gold.Chemscore.Hbonds>
donor molecule, donor type, donor heavy atom, donor atom, acceptor molecule, acceptor atom, score
      L1  H     7    28       P1  8028  0.51
      P1  H  7989  7998       L1     6  0.87

> <Gold.PLP.Chemscore.Internal.Correction>
0.0160

> <Gold.Rescore>
     Score         DG    S(hbond)    S(metal)    S(lipo)     H(rot)  DE(clash)    DE(int)     intcor
     18.97     -19.58       1.31        0.00     116.11       1.51       0.38       0.24       ----

> <Gold.Chemscore.Fitness>
18.9662

> <Gold.Chemscore.DG>
-19.5804

> <Gold.Chemscore.ZeroCoef>
-5.4800

> <Gold.Chemscore.Hbond>
1.3124

> <Gold.Chemscore.Metal>
0.0000

> <Gold.Chemscore.Lipo>
116.1109

> <Gold.Chemscore.Internal_Hbond>
0.0000

> <Gold.Chemscore.DEClash>
0.3766

> <Gold.Chemscore.DEInternal>
0.2376

> <Gold.Chemscore.Rot>
1.5109

> <Gold.Chemscore.Internal.Correction>
   9.000000E+99

> <Gold.Chemscore.Hbonds>
donor molecule, donor type, donor heavy atom, donor atom, acceptor molecule, acceptor atom, score
      L1  H     7    28       P1  8028  0.48
      P1  H  7989  7998       L1     6  0.76

> <Gold.Chemscore.Hbond.Weighted>
-4.3834

> <Gold.Chemscore.Metal.Weighted>
-0.0000

> <Gold.Chemscore.Lipo.Weighted>
-13.5850

> <Gold.Chemscore.Internal_Hbond.Weighted>
0.0000

> <Gold.Chemscore.DEClash.Weighted>
0.3766

> <Gold.Chemscore.DEInternal.Weighted>
0.2376

> <Gold.Chemscore.Rot.Weighted>
3.8680

> <Gold.Chemscore.Internal.Correction.Weighted>
   9.000000E+99

> <Gold.Protein.RotatedTorsions>
[ 6907 6896 6895 6894 ] final  102.05 input  -60.11 | X-H torsion
[ 7974 7965 7964 7962 ] final  137.14 input  175.53 | X-H torsion
[ 8008 7997 7996 7995 ] final   40.25 input   59.86 | X-H torsion
[ 10167 10162 10161 10158 ] final -165.96 input  -65.29 | X-H torsion
[ 10718 10713 10712 10709 ] final  -62.97 input   66.30 | X-H torsion
[ 10763 10752 10751 10750 ] final   16.25 input  -60.55 | X-H torsion
[ 11005 11000 10999 10996 ] final -137.90 input  -57.11 | X-H torsion

> <Gold.Protein.ActiveResidues>
 VAL166  LYS551  ARG553  GLY616  TRP617  ASP618  TYR619  PRO620  LYS621  CYS622 
 ASP623  PHE694  ASN695  SER759  ASP760  ASP761  ALA762  ILE779  LEU786  VAL792 
 PHE793  MET794  SER795  GLU796  ALA797  LYS798  CYS799  TRP800  GLU811  SER814 

> <Gold.Protein.RotatedAtoms>
  152.5334  134.0034  159.7904 H   0  0  0  0  0  0  0  0  0  0  0  0  # atno 6907 bound_to 6896
  151.0249  133.5835  159.2674 H   0  0  0  0  0  0  0  0  0  0  0  0  # atno 6908 bound_to 6896
  151.2861  135.0735  159.9241 H   0  0  0  0  0  0  0  0  0  0  0  0  # atno 6909 bound_to 6896
  144.9497  139.4833  143.5532 H   0  0  0  0  0  0  0  0  0  0  0  0  # atno 7974 bound_to 7965
  155.2500  140.3351  155.4283 H   0  0  0  0  0  0  0  0  0  0  0  0  # atno 8008 bound_to 7997
  156.2220  140.1813  156.7498 H   0  0  0  0  0  0  0  0  0  0  0  0  # atno 8009 bound_to 7997
  154.5839  140.0649  156.9129 H   0  0  0  0  0  0  0  0  0  0  0  0  # atno 8010 bound_to 7997
  139.6147  144.0744  152.1876 H   0  0  0  0  0  0  0  0  0  0  0  0  # atno 10167 bound_to 10162
  156.0821  130.4215  150.1210 H   0  0  0  0  0  0  0  0  0  0  0  0  # atno 10718 bound_to 10713
  153.1448  135.6767  153.8971 H   0  0  0  0  0  0  0  0  0  0  0  0  # atno 10763 bound_to 10752
  153.8417  135.3104  155.3428 H   0  0  0  0  0  0  0  0  0  0  0  0  # atno 10764 bound_to 10752
  154.7816  135.4885  153.9942 H   0  0  0  0  0  0  0  0  0  0  0  0  # atno 10765 bound_to 10752
  140.8667  134.2102  157.4676 H   0  0  0  0  0  0  0  0  0  0  0  0  # atno 11005 bound_to 11000
  146.3316  139.8573  142.8862 LP  0  0  0  0  0  0  0  0  0  0  0  0  # atno 17320 bound_to 7965
  145.2863  141.0154  143.3688 LP  0  0  0  0  0  0  0  0  0  0  0  0  # atno 17321 bound_to 7965
  140.0371  144.6036  150.7441 LP  0  0  0  0  0  0  0  0  0  0  0  0  # atno 17342 bound_to 10162
  140.7343  143.2727  151.3838 LP  0  0  0  0  0  0  0  0  0  0  0  0  # atno 17343 bound_to 10162
  156.9239  130.9692  151.3544 LP  0  0  0  0  0  0  0  0  0  0  0  0  # atno 17370 bound_to 10713
  157.5941  130.8465  149.8703 LP  0  0  0  0  0  0  0  0  0  0  0  0  # atno 17371 bound_to 10713
  139.8709  134.9755  156.4885 LP  0  0  0  0  0  0  0  0  0  0  0  0  # atno 17394 bound_to 11000
  140.8621  133.8052  155.9276 LP  0  0  0  0  0  0  0  0  0  0  0  0  # atno 17395 bound_to 11000

$$$$
