AV-unprocessed.smi:415|AV-procd|sdf|2524|dock10
  -GOLD-   2262022483D 1   1.00000     0.00000
 Structure written by MMmdl.
 53 54  0  0  0  0  0  0  0  0  1 V2000
  144.3595  143.6839  156.2068 C   0  0  0  0  0  0  0  0  0  0  0  0
  144.9791  142.4880  155.7606 O   0  0  0  0  0  0  0  0  0  0  0  0
  145.9169  142.6803  154.7105 C   0  0  0  0  0  0  0  0  0  0  0  0
  146.5333  141.3553  154.2172 C   0  0  0  0  0  0  0  0  0  0  0  0
  147.3415  140.6977  155.2271 N   0  0  0  0  0  0  0  0  0  0  0  0
  146.7973  140.0990  156.3602 C   0  0  0  0  0  0  0  0  0  0  0  0
  145.4299  140.1427  156.5666 N   0  0  0  0  0  0  0  0  0  0  0  0
  147.5745  139.4622  157.2638 C   0  0  0  0  0  0  0  0  0  0  0  0
  149.0178  139.3608  157.1014 C   0  0  0  0  0  0  0  0  0  0  0  0
  149.7411  138.7749  157.9075 O   0  0  0  0  0  0  0  0  0  0  0  0
  149.5491  139.9711  155.9424 N   0  0  0  0  0  0  0  0  0  0  0  0
  151.0033  139.8740  155.6873 C   0  0  0  0  0  0  0  0  0  0  0  0
  151.8572  140.3960  156.8527 C   0  0  0  0  0  0  0  0  0  0  0  0
  152.7964  139.7342  157.2972 O   0  0  0  0  0  0  0  0  0  0  0  0
  151.5102  141.5966  157.3392 N   0  0  0  0  0  0  0  0  0  0  0  0
  152.2003  142.3038  158.4152 C   0  0  2  0  0  0  0  0  0  0  0  0
  152.2844  141.4013  159.6614 C   0  0  0  0  0  0  0  0  0  0  0  0
  153.0284  142.1021  160.8078 C   0  0  0  0  0  0  0  0  0  0  0  0
  152.3990  143.4642  161.1400 C   0  0  0  0  0  0  0  0  0  0  0  0
  152.3128  144.3644  159.8909 C   0  0  2  0  0  0  0  0  0  0  0  0
  151.7827  145.7668  160.2327 C   0  0  0  0  0  0  0  0  0  0  0  0
  151.5370  143.6715  158.7390 C   0  0  2  0  0  0  0  0  0  0  0  0
  150.0149  143.5658  158.9944 C   0  0  0  0  0  0  0  0  0  0  0  0
  148.7389  140.6318  154.9906 C   0  0  0  0  0  0  0  0  0  0  0  0
  149.2486  141.1256  153.9809 O   0  0  0  0  0  0  0  0  0  0  0  0
  143.6449  143.4493  156.9956 H   0  0  0  0  0  0  0  0  0  0  0  0
  143.8178  144.1869  155.4061 H   0  0  0  0  0  0  0  0  0  0  0  0
  145.0951  144.3766  156.6175 H   0  0  0  0  0  0  0  0  0  0  0  0
  145.4548  143.2189  153.8817 H   0  0  0  0  0  0  0  0  0  0  0  0
  146.7084  143.3293  155.0862 H   0  0  0  0  0  0  0  0  0  0  0  0
  145.7926  140.6515  153.8364 H   0  0  0  0  0  0  0  0  0  0  0  0
  147.1969  141.5339  153.3714 H   0  0  0  0  0  0  0  0  0  0  0  0
  144.8082  140.5997  155.9148 H   0  0  0  0  0  0  0  0  0  0  0  0
  145.0088  139.7960  157.4164 H   0  0  0  0  0  0  0  0  0  0  0  0
  147.1208  139.0060  158.1321 H   0  0  0  0  0  0  0  0  0  0  0  0
  151.2831  138.8404  155.4754 H   0  0  0  0  0  0  0  0  0  0  0  0
  151.2928  140.4149  154.7854 H   0  0  0  0  0  0  0  0  0  0  0  0
  150.7221  142.0673  156.9190 H   0  0  0  0  0  0  0  0  0  0  0  0
  153.2245  142.4925  158.0868 H   0  0  0  0  0  0  0  0  0  0  0  0
  151.2845  141.1187  159.9923 H   0  0  0  0  0  0  0  0  0  0  0  0
  152.7978  140.4716  159.4128 H   0  0  0  0  0  0  0  0  0  0  0  0
  153.0303  141.4665  161.6936 H   0  0  0  0  0  0  0  0  0  0  0  0
  154.0734  142.2435  160.5285 H   0  0  0  0  0  0  0  0  0  0  0  0
  151.4072  143.3173  161.5684 H   0  0  0  0  0  0  0  0  0  0  0  0
  152.9928  143.9559  161.9112 H   0  0  0  0  0  0  0  0  0  0  0  0
  153.3344  144.5091  159.5356 H   0  0  0  0  0  0  0  0  0  0  0  0
  150.7962  145.7269  160.6944 H   0  0  0  0  0  0  0  0  0  0  0  0
  151.7129  146.3895  159.3403 H   0  0  0  0  0  0  0  0  0  0  0  0
  152.4479  146.2721  160.9335 H   0  0  0  0  0  0  0  0  0  0  0  0
  151.6525  144.3025  157.8563 H   0  0  0  0  0  0  0  0  0  0  0  0
  149.7877  142.9751  159.8810 H   0  0  0  0  0  0  0  0  0  0  0  0
  149.4972  143.1055  158.1529 H   0  0  0  0  0  0  0  0  0  0  0  0
  149.5633  144.5484  159.1273 H   0  0  0  0  0  0  0  0  0  0  0  0
  1  2  1  0  0  0  0
  1 26  1  0  0  0  0
  1 27  1  0  0  0  0
  1 28  1  0  0  0  0
  2  3  1  0  0  0  0
  3  4  1  0  0  0  0
  3 29  1  0  0  0  0
  3 30  1  0  0  0  0
  4  5  1  0  0  0  0
  4 31  1  0  0  0  0
  4 32  1  0  0  0  0
  5 24  1  0  0  0  0
  5  6  1  0  0  0  0
  6  7  1  0  0  0  0
  6  8  2  0  0  0  0
  7 33  1  0  0  0  0
  7 34  1  0  0  0  0
  8  9  1  0  0  0  0
  8 35  1  0  0  0  0
  9 10  2  0  0  0  0
  9 11  1  0  0  0  0
 11 12  1  0  0  0  0
 11 24  1  0  0  0  0
 12 13  1  0  0  0  0
 12 36  1  0  0  0  0
 12 37  1  0  0  0  0
 13 14  2  0  0  0  0
 13 15  1  0  0  0  0
 15 16  1  0  0  0  0
 15 38  1  0  0  0  0
 16 22  1  0  0  0  0
 16 17  1  0  0  0  0
 16 39  1  0  0  0  0
 17 18  1  0  0  0  0
 17 40  1  0  0  0  0
 17 41  1  0  0  0  0
 18 19  1  0  0  0  0
 18 42  1  0  0  0  0
 18 43  1  0  0  0  0
 19 20  1  0  0  0  0
 19 44  1  0  0  0  0
 19 45  1  0  0  0  0
 20 21  1  0  0  0  0
 20 22  1  0  0  0  0
 20 46  1  0  0  0  0
 21 47  1  0  0  0  0
 21 48  1  0  0  0  0
 21 49  1  0  0  0  0
 22 23  1  0  0  0  0
 22 50  1  0  0  0  0
 23 51  1  0  0  0  0
 23 52  1  0  0  0  0
 23 53  1  0  0  0  0
 24 25  2  0  0  0  0
M  END
> <s_m_source_file>
AV-unprocessed.smi

> <i_m_source_file_index>
415

> <i_lp_mmshare_version>
43012

> <i_f3d_flags>
0

> <s_epik_input>
W0NIM11PW0NIMl1bQ0gyXW4xYyhbTkgyXSlbY0hdYyg9TyluKGMxPU8pW0NIMl1DKD1PKVtOSF1bQ0BASF0yW0NIMl1bQ0gyXVtDSDJdW0NAQEhdKFtDSDNdKVtDQEhdMltDSDNd

> <s_epik_cmdline>
J2VwaWtfcHl0aG9uJywgJy1waCcsICc3LjAnLCAnLXRuJywgJzgnLCAnLW1hJywgJzIwMCcsICctbWV0YWxfYmluZGluZycsICctaW1hZScsICc8aW5maWxlLm1hZT4nLCAnLW9tYWUnLCAnPG91dGZpbGUubWFlPic=

> <r_lp_tautomer_probability>
1

> <r_epik_Ionization_Penalty>
8.6647e-06

> <r_epik_Ionization_Penalty_Charging>
1.81162e-08

> <r_epik_Ionization_Penalty_Neutral>
8.64658e-06

> <r_epik_State_Penalty>
-0

> <r_epik_Charging_Adjusted_Penalty>
1.81162e-08

> <i_epik_Tot_Q>
0

> <i_epik_Tot_abs_Q>
0

> <r_epik_Metal_State_Penalty>
-0

> <b_epik_Metal_Only>
0

> <s_lp_Force_Field>
OPLS_2005

> <r_lp_Energy>
23.9123

> <b_lp_Chiralities_Consistent>
1

> <s_lp_Variant>
AV-unprocessed.smi:415-7

> <Gold.Version>
5.8.1

> <Gold.Id.Protein>
6NUR|6NUR_protein|mol2

> <Gold.PLP.Fitness>
51.6933

> <Gold.PLP.PLP>
-45.7257

> <Gold.PLP.part.hbond>
-3.0000

> <Gold.PLP.part.metal>
0.0000

> <Gold.PLP.part.buried>
-5.6319

> <Gold.PLP.part.nonpolar>
-37.8893

> <Gold.PLP.part.repulsive>
2.1055

> <Gold.PLP.ligand.clash>
0.0000

> <Gold.PLP.ligand.torsion>
0.2508

> <Gold.PLP.Chemscore.Hbond>
2.1234

> <Gold.PLP.Chemscore.CHOScore>
0.0000

> <Gold.PLP.Chemscore.Metal>
0.0000

> <Gold.Chemscore.Hbonds>
donor molecule, donor type, donor heavy atom, donor atom, acceptor molecule, acceptor atom, score
      P1  H  7989  7998       L1    25  0.02
      P1  H  7997  8010       L1    14  1.00
      P1  H  8011  8017       L1    25  0.58

> <Gold.PLP.Chemscore.Internal.Correction>
0.0990

> <Gold.Rescore>
     Score         DG    S(hbond)    S(metal)    S(lipo)     H(rot)  DE(clash)    DE(int)     intcor
     15.05     -19.43       2.20        0.00     106.05       2.26       1.44       2.94       ----

> <Gold.Chemscore.Fitness>
15.0549

> <Gold.Chemscore.DG>
-19.4339

> <Gold.Chemscore.ZeroCoef>
-5.4800

> <Gold.Chemscore.Hbond>
2.1986

> <Gold.Chemscore.Metal>
0.0000

> <Gold.Chemscore.Lipo>
106.0488

> <Gold.Chemscore.Internal_Hbond>
0.0000

> <Gold.Chemscore.DEClash>
1.4437

> <Gold.Chemscore.DEInternal>
2.9353

> <Gold.Chemscore.Rot>
2.2645

> <Gold.Chemscore.Internal.Correction>
   9.000000E+99

> <Gold.Chemscore.Hbonds>
donor molecule, donor type, donor heavy atom, donor atom, acceptor molecule, acceptor atom, score
      P1  H  7989  7998       L1    25  0.03
      P1  H  7997  8010       L1    14  0.98
      P1  H  8011  8017       L1    25  0.57

> <Gold.Chemscore.Hbond.Weighted>
-7.3434

> <Gold.Chemscore.Metal.Weighted>
-0.0000

> <Gold.Chemscore.Lipo.Weighted>
-12.4077

> <Gold.Chemscore.Internal_Hbond.Weighted>
0.0000

> <Gold.Chemscore.DEClash.Weighted>
1.4437

> <Gold.Chemscore.DEInternal.Weighted>
2.9353

> <Gold.Chemscore.Rot.Weighted>
5.7972

> <Gold.Chemscore.Internal.Correction.Weighted>
   9.000000E+99

> <Gold.Protein.RotatedTorsions>
[ 6907 6896 6895 6894 ] final -155.46 input  -60.11 | X-H torsion
[ 7974 7965 7964 7962 ] final -106.91 input  175.53 | X-H torsion
[ 8008 7997 7996 7995 ] final   50.07 input   59.86 | X-H torsion
[ 10167 10162 10161 10158 ] final   49.00 input  -65.29 | X-H torsion
[ 10718 10713 10712 10709 ] final   21.91 input   66.30 | X-H torsion
[ 10763 10752 10751 10750 ] final -142.75 input  -60.55 | X-H torsion
[ 11005 11000 10999 10996 ] final -129.65 input  -57.11 | X-H torsion

> <Gold.Protein.ActiveResidues>
 VAL166  LYS551  ARG553  GLY616  TRP617  ASP618  TYR619  PRO620  LYS621  CYS622 
 ASP623  PHE694  ASN695  SER759  ASP760  ASP761  ALA762  ILE779  LEU786  VAL792 
 PHE793  MET794  SER795  GLU796  ALA797  LYS798  CYS799  TRP800  GLU811  SER814 

> <Gold.Protein.RotatedAtoms>
  151.2728  133.4247  159.2622 H   0  0  0  0  0  0  0  0  0  0  0  0  # atno 6907 bound_to 6896
  151.0429  134.9620  159.8181 H   0  0  0  0  0  0  0  0  0  0  0  0  # atno 6908 bound_to 6896
  152.5368  134.2686  159.9015 H   0  0  0  0  0  0  0  0  0  0  0  0  # atno 6909 bound_to 6896
  145.2119  140.9100  143.3309 H   0  0  0  0  0  0  0  0  0  0  0  0  # atno 7974 bound_to 7965
  155.4127  140.3443  155.4265 H   0  0  0  0  0  0  0  0  0  0  0  0  # atno 8008 bound_to 7997
  156.1439  140.1550  156.8909 H   0  0  0  0  0  0  0  0  0  0  0  0  # atno 8009 bound_to 7997
  154.4994  140.0819  156.7746 H   0  0  0  0  0  0  0  0  0  0  0  0  # atno 8010 bound_to 7997
  140.2874  144.3086  150.6249 H   0  0  0  0  0  0  0  0  0  0  0  0  # atno 10167 bound_to 10162
  157.1451  130.6649  149.5993 H   0  0  0  0  0  0  0  0  0  0  0  0  # atno 10718 bound_to 10713
  154.8497  135.3487  154.6078 H   0  0  0  0  0  0  0  0  0  0  0  0  # atno 10763 bound_to 10752
  153.6686  135.6986  153.5159 H   0  0  0  0  0  0  0  0  0  0  0  0  # atno 10764 bound_to 10752
  153.2760  135.4278  155.0990 H   0  0  0  0  0  0  0  0  0  0  0  0  # atno 10765 bound_to 10752
  140.9413  134.1189  157.4148 H   0  0  0  0  0  0  0  0  0  0  0  0  # atno 11005 bound_to 11000
  144.9847  139.3748  143.6244 LP  0  0  0  0  0  0  0  0  0  0  0  0  # atno 17320 bound_to 7965
  146.3395  139.9004  142.8795 LP  0  0  0  0  0  0  0  0  0  0  0  0  # atno 17321 bound_to 7965
  140.5761  143.2176  151.7513 LP  0  0  0  0  0  0  0  0  0  0  0  0  # atno 17342 bound_to 10162
  139.4947  144.4148  152.0042 LP  0  0  0  0  0  0  0  0  0  0  0  0  # atno 17343 bound_to 10162
  155.9781  130.4764  150.6635 LP  0  0  0  0  0  0  0  0  0  0  0  0  # atno 17370 bound_to 10713
  157.4272  131.0844  151.1074 LP  0  0  0  0  0  0  0  0  0  0  0  0  # atno 17371 bound_to 10713
  139.8821  135.0037  156.6206 LP  0  0  0  0  0  0  0  0  0  0  0  0  # atno 17394 bound_to 11000
  140.7729  133.8723  155.8506 LP  0  0  0  0  0  0  0  0  0  0  0  0  # atno 17395 bound_to 11000

$$$$
