#       Name:                AV-unprocessed.smi:2146
#       Creating user name   scv26
#       Creation time:       Fri Mar 27 11:51:15 2020


#       File generated by GOLD software.
#

@<TRIPOS>MOLECULE
AV-unprocessed.smi:2146
    51    52     1
SMALL
NO_CHARGES


@<TRIPOS>ATOM
      1 ****        -1.0603   1.1484  -0.1547 C.3            1 S1                 0.0000
      2 ****        -1.6940   0.0723  -1.0742 C.3            1 S1                 0.0000
      3 ****        -1.0595  -1.3133  -0.7599 C.3            1 S1                 0.0000
      4 ****         0.3979  -1.3154  -0.8649 N.am           1 S1                 0.0000
      5 ****         1.2551  -1.4274   0.1617 C.2            1 S1                 0.0000
      6 ****         0.8944  -1.5725   1.3304 O.2            1 S1                 0.0000
      7 ****         2.7454  -1.3604  -0.1999 C.3            1 S1                 0.0000
      8 ****         3.5843  -0.9040   0.9202 N.am           1 S1                 0.0000
      9 ****         3.7116   0.4890   1.0853 C.2            1 S1                 0.0000
     10 ****         4.4381   1.0480   2.0714 C.2            1 S1                 0.0000
     11 ****         4.4961   2.5556   2.2611 C.3            1 S1                 0.0000
     12 ****         4.7391   2.8720   3.5332 F              1 S1                 0.0000
     13 ****         5.4702   3.0694   1.5114 F              1 S1                 0.0000
     14 ****         3.3480   3.1291   1.8986 F              1 S1                 0.0000
     15 ****         5.0788   0.1343   2.9970 C.2            1 S1                 0.0000
     16 ****         4.9557  -1.2008   2.8618 C.2            1 S1                 0.0000
     17 ****         4.1721  -1.7934   1.7754 C.2            1 S1                 0.0000
     18 ****         4.0500  -3.0115   1.6456 O.2            1 S1                 0.0000
     19 ****        -3.1748   0.0615  -1.0050 N.3            1 S1                 0.0000
     20 ****        -3.7662   1.3656  -1.3284 C.3            1 S1                 0.0000
     21 ****        -5.3040   1.3537  -1.2839 C.3            1 S1                 0.0000
     22 ****        -5.8010   0.3603  -2.1694 O.3            1 S1                 0.0000
     23 ****        -5.3172  -0.9341  -1.8401 C.3            1 S1                 0.0000
     24 ****        -3.7794  -0.9413  -1.8898 C.3            1 S1                 0.0000
     25 ****         0.0275   1.1512  -0.2068 H              1 S1                 0.0000
     26 ****        -1.3390   0.9900   0.8875 H              1 S1                 0.0000
     27 ****        -1.3513   2.1601  -0.4324 H              1 S1                 0.0000
     28 ****        -1.4087   0.3254  -2.0967 H              1 S1                 0.0000
     29 ****        -1.3903  -1.6633   0.2193 H              1 S1                 0.0000
     30 ****        -1.3847  -2.0642  -1.4777 H              1 S1                 0.0000
     31 ****         0.7843  -1.2050  -1.7913 H              1 S1                 0.0000
     32 ****         3.0595  -2.3404  -0.5622 H              1 S1                 0.0000
     33 ****         2.8787  -0.6876  -1.0492 H              1 S1                 0.0000
     34 ****         3.1640   1.0764   0.3621 H              1 S1                 0.0000
     35 ****         5.6695   0.5259   3.8119 H              1 S1                 0.0000
     36 ****         5.4465  -1.8517   3.5705 H              1 S1                 0.0000
     37 ****        -3.4371   2.1240  -0.6207 H              1 S1                 0.0000
     38 ****        -3.4350   1.6877  -2.3168 H              1 S1                 0.0000
     39 ****        -5.6597   1.1611  -0.2705 H              1 S1                 0.0000
     40 ****        -5.6991   2.3250  -1.5820 H              1 S1                 0.0000
     41 ****        -5.6736  -1.2238  -0.8503 H              1 S1                 0.0000
     42 ****        -5.7220  -1.6559  -2.5495 H              1 S1                 0.0000
     43 ****        -3.4494  -0.7764  -2.9165 H              1 S1                 0.0000
     44 ****        -3.4611  -1.9436  -1.6101 H              1 S1                 0.0000
     45 ****        -0.0800  -1.6119   1.5517 LP             1 S1                 0.0000
     46 ****         1.5760  -1.6509   2.0579 LP             1 S1                 0.0000
     47 ****         3.5050  -3.3820   0.8934 LP             1 S1                 0.0000
     48 ****         4.4958  -3.6304   2.2923 LP             1 S1                 0.0000
     49 ****        -3.3762  -0.1708  -0.0535 LP             1 S1                 0.0000
     50 ****        -5.5145   0.5851  -3.1008 LP             1 S1                 0.0000
     51 ****        -6.7998   0.3541  -2.1203 LP             1 S1                 0.0000
@<TRIPOS>BOND
    1    1    2 1     
    2    1   25 1     
    3    1   26 1     
    4    1   27 1     
    5    2    3 1     
    6    2   19 1     
    7    2   28 1     
    8    3    4 1     
    9    3   29 1     
   10    3   30 1     
   11    4    5 am    
   12    4   31 1     
   13    5    6 2     
   14    5    7 1     
   15    7    8 1     
   16    7   32 1     
   17    7   33 1     
   18    8   17 am    
   19    8    9 1     
   20    9   10 2     
   21    9   34 1     
   22   10   11 1     
   23   10   15 1     
   24   11   12 1     
   25   11   13 1     
   26   11   14 1     
   27   15   16 2     
   28   15   35 1     
   29   16   17 1     
   30   16   36 1     
   31   17   18 2     
   32   19   24 1     
   33   19   20 1     
   34   20   21 1     
   35   20   37 1     
   36   20   38 1     
   37   21   22 1     
   38   21   39 1     
   39   21   40 1     
   40   22   23 1     
   41   23   24 1     
   42   23   41 1     
   43   23   42 1     
   44   24   43 1     
   45   24   44 1     
   46    6   45 1     
   47    6   46 1     
   48   18   47 1     
   49   18   48 1     
   50   19   49 1     
   51   22   50 1     
   52   22   51 1     
@<TRIPOS>SUBSTRUCTURE
      1 S1             1
@<TRIPOS>SET
LONE_PAIRS      STATIC     ATOMS    <user>   **** ""
7 45 46 47 48 49 50 51
DONOR_HYDROGENS      STATIC     ATOMS    <user>   **** ""
1 31
ATOM$BLUE        STATIC     ATOMS    COLORGROUP SYSTEM
7 45 46 47 48 49 50 51
ATOM$RED        STATIC     ATOMS    COLORGROUP SYSTEM
1 31
