AV-unprocessed.smi:2557|AV-procd|sdf|10028|dock3
  -GOLD-   2272014 73D 1   1.00000     0.00000
 Structure written by MMmdl.
 39 41  0  0  0  0  0  0  0  0  3 V2000
  150.6215  138.4131  154.1740 O   0  5  0  0  0  0  0  0  0  0  0  0
  150.1276  139.4063  154.7579 C   0  0  0  0  0  0  0  0  0  0  0  0
  150.6051  140.2287  155.7807 C   0  0  0  0  0  0  0  0  0  0  0  0
  151.9397  140.0246  156.3670 C   0  0  0  0  0  0  0  0  0  0  0  0
  152.7372  139.1448  156.0461 O   0  0  0  0  0  0  0  0  0  0  0  0
  152.2617  140.9066  157.3329 N   0  0  0  0  0  0  0  0  0  0  0  0
  151.4174  141.9357  157.7552 C   0  0  0  0  0  0  0  0  0  0  0  0
  152.0562  142.7624  158.8726 C   0  0  0  0  0  0  0  0  0  0  0  0
  152.4122  141.8893  160.0973 C   0  0  0  0  0  0  0  0  0  0  0  0
  153.0958  142.7124  161.2020 C   0  0  0  0  0  0  0  0  0  0  0  0
  152.2357  143.9152  161.6188 C   0  0  0  0  0  0  0  0  0  0  0  0
  151.8877  144.7925  160.4068 C   0  0  0  0  0  0  0  0  0  0  0  0
  151.1936  143.9706  159.3089 C   0  0  0  0  0  0  0  0  0  0  0  0
  150.2299  142.1607  157.2801 N   0  0  0  0  0  0  0  0  0  0  0  0
  149.8327  141.3001  156.2838 N   0  0  0  0  0  0  0  0  0  0  0  0
  148.7685  139.6341  154.2337 C   0  0  0  0  0  0  0  0  0  0  0  0
  148.4115  140.8826  153.6740 C   0  0  0  0  0  0  0  0  0  0  0  0
  147.1023  141.0769  153.1898 C   0  0  0  0  0  0  0  0  0  0  0  0
  146.2007  140.0741  153.2687 N   0  3  0  0  0  0  0  0  0  0  0  0
  146.4938  138.8680  153.8014 C   0  0  0  0  0  0  0  0  0  0  0  0
  147.7877  138.6176  154.3007 C   0  0  0  0  0  0  0  0  0  0  0  0
  152.9901  143.1650  158.4764 H   0  0  0  0  0  0  0  0  0  0  0  0
  151.5075  141.4286  160.4970 H   0  0  0  0  0  0  0  0  0  0  0  0
  153.0708  141.0699  159.8064 H   0  0  0  0  0  0  0  0  0  0  0  0
  153.2935  142.0799  162.0679 H   0  0  0  0  0  0  0  0  0  0  0  0
  154.0662  143.0626  160.8479 H   0  0  0  0  0  0  0  0  0  0  0  0
  151.3175  143.5628  162.0906 H   0  0  0  0  0  0  0  0  0  0  0  0
  152.7618  144.5072  162.3683 H   0  0  0  0  0  0  0  0  0  0  0  0
  151.2438  145.6160  160.7168 H   0  0  0  0  0  0  0  0  0  0  0  0
  152.7967  145.2442  160.0075 H   0  0  0  0  0  0  0  0  0  0  0  0
  150.9869  144.6149  158.4530 H   0  0  0  0  0  0  0  0  0  0  0  0
  150.2265  143.6282  159.6808 H   0  0  0  0  0  0  0  0  0  0  0  0
  148.9087  141.4781  155.9065 H   0  0  0  0  0  0  0  0  0  0  0  0
  149.1383  141.6800  153.6184 H   0  0  0  0  0  0  0  0  0  0  0  0
  146.7519  141.9978  152.7475 H   0  0  0  0  0  0  0  0  0  0  0  0
  145.6911  138.1455  153.8132 H   0  0  0  0  0  0  0  0  0  0  0  0
  148.0301  137.6565  154.7304 H   0  0  0  0  0  0  0  0  0  0  0  0
  153.1660  140.8118  157.7706 H   0  0  0  0  0  0  0  0  0  0  0  0
  145.2582  140.2354  152.9135 H   0  0  0  0  0  0  0  0  0  0  0  0
  1  2  1  0  0  0  0
  2  3  2  0  0  0  0
  2 16  1  0  0  0  0
  3 15  1  0  0  0  0
  3  4  1  0  0  0  0
  4  5  2  0  0  0  0
  4  6  1  0  0  0  0
  6  7  1  0  0  0  0
  6 38  1  0  0  0  0
  7  8  1  0  0  0  0
  7 14  2  0  0  0  0
  8 13  1  0  0  0  0
  8  9  1  0  0  0  0
  8 22  1  0  0  0  0
  9 10  1  0  0  0  0
  9 23  1  0  0  0  0
  9 24  1  0  0  0  0
 10 11  1  0  0  0  0
 10 25  1  0  0  0  0
 10 26  1  0  0  0  0
 11 12  1  0  0  0  0
 11 27  1  0  0  0  0
 11 28  1  0  0  0  0
 12 13  1  0  0  0  0
 12 29  1  0  0  0  0
 12 30  1  0  0  0  0
 13 31  1  0  0  0  0
 13 32  1  0  0  0  0
 14 15  1  0  0  0  0
 15 33  1  0  0  0  0
 16 21  1  0  0  0  0
 16 17  2  0  0  0  0
 17 18  1  0  0  0  0
 17 34  1  0  0  0  0
 18 19  2  0  0  0  0
 18 35  1  0  0  0  0
 19 20  1  0  0  0  0
 19 39  1  0  0  0  0
 20 21  2  0  0  0  0
 20 36  1  0  0  0  0
 21 37  1  0  0  0  0
M  CHG  1   1  -1
M  CHG  1  19   1
M  END
> <s_m_source_file>
AV-unprocessed.smi

> <i_m_source_file_index>
2557

> <i_lp_mmshare_version>
43012

> <i_f3d_flags>
0

> <s_epik_input>
W2NIXTFbY0hdbltjSF1bY0hdYzFDKD1PKUMyPUMoW09IXSlOPUMoW05IXVtOSF0yKVtDSF0zW0NIMl1bQ0gyXVtDSDJdW0NIMl1bQ0gyXTM=

> <s_epik_cmdline>
J2VwaWtfcHl0aG9uJywgJy1waCcsICc3LjAnLCAnLXRuJywgJzgnLCAnLW1hJywgJzIwMCcsICctbWV0YWxfYmluZGluZycsICctaW1hZScsICc8aW5maWxlLm1hZT4nLCAnLW9tYWUnLCAnPG91dGZpbGUubWFlPic=

> <r_epik_Ionization_Penalty>
1.90808

> <r_epik_Ionization_Penalty_Charging>
1.90154

> <r_epik_Ionization_Penalty_Neutral>
0.00653609

> <r_epik_State_Penalty>
1.20174

> <r_epik_Charging_Adjusted_Penalty>
3.10328

> <i_epik_Tot_Q>
0

> <i_epik_Tot_abs_Q>
2

> <r_epik_Metal_State_Penalty>
5.22546

> <b_epik_Metal_Only>
0

> <s_epik_Chemistry_Notes>
This compound has an imine and may undergo hydrolysis.

> <s_lp_Force_Field>
OPLS_2005

> <r_lp_Energy>
32.353

> <b_lp_Chiralities_Consistent>
1

> <s_lp_Variant>
AV-unprocessed.smi:2557-2

> <Gold.Version>
5.8.1

> <Gold.Id.Protein>
6NUR|6NUR_protein|mol2

> <Gold.PLP.Fitness>
48.7436

> <Gold.PLP.PLP>
-39.7728

> <Gold.PLP.part.hbond>
-2.0000

> <Gold.PLP.part.metal>
0.0000

> <Gold.PLP.part.buried>
-2.5141

> <Gold.PLP.part.nonpolar>
-35.6661

> <Gold.PLP.part.repulsive>
0.5230

> <Gold.PLP.ligand.clash>
0.0000

> <Gold.PLP.ligand.torsion>
1.0978

> <Gold.PLP.Chemscore.Hbond>
3.0000

> <Gold.PLP.Chemscore.CHOScore>
0.0000

> <Gold.PLP.Chemscore.Metal>
0.0000

> <Gold.Chemscore.Hbonds>
donor molecule, donor type, donor heavy atom, donor atom, acceptor molecule, acceptor atom, score
      L1  H    19    39       P1 10175  2.00
      P1  H  7997  8010       L1     5  1.00

> <Gold.PLP.Chemscore.Internal.Correction>
2.1665

> <Gold.Rescore>
     Score         DG    S(hbond)    S(metal)    S(lipo)     H(rot)  DE(clash)    DE(int)     intcor
     18.39     -20.98       1.71        0.00     105.52       1.00       0.82       1.77       ----

> <Gold.Chemscore.Fitness>
18.3881

> <Gold.Chemscore.DG>
-20.9825

> <Gold.Chemscore.ZeroCoef>
-5.4800

> <Gold.Chemscore.Hbond>
1.7115

> <Gold.Chemscore.Metal>
0.0000

> <Gold.Chemscore.Lipo>
105.5206

> <Gold.Chemscore.Internal_Hbond>
0.0000

> <Gold.Chemscore.DEClash>
0.8228

> <Gold.Chemscore.DEInternal>
1.7715

> <Gold.Chemscore.Rot>
1.0000

> <Gold.Chemscore.Internal.Correction>
   9.000000E+99

> <Gold.Chemscore.Hbonds>
donor molecule, donor type, donor heavy atom, donor atom, acceptor molecule, acceptor atom, score
      L1  H    19    39       P1 10175  0.98
      P1  H  7997  8010       L1     5  0.28

> <Gold.Chemscore.Hbond.Weighted>
-5.7166

> <Gold.Chemscore.Metal.Weighted>
-0.0000

> <Gold.Chemscore.Lipo.Weighted>
-12.3459

> <Gold.Chemscore.Internal_Hbond.Weighted>
0.0000

> <Gold.Chemscore.DEClash.Weighted>
0.8228

> <Gold.Chemscore.DEInternal.Weighted>
1.7715

> <Gold.Chemscore.Rot.Weighted>
2.5600

> <Gold.Chemscore.Internal.Correction.Weighted>
   9.000000E+99

> <Gold.Protein.RotatedTorsions>
[ 6907 6896 6895 6894 ] final -107.33 input  -60.11 | X-H torsion
[ 7974 7965 7964 7962 ] final  151.96 input  175.53 | X-H torsion
[ 8008 7997 7996 7995 ] final   98.80 input   59.86 | X-H torsion
[ 10167 10162 10161 10158 ] final   74.41 input  -65.29 | X-H torsion
[ 10718 10713 10712 10709 ] final   87.22 input   66.30 | X-H torsion
[ 10763 10752 10751 10750 ] final  -76.92 input  -60.55 | X-H torsion
[ 11005 11000 10999 10996 ] final   83.61 input  -57.11 | X-H torsion

> <Gold.Protein.ActiveResidues>
 VAL166  LYS551  ARG553  GLY616  TRP617  ASP618  TYR619  PRO620  LYS621  CYS622 
 ASP623  PHE694  ASN695  SER759  ASP760  ASP761  ALA762  ILE779  LEU786  VAL792 
 PHE793  MET794  SER795  GLU796  ALA797  LYS798  CYS799  TRP800  GLU811  SER814 

> <Gold.Protein.RotatedAtoms>
  150.7438  133.9842  159.3585 H   0  0  0  0  0  0  0  0  0  0  0  0  # atno 6907 bound_to 6896
  151.7785  135.0766  160.0379 H   0  0  0  0  0  0  0  0  0  0  0  0  # atno 6908 bound_to 6896
  152.3290  133.5900  159.5833 H   0  0  0  0  0  0  0  0  0  0  0  0  # atno 6909 bound_to 6896
  144.8256  139.6606  143.6081 H   0  0  0  0  0  0  0  0  0  0  0  0  # atno 7974 bound_to 7965
  156.1041  140.3238  155.7982 H   0  0  0  0  0  0  0  0  0  0  0  0  # atno 8008 bound_to 7997
  155.4786  140.0552  157.2987 H   0  0  0  0  0  0  0  0  0  0  0  0  # atno 8009 bound_to 7997
  154.4716  140.2014  155.9996 H   0  0  0  0  0  0  0  0  0  0  0  0  # atno 8010 bound_to 7997
  140.0140  144.5592  150.7635 H   0  0  0  0  0  0  0  0  0  0  0  0  # atno 10167 bound_to 10162
  157.6938  131.0247  150.3091 H   0  0  0  0  0  0  0  0  0  0  0  0  # atno 10718 bound_to 10713
  154.5061  135.5781  153.6569 H   0  0  0  0  0  0  0  0  0  0  0  0  # atno 10763 bound_to 10752
  152.9888  135.6147  154.2939 H   0  0  0  0  0  0  0  0  0  0  0  0  # atno 10764 bound_to 10752
  154.2850  135.2850  155.2660 H   0  0  0  0  0  0  0  0  0  0  0  0  # atno 10765 bound_to 10752
  139.9025  134.8157  156.2333 H   0  0  0  0  0  0  0  0  0  0  0  0  # atno 11005 bound_to 11000
  146.2561  139.6305  142.9394 LP  0  0  0  0  0  0  0  0  0  0  0  0  # atno 17320 bound_to 7965
  145.5009  141.0437  143.2541 LP  0  0  0  0  0  0  0  0  0  0  0  0  # atno 17321 bound_to 7965
  140.7370  143.2760  151.3742 LP  0  0  0  0  0  0  0  0  0  0  0  0  # atno 17342 bound_to 10162
  139.6185  144.0954  152.2369 LP  0  0  0  0  0  0  0  0  0  0  0  0  # atno 17343 bound_to 10162
  156.3595  130.3844  149.7263 LP  0  0  0  0  0  0  0  0  0  0  0  0  # atno 17370 bound_to 10713
  156.4713  130.7998  151.3016 LP  0  0  0  0  0  0  0  0  0  0  0  0  # atno 17371 bound_to 10713
  141.0331  133.6977  156.1466 LP  0  0  0  0  0  0  0  0  0  0  0  0  # atno 17394 bound_to 11000
  140.7066  134.4506  157.5584 LP  0  0  0  0  0  0  0  0  0  0  0  0  # atno 17395 bound_to 11000

$$$$
