AV-unprocessed.smi:2438|AV-procd|sdf|9595|dock2
  -GOLD-   2272013223D 1   1.00000     0.00000
 Structure written by MMmdl.
 43 44  0  0  0  0  0  0  0  0  1 V2000
  153.2100  139.6168  159.5553 C   0  0  0  0  0  0  0  0  0  0  0  0
  152.6743  138.4542  158.8605 N   0  0  0  0  0  0  0  0  0  0  0  0
  153.5599  137.3008  158.7613 C   0  0  0  0  0  0  0  0  0  0  0  0
  151.9489  138.7867  157.6985 C   0  0  0  0  0  0  0  0  0  0  0  0
  152.6064  139.4254  156.7003 N   0  0  0  0  0  0  0  0  0  0  0  0
  151.9089  139.7537  155.6118 C   0  0  0  0  0  0  0  0  0  0  0  0
  150.6166  139.5134  155.3916 N   0  0  0  0  0  0  0  0  0  0  0  0
  149.9417  138.8766  156.3711 C   0  0  0  0  0  0  0  0  0  0  0  0
  150.5661  138.4855  157.5816 C   0  0  0  0  0  0  0  0  0  0  0  0
  149.8972  137.7695  158.6133 N   0  0  0  0  0  0  0  0  0  0  0  0
  148.5762  137.5934  158.7776 C   0  0  0  0  0  0  0  0  0  0  0  0
  147.7031  138.0199  158.0225 O   0  0  0  0  0  0  0  0  0  0  0  0
  148.3176  136.9040  159.8975 N   0  0  0  0  0  0  0  0  0  0  0  0
  146.9863  136.5623  160.3966 C   0  0  2  0  0  0  0  0  0  0  0  0
  146.8199  136.9574  161.8792 C   0  0  0  0  0  0  0  0  0  0  0  0
  147.6620  136.0705  162.8104 C   0  0  0  0  0  0  0  0  0  0  0  0
  147.3461  134.5818  162.5976 C   0  0  0  0  0  0  0  0  0  0  0  0
  147.5488  134.1596  161.1271 C   0  0  1  0  0  0  0  0  0  0  0  0
  147.2484  132.6621  160.9091 C   0  0  0  0  0  0  0  0  0  0  0  0
  147.3024  132.3496  159.6140 F   0  0  0  0  0  0  0  0  0  0  0  0
  148.1363  131.9186  161.5696 F   0  0  0  0  0  0  0  0  0  0  0  0
  146.0338  132.3681  161.3733 F   0  0  0  0  0  0  0  0  0  0  0  0
  146.7075  135.0596  160.1923 C   0  0  0  0  0  0  0  0  0  0  0  0
  152.4220  140.3114  159.8459 H   0  0  0  0  0  0  0  0  0  0  0  0
  153.9171  140.1495  158.9182 H   0  0  0  0  0  0  0  0  0  0  0  0
  153.7338  139.3113  160.4616 H   0  0  0  0  0  0  0  0  0  0  0  0
  153.0652  136.4714  158.2544 H   0  0  0  0  0  0  0  0  0  0  0  0
  153.8480  136.9604  159.7562 H   0  0  0  0  0  0  0  0  0  0  0  0
  154.4675  137.5530  158.2114 H   0  0  0  0  0  0  0  0  0  0  0  0
  152.4475  140.2632  154.8269 H   0  0  0  0  0  0  0  0  0  0  0  0
  148.9061  138.6623  156.1574 H   0  0  0  0  0  0  0  0  0  0  0  0
  150.4894  137.4350  159.3596 H   0  0  0  0  0  0  0  0  0  0  0  0
  149.1015  136.5986  160.4553 H   0  0  0  0  0  0  0  0  0  0  0  0
  146.2547  137.1177  159.8067 H   0  0  0  0  0  0  0  0  0  0  0  0
  147.0763  138.0067  162.0293 H   0  0  0  0  0  0  0  0  0  0  0  0
  145.7690  136.8635  162.1558 H   0  0  0  0  0  0  0  0  0  0  0  0
  148.7230  136.2502  162.6328 H   0  0  0  0  0  0  0  0  0  0  0  0
  147.4747  136.3439  163.8492 H   0  0  0  0  0  0  0  0  0  0  0  0
  147.9800  133.9823  163.2513 H   0  0  0  0  0  0  0  0  0  0  0  0
  146.3174  134.3833  162.9009 H   0  0  0  0  0  0  0  0  0  0  0  0
  148.6009  134.3136  160.8827 H   0  0  0  0  0  0  0  0  0  0  0  0
  145.6484  134.8714  160.3729 H   0  0  0  0  0  0  0  0  0  0  0  0
  146.8854  134.7922  159.1499 H   0  0  0  0  0  0  0  0  0  0  0  0
  1  2  1  0  0  0  0
  1 24  1  0  0  0  0
  1 25  1  0  0  0  0
  1 26  1  0  0  0  0
  2  3  1  0  0  0  0
  2  4  1  0  0  0  0
  3 27  1  0  0  0  0
  3 28  1  0  0  0  0
  3 29  1  0  0  0  0
  4  9  1  0  0  0  0
  4  5  2  0  0  0  0
  5  6  1  0  0  0  0
  6  7  2  0  0  0  0
  6 30  1  0  0  0  0
  7  8  1  0  0  0  0
  8  9  2  0  0  0  0
  8 31  1  0  0  0  0
  9 10  1  0  0  0  0
 10 11  1  0  0  0  0
 10 32  1  0  0  0  0
 11 12  2  0  0  0  0
 11 13  1  0  0  0  0
 13 14  1  0  0  0  0
 13 33  1  0  0  0  0
 14 23  1  0  0  0  0
 14 15  1  0  0  0  0
 14 34  1  0  0  0  0
 15 16  1  0  0  0  0
 15 35  1  0  0  0  0
 15 36  1  0  0  0  0
 16 17  1  0  0  0  0
 16 37  1  0  0  0  0
 16 38  1  0  0  0  0
 17 18  1  0  0  0  0
 17 39  1  0  0  0  0
 17 40  1  0  0  0  0
 18 19  1  0  0  0  0
 18 23  1  0  0  0  0
 18 41  1  0  0  0  0
 19 20  1  0  0  0  0
 19 21  1  0  0  0  0
 19 22  1  0  0  0  0
 23 42  1  0  0  0  0
 23 43  1  0  0  0  0
M  END
> <s_m_source_file>
AV-unprocessed.smi

> <i_m_source_file_index>
2438

> <i_lp_mmshare_version>
43012

> <i_f3d_flags>
0

> <s_epik_input>
W0NIM11OKFtDSDNdKWMxbltjSF1uW2NIXWMxW05IXUMoPU8pW05IXVtDQEBIXTJbQ0gyXVtDSDJdW0NIMl1bQ0BASF0oQyhGKShGKUYpW0NIMl0y

> <s_epik_cmdline>
J2VwaWtfcHl0aG9uJywgJy1waCcsICc3LjAnLCAnLXRuJywgJzgnLCAnLW1hJywgJzIwMCcsICctbWV0YWxfYmluZGluZycsICctaW1hZScsICc8aW5maWxlLm1hZT4nLCAnLW9tYWUnLCAnPG91dGZpbGUubWFlPic=

> <r_lp_tautomer_probability>
1

> <r_epik_Ionization_Penalty>
0.01759

> <r_epik_Ionization_Penalty_Charging>
0

> <r_epik_Ionization_Penalty_Neutral>
0.01759

> <r_epik_State_Penalty>
0.0133536

> <r_epik_Charging_Adjusted_Penalty>
0.0133536

> <i_epik_Tot_Q>
0

> <i_epik_Tot_abs_Q>
0

> <r_epik_Metal_State_Penalty>
0.0129828

> <b_epik_Metal_Only>
0

> <s_lp_Force_Field>
OPLS_2005

> <r_lp_Energy>
11.7103

> <b_lp_Chiralities_Consistent>
1

> <s_lp_Variant>
AV-unprocessed.smi:2438-1

> <Gold.Version>
5.8.1

> <Gold.Id.Protein>
6NUR|6NUR_protein|mol2

> <Gold.PLP.Fitness>
36.6354

> <Gold.PLP.PLP>
-34.2535

> <Gold.PLP.part.hbond>
-1.0000

> <Gold.PLP.part.metal>
0.0000

> <Gold.PLP.part.buried>
-5.5561

> <Gold.PLP.part.nonpolar>
-28.1836

> <Gold.PLP.part.repulsive>
0.4290

> <Gold.PLP.ligand.clash>
0.0000

> <Gold.PLP.ligand.torsion>
0.4879

> <Gold.PLP.Chemscore.Hbond>
1.0000

> <Gold.PLP.Chemscore.CHOScore>
0.0000

> <Gold.PLP.Chemscore.Metal>
0.0000

> <Gold.Chemscore.Hbonds>
donor molecule, donor type, donor heavy atom, donor atom, acceptor molecule, acceptor atom, score
      P1  H  7997  8009       L1     5  1.00

> <Gold.PLP.Chemscore.Internal.Correction>
0.3576

> <Gold.Rescore>
     Score         DG    S(hbond)    S(metal)    S(lipo)     H(rot)  DE(clash)    DE(int)     intcor
     11.72     -13.30       0.95        0.00      68.14       1.30       0.05       1.54       ----

> <Gold.Chemscore.Fitness>
11.7166

> <Gold.Chemscore.DG>
-13.3039

> <Gold.Chemscore.ZeroCoef>
-5.4800

> <Gold.Chemscore.Hbond>
0.9509

> <Gold.Chemscore.Metal>
0.0000

> <Gold.Chemscore.Lipo>
68.1397

> <Gold.Chemscore.Internal_Hbond>
0.0000

> <Gold.Chemscore.DEClash>
0.0508

> <Gold.Chemscore.DEInternal>
1.5364

> <Gold.Chemscore.Rot>
1.2987

> <Gold.Chemscore.Internal.Correction>
   9.000000E+99

> <Gold.Chemscore.Hbonds>
donor molecule, donor type, donor heavy atom, donor atom, acceptor molecule, acceptor atom, score
      P1  H  7997  8009       L1     5  0.70

> <Gold.Chemscore.Hbond.Weighted>
-3.1761

> <Gold.Chemscore.Metal.Weighted>
-0.0000

> <Gold.Chemscore.Lipo.Weighted>
-7.9723

> <Gold.Chemscore.Internal_Hbond.Weighted>
0.0000

> <Gold.Chemscore.DEClash.Weighted>
0.0508

> <Gold.Chemscore.DEInternal.Weighted>
1.5364

> <Gold.Chemscore.Rot.Weighted>
3.3246

> <Gold.Chemscore.Internal.Correction.Weighted>
   9.000000E+99

> <Gold.Protein.RotatedTorsions>
[ 6907 6896 6895 6894 ] final  -50.81 input  -60.11 | X-H torsion
[ 7974 7965 7964 7962 ] final  -65.96 input  175.53 | X-H torsion
[ 8008 7997 7996 7995 ] final -174.78 input   59.86 | X-H torsion
[ 10167 10162 10161 10158 ] final -155.78 input  -65.29 | X-H torsion
[ 10718 10713 10712 10709 ] final    5.37 input   66.30 | X-H torsion
[ 10763 10752 10751 10750 ] final   49.55 input  -60.55 | X-H torsion
[ 11005 11000 10999 10996 ] final   -7.03 input  -57.11 | X-H torsion

> <Gold.Protein.ActiveResidues>
 VAL166  LYS551  ARG553  GLY616  TRP617  ASP618  TYR619  PRO620  LYS621  CYS622 
 ASP623  PHE694  ASN695  SER759  ASP760  ASP761  ALA762  ILE779  LEU786  VAL792 
 PHE793  MET794  SER795  GLU796  ALA797  LYS798  CYS799  TRP800  GLU811  SER814 

> <Gold.Protein.RotatedAtoms>
  150.8671  134.8036  159.7126 H   0  0  0  0  0  0  0  0  0  0  0  0  # atno 6907 bound_to 6896
  152.4688  134.5006  159.9733 H   0  0  0  0  0  0  0  0  0  0  0  0  # atno 6908 bound_to 6896
  151.5101  133.3448  159.2919 H   0  0  0  0  0  0  0  0  0  0  0  0  # atno 6909 bound_to 6896
  145.7477  140.8923  143.0496 H   0  0  0  0  0  0  0  0  0  0  0  0  # atno 7974 bound_to 7965
  155.9744  140.1169  157.0784 H   0  0  0  0  0  0  0  0  0  0  0  0  # atno 8008 bound_to 7997
  154.4165  140.1157  156.5417 H   0  0  0  0  0  0  0  0  0  0  0  0  # atno 8009 bound_to 7997
  155.6554  140.3473  155.4765 H   0  0  0  0  0  0  0  0  0  0  0  0  # atno 8010 bound_to 7997
  139.6904  143.9431  152.2382 H   0  0  0  0  0  0  0  0  0  0  0  0  # atno 10167 bound_to 10162
  156.9064  130.5740  149.5647 H   0  0  0  0  0  0  0  0  0  0  0  0  # atno 10718 bound_to 10713
  152.9786  135.5908  154.4107 H   0  0  0  0  0  0  0  0  0  0  0  0  # atno 10763 bound_to 10752
  154.3742  135.2767  155.2251 H   0  0  0  0  0  0  0  0  0  0  0  0  # atno 10764 bound_to 10752
  154.4192  135.6063  153.6054 H   0  0  0  0  0  0  0  0  0  0  0  0  # atno 10765 bound_to 10752
  140.7084  133.8930  155.8733 H   0  0  0  0  0  0  0  0  0  0  0  0  # atno 11005 bound_to 11000
  144.6856  139.9548  143.7479 LP  0  0  0  0  0  0  0  0  0  0  0  0  # atno 17320 bound_to 7965
  146.0387  139.3401  143.0711 LP  0  0  0  0  0  0  0  0  0  0  0  0  # atno 17321 bound_to 7965
  139.9245  144.6779  150.8427 LP  0  0  0  0  0  0  0  0  0  0  0  0  # atno 17342 bound_to 10162
  140.7681  143.3351  151.2325 LP  0  0  0  0  0  0  0  0  0  0  0  0  # atno 17343 bound_to 10162
  156.0557  130.5619  150.9085 LP  0  0  0  0  0  0  0  0  0  0  0  0  # atno 17370 bound_to 10713
  157.5994  131.0942  150.8985 LP  0  0  0  0  0  0  0  0  0  0  0  0  # atno 17371 bound_to 10713
  141.0105  134.1026  157.4226 LP  0  0  0  0  0  0  0  0  0  0  0  0  # atno 17394 bound_to 11000
  139.8878  135.0093  156.6583 LP  0  0  0  0  0  0  0  0  0  0  0  0  # atno 17395 bound_to 11000

$$$$
