#       Name:                AV-unprocessed.smi:2525
#       Creating user name   scv26
#       Creation time:       Fri Mar 27 13:56:57 2020


#       File generated by GOLD software.
#

@<TRIPOS>MOLECULE
AV-unprocessed.smi:2525
    50    51     1
SMALL
NO_CHARGES


@<TRIPOS>ATOM
      1 ****         0.9415  -1.5268   2.1270 C.3            1 S1                 0.0000
      2 ****        -0.2254  -1.8202   1.1656 C.3            1 S1                 0.0000
      3 ****        -1.0889  -0.6046   0.7176 C.3            1 S1                 0.0000
      4 ****        -1.5454   0.1947   1.9535 C.3            1 S1                 0.0000
      5 ****        -2.4568  -0.5810   2.9174 C.3            1 S1                 0.0000
      6 ****        -0.5612   0.2608  -0.4621 C.3            1 S1                 0.0000
      7 ****         0.8843   0.2479  -0.6568 N.am           1 S1                 0.0000
      8 ****         1.7116   1.2294  -0.2701 C.2            1 S1                 0.0000
      9 ****         1.3247   2.2495   0.3022 O.2            1 S1                 0.0000
     10 ****         3.1989   1.0021  -0.5648 C.3            1 S1                 0.0000
     11 ****         3.9648   2.2372  -0.5599 N.pl3          1 S1                 0.0000
     12 ****         4.1494   3.1394  -1.5877 C.2            1 S1                 0.0000
     13 ****         4.9383   4.1025  -1.0265 C.2            1 S1                 0.0000
     14 ****         5.1993   3.7515   0.2969 N.2            1 S1                 0.0000
     15 ****         4.6091   2.6294   0.5658 N.2            1 S1                 0.0000
     16 ****        -1.2913  -0.6545  -1.4509 C.3            1 S1                 0.0000
     17 ****        -1.8424  -0.0506  -2.7360 C.3            1 S1                 0.0000
     18 ****        -2.2334  -0.9497  -0.2739 C.3            1 S1                 0.0000
     19 ****        -2.6657  -2.2984  -0.1718 O.3            1 S1                 0.0000
     20 ****        -3.7293  -2.6138  -1.0522 C.3            1 S1                 0.0000
     21 ****         1.5321  -2.4288   2.2886 H              1 S1                 0.0000
     22 ****         0.5893  -1.2010   3.1052 H              1 S1                 0.0000
     23 ****         1.6167  -0.7649   1.7444 H              1 S1                 0.0000
     24 ****         0.1893  -2.3239   0.2926 H              1 S1                 0.0000
     25 ****        -0.8587  -2.5726   1.6358 H              1 S1                 0.0000
     26 ****        -0.6904   0.5960   2.4969 H              1 S1                 0.0000
     27 ****        -2.0960   1.0779   1.6277 H              1 S1                 0.0000
     28 ****        -2.8105   0.0702   3.7169 H              1 S1                 0.0000
     29 ****        -1.9359  -1.4156   3.3858 H              1 S1                 0.0000
     30 ****        -3.3329  -0.9770   2.4035 H              1 S1                 0.0000
     31 ****        -0.9973   1.2633  -0.4687 H              1 S1                 0.0000
     32 ****         1.2800  -0.5613  -1.1133 H              1 S1                 0.0000
     33 ****         3.6127   0.3173   0.1770 H              1 S1                 0.0000
     34 ****         3.3158   0.5287  -1.5408 H              1 S1                 0.0000
     35 ****         3.7225   3.0243  -2.5729 H              1 S1                 0.0000
     36 ****         5.3353   5.0091  -1.4591 H              1 S1                 0.0000
     37 ****        -0.6870  -1.5370  -1.6689 H              1 S1                 0.0000
     38 ****        -2.5222   0.7761  -2.5286 H              1 S1                 0.0000
     39 ****        -2.3889  -0.7884  -3.3225 H              1 S1                 0.0000
     40 ****        -1.0379   0.3347  -3.3627 H              1 S1                 0.0000
     41 ****        -3.0591  -0.2366  -0.2081 H              1 S1                 0.0000
     42 ****        -4.0388  -3.6464  -0.8920 H              1 S1                 0.0000
     43 ****        -3.4258  -2.5152  -2.0939 H              1 S1                 0.0000
     44 ****        -4.5938  -1.9726  -0.8747 H              1 S1                 0.0000
     45 ****         0.3521   2.3743   0.4986 LP             1 S1                 0.0000
     46 ****         1.9832   2.9527   0.5702 LP             1 S1                 0.0000
     47 ****         5.7543   4.2818   0.9377 LP             1 S1                 0.0000
     48 ****         4.6260   2.1441   1.4400 LP             1 S1                 0.0000
     49 ****        -2.9704  -2.4640   0.7661 LP             1 S1                 0.0000
     50 ****        -1.8921  -2.8964  -0.3815 LP             1 S1                 0.0000
@<TRIPOS>BOND
    1    1    2 1     
    2    1   21 1     
    3    1   22 1     
    4    1   23 1     
    5    2    3 1     
    6    2   24 1     
    7    2   25 1     
    8    3   18 1     
    9    3    4 1     
   10    3    6 1     
   11    4    5 1     
   12    4   26 1     
   13    4   27 1     
   14    5   28 1     
   15    5   29 1     
   16    5   30 1     
   17    6    7 1     
   18    6   16 1     
   19    6   31 1     
   20    7    8 am    
   21    7   32 1     
   22    8    9 2     
   23    8   10 1     
   24   10   11 1     
   25   10   33 1     
   26   10   34 1     
   27   11   15 1     
   28   11   12 1     
   29   12   13 2     
   30   12   35 1     
   31   13   14 1     
   32   13   36 1     
   33   14   15 2     
   34   16   17 1     
   35   16   18 1     
   36   16   37 1     
   37   17   38 1     
   38   17   39 1     
   39   17   40 1     
   40   18   19 1     
   41   18   41 1     
   42   19   20 1     
   43   20   42 1     
   44   20   43 1     
   45   20   44 1     
   46    9   45 1     
   47    9   46 1     
   48   14   47 1     
   49   15   48 1     
   50   19   49 1     
   51   19   50 1     
@<TRIPOS>SUBSTRUCTURE
      1 S1             1
@<TRIPOS>SET
LONE_PAIRS      STATIC     ATOMS    <user>   **** ""
6 45 46 47 48 49 50
DONOR_HYDROGENS      STATIC     ATOMS    <user>   **** ""
1 32
ATOM$BLUE        STATIC     ATOMS    COLORGROUP SYSTEM
6 45 46 47 48 49 50
ATOM$RED        STATIC     ATOMS    COLORGROUP SYSTEM
1 32
