AV-unprocessed.smi:3055|AV-procd|sdf|11641|dock2
  -GOLD-   2272017 33D 1   1.00000     0.00000
 Structure written by MMmdl.
 48 50  0  0  0  0  0  0  0  0  3 V2000
  146.5022  138.0143  150.8015 O   0  0  0  0  0  0  0  0  0  0  0  0
  146.2301  137.3817  151.8217 C   0  0  0  0  0  0  0  0  0  0  0  0
  146.5284  137.8463  153.0455 N   0  0  0  0  0  0  0  0  0  0  0  0
  147.1980  139.1134  153.3114 C   0  0  0  0  0  0  0  0  0  0  0  0
  148.4635  138.9075  154.1587 C   0  0  0  0  0  0  0  0  0  0  0  0
  148.7385  140.0466  155.0403 N   0  0  0  0  0  0  0  0  0  0  0  0
  148.9962  140.0093  156.3869 C   0  0  0  0  0  0  0  0  0  0  0  0
  149.1969  141.3065  156.7826 C   0  0  0  0  0  0  0  0  0  0  0  0
  149.0584  142.0799  155.6612 N   0  3  0  0  0  0  0  0  0  0  0  0
  148.7820  141.3118  154.6022 C   0  0  0  0  0  0  0  0  0  0  0  0
  145.5870  136.1864  151.8064 N   0  0  0  0  0  0  0  0  0  0  0  0
  145.2715  135.3792  150.6148 C   0  0  0  0  0  0  0  0  0  0  0  0
  146.0646  134.0633  150.6775 C   0  0  0  0  0  0  0  0  0  0  0  0
  145.7751  133.3092  151.9895 C   0  0  0  0  0  0  0  0  0  0  0  0
  145.9709  134.2035  153.2422 C   0  0  1  0  0  0  0  0  0  0  0  0
  147.4126  134.4726  153.5231 N   0  3  0  0  0  0  0  0  0  0  0  0
  147.6906  135.1409  154.8127 C   0  0  0  0  0  0  0  0  0  0  0  0
  149.1747  134.9050  155.0634 C   0  0  0  0  0  0  0  0  0  0  0  0
  149.4017  133.4954  154.5276 C   0  0  0  0  0  0  0  0  0  0  0  0
  148.3060  133.2881  153.4720 C   0  0  0  0  0  0  0  0  0  0  0  0
  145.1566  135.5081  153.0397 C   0  0  0  0  0  0  0  0  0  0  0  0
  146.2672  137.2855  153.8431 H   0  0  0  0  0  0  0  0  0  0  0  0
  147.4492  139.6097  152.3724 H   0  0  0  0  0  0  0  0  0  0  0  0
  146.5062  139.7699  153.8410 H   0  0  0  0  0  0  0  0  0  0  0  0
  148.3508  138.0272  154.7926 H   0  0  0  0  0  0  0  0  0  0  0  0
  149.3337  138.7319  153.5240 H   0  0  0  0  0  0  0  0  0  0  0  0
  149.0152  139.0865  156.9489 H   0  0  0  0  0  0  0  0  0  0  0  0
  149.4242  141.7257  157.7522 H   0  0  0  0  0  0  0  0  0  0  0  0
  148.6252  141.6497  153.5932 H   0  0  0  0  0  0  0  0  0  0  0  0
  144.2012  135.1664  150.6051 H   0  0  0  0  0  0  0  0  0  0  0  0
  145.4700  135.8810  149.6679 H   0  0  0  0  0  0  0  0  0  0  0  0
  145.8098  133.4336  149.8246 H   0  0  0  0  0  0  0  0  0  0  0  0
  147.1321  134.2732  150.5987 H   0  0  0  0  0  0  0  0  0  0  0  0
  144.7369  132.9749  151.9669 H   0  0  0  0  0  0  0  0  0  0  0  0
  146.3663  132.3954  152.0375 H   0  0  0  0  0  0  0  0  0  0  0  0
  145.5662  133.6724  154.1052 H   0  0  0  0  0  0  0  0  0  0  0  0
  147.4504  136.2025  154.7947 H   0  0  0  0  0  0  0  0  0  0  0  0
  147.1032  134.6738  155.6049 H   0  0  0  0  0  0  0  0  0  0  0  0
  149.7644  135.6192  154.4872 H   0  0  0  0  0  0  0  0  0  0  0  0
  149.4499  135.0111  156.1134 H   0  0  0  0  0  0  0  0  0  0  0  0
  150.4045  133.3695  154.1179 H   0  0  0  0  0  0  0  0  0  0  0  0
  149.2805  132.7686  155.3323 H   0  0  0  0  0  0  0  0  0  0  0  0
  147.7593  132.3712  153.6975 H   0  0  0  0  0  0  0  0  0  0  0  0
  148.7275  133.1890  152.4711 H   0  0  0  0  0  0  0  0  0  0  0  0
  145.2174  136.1479  153.9204 H   0  0  0  0  0  0  0  0  0  0  0  0
  144.0966  135.2649  152.9510 H   0  0  0  0  0  0  0  0  0  0  0  0
  147.7442  135.1021  152.8064 H   0  0  0  0  0  0  0  0  0  0  0  0
  149.1558  143.0874  155.6338 H   0  0  0  0  0  0  0  0  0  0  0  0
  1  2  2  0  0  0  0
  2  3  1  0  0  0  0
  2 11  1  0  0  0  0
  3  4  1  0  0  0  0
  3 22  1  0  0  0  0
  4  5  1  0  0  0  0
  4 23  1  0  0  0  0
  4 24  1  0  0  0  0
  5  6  1  0  0  0  0
  5 25  1  0  0  0  0
  5 26  1  0  0  0  0
  6 10  1  0  0  0  0
  6  7  1  0  0  0  0
  7  8  2  0  0  0  0
  7 27  1  0  0  0  0
  8  9  1  0  0  0  0
  8 28  1  0  0  0  0
  9 10  2  0  0  0  0
  9 48  1  0  0  0  0
 10 29  1  0  0  0  0
 11 21  1  0  0  0  0
 11 12  1  0  0  0  0
 12 13  1  0  0  0  0
 12 30  1  0  0  0  0
 12 31  1  0  0  0  0
 13 14  1  0  0  0  0
 13 32  1  0  0  0  0
 13 33  1  0  0  0  0
 14 15  1  0  0  0  0
 14 34  1  0  0  0  0
 14 35  1  0  0  0  0
 15 16  1  0  0  0  0
 15 21  1  0  0  0  0
 15 36  1  0  0  0  0
 16 20  1  0  0  0  0
 16 17  1  0  0  0  0
 16 47  1  0  0  0  0
 17 18  1  0  0  0  0
 17 37  1  0  0  0  0
 17 38  1  0  0  0  0
 18 19  1  0  0  0  0
 18 39  1  0  0  0  0
 18 40  1  0  0  0  0
 19 20  1  0  0  0  0
 19 41  1  0  0  0  0
 19 42  1  0  0  0  0
 20 43  1  0  0  0  0
 20 44  1  0  0  0  0
 21 45  1  0  0  0  0
 21 46  1  0  0  0  0
M  CHG  1   9   1
M  CHG  1  16   1
M  END
> <s_m_source_file>
AV-unprocessed.smi

> <i_m_source_file_index>
3055

> <i_lp_mmshare_version>
43012

> <i_f3d_flags>
0

> <s_epik_input>
W2NIXTFuW2NIXVtjSF1uMVtDSDJdW0NIMl1bTkhdQyg9TylOMltDSDJdW0NIMl1bQ0gyXVtDQEhdKFtDSDJdMilOM1tDSDJdW0NIMl1bQ0gyXVtDSDJdMw==

> <s_epik_cmdline>
J2VwaWtfcHl0aG9uJywgJy1waCcsICc3LjAnLCAnLXRuJywgJzgnLCAnLW1hJywgJzIwMCcsICctbWV0YWxfYmluZGluZycsICctaW1hZScsICc8aW5maWxlLm1hZT4nLCAnLW9tYWUnLCAnPG91dGZpbGUubWFlPic=

> <r_lp_tautomer_probability>
1

> <r_epik_Ionization_Penalty>
0.259176

> <r_epik_Ionization_Penalty_Charging>
0.00125522

> <r_epik_Ionization_Penalty_Neutral>
0.257921

> <r_epik_State_Penalty>
0.249312

> <r_epik_Charging_Adjusted_Penalty>
0.250567

> <i_epik_Tot_Q>
2

> <i_epik_Tot_abs_Q>
2

> <r_epik_Metal_State_Penalty>
0.53666

> <b_epik_Metal_Only>
0

> <s_lp_Force_Field>
OPLS_2005

> <r_lp_Energy>
71.9504

> <b_lp_Chiralities_Consistent>
1

> <s_lp_Variant>
AV-unprocessed.smi:3055-1

> <Gold.Version>
5.8.1

> <Gold.Id.Protein>
6NUR|6NUR_protein|mol2

> <Gold.PLP.Fitness>
46.1296

> <Gold.PLP.PLP>
-33.0537

> <Gold.PLP.part.hbond>
-3.8212

> <Gold.PLP.part.metal>
0.0000

> <Gold.PLP.part.buried>
-2.0109

> <Gold.PLP.part.nonpolar>
-30.2695

> <Gold.PLP.part.repulsive>
2.3175

> <Gold.PLP.ligand.clash>
1.4119

> <Gold.PLP.ligand.torsion>
0.4220

> <Gold.PLP.Chemscore.Hbond>
4.9520

> <Gold.PLP.Chemscore.CHOScore>
0.1483

> <Gold.PLP.Chemscore.Metal>
0.0000

> <Gold.Chemscore.Hbonds>
donor molecule, donor type, donor heavy atom, donor atom, acceptor molecule, acceptor atom, score
      L1  H     9    48       P1  8028  2.00
      L1  H    16    47       P1  7948  2.00
      P1  H  7954  7966       L1     1  1.00

> <Gold.PLP.Chemscore.Internal.Correction>
0.0308

> <Gold.Rescore>
     Score         DG    S(hbond)    S(metal)    S(lipo)     H(rot)  DE(clash)    DE(int)     intcor
     16.11     -17.66       2.94        0.00      61.21       1.87       1.21       0.34       ----

> <Gold.Chemscore.Fitness>
16.1051

> <Gold.Chemscore.DG>
-17.6555

> <Gold.Chemscore.ZeroCoef>
-5.4800

> <Gold.Chemscore.Hbond>
2.9369

> <Gold.Chemscore.Metal>
0.0000

> <Gold.Chemscore.Lipo>
61.2114

> <Gold.Chemscore.Internal_Hbond>
0.0000

> <Gold.Chemscore.DEClash>
1.2130

> <Gold.Chemscore.DEInternal>
0.3374

> <Gold.Chemscore.Rot>
1.8732

> <Gold.Chemscore.Internal.Correction>
   9.000000E+99

> <Gold.Chemscore.Hbonds>
donor molecule, donor type, donor heavy atom, donor atom, acceptor molecule, acceptor atom, score
      L1  H     9    48       P1  8028  1.00
      L1  H    16    47       P1  7948  0.99
      P1  H  7954  7966       L1     1  0.97

> <Gold.Chemscore.Hbond.Weighted>
-9.8092

> <Gold.Chemscore.Metal.Weighted>
-0.0000

> <Gold.Chemscore.Lipo.Weighted>
-7.1617

> <Gold.Chemscore.Internal_Hbond.Weighted>
0.0000

> <Gold.Chemscore.DEClash.Weighted>
1.2130

> <Gold.Chemscore.DEInternal.Weighted>
0.3374

> <Gold.Chemscore.Rot.Weighted>
4.7954

> <Gold.Chemscore.Internal.Correction.Weighted>
   9.000000E+99

> <Gold.Protein.RotatedTorsions>
[ 6907 6896 6895 6894 ] final  139.63 input  -60.11 | X-H torsion
[ 7974 7965 7964 7962 ] final   37.98 input  175.53 | X-H torsion
[ 8008 7997 7996 7995 ] final  147.54 input   59.86 | X-H torsion
[ 10167 10162 10161 10158 ] final  -54.01 input  -65.29 | X-H torsion
[ 10718 10713 10712 10709 ] final  123.86 input   66.30 | X-H torsion
[ 10763 10752 10751 10750 ] final  122.89 input  -60.55 | X-H torsion
[ 11005 11000 10999 10996 ] final   23.71 input  -57.11 | X-H torsion

> <Gold.Protein.ActiveResidues>
 VAL166  LYS551  ARG553  GLY616  TRP617  ASP618  TYR619  PRO620  LYS621  CYS622 
 ASP623  PHE694  ASN695  SER759  ASP760  ASP761  ALA762  ILE779  LEU786  VAL792 
 PHE793  MET794  SER795  GLU796  ALA797  LYS798  CYS799  TRP800  GLU811  SER814 

> <Gold.Protein.RotatedAtoms>
  152.2526  133.5228  159.5334 H   0  0  0  0  0  0  0  0  0  0  0  0  # atno 6907 bound_to 6896
  150.7098  134.0939  159.3950 H   0  0  0  0  0  0  0  0  0  0  0  0  # atno 6908 bound_to 6896
  151.8858  135.0436  160.0544 H   0  0  0  0  0  0  0  0  0  0  0  0  # atno 6909 bound_to 6896
  146.1096  139.5827  142.9361 H   0  0  0  0  0  0  0  0  0  0  0  0  # atno 7974 bound_to 7965
  156.2821  140.2153  156.5555 H   0  0  0  0  0  0  0  0  0  0  0  0  # atno 8008 bound_to 7997
  154.7256  140.0500  157.0702 H   0  0  0  0  0  0  0  0  0  0  0  0  # atno 8009 bound_to 7997
  155.0421  140.3147  155.4724 H   0  0  0  0  0  0  0  0  0  0  0  0  # atno 8010 bound_to 7997
  140.6454  143.2532  151.4875 H   0  0  0  0  0  0  0  0  0  0  0  0  # atno 10167 bound_to 10162
  157.5631  131.1088  150.8502 H   0  0  0  0  0  0  0  0  0  0  0  0  # atno 10718 bound_to 10713
  153.6369  135.3386  155.3059 H   0  0  0  0  0  0  0  0  0  0  0  0  # atno 10763 bound_to 10752
  154.8568  135.4309  154.2046 H   0  0  0  0  0  0  0  0  0  0  0  0  # atno 10764 bound_to 10752
  153.2955  135.7020  153.7326 H   0  0  0  0  0  0  0  0  0  0  0  0  # atno 10765 bound_to 10752
  140.3667  134.2067  155.7669 H   0  0  0  0  0  0  0  0  0  0  0  0  # atno 11005 bound_to 11000
  145.5690  141.0396  143.2184 LP  0  0  0  0  0  0  0  0  0  0  0  0  # atno 17320 bound_to 7965
  144.7500  139.7218  143.7277 LP  0  0  0  0  0  0  0  0  0  0  0  0  # atno 17321 bound_to 7965
  139.5664  144.2032  152.1771 LP  0  0  0  0  0  0  0  0  0  0  0  0  # atno 17342 bound_to 10162
  140.1315  144.5284  150.6799 LP  0  0  0  0  0  0  0  0  0  0  0  0  # atno 17343 bound_to 10162
  156.8994  130.5241  149.5283 LP  0  0  0  0  0  0  0  0  0  0  0  0  # atno 17370 bound_to 10713
  156.0682  130.5721  150.9331 LP  0  0  0  0  0  0  0  0  0  0  0  0  # atno 17371 bound_to 10713
  141.1967  133.8075  157.0659 LP  0  0  0  0  0  0  0  0  0  0  0  0  # atno 17394 bound_to 11000
  140.0584  134.9768  157.1261 LP  0  0  0  0  0  0  0  0  0  0  0  0  # atno 17395 bound_to 11000

$$$$
