AV-unprocessed.smi:218|AV-procd|sdf|1668|dock4
  -GOLD-   2262020 73D 1   1.00000     0.00000
 Structure written by MMmdl.
 54 57  0  0  0  0  0  0  0  0  1 V2000
  150.8711  146.0656  160.2067 C   0  0  0  0  0  0  0  0  0  0  0  0
  151.9435  145.0680  159.7525 C   0  0  0  0  0  0  0  0  0  0  0  0
  152.1395  145.1169  158.2276 C   0  0  0  0  0  0  0  0  0  0  0  0
  151.4997  143.7693  160.1505 O   0  0  0  0  0  0  0  0  0  0  0  0
  152.4197  142.7847  160.4556 C   0  0  0  0  0  0  0  0  0  0  0  0
  153.2668  142.9833  161.5648 C   0  0  0  0  0  0  0  0  0  0  0  0
  154.2167  141.9919  161.8830 C   0  0  0  0  0  0  0  0  0  0  0  0
  155.1369  142.1642  163.0724 C   0  0  0  0  0  0  0  0  0  0  0  0
  155.3268  143.5610  163.4378 N   0  0  0  0  0  0  0  0  0  0  0  0
  156.1288  143.8851  164.4743 C   0  0  0  0  0  0  0  0  0  0  0  0
  156.3151  145.1813  164.8344 N   0  0  0  0  0  0  0  0  0  0  0  0
  157.1006  145.4774  165.8732 C   0  0  0  0  0  0  0  0  0  0  0  0
  157.7827  144.6478  166.6650 N   0  0  0  0  0  0  0  0  0  0  0  0
  157.6121  143.3419  166.3026 C   0  0  0  0  0  0  0  0  0  0  0  0
  156.7975  142.8856  165.2279 C   0  0  0  0  0  0  0  0  0  0  0  0
  156.8345  141.5008  165.1637 N   0  0  0  0  0  0  0  0  0  0  0  0
  157.6191  141.1615  166.1499 C   0  0  0  0  0  0  0  0  0  0  0  0
  158.1651  142.2055  166.8694 N   0  0  0  0  0  0  0  0  0  0  0  0
  159.0650  142.1183  168.0771 C   0  0  2  0  0  0  0  0  0  0  0  0
  158.2923  141.9945  169.2282 O   0  0  0  0  0  0  0  0  0  0  0  0
  157.9181  143.2881  169.6763 C   0  0  1  0  0  0  0  0  0  0  0  0
  157.4644  143.2063  171.1414 C   0  0  0  0  0  0  0  0  0  0  0  0
  156.3233  142.3843  171.2613 O   0  0  0  0  0  0  0  0  0  0  0  0
  159.1866  144.1174  169.4336 C   0  0  2  0  0  0  0  0  0  0  0  0
  158.8389  145.4411  169.0778 O   0  0  0  0  0  0  0  0  0  0  0  0
  159.8785  143.4157  168.2606 C   0  0  1  0  0  0  0  0  0  0  0  0
  161.2275  143.1323  168.5697 O   0  0  0  0  0  0  0  0  0  0  0  0
  154.2822  140.8355  161.0809 C   0  0  0  0  0  0  0  0  0  0  0  0
  153.3947  140.7261  159.9928 C   0  0  0  0  0  0  0  0  0  0  0  0
  152.4842  141.6729  159.6810 N   0  0  0  0  0  0  0  0  0  0  0  0
  159.6654  141.2269  167.8911 H   0  0  0  0  0  0  0  0  0  0  0  0
  157.0982  143.6392  169.0460 H   0  0  0  0  0  0  0  0  0  0  0  0
  159.8221  144.1227  170.3207 H   0  0  0  0  0  0  0  0  0  0  0  0
  159.8597  144.0230  167.3561 H   0  0  0  0  0  0  0  0  0  0  0  0
  151.1459  147.0866  159.9404 H   0  0  0  0  0  0  0  0  0  0  0  0
  150.7396  146.0300  161.2885 H   0  0  0  0  0  0  0  0  0  0  0  0
  149.9069  145.8475  159.7467 H   0  0  0  0  0  0  0  0  0  0  0  0
  152.8710  145.3415  160.2576 H   0  0  0  0  0  0  0  0  0  0  0  0
  152.4430  146.1130  157.9048 H   0  0  0  0  0  0  0  0  0  0  0  0
  151.2165  144.8644  157.7052 H   0  0  0  0  0  0  0  0  0  0  0  0
  152.9075  144.4187  157.8961 H   0  0  0  0  0  0  0  0  0  0  0  0
  153.1872  143.8816  162.1597 H   0  0  0  0  0  0  0  0  0  0  0  0
  154.7314  141.6184  163.9254 H   0  0  0  0  0  0  0  0  0  0  0  0
  156.1009  141.7137  162.8317 H   0  0  0  0  0  0  0  0  0  0  0  0
  154.8176  144.2402  162.8908 H   0  0  0  0  0  0  0  0  0  0  0  0
  157.1969  146.5282  166.1035 H   0  0  0  0  0  0  0  0  0  0  0  0
  157.8173  140.1247  166.3802 H   0  0  0  0  0  0  0  0  0  0  0  0
  158.2586  142.7776  171.7530 H   0  0  0  0  0  0  0  0  0  0  0  0
  157.2481  144.1969  171.5420 H   0  0  0  0  0  0  0  0  0  0  0  0
  155.7696  142.5269  170.5088 H   0  0  0  0  0  0  0  0  0  0  0  0
  159.5725  146.0058  169.2670 H   0  0  0  0  0  0  0  0  0  0  0  0
  161.7629  143.8403  168.2447 H   0  0  0  0  0  0  0  0  0  0  0  0
  154.9926  140.0496  161.2919 H   0  0  0  0  0  0  0  0  0  0  0  0
  153.4163  139.8544  159.3558 H   0  0  0  0  0  0  0  0  0  0  0  0
  1  2  1  0  0  0  0
  1 35  1  0  0  0  0
  1 36  1  0  0  0  0
  1 37  1  0  0  0  0
  2  3  1  0  0  0  0
  2  4  1  0  0  0  0
  2 38  1  0  0  0  0
  3 39  1  0  0  0  0
  3 40  1  0  0  0  0
  3 41  1  0  0  0  0
  4  5  1  0  0  0  0
  5 30  1  0  0  0  0
  5  6  2  0  0  0  0
  6  7  1  0  0  0  0
  6 42  1  0  0  0  0
  7  8  1  0  0  0  0
  7 28  2  0  0  0  0
  8  9  1  0  0  0  0
  8 43  1  0  0  0  0
  8 44  1  0  0  0  0
  9 10  1  0  0  0  0
  9 45  1  0  0  0  0
 10 15  1  0  0  0  0
 10 11  2  0  0  0  0
 11 12  1  0  0  0  0
 12 13  2  0  0  0  0
 12 46  1  0  0  0  0
 13 14  1  0  0  0  0
 14 18  1  0  0  0  0
 14 15  2  0  0  0  0
 15 16  1  0  0  0  0
 16 17  2  0  0  0  0
 17 18  1  0  0  0  0
 17 47  1  0  0  0  0
 18 19  1  0  0  0  0
 19 31  1  0  0  0  0
 19 26  1  0  0  0  0
 19 20  1  0  0  0  0
 20 21  1  0  0  0  0
 21 32  1  0  0  0  0
 21 22  1  0  0  0  0
 21 24  1  0  0  0  0
 22 23  1  0  0  0  0
 22 48  1  0  0  0  0
 22 49  1  0  0  0  0
 23 50  1  0  0  0  0
 24 33  1  0  0  0  0
 24 25  1  0  0  0  0
 24 26  1  0  0  0  0
 25 51  1  0  0  0  0
 26 34  1  0  0  0  0
 26 27  1  0  0  0  0
 27 52  1  0  0  0  0
 28 29  1  0  0  0  0
 28 53  1  0  0  0  0
 29 30  2  0  0  0  0
 29 54  1  0  0  0  0
M  END
> <s_m_source_file>
AV-unprocessed.smi

> <i_m_source_file_index>
218

> <i_lp_mmshare_version>
43012

> <i_f3d_flags>
0

> <s_epik_input>
W0NIM11bQ0hdKFtDSDNdKU9jMVtjSF1jKFtjSF1bY0hdbjEpW0NIMl1bTkhdYyhuW2NIXW4yKWMoYzIzKW5bY0hdbjNbQ0BASF00T1tDQEhdKFtDSDJdW09IXSlbQ0BASF0oW09IXSlbQ0BIXTRbT0hd

> <s_epik_cmdline>
J2VwaWtfcHl0aG9uJywgJy1waCcsICc3LjAnLCAnLXRuJywgJzgnLCAnLW1hJywgJzIwMCcsICctbWV0YWxfYmluZGluZycsICctaW1hZScsICc8aW5maWxlLm1hZT4nLCAnLW9tYWUnLCAnPG91dGZpbGUubWFlPic=

> <r_lp_tautomer_probability>
1

> <r_epik_Ionization_Penalty>
0.00457014

> <r_epik_Ionization_Penalty_Charging>
0

> <r_epik_Ionization_Penalty_Neutral>
0.00457014

> <r_epik_State_Penalty>
-0

> <r_epik_Charging_Adjusted_Penalty>
0

> <i_epik_Tot_Q>
0

> <i_epik_Tot_abs_Q>
0

> <r_epik_Metal_State_Penalty>
-0

> <b_epik_Metal_Only>
0

> <s_epik_Chemistry_Notes>
This compound contains an acetal/aminal-like group ( X-CH(R)-Y where X, Y are N, S, or O) that may be acid/base labile, releasing an aldehyde.

> <s_lp_Force_Field>
OPLS_2005

> <r_lp_Energy>
35.6768

> <b_lp_Chiralities_Consistent>
1

> <s_lp_Variant>
AV-unprocessed.smi:218-7

> <Gold.Version>
5.8.1

> <Gold.Id.Protein>
6NUR|6NUR_protein|mol2

> <Gold.PLP.Fitness>
57.8138

> <Gold.PLP.PLP>
-60.4301

> <Gold.PLP.part.hbond>
-6.2649

> <Gold.PLP.part.metal>
0.0000

> <Gold.PLP.part.buried>
-9.2922

> <Gold.PLP.part.nonpolar>
-44.2867

> <Gold.PLP.part.repulsive>
0.1917

> <Gold.PLP.ligand.clash>
0.0000

> <Gold.PLP.ligand.torsion>
1.4255

> <Gold.PLP.Chemscore.Hbond>
0.0000

> <Gold.PLP.Chemscore.CHOScore>
0.0000

> <Gold.PLP.Chemscore.Metal>
0.0000

> <Gold.PLP.Chemscore.Internal.Correction>
0.2346

> <Gold.Rescore>
     Score         DG    S(hbond)    S(metal)    S(lipo)     H(rot)  DE(clash)    DE(int)     intcor
     -2.47      -4.35       0.00        0.00      97.60       4.90       2.15       4.67       ----

> <Gold.Chemscore.Fitness>
-2.4696

> <Gold.Chemscore.DG>
-4.3480

> <Gold.Chemscore.ZeroCoef>
-5.4800

> <Gold.Chemscore.Hbond>
0.0000

> <Gold.Chemscore.Metal>
0.0000

> <Gold.Chemscore.Lipo>
97.6027

> <Gold.Chemscore.Internal_Hbond>
0.0000

> <Gold.Chemscore.DEClash>
2.1471

> <Gold.Chemscore.DEInternal>
4.6705

> <Gold.Chemscore.Rot>
4.9029

> <Gold.Chemscore.Internal.Correction>
   9.000000E+99

> <Gold.Chemscore.Hbond.Weighted>
-0.0000

> <Gold.Chemscore.Metal.Weighted>
-0.0000

> <Gold.Chemscore.Lipo.Weighted>
-11.4195

> <Gold.Chemscore.Internal_Hbond.Weighted>
0.0000

> <Gold.Chemscore.DEClash.Weighted>
2.1471

> <Gold.Chemscore.DEInternal.Weighted>
4.6705

> <Gold.Chemscore.Rot.Weighted>
12.5515

> <Gold.Chemscore.Internal.Correction.Weighted>
   9.000000E+99

> <Gold.Protein.RotatedTorsions>
[ 6907 6896 6895 6894 ] final  157.01 input  -60.11 | X-H torsion
[ 7974 7965 7964 7962 ] final  -58.93 input  175.53 | X-H torsion
[ 8008 7997 7996 7995 ] final -111.11 input   59.86 | X-H torsion
[ 10167 10162 10161 10158 ] final  -18.24 input  -65.29 | X-H torsion
[ 10718 10713 10712 10709 ] final  156.18 input   66.30 | X-H torsion
[ 10763 10752 10751 10750 ] final  -73.70 input  -60.55 | X-H torsion
[ 11005 11000 10999 10996 ] final -126.69 input  -57.11 | X-H torsion

> <Gold.Protein.ActiveResidues>
 VAL166  LYS551  ARG553  GLY616  TRP617  ASP618  TYR619  PRO620  LYS621  CYS622 
 ASP623  PHE694  ASN695  SER759  ASP760  ASP761  ALA762  ILE779  LEU786  VAL792 
 PHE793  MET794  SER795  GLU796  ALA797  LYS798  CYS799  TRP800  GLU811  SER814 

> <Gold.Protein.RotatedAtoms>
  152.0214  133.3900  159.4259 H   0  0  0  0  0  0  0  0  0  0  0  0  # atno 6907 bound_to 6896
  150.6890  134.3622  159.4964 H   0  0  0  0  0  0  0  0  0  0  0  0  # atno 6908 bound_to 6896
  152.1396  134.9072  160.0605 H   0  0  0  0  0  0  0  0  0  0  0  0  # atno 6909 bound_to 6896
  145.8335  140.8464  143.0071 H   0  0  0  0  0  0  0  0  0  0  0  0  # atno 7974 bound_to 7965
  154.9848  140.0396  157.2293 H   0  0  0  0  0  0  0  0  0  0  0  0  # atno 8008 bound_to 7997
  154.7682  140.2797  155.6137 H   0  0  0  0  0  0  0  0  0  0  0  0  # atno 8009 bound_to 7997
  156.2916  140.2615  156.2477 H   0  0  0  0  0  0  0  0  0  0  0  0  # atno 8010 bound_to 7997
  140.7256  143.4936  150.9960 H   0  0  0  0  0  0  0  0  0  0  0  0  # atno 10167 bound_to 10162
  157.2085  131.0692  151.1984 H   0  0  0  0  0  0  0  0  0  0  0  0  # atno 10718 bound_to 10713
  154.4631  135.5888  153.6269 H   0  0  0  0  0  0  0  0  0  0  0  0  # atno 10763 bound_to 10752
  152.9825  135.6048  154.3461 H   0  0  0  0  0  0  0  0  0  0  0  0  # atno 10764 bound_to 10752
  154.3335  135.2842  155.2438 H   0  0  0  0  0  0  0  0  0  0  0  0  # atno 10765 bound_to 10752
  140.9661  134.0870  157.3919 H   0  0  0  0  0  0  0  0  0  0  0  0  # atno 11005 bound_to 11000
  144.6738  140.0707  143.7473 LP  0  0  0  0  0  0  0  0  0  0  0  0  # atno 17320 bound_to 7965
  145.9544  139.2756  143.1193 LP  0  0  0  0  0  0  0  0  0  0  0  0  # atno 17321 bound_to 7965
  139.8641  143.7276  152.3171 LP  0  0  0  0  0  0  0  0  0  0  0  0  # atno 17342 bound_to 10162
  139.7502  144.7536  151.0518 LP  0  0  0  0  0  0  0  0  0  0  0  0  # atno 17343 bound_to 10162
  157.3696  130.7174  149.6556 LP  0  0  0  0  0  0  0  0  0  0  0  0  # atno 17370 bound_to 10713
  155.9693  130.4202  150.4413 LP  0  0  0  0  0  0  0  0  0  0  0  0  # atno 17371 bound_to 10713
  139.8895  135.0105  156.6682 LP  0  0  0  0  0  0  0  0  0  0  0  0  # atno 17394 bound_to 11000
  140.7398  133.8988  155.8269 LP  0  0  0  0  0  0  0  0  0  0  0  0  # atno 17395 bound_to 11000

$$$$
