AV-unprocessed.smi:618|AV-procd|sdf|3079|dock5
  -GOLD-   22720 0 03D 1   1.00000     0.00000
 Structure written by MMmdl.
 41 43  0  0  0  0  0  0  0  0  2 V2000
  145.4972  138.1943  153.6053 O   0  0  0  0  0  0  0  0  0  0  0  0
  146.4935  137.5837  153.2207 C   0  0  0  0  0  0  0  0  0  0  0  0
  146.4511  136.3354  152.7345 N   0  0  0  0  0  0  0  0  0  0  0  0
  145.2450  135.5215  152.6064 C   0  0  0  0  0  0  0  0  0  0  0  0
  145.5290  134.0052  152.6250 C   0  0  1  0  0  0  0  0  0  0  0  0
  146.4601  133.5316  151.4877 C   0  0  0  0  0  0  0  0  0  0  0  0
  146.7804  132.0897  151.5998 N   0  3  2  0  0  0  0  0  0  0  0  0
  145.7631  131.1442  151.0913 C   0  0  0  0  0  0  0  0  0  0  0  0
  145.9121  129.8625  151.9262 C   0  0  0  0  0  0  0  0  0  0  0  0
  147.0789  130.1290  152.8837 C   0  0  0  0  0  0  0  0  0  0  0  0
  147.1663  131.6542  152.9576 C   0  0  2  0  0  0  0  0  0  0  0  0
  146.2213  132.2424  154.0296 C   0  0  0  0  0  0  0  0  0  0  0  0
  146.1095  133.6498  153.8743 O   0  0  0  0  0  0  0  0  0  0  0  0
  147.7499  138.0610  153.2156 N   0  0  0  0  0  0  0  0  0  0  0  0
  148.2286  139.3245  153.6584 C   0  0  0  0  0  0  0  0  0  0  0  0
  147.4607  140.5146  153.6770 C   0  0  0  0  0  0  0  0  0  0  0  0
  148.0535  141.6985  154.1562 C   0  0  0  0  0  0  0  0  0  0  0  0
  149.3877  141.6502  154.6043 C   0  0  0  0  0  0  0  0  0  0  0  0
  150.1277  140.5218  154.6030 N   0  0  0  0  0  0  0  0  0  0  0  0
  149.5528  139.3906  154.1424 C   0  0  0  0  0  0  0  0  0  0  0  0
  147.3171  135.9159  152.4294 H   0  0  0  0  0  0  0  0  0  0  0  0
  144.5245  135.7815  153.3837 H   0  0  0  0  0  0  0  0  0  0  0  0
  144.7751  135.7863  151.6590 H   0  0  0  0  0  0  0  0  0  0  0  0
  144.5656  133.5000  152.5382 H   0  0  0  0  0  0  0  0  0  0  0  0
  146.0259  133.7434  150.5099 H   0  0  0  0  0  0  0  0  0  0  0  0
  147.4062  134.0717  151.5337 H   0  0  0  0  0  0  0  0  0  0  0  0
  144.7570  131.5491  151.2076 H   0  0  0  0  0  0  0  0  0  0  0  0
  145.9254  130.9603  150.0289 H   0  0  0  0  0  0  0  0  0  0  0  0
  144.9963  129.6799  152.4900 H   0  0  0  0  0  0  0  0  0  0  0  0
  146.0942  128.9851  151.3047 H   0  0  0  0  0  0  0  0  0  0  0  0
  146.9450  129.6577  153.8582 H   0  0  0  0  0  0  0  0  0  0  0  0
  147.9990  129.7336  152.4513 H   0  0  0  0  0  0  0  0  0  0  0  0
  148.1868  131.9793  153.1644 H   0  0  0  0  0  0  0  0  0  0  0  0
  145.2291  131.7903  153.9810 H   0  0  0  0  0  0  0  0  0  0  0  0
  146.6106  132.0296  155.0255 H   0  0  0  0  0  0  0  0  0  0  0  0
  148.4485  137.4595  152.8043 H   0  0  0  0  0  0  0  0  0  0  0  0
  146.4337  140.5457  153.3496 H   0  0  0  0  0  0  0  0  0  0  0  0
  147.4962  142.6232  154.1830 H   0  0  0  0  0  0  0  0  0  0  0  0
  149.8713  142.5402  154.9788 H   0  0  0  0  0  0  0  0  0  0  0  0
  150.1742  138.5070  154.1592 H   0  0  0  0  0  0  0  0  0  0  0  0
  147.5928  131.9293  151.0213 H   0  0  0  0  0  0  0  0  0  0  0  0
  1  2  2  0  0  0  0
  2  3  1  0  0  0  0
  2 14  1  0  0  0  0
  3  4  1  0  0  0  0
  3 21  1  0  0  0  0
  4  5  1  0  0  0  0
  4 22  1  0  0  0  0
  4 23  1  0  0  0  0
  5 13  1  0  0  0  0
  5  6  1  0  0  0  0
  5 24  1  0  0  0  0
  6  7  1  0  0  0  0
  6 25  1  0  0  0  0
  6 26  1  0  0  0  0
  7 11  1  0  0  0  0
  7  8  1  0  0  0  0
  7 41  1  0  0  0  0
  8  9  1  0  0  0  0
  8 27  1  0  0  0  0
  8 28  1  0  0  0  0
  9 10  1  0  0  0  0
  9 29  1  0  0  0  0
  9 30  1  0  0  0  0
 10 11  1  0  0  0  0
 10 31  1  0  0  0  0
 10 32  1  0  0  0  0
 11 12  1  0  0  0  0
 11 33  1  0  0  0  0
 12 13  1  0  0  0  0
 12 34  1  0  0  0  0
 12 35  1  0  0  0  0
 14 15  1  0  0  0  0
 14 36  1  0  0  0  0
 15 20  1  0  0  0  0
 15 16  2  0  0  0  0
 16 17  1  0  0  0  0
 16 37  1  0  0  0  0
 17 18  2  0  0  0  0
 17 38  1  0  0  0  0
 18 19  1  0  0  0  0
 18 39  1  0  0  0  0
 19 20  2  0  0  0  0
 20 40  1  0  0  0  0
M  CHG  1   7   1
M  END
> <s_m_source_file>
AV-unprocessed.smi

> <i_m_source_file_index>
618

> <i_lp_mmshare_version>
43012

> <i_f3d_flags>
0

> <s_epik_input>
W2NIXTFuW2NIXVtjSF1bY0hdYzFbTkhdQyg9TylbTkhdW0NIMl1bQ0BIXShbQ0gyXTIpT1tDSDJdW0NAQEhdKE4yMylbQ0gyXVtDSDJdW0NIMl0z

> <s_epik_cmdline>
J2VwaWtfcHl0aG9uJywgJy1waCcsICc3LjAnLCAnLXRuJywgJzgnLCAnLW1hJywgJzIwMCcsICctbWV0YWxfYmluZGluZycsICctaW1hZScsICc8aW5maWxlLm1hZT4nLCAnLW9tYWUnLCAnPG91dGZpbGUubWFlPic=

> <r_epik_Ionization_Penalty>
0.111044

> <r_epik_Ionization_Penalty_Charging>
0.10673

> <r_epik_Ionization_Penalty_Neutral>
0.00431361

> <r_epik_State_Penalty>
0.0978747

> <r_epik_Charging_Adjusted_Penalty>
0.204605

> <i_epik_Tot_Q>
1

> <i_epik_Tot_abs_Q>
1

> <r_epik_Metal_State_Penalty>
0.0947591

> <b_epik_Metal_Only>
0

> <s_lp_Force_Field>
OPLS_2005

> <r_lp_Energy>
40.8554

> <b_lp_Chiralities_Consistent>
1

> <s_lp_Variant>
AV-unprocessed.smi:618-6

> <Gold.Version>
5.8.1

> <Gold.Id.Protein>
6NUR|6NUR_protein|mol2

> <Gold.PLP.Fitness>
44.8716

> <Gold.PLP.PLP>
-31.0017

> <Gold.PLP.part.hbond>
-4.0000

> <Gold.PLP.part.metal>
0.0000

> <Gold.PLP.part.buried>
-1.3838

> <Gold.PLP.part.nonpolar>
-25.6450

> <Gold.PLP.part.repulsive>
0.4207

> <Gold.PLP.ligand.clash>
0.0000

> <Gold.PLP.ligand.torsion>
0.3504

> <Gold.PLP.Chemscore.Hbond>
3.8560

> <Gold.PLP.Chemscore.CHOScore>
1.0000

> <Gold.PLP.Chemscore.Metal>
0.0000

> <Gold.Chemscore.Hbonds>
donor molecule, donor type, donor heavy atom, donor atom, acceptor molecule, acceptor atom, score
      L1  H     3    21       P1  7948  0.91
      L1  H     7    41       P1 10747  1.00
      L1  H    14    36       P1  7948  1.00
      P1  H  7989  7998       L1    19  0.90
      L1  C    18    39       P1  8028  0.99

> <Gold.PLP.Chemscore.Internal.Correction>
0.0027

> <Gold.Rescore>
     Score         DG    S(hbond)    S(metal)    S(lipo)     H(rot)  DE(clash)    DE(int)     intcor
     21.29     -22.92       3.36        0.00      80.86       1.27       0.29       1.34       ----

> <Gold.Chemscore.Fitness>
21.2860

> <Gold.Chemscore.DG>
-22.9153

> <Gold.Chemscore.ZeroCoef>
-5.4800

> <Gold.Chemscore.Hbond>
3.3578

> <Gold.Chemscore.Metal>
0.0000

> <Gold.Chemscore.Lipo>
80.8569

> <Gold.Chemscore.Internal_Hbond>
0.0000

> <Gold.Chemscore.DEClash>
0.2922

> <Gold.Chemscore.DEInternal>
1.3371

> <Gold.Chemscore.Rot>
1.2656

> <Gold.Chemscore.Internal.Correction>
   9.000000E+99

> <Gold.Chemscore.Hbonds>
donor molecule, donor type, donor heavy atom, donor atom, acceptor molecule, acceptor atom, score
      L1  H     3    21       P1  7948  0.90
      L1  H     7    41       P1 10747  0.97
      L1  H    14    36       P1  7948  0.97
      P1  H  7989  7998       L1    19  0.29

> <Gold.Chemscore.Hbond.Weighted>
-11.2149

> <Gold.Chemscore.Metal.Weighted>
-0.0000

> <Gold.Chemscore.Lipo.Weighted>
-9.4603

> <Gold.Chemscore.Internal_Hbond.Weighted>
0.0000

> <Gold.Chemscore.DEClash.Weighted>
0.2922

> <Gold.Chemscore.DEInternal.Weighted>
1.3371

> <Gold.Chemscore.Rot.Weighted>
3.2399

> <Gold.Chemscore.Internal.Correction.Weighted>
   9.000000E+99

> <Gold.Protein.RotatedTorsions>
[ 6907 6896 6895 6894 ] final  -91.42 input  -60.11 | X-H torsion
[ 7974 7965 7964 7962 ] final  -48.92 input  175.53 | X-H torsion
[ 8008 7997 7996 7995 ] final   97.71 input   59.86 | X-H torsion
[ 10167 10162 10161 10158 ] final  -11.06 input  -65.29 | X-H torsion
[ 10718 10713 10712 10709 ] final -105.41 input   66.30 | X-H torsion
[ 10763 10752 10751 10750 ] final -151.57 input  -60.55 | X-H torsion
[ 11005 11000 10999 10996 ] final -129.18 input  -57.11 | X-H torsion

> <Gold.Protein.ActiveResidues>
 VAL166  LYS551  ARG553  GLY616  TRP617  ASP618  TYR619  PRO620  LYS621  CYS622 
 ASP623  PHE694  ASN695  SER759  ASP760  ASP761  ALA762  ILE779  LEU786  VAL792 
 PHE793  MET794  SER795  GLU796  ALA797  LYS798  CYS799  TRP800  GLU811  SER814 

> <Gold.Protein.RotatedAtoms>
  150.6892  134.2279  159.4422 H   0  0  0  0  0  0  0  0  0  0  0  0  # atno 6907 bound_to 6896
  152.0232  134.9808  160.0580 H   0  0  0  0  0  0  0  0  0  0  0  0  # atno 6908 bound_to 6896
  152.1377  133.4410  159.4788 H   0  0  0  0  0  0  0  0  0  0  0  0  # atno 6909 bound_to 6896
  145.9461  140.7616  142.9528 H   0  0  0  0  0  0  0  0  0  0  0  0  # atno 7974 bound_to 7965
  156.0929  140.3254  155.7840 H   0  0  0  0  0  0  0  0  0  0  0  0  # atno 8008 bound_to 7997
  155.4966  140.0566  157.2963 H   0  0  0  0  0  0  0  0  0  0  0  0  # atno 8009 bound_to 7997
  154.4649  140.1984  156.0161 H   0  0  0  0  0  0  0  0  0  0  0  0  # atno 8010 bound_to 7997
  140.7129  143.5681  150.9122 H   0  0  0  0  0  0  0  0  0  0  0  0  # atno 10167 bound_to 10162
  156.0345  130.5562  150.7535 H   0  0  0  0  0  0  0  0  0  0  0  0  # atno 10718 bound_to 10713
  154.8049  135.3257  154.7456 H   0  0  0  0  0  0  0  0  0  0  0  0  # atno 10763 bound_to 10752
  153.8117  135.6895  153.4844 H   0  0  0  0  0  0  0  0  0  0  0  0  # atno 10764 bound_to 10752
  153.1788  135.4594  154.9945 H   0  0  0  0  0  0  0  0  0  0  0  0  # atno 10765 bound_to 10752
  140.9453  134.1138  157.4113 H   0  0  0  0  0  0  0  0  0  0  0  0  # atno 11005 bound_to 11000
  144.6787  140.2359  143.7349 LP  0  0  0  0  0  0  0  0  0  0  0  0  # atno 17320 bound_to 7965
  145.8234  139.2054  143.1924 LP  0  0  0  0  0  0  0  0  0  0  0  0  # atno 17321 bound_to 7965
  139.9407  143.6386  152.3054 LP  0  0  0  0  0  0  0  0  0  0  0  0  # atno 17342 bound_to 10162
  139.6869  144.7650  151.1507 LP  0  0  0  0  0  0  0  0  0  0  0  0  # atno 17343 bound_to 10162
  157.5073  131.0923  151.0241 LP  0  0  0  0  0  0  0  0  0  0  0  0  # atno 17370 bound_to 10713
  157.0606  130.5824  149.5385 LP  0  0  0  0  0  0  0  0  0  0  0  0  # atno 17371 bound_to 10713
  139.8832  135.0049  156.6281 LP  0  0  0  0  0  0  0  0  0  0  0  0  # atno 17394 bound_to 11000
  140.7677  133.8764  155.8467 LP  0  0  0  0  0  0  0  0  0  0  0  0  # atno 17395 bound_to 11000

$$$$
