AV-unprocessed.smi:175|AV-procd|sdf|1432|dock1
  -GOLD-   2262019213D 1   1.00000     0.00000
 Structure written by MMmdl.
 47 50  0  0  0  0  0  0  0  0  1 V2000
  145.2047  135.1998  151.9266 C   0  0  0  0  0  0  0  0  0  0  0  0
  144.7874  133.7330  152.1170 C   0  0  1  0  0  0  0  0  0  0  0  0
  144.1896  133.2928  150.9001 O   0  0  0  0  0  0  0  0  0  0  0  0
  144.4302  131.9056  150.7451 C   0  0  0  0  0  0  0  0  0  0  0  0
  145.8667  131.7682  151.2246 C   0  0  0  0  0  0  0  0  0  0  0  0
  145.9227  132.7146  152.4211 C   0  0  2  0  0  0  0  0  0  0  0  0
  145.5436  131.9783  153.5719 O   0  0  0  0  0  0  0  0  0  0  0  0
  147.3330  133.3093  152.6752 C   0  0  0  0  0  0  0  0  0  0  0  0
  147.5475  133.7176  154.0553 N   0  0  0  0  0  0  0  0  0  0  0  0
  146.7156  134.5016  154.8240 C   0  0  0  0  0  0  0  0  0  0  0  0
  147.1338  134.7358  156.0382 N   0  0  0  0  0  0  0  0  0  0  0  0
  148.3411  134.0540  156.1129 C   0  0  0  0  0  0  0  0  0  0  0  0
  149.3160  133.8855  157.1294 C   0  0  0  0  0  0  0  0  0  0  0  0
  149.1762  134.4452  158.3509 N   0  0  0  0  0  0  0  0  0  0  0  0
  149.2194  135.9061  158.3648 C   0  0  0  0  0  0  0  0  0  0  0  0
  148.0795  136.2652  159.2970 C   0  0  0  0  0  0  0  0  0  0  0  0
  147.7803  137.4238  159.5811 O   0  0  0  0  0  0  0  0  0  0  0  0
  147.4768  135.1579  159.7337 N   0  0  0  0  0  0  0  0  0  0  0  0
  146.3258  135.0814  160.6307 C   0  0  0  0  0  0  0  0  0  0  0  0
  146.7157  134.6382  162.0522 C   0  0  0  0  0  0  0  0  0  0  0  0
  145.6144  134.5587  162.7978 F   0  0  0  0  0  0  0  0  0  0  0  0
  147.2946  133.4379  162.0213 F   0  0  0  0  0  0  0  0  0  0  0  0
  147.5474  135.5115  162.6195 F   0  0  0  0  0  0  0  0  0  0  0  0
  148.0637  133.9561  159.1664 C   0  0  0  0  0  0  0  0  0  0  0  0
  150.4040  133.1200  156.8508 N   0  0  0  0  0  0  0  0  0  0  0  0
  150.5314  132.5594  155.6440 C   0  0  0  0  0  0  0  0  0  0  0  0
  149.7063  132.6341  154.5970 N   0  0  0  0  0  0  0  0  0  0  0  0
  148.6136  133.4011  154.8790 C   0  0  0  0  0  0  0  0  0  0  0  0
  145.6630  135.6049  152.8289 H   0  0  0  0  0  0  0  0  0  0  0  0
  144.3370  135.8187  151.6973 H   0  0  0  0  0  0  0  0  0  0  0  0
  145.9110  135.3117  151.1037 H   0  0  0  0  0  0  0  0  0  0  0  0
  144.0216  133.6924  152.8939 H   0  0  0  0  0  0  0  0  0  0  0  0
  143.7463  131.3373  151.3773 H   0  0  0  0  0  0  0  0  0  0  0  0
  144.2966  131.5855  149.7117 H   0  0  0  0  0  0  0  0  0  0  0  0
  146.1453  130.7399  151.4596 H   0  0  0  0  0  0  0  0  0  0  0  0
  146.5328  132.1206  150.4362 H   0  0  0  0  0  0  0  0  0  0  0  0
  144.6419  132.1779  153.7724 H   0  0  0  0  0  0  0  0  0  0  0  0
  148.1056  132.5819  152.4248 H   0  0  0  0  0  0  0  0  0  0  0  0
  147.5029  134.1745  152.0334 H   0  0  0  0  0  0  0  0  0  0  0  0
  145.7842  134.9024  154.4520 H   0  0  0  0  0  0  0  0  0  0  0  0
  150.1697  136.2558  158.7688 H   0  0  0  0  0  0  0  0  0  0  0  0
  149.0646  136.3568  157.3827 H   0  0  0  0  0  0  0  0  0  0  0  0
  145.8254  136.0504  160.6646 H   0  0  0  0  0  0  0  0  0  0  0  0
  145.6003  134.3803  160.2158 H   0  0  0  0  0  0  0  0  0  0  0  0
  147.3162  133.3997  158.5983 H   0  0  0  0  0  0  0  0  0  0  0  0
  148.4426  133.3090  159.9579 H   0  0  0  0  0  0  0  0  0  0  0  0
  151.4216  131.9660  155.4960 H   0  0  0  0  0  0  0  0  0  0  0  0
  1  2  1  0  0  0  0
  1 29  1  0  0  0  0
  1 30  1  0  0  0  0
  1 31  1  0  0  0  0
  2  6  1  0  0  0  0
  2  3  1  0  0  0  0
  2 32  1  0  0  0  0
  3  4  1  0  0  0  0
  4  5  1  0  0  0  0
  4 33  1  0  0  0  0
  4 34  1  0  0  0  0
  5  6  1  0  0  0  0
  5 35  1  0  0  0  0
  5 36  1  0  0  0  0
  6  7  1  0  0  0  0
  6  8  1  0  0  0  0
  7 37  1  0  0  0  0
  8  9  1  0  0  0  0
  8 38  1  0  0  0  0
  8 39  1  0  0  0  0
  9 28  1  0  0  0  0
  9 10  1  0  0  0  0
 10 11  2  0  0  0  0
 10 40  1  0  0  0  0
 11 12  1  0  0  0  0
 12 28  2  0  0  0  0
 12 13  1  0  0  0  0
 13 14  1  0  0  0  0
 13 25  2  0  0  0  0
 14 24  1  0  0  0  0
 14 15  1  0  0  0  0
 15 16  1  0  0  0  0
 15 41  1  0  0  0  0
 15 42  1  0  0  0  0
 16 17  2  0  0  0  0
 16 18  1  0  0  0  0
 18 19  1  0  0  0  0
 18 24  1  0  0  0  0
 19 20  1  0  0  0  0
 19 43  1  0  0  0  0
 19 44  1  0  0  0  0
 20 21  1  0  0  0  0
 20 22  1  0  0  0  0
 20 23  1  0  0  0  0
 24 45  1  0  0  0  0
 24 46  1  0  0  0  0
 25 26  1  0  0  0  0
 26 27  2  0  0  0  0
 26 47  1  0  0  0  0
 27 28  1  0  0  0  0
M  END
> <s_m_source_file>
AV-unprocessed.smi

> <i_m_source_file_index>
175

> <i_lp_mmshare_version>
43012

> <i_f3d_flags>
0

> <s_epik_input>
W0NIMl0xW0NIMl1PW0NAQEhdKFtDSDNdKVtDQEBdMShbT0hdKVtDSDJdbihbY0hdbjIpYyhjMjMpbltjSF1uYzNONFtDSDJdQyg9TylOKFtDSDJdNClbQ0gyXUMoRikoRilG

> <s_epik_cmdline>
J2VwaWtfcHl0aG9uJywgJy1waCcsICc3LjAnLCAnLXRuJywgJzgnLCAnLW1hJywgJzIwMCcsICctbWV0YWxfYmluZGluZycsICctaW1hZScsICc8aW5maWxlLm1hZT4nLCAnLW9tYWUnLCAnPG91dGZpbGUubWFlPic=

> <r_lp_tautomer_probability>
1

> <r_epik_Ionization_Penalty>
0.000307802

> <r_epik_Ionization_Penalty_Charging>
0

> <r_epik_Ionization_Penalty_Neutral>
0.000307802

> <r_epik_State_Penalty>
-0

> <r_epik_Charging_Adjusted_Penalty>
0

> <i_epik_Tot_Q>
0

> <i_epik_Tot_abs_Q>
0

> <r_epik_Metal_State_Penalty>
-0

> <b_epik_Metal_Only>
0

> <s_epik_Chemistry_Notes>
This compound contains an acetal/aminal-like group ( X-CH(R)-Y where X, Y are N, S, or O) that may be acid/base labile, releasing an aldehyde.

> <s_lp_Force_Field>
OPLS_2005

> <r_lp_Energy>
36.4888

> <b_lp_Chiralities_Consistent>
1

> <s_lp_Variant>
AV-unprocessed.smi:175-4

> <Gold.Version>
5.8.1

> <Gold.Id.Protein>
6NUR|6NUR_protein|mol2

> <Gold.PLP.Fitness>
45.6368

> <Gold.PLP.PLP>
-40.5827

> <Gold.PLP.part.hbond>
-2.7678

> <Gold.PLP.part.metal>
0.0000

> <Gold.PLP.part.buried>
-7.6216

> <Gold.PLP.part.nonpolar>
-31.9846

> <Gold.PLP.part.repulsive>
0.2254

> <Gold.PLP.ligand.clash>
0.0000

> <Gold.PLP.ligand.torsion>
0.7778

> <Gold.PLP.Chemscore.Hbond>
2.0321

> <Gold.PLP.Chemscore.CHOScore>
0.0000

> <Gold.PLP.Chemscore.Metal>
0.0000

> <Gold.Chemscore.Hbonds>
donor molecule, donor type, donor heavy atom, donor atom, acceptor molecule, acceptor atom, score
      L1  H     7    37       P1 10957  0.37
      P1  H  6896  6907       L1    14  1.00
      P1  H  6934  6947       L1    17  0.47

> <Gold.PLP.Chemscore.Internal.Correction>
0.5133

> <Gold.Rescore>
     Score         DG    S(hbond)    S(metal)    S(lipo)     H(rot)  DE(clash)    DE(int)     intcor
      6.43      -7.18       0.96        0.00      53.88       3.05       0.05       0.70       ----

> <Gold.Chemscore.Fitness>
6.4315

> <Gold.Chemscore.DG>
-7.1835

> <Gold.Chemscore.ZeroCoef>
-5.4800

> <Gold.Chemscore.Hbond>
0.9593

> <Gold.Chemscore.Metal>
0.0000

> <Gold.Chemscore.Lipo>
53.8791

> <Gold.Chemscore.Internal_Hbond>
0.0000

> <Gold.Chemscore.DEClash>
0.0527

> <Gold.Chemscore.DEInternal>
0.6993

> <Gold.Chemscore.Rot>
3.0487

> <Gold.Chemscore.Internal.Correction>
   9.000000E+99

> <Gold.Chemscore.Hbonds>
donor molecule, donor type, donor heavy atom, donor atom, acceptor molecule, acceptor atom, score
      L1  H     7    37       P1 10957  0.04
      P1  H  6896  6907       L1    14  0.08
      P1  H  6934  6947       L1    17  0.45

> <Gold.Chemscore.Hbond.Weighted>
-3.2042

> <Gold.Chemscore.Metal.Weighted>
-0.0000

> <Gold.Chemscore.Lipo.Weighted>
-6.3039

> <Gold.Chemscore.Internal_Hbond.Weighted>
0.0000

> <Gold.Chemscore.DEClash.Weighted>
0.0527

> <Gold.Chemscore.DEInternal.Weighted>
0.6993

> <Gold.Chemscore.Rot.Weighted>
7.8046

> <Gold.Chemscore.Internal.Correction.Weighted>
   9.000000E+99

> <Gold.Protein.RotatedTorsions>
[ 6907 6896 6895 6894 ] final -103.21 input  -60.11 | X-H torsion
[ 7974 7965 7964 7962 ] final   46.23 input  175.53 | X-H torsion
[ 8008 7997 7996 7995 ] final  157.24 input   59.86 | X-H torsion
[ 10167 10162 10161 10158 ] final  164.71 input  -65.29 | X-H torsion
[ 10718 10713 10712 10709 ] final -167.98 input   66.30 | X-H torsion
[ 10763 10752 10751 10750 ] final  173.52 input  -60.55 | X-H torsion
[ 11005 11000 10999 10996 ] final -102.71 input  -57.11 | X-H torsion

> <Gold.Protein.ActiveResidues>
 VAL166  LYS551  ARG553  GLY616  TRP617  ASP618  TYR619  PRO620  LYS621  CYS622 
 ASP623  PHE694  ASN695  SER759  ASP760  ASP761  ALA762  ILE779  LEU786  VAL792 
 PHE793  MET794  SER795  GLU796  ALA797  LYS798  CYS799  TRP800  GLU811  SER814 

> <Gold.Protein.RotatedAtoms>
  150.7230  134.0464  159.3782 H   0  0  0  0  0  0  0  0  0  0  0  0  # atno 6907 bound_to 6896
  151.8439  135.0578  160.0460 H   0  0  0  0  0  0  0  0  0  0  0  0  # atno 6908 bound_to 6896
  152.2841  133.5463  159.5553 H   0  0  0  0  0  0  0  0  0  0  0  0  # atno 6909 bound_to 6896
  146.0408  139.4878  142.9779 H   0  0  0  0  0  0  0  0  0  0  0  0  # atno 7974 bound_to 7965
  156.2375  140.1890  156.7079 H   0  0  0  0  0  0  0  0  0  0  0  0  # atno 8008 bound_to 7997
  154.6134  140.0618  156.9550 H   0  0  0  0  0  0  0  0  0  0  0  0  # atno 8009 bound_to 7997
  155.1978  140.3290  155.4350 H   0  0  0  0  0  0  0  0  0  0  0  0  # atno 8010 bound_to 7997
  139.4893  144.4207  151.9189 H   0  0  0  0  0  0  0  0  0  0  0  0  # atno 10167 bound_to 10162
  156.6903  130.9156  151.3068 H   0  0  0  0  0  0  0  0  0  0  0  0  # atno 10718 bound_to 10713
  154.4411  135.2762  155.1847 H   0  0  0  0  0  0  0  0  0  0  0  0  # atno 10763 bound_to 10752
  154.3712  135.6108  153.5745 H   0  0  0  0  0  0  0  0  0  0  0  0  # atno 10764 bound_to 10752
  152.9841  135.5858  154.4739 H   0  0  0  0  0  0  0  0  0  0  0  0  # atno 10765 bound_to 10752
  141.1177  133.8580  157.1394 H   0  0  0  0  0  0  0  0  0  0  0  0  # atno 11005 bound_to 11000
  145.6887  141.0170  143.1567 LP  0  0  0  0  0  0  0  0  0  0  0  0  # atno 17320 bound_to 7965
  144.7074  139.8507  143.7425 LP  0  0  0  0  0  0  0  0  0  0  0  0  # atno 17321 bound_to 7965
  140.3651  144.2924  150.5927 LP  0  0  0  0  0  0  0  0  0  0  0  0  # atno 17342 bound_to 10162
  140.5368  143.2231  151.8149 LP  0  0  0  0  0  0  0  0  0  0  0  0  # atno 17343 bound_to 10162
  157.7011  130.9334  150.0789 LP  0  0  0  0  0  0  0  0  0  0  0  0  # atno 17370 bound_to 10713
  156.1803  130.3650  149.9045 LP  0  0  0  0  0  0  0  0  0  0  0  0  # atno 17371 bound_to 10713
  140.0112  134.9987  157.0398 LP  0  0  0  0  0  0  0  0  0  0  0  0  # atno 17394 bound_to 11000
  140.4597  134.1497  155.7190 LP  0  0  0  0  0  0  0  0  0  0  0  0  # atno 17395 bound_to 11000

$$$$
