AV-unprocessed.smi:2506|AV-procd|sdf|9862|dock9
  -GOLD-   2272013493D 1   1.00000     0.00000
 Structure written by MMmdl.
 39 40  0  0  0  0  0  0  0  0  2 V2000
  144.9861  146.0622  158.6251 C   0  0  0  0  0  0  0  0  0  0  0  0
  144.9495  145.1955  159.8720 C   0  0  0  0  0  0  0  0  0  0  0  0
  143.7142  144.9388  160.3643 N   0  0  0  0  0  0  0  0  0  0  0  0
  143.6196  144.1770  161.4664 N   0  3  0  0  0  0  0  0  0  0  0  0
  144.6973  143.6652  162.1054 C   0  0  0  0  0  0  0  0  0  0  0  0
  145.9955  143.9126  161.6234 C   0  0  0  0  0  0  0  0  0  0  0  0
  146.1372  144.6962  160.4560 C   0  0  0  0  0  0  0  0  0  0  0  0
  147.3942  145.0303  159.8784 N   0  0  0  0  0  0  0  0  0  0  0  0
  148.6209  144.8714  160.4030 C   0  0  0  0  0  0  0  0  0  0  0  0
  148.8607  144.4090  161.5180 O   0  0  0  0  0  0  0  0  0  0  0  0
  149.5692  145.2597  159.5389 N   0  0  0  0  0  0  0  0  0  0  0  0
  151.0111  145.1950  159.7692 C   0  0  0  0  0  0  0  0  0  0  0  0
  151.6799  143.9910  159.0597 C   0  0  0  0  0  0  0  0  0  0  0  0
  152.1897  144.3949  157.6573 C   0  0  0  0  0  0  0  0  0  0  0  0
  152.8185  143.3818  159.8972 C   0  0  0  0  0  0  0  0  0  0  0  0
  152.9297  141.9166  159.4606 C   0  0  0  0  0  0  0  0  0  0  0  0
  151.5675  141.5447  158.8597 C   0  0  0  0  0  0  0  0  0  0  0  0
  150.7026  142.8088  158.9419 C   0  0  0  0  0  0  0  0  0  0  0  0
  145.4655  145.5268  157.8050 H   0  0  0  0  0  0  0  0  0  0  0  0
  145.5466  146.9781  158.8150 H   0  0  0  0  0  0  0  0  0  0  0  0
  143.9830  146.3429  158.3010 H   0  0  0  0  0  0  0  0  0  0  0  0
  144.4864  143.0774  162.9867 H   0  0  0  0  0  0  0  0  0  0  0  0
  146.8430  143.5128  162.1590 H   0  0  0  0  0  0  0  0  0  0  0  0
  147.3608  145.3501  158.9212 H   0  0  0  0  0  0  0  0  0  0  0  0
  149.2751  145.6219  158.6435 H   0  0  0  0  0  0  0  0  0  0  0  0
  151.4335  146.1286  159.3961 H   0  0  0  0  0  0  0  0  0  0  0  0
  151.2360  145.1761  160.8369 H   0  0  0  0  0  0  0  0  0  0  0  0
  152.5859  143.5421  157.1058 H   0  0  0  0  0  0  0  0  0  0  0  0
  152.9886  145.1339  157.7160 H   0  0  0  0  0  0  0  0  0  0  0  0
  151.3874  144.8247  157.0568 H   0  0  0  0  0  0  0  0  0  0  0  0
  153.7615  143.9187  159.7878 H   0  0  0  0  0  0  0  0  0  0  0  0
  152.5543  143.4113  160.9553 H   0  0  0  0  0  0  0  0  0  0  0  0
  153.7080  141.8079  158.7043 H   0  0  0  0  0  0  0  0  0  0  0  0
  153.1972  141.2706  160.2973 H   0  0  0  0  0  0  0  0  0  0  0  0
  151.6934  141.2394  157.8200 H   0  0  0  0  0  0  0  0  0  0  0  0
  151.1028  140.7120  159.3885 H   0  0  0  0  0  0  0  0  0  0  0  0
  150.0843  142.7459  159.8386 H   0  0  0  0  0  0  0  0  0  0  0  0
  150.0227  142.9028  158.0941 H   0  0  0  0  0  0  0  0  0  0  0  0
  142.6932  143.9780  161.8454 H   0  0  0  0  0  0  0  0  0  0  0  0
  1  2  1  0  0  0  0
  1 19  1  0  0  0  0
  1 20  1  0  0  0  0
  1 21  1  0  0  0  0
  2  7  1  0  0  0  0
  2  3  2  0  0  0  0
  3  4  1  0  0  0  0
  4  5  2  0  0  0  0
  4 39  1  0  0  0  0
  5  6  1  0  0  0  0
  5 22  1  0  0  0  0
  6  7  2  0  0  0  0
  6 23  1  0  0  0  0
  7  8  1  0  0  0  0
  8  9  1  0  0  0  0
  8 24  1  0  0  0  0
  9 10  2  0  0  0  0
  9 11  1  0  0  0  0
 11 12  1  0  0  0  0
 11 25  1  0  0  0  0
 12 13  1  0  0  0  0
 12 26  1  0  0  0  0
 12 27  1  0  0  0  0
 13 18  1  0  0  0  0
 13 14  1  0  0  0  0
 13 15  1  0  0  0  0
 14 28  1  0  0  0  0
 14 29  1  0  0  0  0
 14 30  1  0  0  0  0
 15 16  1  0  0  0  0
 15 31  1  0  0  0  0
 15 32  1  0  0  0  0
 16 17  1  0  0  0  0
 16 33  1  0  0  0  0
 16 34  1  0  0  0  0
 17 18  1  0  0  0  0
 17 35  1  0  0  0  0
 17 36  1  0  0  0  0
 18 37  1  0  0  0  0
 18 38  1  0  0  0  0
M  CHG  1   4   1
M  END
> <s_m_source_file>
AV-unprocessed.smi

> <i_m_source_file_index>
2506

> <i_lp_mmshare_version>
43012

> <i_f3d_flags>
0

> <s_epik_input>
W0NIM11jMW5uW2NIXVtjSF1jMVtOSF1DKD1PKVtOSF1bQ0gyXUMyKFtDSDNdKVtDSDJdW0NIMl1bQ0gyXVtDSDJdMg==

> <s_epik_cmdline>
J2VwaWtfcHl0aG9uJywgJy1waCcsICc3LjAnLCAnLXRuJywgJzgnLCAnLW1hJywgJzIwMCcsICctbWV0YWxfYmluZGluZycsICctaW1hZScsICc8aW5maWxlLm1hZT4nLCAnLW9tYWUnLCAnPG91dGZpbGUubWFlPic=

> <r_lp_tautomer_probability>
0.5088

> <r_epik_Ionization_Penalty>
1.13414

> <r_epik_Ionization_Penalty_Charging>
1.1341

> <r_epik_Ionization_Penalty_Neutral>
4.35135e-05

> <r_epik_State_Penalty>
2.14502

> <r_epik_Charging_Adjusted_Penalty>
3.27912

> <i_epik_Tot_Q>
1

> <i_epik_Tot_abs_Q>
1

> <r_epik_Metal_State_Penalty>
2.23434

> <b_epik_Metal_Only>
0

> <s_lp_Force_Field>
OPLS_2005

> <r_lp_Energy>
34.1821

> <b_lp_Chiralities_Consistent>
1

> <s_lp_Variant>
AV-unprocessed.smi:2506-2

> <Gold.Version>
5.8.1

> <Gold.Id.Protein>
6NUR|6NUR_protein|mol2

> <Gold.PLP.Fitness>
47.2936

> <Gold.PLP.PLP>
-41.0626

> <Gold.PLP.part.hbond>
-3.3996

> <Gold.PLP.part.metal>
0.0000

> <Gold.PLP.part.buried>
-7.3610

> <Gold.PLP.part.nonpolar>
-31.4845

> <Gold.PLP.part.repulsive>
0.8433

> <Gold.PLP.ligand.clash>
0.0000

> <Gold.PLP.ligand.torsion>
0.8043

> <Gold.PLP.Chemscore.Hbond>
2.6084

> <Gold.PLP.Chemscore.CHOScore>
0.0000

> <Gold.PLP.Chemscore.Metal>
0.0000

> <Gold.Chemscore.Hbonds>
donor molecule, donor type, donor heavy atom, donor atom, acceptor molecule, acceptor atom, score
      L1  H     8    24       P1  8029  1.00
      L1  H    11    25       P1  8029  1.00
      P1  H  6933  6944       L1    10  0.59

> <Gold.PLP.Chemscore.Internal.Correction>
0.0143

> <Gold.Rescore>
     Score         DG    S(hbond)    S(metal)    S(lipo)     H(rot)  DE(clash)    DE(int)     intcor
     20.53     -22.82       2.62        0.00     100.08       1.22       0.19       2.11       ----

> <Gold.Chemscore.Fitness>
20.5274

> <Gold.Chemscore.DG>
-22.8247

> <Gold.Chemscore.ZeroCoef>
-5.4800

> <Gold.Chemscore.Hbond>
2.6227

> <Gold.Chemscore.Metal>
0.0000

> <Gold.Chemscore.Lipo>
100.0839

> <Gold.Chemscore.Internal_Hbond>
0.0000

> <Gold.Chemscore.DEClash>
0.1908

> <Gold.Chemscore.DEInternal>
2.1065

> <Gold.Chemscore.Rot>
1.2207

> <Gold.Chemscore.Internal.Correction>
   9.000000E+99

> <Gold.Chemscore.Hbonds>
donor molecule, donor type, donor heavy atom, donor atom, acceptor molecule, acceptor atom, score
      L1  H     8    24       P1  8029  1.00
      L1  H    11    25       P1  8029  0.93
      P1  H  6933  6944       L1    10  0.40

> <Gold.Chemscore.Hbond.Weighted>
-8.7599

> <Gold.Chemscore.Metal.Weighted>
-0.0000

> <Gold.Chemscore.Lipo.Weighted>
-11.7098

> <Gold.Chemscore.Internal_Hbond.Weighted>
0.0000

> <Gold.Chemscore.DEClash.Weighted>
0.1908

> <Gold.Chemscore.DEInternal.Weighted>
2.1065

> <Gold.Chemscore.Rot.Weighted>
3.1250

> <Gold.Chemscore.Internal.Correction.Weighted>
   9.000000E+99

> <Gold.Protein.RotatedTorsions>
[ 6907 6896 6895 6894 ] final  -24.60 input  -60.11 | X-H torsion
[ 7974 7965 7964 7962 ] final  169.95 input  175.53 | X-H torsion
[ 8008 7997 7996 7995 ] final  179.32 input   59.86 | X-H torsion
[ 10167 10162 10161 10158 ] final  175.53 input  -65.29 | X-H torsion
[ 10718 10713 10712 10709 ] final  -37.36 input   66.30 | X-H torsion
[ 10763 10752 10751 10750 ] final  -75.43 input  -60.55 | X-H torsion
[ 11005 11000 10999 10996 ] final  -68.22 input  -57.11 | X-H torsion

> <Gold.Protein.ActiveResidues>
 VAL166  LYS551  ARG553  GLY616  TRP617  ASP618  TYR619  PRO620  LYS621  CYS622 
 ASP623  PHE694  ASN695  SER759  ASP760  ASP761  ALA762  ILE779  LEU786  VAL792 
 PHE793  MET794  SER795  GLU796  ALA797  LYS798  CYS799  TRP800  GLU811  SER814 

> <Gold.Protein.RotatedAtoms>
  151.1872  135.0387  159.8816 H   0  0  0  0  0  0  0  0  0  0  0  0  # atno 6907 bound_to 6896
  152.5441  134.0997  159.8322 H   0  0  0  0  0  0  0  0  0  0  0  0  # atno 6908 bound_to 6896
  151.1121  133.5118  159.2637 H   0  0  0  0  0  0  0  0  0  0  0  0  # atno 6909 bound_to 6896
  144.7339  139.9130  143.6416 H   0  0  0  0  0  0  0  0  0  0  0  0  # atno 7974 bound_to 7965
  156.0447  140.1311  157.0116 H   0  0  0  0  0  0  0  0  0  0  0  0  # atno 8008 bound_to 7997
  154.4407  140.1023  156.6359 H   0  0  0  0  0  0  0  0  0  0  0  0  # atno 8009 bound_to 7997
  155.5613  140.3465  155.4494 H   0  0  0  0  0  0  0  0  0  0  0  0  # atno 8010 bound_to 7997
  139.5180  144.3021  152.0369 H   0  0  0  0  0  0  0  0  0  0  0  0  # atno 10167 bound_to 10162
  156.3162  130.4259  149.8003 H   0  0  0  0  0  0  0  0  0  0  0  0  # atno 10718 bound_to 10713
  154.4864  135.5831  153.6427 H   0  0  0  0  0  0  0  0  0  0  0  0  # atno 10763 bound_to 10752
  152.9855  135.6102  154.3181 H   0  0  0  0  0  0  0  0  0  0  0  0  # atno 10764 bound_to 10752
  154.3077  135.2845  155.2560 H   0  0  0  0  0  0  0  0  0  0  0  0  # atno 10765 bound_to 10752
  141.1527  133.6736  156.6412 H   0  0  0  0  0  0  0  0  0  0  0  0  # atno 11005 bound_to 11000
  146.0986  139.3980  143.0361 LP  0  0  0  0  0  0  0  0  0  0  0  0  # atno 17320 bound_to 7965
  145.7610  140.9935  143.1200 LP  0  0  0  0  0  0  0  0  0  0  0  0  # atno 17321 bound_to 7965
  140.2468  144.4211  150.6238 LP  0  0  0  0  0  0  0  0  0  0  0  0  # atno 17342 bound_to 10162
  140.6252  143.2180  151.6610 LP  0  0  0  0  0  0  0  0  0  0  0  0  # atno 17343 bound_to 10162
  156.5329  130.8265  151.3243 LP  0  0  0  0  0  0  0  0  0  0  0  0  # atno 17370 bound_to 10713
  157.7402  130.9845  150.2362 LP  0  0  0  0  0  0  0  0  0  0  0  0  # atno 17371 bound_to 10713
  140.3392  134.7863  157.4385 LP  0  0  0  0  0  0  0  0  0  0  0  0  # atno 17394 bound_to 11000
  140.0952  134.5547  155.8405 LP  0  0  0  0  0  0  0  0  0  0  0  0  # atno 17395 bound_to 11000

$$$$
