AV-unprocessed.smi:496|AV-procd|sdf|2719|dock2
  -GOLD-   2262023163D 1   1.00000     0.00000
 Structure written by MMmdl.
 43 45  0  0  0  0  0  0  0  0  2 V2000
  150.6012  139.1217  154.8191 C   0  0  0  0  0  0  0  0  0  0  0  0
  150.9818  140.4609  155.0815 O   0  0  0  0  0  0  0  0  0  0  0  0
  149.8844  141.2722  155.4614 C   0  0  0  0  0  0  0  0  0  0  0  0
  149.3565  140.7829  156.8150 C   0  0  0  0  0  0  0  0  0  0  0  0
  150.4472  140.4973  157.7567 N   0  0  0  0  0  0  0  0  0  0  0  0
  150.8680  139.3122  158.2872 C   0  0  0  0  0  0  0  0  0  0  0  0
  150.2666  137.9623  158.0352 C   0  0  1  0  0  0  0  0  0  0  0  0
  151.3307  136.8978  157.7228 C   0  0  0  0  0  0  0  0  0  0  0  0
  149.4662  137.5418  159.1810 N   0  0  0  0  0  0  0  0  0  0  0  0
  148.9614  136.3143  159.3816 C   0  0  0  0  0  0  0  0  0  0  0  0
  149.1493  135.3660  158.6200 O   0  0  0  0  0  0  0  0  0  0  0  0
  148.1410  136.1519  160.5963 C   0  0  0  0  0  0  0  0  0  0  0  0
  147.6336  135.0234  161.1822 C   0  0  0  0  0  0  0  0  0  0  0  0
  146.9119  135.4503  162.3310 C   0  0  0  0  0  0  0  0  0  0  0  0
  147.0296  136.8102  162.3649 C   0  0  0  0  0  0  0  0  0  0  0  0
  147.7754  137.2538  161.3164 O   0  0  0  0  0  0  0  0  0  0  0  0
  151.9064  139.5976  159.1257 N   0  3  0  0  0  0  0  0  0  0  0  0
  152.1689  140.9678  159.1078 C   0  0  0  0  0  0  0  0  0  0  0  0
  153.1271  141.7214  159.7789 C   0  0  0  0  0  0  0  0  0  0  0  0
  153.1256  143.1103  159.5331 C   0  0  0  0  0  0  0  0  0  0  0  0
  152.1964  143.6987  158.6506 C   0  0  0  0  0  0  0  0  0  0  0  0
  151.2287  142.9242  157.9772 C   0  0  0  0  0  0  0  0  0  0  0  0
  151.2366  141.5522  158.2271 C   0  0  0  0  0  0  0  0  0  0  0  0
  151.4777  138.5421  154.5295 H   0  0  0  0  0  0  0  0  0  0  0  0
  149.8789  139.0697  154.0034 H   0  0  0  0  0  0  0  0  0  0  0  0
  150.1655  138.6545  155.7033 H   0  0  0  0  0  0  0  0  0  0  0  0
  150.1986  142.3145  155.5372 H   0  0  0  0  0  0  0  0  0  0  0  0
  149.0993  141.2165  154.7056 H   0  0  0  0  0  0  0  0  0  0  0  0
  148.6797  141.5115  157.2619 H   0  0  0  0  0  0  0  0  0  0  0  0
  148.7777  139.8688  156.6835 H   0  0  0  0  0  0  0  0  0  0  0  0
  149.6356  138.0571  157.1500 H   0  0  0  0  0  0  0  0  0  0  0  0
  151.9290  137.1833  156.8569 H   0  0  0  0  0  0  0  0  0  0  0  0
  150.8655  135.9379  157.4958 H   0  0  0  0  0  0  0  0  0  0  0  0
  152.0084  136.7442  158.5635 H   0  0  0  0  0  0  0  0  0  0  0  0
  149.2551  138.2485  159.8707 H   0  0  0  0  0  0  0  0  0  0  0  0
  147.7662  134.0119  160.8264 H   0  0  0  0  0  0  0  0  0  0  0  0
  146.3746  134.8399  163.0418 H   0  0  0  0  0  0  0  0  0  0  0  0
  146.6648  137.5785  163.0304 H   0  0  0  0  0  0  0  0  0  0  0  0
  153.8408  141.2729  160.4544 H   0  0  0  0  0  0  0  0  0  0  0  0
  153.8523  143.7364  160.0304 H   0  0  0  0  0  0  0  0  0  0  0  0
  152.2262  144.7664  158.4862 H   0  0  0  0  0  0  0  0  0  0  0  0
  150.5230  143.3845  157.3015 H   0  0  0  0  0  0  0  0  0  0  0  0
  152.4024  138.9001  159.6651 H   0  0  0  0  0  0  0  0  0  0  0  0
  1  2  1  0  0  0  0
  1 24  1  0  0  0  0
  1 25  1  0  0  0  0
  1 26  1  0  0  0  0
  2  3  1  0  0  0  0
  3  4  1  0  0  0  0
  3 27  1  0  0  0  0
  3 28  1  0  0  0  0
  4  5  1  0  0  0  0
  4 29  1  0  0  0  0
  4 30  1  0  0  0  0
  5 23  1  0  0  0  0
  5  6  1  0  0  0  0
  6  7  1  0  0  0  0
  6 17  2  0  0  0  0
  7  8  1  0  0  0  0
  7  9  1  0  0  0  0
  7 31  1  0  0  0  0
  8 32  1  0  0  0  0
  8 33  1  0  0  0  0
  8 34  1  0  0  0  0
  9 10  1  0  0  0  0
  9 35  1  0  0  0  0
 10 11  2  0  0  0  0
 10 12  1  0  0  0  0
 12 16  1  0  0  0  0
 12 13  2  0  0  0  0
 13 14  1  0  0  0  0
 13 36  1  0  0  0  0
 14 15  2  0  0  0  0
 14 37  1  0  0  0  0
 15 16  1  0  0  0  0
 15 38  1  0  0  0  0
 17 18  1  0  0  0  0
 17 43  1  0  0  0  0
 18 23  2  0  0  0  0
 18 19  1  0  0  0  0
 19 20  2  0  0  0  0
 19 39  1  0  0  0  0
 20 21  1  0  0  0  0
 20 40  1  0  0  0  0
 21 22  2  0  0  0  0
 21 41  1  0  0  0  0
 22 23  1  0  0  0  0
 22 42  1  0  0  0  0
M  CHG  1  17   1
M  END
> <s_m_source_file>
AV-unprocessed.smi

> <i_m_source_file_index>
496

> <i_lp_mmshare_version>
43012

> <i_f3d_flags>
0

> <s_epik_input>
W2NIXTFbY0hdW2NIXVtjSF1jKGMxMiluKFtDSDJdW0NIMl1PW0NIM10pYyhuMilbQ0BIXShbQ0gzXSlbTkhdQyg9TyljM1tjSF1bY0hdW2NIXW8z

> <s_epik_cmdline>
J2VwaWtfcHl0aG9uJywgJy1waCcsICc3LjAnLCAnLXRuJywgJzgnLCAnLW1hJywgJzIwMCcsICctbWV0YWxfYmluZGluZycsICctaW1hZScsICc8aW5maWxlLm1hZT4nLCAnLW9tYWUnLCAnPG91dGZpbGUubWFlPic=

> <r_epik_Ionization_Penalty>
1.02088

> <r_epik_Ionization_Penalty_Charging>
1.02086

> <r_epik_Ionization_Penalty_Neutral>
2.09263e-05

> <r_epik_State_Penalty>
1.07114

> <r_epik_Charging_Adjusted_Penalty>
2.092

> <i_epik_Tot_Q>
1

> <i_epik_Tot_abs_Q>
1

> <r_epik_Metal_State_Penalty>
1.19829

> <b_epik_Metal_Only>
0

> <s_lp_Force_Field>
OPLS_2005

> <r_lp_Energy>
14.6869

> <b_lp_Chiralities_Consistent>
1

> <s_lp_Variant>
AV-unprocessed.smi:496-4

> <Gold.Version>
5.8.1

> <Gold.Id.Protein>
6NUR|6NUR_protein|mol2

> <Gold.PLP.Fitness>
57.0004

> <Gold.PLP.PLP>
-46.9126

> <Gold.PLP.part.hbond>
-4.0000

> <Gold.PLP.part.metal>
0.0000

> <Gold.PLP.part.buried>
-6.3351

> <Gold.PLP.part.nonpolar>
-37.4711

> <Gold.PLP.part.repulsive>
0.4215

> <Gold.PLP.ligand.clash>
0.0000

> <Gold.PLP.ligand.torsion>
0.6302

> <Gold.PLP.Chemscore.Hbond>
3.7520

> <Gold.PLP.Chemscore.CHOScore>
0.0000

> <Gold.PLP.Chemscore.Metal>
0.0000

> <Gold.Chemscore.Hbonds>
donor molecule, donor type, donor heavy atom, donor atom, acceptor molecule, acceptor atom, score
      P1  H  6896  6908       L1    11  1.00
      P1  H  6931  6943       L1    16  0.96
      P1  H  6934  6947       L1    16  0.77
      P1  H  7989  7998       L1     2  0.95

> <Gold.PLP.Chemscore.Internal.Correction>
0.0922

> <Gold.Rescore>
     Score         DG    S(hbond)    S(metal)    S(lipo)     H(rot)  DE(clash)    DE(int)     intcor
     21.27     -23.42       2.95        0.00     110.68       1.90       0.00       2.14       ----

> <Gold.Chemscore.Fitness>
21.2741

> <Gold.Chemscore.DG>
-23.4227

> <Gold.Chemscore.ZeroCoef>
-5.4800

> <Gold.Chemscore.Hbond>
2.9502

> <Gold.Chemscore.Metal>
0.0000

> <Gold.Chemscore.Lipo>
110.6812

> <Gold.Chemscore.Internal_Hbond>
0.0000

> <Gold.Chemscore.DEClash>
0.0048

> <Gold.Chemscore.DEInternal>
2.1438

> <Gold.Chemscore.Rot>
1.8988

> <Gold.Chemscore.Internal.Correction>
   9.000000E+99

> <Gold.Chemscore.Hbonds>
donor molecule, donor type, donor heavy atom, donor atom, acceptor molecule, acceptor atom, score
      P1  H  6896  6908       L1    11  0.56
      P1  H  6931  6943       L1    16  0.61
      P1  H  6934  6947       L1    16  0.47
      P1  H  7989  7998       L1     2  0.18

> <Gold.Chemscore.Hbond.Weighted>
-9.8538

> <Gold.Chemscore.Metal.Weighted>
-0.0000

> <Gold.Chemscore.Lipo.Weighted>
-12.9497

> <Gold.Chemscore.Internal_Hbond.Weighted>
0.0000

> <Gold.Chemscore.DEClash.Weighted>
0.0048

> <Gold.Chemscore.DEInternal.Weighted>
2.1438

> <Gold.Chemscore.Rot.Weighted>
4.8608

> <Gold.Chemscore.Internal.Correction.Weighted>
   9.000000E+99

> <Gold.Protein.RotatedTorsions>
[ 6907 6896 6895 6894 ] final  148.89 input  -60.11 | X-H torsion
[ 7974 7965 7964 7962 ] final -125.57 input  175.53 | X-H torsion
[ 8008 7997 7996 7995 ] final  -66.96 input   59.86 | X-H torsion
[ 10167 10162 10161 10158 ] final  126.98 input  -65.29 | X-H torsion
[ 10718 10713 10712 10709 ] final -153.71 input   66.30 | X-H torsion
[ 10763 10752 10751 10750 ] final    2.66 input  -60.55 | X-H torsion
[ 11005 11000 10999 10996 ] final  -47.65 input  -57.11 | X-H torsion

> <Gold.Protein.ActiveResidues>
 VAL166  LYS551  ARG553  GLY616  TRP617  ASP618  TYR619  PRO620  LYS621  CYS622 
 ASP623  PHE694  ASN695  SER759  ASP760  ASP761  ALA762  ILE779  LEU786  VAL792 
 PHE793  MET794  SER795  GLU796  ALA797  LYS798  CYS799  TRP800  GLU811  SER814 

> <Gold.Protein.RotatedAtoms>
  152.1354  133.4432  159.4740 H   0  0  0  0  0  0  0  0  0  0  0  0  # atno 6907 bound_to 6896
  150.6881  134.2370  159.4466 H   0  0  0  0  0  0  0  0  0  0  0  0  # atno 6908 bound_to 6896
  152.0257  134.9797  160.0622 H   0  0  0  0  0  0  0  0  0  0  0  0  # atno 6909 bound_to 6896
  144.9962  140.7778  143.4524 H   0  0  0  0  0  0  0  0  0  0  0  0  # atno 7974 bound_to 7965
  154.4768  140.0902  156.7281 H   0  0  0  0  0  0  0  0  0  0  0  0  # atno 8008 bound_to 7997
  155.4575  140.3460  155.4290 H   0  0  0  0  0  0  0  0  0  0  0  0  # atno 8009 bound_to 7997
  156.1129  140.1453  156.9302 H   0  0  0  0  0  0  0  0  0  0  0  0  # atno 8010 bound_to 7997
  139.5602  144.6877  151.4064 H   0  0  0  0  0  0  0  0  0  0  0  0  # atno 10167 bound_to 10162
  156.4895  130.8340  151.2564 H   0  0  0  0  0  0  0  0  0  0  0  0  # atno 10718 bound_to 10713
  153.2928  135.6950  153.7276 H   0  0  0  0  0  0  0  0  0  0  0  0  # atno 10763 bound_to 10752
  153.6221  135.3425  155.3015 H   0  0  0  0  0  0  0  0  0  0  0  0  # atno 10764 bound_to 10752
  154.8529  135.4388  154.2016 H   0  0  0  0  0  0  0  0  0  0  0  0  # atno 10765 bound_to 10752
  141.0653  133.6695  156.3328 H   0  0  0  0  0  0  0  0  0  0  0  0  # atno 11005 bound_to 11000
  145.2217  139.2156  143.5089 LP  0  0  0  0  0  0  0  0  0  0  0  0  # atno 17320 bound_to 7965
  146.3442  140.2076  142.8590 LP  0  0  0  0  0  0  0  0  0  0  0  0  # atno 17321 bound_to 7965
  140.6881  143.7926  150.7215 LP  0  0  0  0  0  0  0  0  0  0  0  0  # atno 17342 bound_to 10162
  140.1400  143.4450  152.2200 LP  0  0  0  0  0  0  0  0  0  0  0  0  # atno 17343 bound_to 10162
  157.7475  131.0018  150.2978 LP  0  0  0  0  0  0  0  0  0  0  0  0  # atno 17370 bound_to 10713
  156.3441  130.3820  149.7384 LP  0  0  0  0  0  0  0  0  0  0  0  0  # atno 17371 bound_to 10713
  140.5785  134.5770  157.5474 LP  0  0  0  0  0  0  0  0  0  0  0  0  # atno 17394 bound_to 11000
  139.9471  134.7683  156.0536 LP  0  0  0  0  0  0  0  0  0  0  0  0  # atno 17395 bound_to 11000

$$$$
