AV-unprocessed.smi:38|AV-procd|sdf|338|dock3
  -GOLD-   2262016173D 1   1.00000     0.00000
 Structure written by MMmdl.
 28 29  0  0  0  0  0  0  0  0  1 V2000
  152.7065  136.7430  156.5626 O   0  0  0  0  0  0  0  0  0  0  0  0
  152.3169  137.8615  156.8924 C   0  0  0  0  0  0  0  0  0  0  0  0
  151.7358  138.7109  155.9461 N   0  0  0  0  0  0  0  0  0  0  0  0
  151.2547  139.9975  156.1970 C   0  0  0  0  0  0  0  0  0  0  0  0
  150.7771  140.6622  155.2787 O   0  0  0  0  0  0  0  0  0  0  0  0
  151.3554  140.4755  157.5227 N   0  0  0  0  0  0  0  0  0  0  0  0
  150.8469  141.8584  157.8595 C   0  0  2  0  0  0  0  0  0  0  0  0
  151.6039  142.9274  157.0647 C   0  0  0  0  0  0  0  0  0  0  0  0
  151.7719  144.0305  158.0907 C   0  0  1  0  0  0  0  0  0  0  0  0
  150.6473  144.8897  158.0870 O   0  0  0  0  0  0  0  0  0  0  0  0
  151.8970  143.2366  159.3991 C   0  0  1  0  0  0  0  0  0  0  0  0
  151.5497  143.9793  160.7010 C   0  0  0  0  0  0  0  0  0  0  0  0
  151.5530  143.0834  161.7921 O   0  0  0  0  0  0  0  0  0  0  0  0
  151.0562  142.0992  159.2207 O   0  0  0  0  0  0  0  0  0  0  0  0
  151.9390  139.6714  158.4925 C   0  0  0  0  0  0  0  0  0  0  0  0
  152.4057  138.4268  158.2354 C   0  0  0  0  0  0  0  0  0  0  0  0
  152.9605  137.7083  159.2264 F   0  0  0  0  0  0  0  0  0  0  0  0
  151.6615  138.3657  155.0001 H   0  0  0  0  0  0  0  0  0  0  0  0
  149.7695  141.8763  157.6885 H   0  0  0  0  0  0  0  0  0  0  0  0
  152.6614  144.6311  157.8968 H   0  0  0  0  0  0  0  0  0  0  0  0
  152.9191  142.8622  159.4717 H   0  0  0  0  0  0  0  0  0  0  0  0
  152.5819  142.5434  156.7703 H   0  0  0  0  0  0  0  0  0  0  0  0
  151.0575  143.2203  156.1674 H   0  0  0  0  0  0  0  0  0  0  0  0
  150.1389  144.7132  157.3099 H   0  0  0  0  0  0  0  0  0  0  0  0
  152.2419  144.7991  160.8936 H   0  0  0  0  0  0  0  0  0  0  0  0
  150.5545  144.4176  160.6226 H   0  0  0  0  0  0  0  0  0  0  0  0
  152.2303  143.3482  162.3957 H   0  0  0  0  0  0  0  0  0  0  0  0
  152.0360  140.0443  159.5008 H   0  0  0  0  0  0  0  0  0  0  0  0
  1  2  2  0  0  0  0
  2 16  1  0  0  0  0
  2  3  1  0  0  0  0
  3 18  1  0  0  0  0
  3  4  1  0  0  0  0
  4  5  2  0  0  0  0
  4  6  1  0  0  0  0
  6  7  1  0  0  0  0
  6 15  1  0  0  0  0
  7 19  1  0  0  0  0
  7 14  1  0  0  0  0
  7  8  1  0  0  0  0
  8  9  1  0  0  0  0
  8 22  1  0  0  0  0
  8 23  1  0  0  0  0
  9 20  1  0  0  0  0
  9 10  1  0  0  0  0
  9 11  1  0  0  0  0
 10 24  1  0  0  0  0
 11 21  1  0  0  0  0
 11 12  1  0  0  0  0
 11 14  1  0  0  0  0
 12 13  1  0  0  0  0
 12 25  1  0  0  0  0
 12 26  1  0  0  0  0
 13 27  1  0  0  0  0
 15 16  2  0  0  0  0
 15 28  1  0  0  0  0
 16 17  1  0  0  0  0
M  END
> <s_m_source_file>
AV-unprocessed.smi

> <i_m_source_file_index>
38

> <i_lp_mmshare_version>
43012

> <i_f3d_flags>
0

> <s_epik_input>
Tz1jMVtuSF1jKD1PKW4oW2NIXWMxRilbQ0BIXTJbQ0gyXVtDQEhdKFtPSF0pW0NASF0oTzIpW0NIMl1bT0hd

> <s_epik_cmdline>
J2VwaWtfcHl0aG9uJywgJy1waCcsICc3LjAnLCAnLXRuJywgJzgnLCAnLW1hJywgJzIwMCcsICctbWV0YWxfYmluZGluZycsICctaW1hZScsICc8aW5maWxlLm1hZT4nLCAnLW9tYWUnLCAnPG91dGZpbGUubWFlPic=

> <r_lp_tautomer_probability>
0.999537

> <r_epik_Ionization_Penalty>
0.0357432

> <r_epik_Ionization_Penalty_Charging>
0.0357431

> <r_epik_Ionization_Penalty_Neutral>
1.19946e-07

> <r_epik_State_Penalty>
0.0298169

> <r_epik_Charging_Adjusted_Penalty>
0.06556

> <i_epik_Tot_Q>
0

> <i_epik_Tot_abs_Q>
0

> <r_epik_Metal_State_Penalty>
2.348

> <b_epik_Metal_Only>
0

> <s_epik_Chemistry_Notes>
This compound contains an acetal/aminal-like group ( X-CH(R)-Y where X, Y are N, S, or O) that may be acid/base labile, releasing an aldehyde.

> <s_lp_Force_Field>
OPLS_2005

> <r_lp_Energy>
29.3981

> <b_lp_Chiralities_Consistent>
1

> <s_lp_Variant>
AV-unprocessed.smi:38-4

> <Gold.Version>
5.8.1

> <Gold.Id.Protein>
6NUR|6NUR_protein|mol2

> <Gold.PLP.Fitness>
40.7592

> <Gold.PLP.PLP>
-30.2748

> <Gold.PLP.part.hbond>
-6.3679

> <Gold.PLP.part.metal>
0.0000

> <Gold.PLP.part.buried>
-5.8259

> <Gold.PLP.part.nonpolar>
-19.2359

> <Gold.PLP.part.repulsive>
0.1882

> <Gold.PLP.ligand.clash>
0.0000

> <Gold.PLP.ligand.torsion>
0.0304

> <Gold.PLP.Chemscore.Hbond>
3.5143

> <Gold.PLP.Chemscore.CHOScore>
0.0000

> <Gold.PLP.Chemscore.Metal>
0.0000

> <Gold.Chemscore.Hbonds>
donor molecule, donor type, donor heavy atom, donor atom, acceptor molecule, acceptor atom, score
      L1  H    10    24       P1  8028  0.99
      P1  H  6933  6945       L1    13  0.61
      P1  H  7989  7998       L1     5  0.90
      P1  H 10752 10765       L1     1  1.00

> <Gold.PLP.Chemscore.Internal.Correction>
0.0023

> <Gold.Rescore>
     Score         DG    S(hbond)    S(metal)    S(lipo)     H(rot)  DE(clash)    DE(int)     intcor
     12.67     -14.90       3.16        0.00      53.89       2.91       1.30       0.92       ----

> <Gold.Chemscore.Fitness>
12.6738

> <Gold.Chemscore.DG>
-14.8963

> <Gold.Chemscore.ZeroCoef>
-5.4800

> <Gold.Chemscore.Hbond>
3.1649

> <Gold.Chemscore.Metal>
0.0000

> <Gold.Chemscore.Lipo>
53.8930

> <Gold.Chemscore.Internal_Hbond>
0.0000

> <Gold.Chemscore.DEClash>
1.3018

> <Gold.Chemscore.DEInternal>
0.9207

> <Gold.Chemscore.Rot>
2.9141

> <Gold.Chemscore.Internal.Correction>
   9.000000E+99

> <Gold.Chemscore.Hbonds>
donor molecule, donor type, donor heavy atom, donor atom, acceptor molecule, acceptor atom, score
      L1  H    10    24       P1  8028  0.24
      P1  H  6933  6945       L1    13  0.58
      P1  H  7989  7998       L1     5  0.86
      P1  H 10752 10765       L1     1  0.95

> <Gold.Chemscore.Hbond.Weighted>
-10.5709

> <Gold.Chemscore.Metal.Weighted>
-0.0000

> <Gold.Chemscore.Lipo.Weighted>
-6.3055

> <Gold.Chemscore.Internal_Hbond.Weighted>
0.0000

> <Gold.Chemscore.DEClash.Weighted>
1.3018

> <Gold.Chemscore.DEInternal.Weighted>
0.9207

> <Gold.Chemscore.Rot.Weighted>
7.4601

> <Gold.Chemscore.Internal.Correction.Weighted>
   9.000000E+99

> <Gold.Protein.RotatedTorsions>
[ 6907 6896 6895 6894 ] final  -54.61 input  -60.11 | X-H torsion
[ 7974 7965 7964 7962 ] final -128.07 input  175.53 | X-H torsion
[ 8008 7997 7996 7995 ] final   80.06 input   59.86 | X-H torsion
[ 10167 10162 10161 10158 ] final  -24.59 input  -65.29 | X-H torsion
[ 10718 10713 10712 10709 ] final  139.22 input   66.30 | X-H torsion
[ 10763 10752 10751 10750 ] final -134.75 input  -60.55 | X-H torsion
[ 11005 11000 10999 10996 ] final  150.68 input  -57.11 | X-H torsion

> <Gold.Protein.ActiveResidues>
 VAL166  LYS551  ARG553  GLY616  TRP617  ASP618  TYR619  PRO620  LYS621  CYS622 
 ASP623  PHE694  ASN695  SER759  ASP760  ASP761  ALA762  ILE779  LEU786  VAL792 
 PHE793  MET794  SER795  GLU796  ALA797  LYS798  CYS799  TRP800  GLU811  SER814 

> <Gold.Protein.RotatedAtoms>
  150.8323  134.7581  159.6863 H   0  0  0  0  0  0  0  0  0  0  0  0  # atno 6907 bound_to 6896
  152.4425  134.5558  159.9889 H   0  0  0  0  0  0  0  0  0  0  0  0  # atno 6908 bound_to 6896
  151.5716  133.3351  159.3026 H   0  0  0  0  0  0  0  0  0  0  0  0  # atno 6909 bound_to 6896
  144.9707  140.7542  143.4672 H   0  0  0  0  0  0  0  0  0  0  0  0  # atno 7974 bound_to 7965
  155.8783  140.3445  155.5870 H   0  0  0  0  0  0  0  0  0  0  0  0  # atno 8008 bound_to 7997
  155.7749  140.0850  157.2108 H   0  0  0  0  0  0  0  0  0  0  0  0  # atno 8009 bound_to 7997
  154.4022  140.1511  156.2972 H   0  0  0  0  0  0  0  0  0  0  0  0  # atno 8010 bound_to 7997
  140.7288  143.4339  151.0759 H   0  0  0  0  0  0  0  0  0  0  0  0  # atno 10167 bound_to 10162
  157.4168  131.1034  151.0396 H   0  0  0  0  0  0  0  0  0  0  0  0  # atno 10718 bound_to 10713
  154.8714  135.3725  154.4786 H   0  0  0  0  0  0  0  0  0  0  0  0  # atno 10763 bound_to 10752
  153.5441  135.7026  153.5627 H   0  0  0  0  0  0  0  0  0  0  0  0  # atno 10764 bound_to 10752
  153.3776  135.4005  155.1798 H   0  0  0  0  0  0  0  0  0  0  0  0  # atno 10765 bound_to 10752
  140.1152  134.8899  157.1994 H   0  0  0  0  0  0  0  0  0  0  0  0  # atno 11005 bound_to 11000
  145.2563  139.2011  143.4916 LP  0  0  0  0  0  0  0  0  0  0  0  0  # atno 17320 bound_to 7965
  146.3381  140.2485  142.8598 LP  0  0  0  0  0  0  0  0  0  0  0  0  # atno 17321 bound_to 7965
  139.7999  143.8098  152.3162 LP  0  0  0  0  0  0  0  0  0  0  0  0  # atno 17342 bound_to 10162
  139.8111  144.7335  150.9696 LP  0  0  0  0  0  0  0  0  0  0  0  0  # atno 17343 bound_to 10162
  157.1341  130.6115  149.5537 LP  0  0  0  0  0  0  0  0  0  0  0  0  # atno 17370 bound_to 10713
  155.9868  130.4904  150.7094 LP  0  0  0  0  0  0  0  0  0  0  0  0  # atno 17371 bound_to 10713
  140.3038  134.3101  155.7283 LP  0  0  0  0  0  0  0  0  0  0  0  0  # atno 17394 bound_to 11000
  141.2139  133.7608  156.9678 LP  0  0  0  0  0  0  0  0  0  0  0  0  # atno 17395 bound_to 11000

$$$$
