AV-unprocessed.smi:3251|AV-procd|sdf|12437|dock9
  -GOLD-   2272018333D 1   1.00000     0.00000
 Structure written by MMmdl.
 40 41  0  0  0  0  0  0  0  0  1 V2000
  147.0329  140.9173  153.4256 C   0  0  0  0  0  0  0  0  0  0  0  0
  148.2981  140.4862  154.1087 C   0  0  0  0  0  0  0  0  0  0  0  0
  148.9482  139.2219  154.0282 C   0  0  0  0  0  0  0  0  0  0  0  0
  150.0558  139.1655  154.7497 N   0  0  0  0  0  0  0  0  0  0  0  0
  150.1529  140.3882  155.3132 N   0  0  0  0  0  0  0  0  0  0  0  0
  151.2845  140.6996  156.1679 C   0  0  0  0  0  0  0  0  0  0  0  0
  151.2922  139.8348  157.4382 C   0  0  0  0  0  0  0  0  0  0  0  0
  151.3749  140.6882  158.6200 N   0  0  0  0  0  0  0  0  0  0  0  0
  152.7515  141.0841  158.9619 C   0  0  2  0  0  0  0  0  0  0  0  0
  153.5453  139.8470  159.4092 C   0  0  0  0  0  0  0  0  0  0  0  0
  152.8027  142.1646  160.0661 C   0  0  0  0  0  0  0  0  0  0  0  0
  153.3535  141.8949  161.1354 O   0  0  0  0  0  0  0  0  0  0  0  0
  152.2444  143.3736  159.8408 N   0  0  0  0  0  0  0  0  0  0  0  0
  152.1733  144.4875  160.7861 C   0  0  0  0  0  0  0  0  0  0  0  0
  151.2352  145.5142  160.1509 C   0  0  0  0  0  0  0  0  0  0  0  0
  151.3372  145.2371  158.6581 C   0  0  0  0  0  0  0  0  0  0  0  0
  151.6039  143.7342  158.5769 C   0  0  0  0  0  0  0  0  0  0  0  0
  149.1053  141.2051  154.9440 C   0  0  0  0  0  0  0  0  0  0  0  0
  146.4109  140.0653  153.1508 H   0  0  0  0  0  0  0  0  0  0  0  0
  147.2413  141.4722  152.5108 H   0  0  0  0  0  0  0  0  0  0  0  0
  146.4293  141.5628  154.0638 H   0  0  0  0  0  0  0  0  0  0  0  0
  148.6497  138.3483  153.4676 H   0  0  0  0  0  0  0  0  0  0  0  0
  152.2064  140.5694  155.5995 H   0  0  0  0  0  0  0  0  0  0  0  0
  151.2311  141.7551  156.4378 H   0  0  0  0  0  0  0  0  0  0  0  0
  150.3753  139.2475  157.4965 H   0  0  0  0  0  0  0  0  0  0  0  0
  152.1188  139.1255  157.3855 H   0  0  0  0  0  0  0  0  0  0  0  0
  150.9078  140.2390  159.3944 H   0  0  0  0  0  0  0  0  0  0  0  0
  153.2122  141.4543  158.0465 H   0  0  0  0  0  0  0  0  0  0  0  0
  154.5775  140.1030  159.6511 H   0  0  0  0  0  0  0  0  0  0  0  0
  153.5738  139.0948  158.6204 H   0  0  0  0  0  0  0  0  0  0  0  0
  153.1022  139.3837  160.2920 H   0  0  0  0  0  0  0  0  0  0  0  0
  151.8060  144.1771  161.7650 H   0  0  0  0  0  0  0  0  0  0  0  0
  153.1706  144.9121  160.9110 H   0  0  0  0  0  0  0  0  0  0  0  0
  150.2131  145.3321  160.4856 H   0  0  0  0  0  0  0  0  0  0  0  0
  151.4941  146.5411  160.4101 H   0  0  0  0  0  0  0  0  0  0  0  0
  150.4451  145.5390  158.1086 H   0  0  0  0  0  0  0  0  0  0  0  0
  152.1862  145.7821  158.2431 H   0  0  0  0  0  0  0  0  0  0  0  0
  152.2276  143.4892  157.7156 H   0  0  0  0  0  0  0  0  0  0  0  0
  150.6668  143.1834  158.4846 H   0  0  0  0  0  0  0  0  0  0  0  0
  149.0269  142.2232  155.2963 H   0  0  0  0  0  0  0  0  0  0  0  0
  1  2  1  0  0  0  0
  1 19  1  0  0  0  0
  1 20  1  0  0  0  0
  1 21  1  0  0  0  0
  2 18  2  0  0  0  0
  2  3  1  0  0  0  0
  3  4  2  0  0  0  0
  3 22  1  0  0  0  0
  4  5  1  0  0  0  0
  5  6  1  0  0  0  0
  5 18  1  0  0  0  0
  6  7  1  0  0  0  0
  6 23  1  0  0  0  0
  6 24  1  0  0  0  0
  7  8  1  0  0  0  0
  7 25  1  0  0  0  0
  7 26  1  0  0  0  0
  8  9  1  0  0  0  0
  8 27  1  0  0  0  0
  9 10  1  0  0  0  0
  9 11  1  0  0  0  0
  9 28  1  0  0  0  0
 10 29  1  0  0  0  0
 10 30  1  0  0  0  0
 10 31  1  0  0  0  0
 11 12  2  0  0  0  0
 11 13  1  0  0  0  0
 13 17  1  0  0  0  0
 13 14  1  0  0  0  0
 14 15  1  0  0  0  0
 14 32  1  0  0  0  0
 14 33  1  0  0  0  0
 15 16  1  0  0  0  0
 15 34  1  0  0  0  0
 15 35  1  0  0  0  0
 16 17  1  0  0  0  0
 16 36  1  0  0  0  0
 16 37  1  0  0  0  0
 17 38  1  0  0  0  0
 17 39  1  0  0  0  0
 18 40  1  0  0  0  0
M  END
> <s_m_source_file>
AV-unprocessed.smi

> <i_m_source_file_index>
3251

> <i_lp_mmshare_version>
43012

> <i_f3d_flags>
0

> <s_epik_input>
W0NIM11jMVtjSF1ubihbY0hdMSlbQ0gyXVtDSDJdW05IXVtDQEhdKFtDSDNdKUMoPU8pTjJbQ0gyXVtDSDJdW0NIMl1bQ0gyXTI=

> <s_epik_cmdline>
J2VwaWtfcHl0aG9uJywgJy1waCcsICc3LjAnLCAnLXRuJywgJzgnLCAnLW1hJywgJzIwMCcsICctbWV0YWxfYmluZGluZycsICctaW1hZScsICc8aW5maWxlLm1hZT4nLCAnLW9tYWUnLCAnPG91dGZpbGUubWFlPic=

> <r_lp_tautomer_probability>
1

> <r_epik_Ionization_Penalty>
0.734676

> <r_epik_Ionization_Penalty_Charging>
0

> <r_epik_Ionization_Penalty_Neutral>
0.734676

> <r_epik_State_Penalty>
0.75825

> <r_epik_Charging_Adjusted_Penalty>
0.75825

> <i_epik_Tot_Q>
0

> <i_epik_Tot_abs_Q>
0

> <r_epik_Metal_State_Penalty>
0.756914

> <b_epik_Metal_Only>
0

> <s_lp_Force_Field>
OPLS_2005

> <r_lp_Energy>
32.0163

> <b_lp_Chiralities_Consistent>
1

> <s_lp_Variant>
AV-unprocessed.smi:3251-3

> <Gold.Version>
5.8.1

> <Gold.Id.Protein>
6NUR|6NUR_protein|mol2

> <Gold.PLP.Fitness>
47.6062

> <Gold.PLP.PLP>
-43.4179

> <Gold.PLP.part.hbond>
0.0000

> <Gold.PLP.part.metal>
0.0000

> <Gold.PLP.part.buried>
-4.1306

> <Gold.PLP.part.nonpolar>
-38.7038

> <Gold.PLP.part.repulsive>
0.1288

> <Gold.PLP.ligand.clash>
0.0000

> <Gold.PLP.ligand.torsion>
0.5714

> <Gold.PLP.Chemscore.Hbond>
0.0000

> <Gold.PLP.Chemscore.CHOScore>
1.7553

> <Gold.PLP.Chemscore.Metal>
0.0000

> <Gold.Chemscore.Hbonds>
donor molecule, donor type, donor heavy atom, donor atom, acceptor molecule, acceptor atom, score
      L1  C     3    22       P1  7948  0.69
      L1  C    18    40       P1  8028  1.00

> <Gold.PLP.Chemscore.Internal.Correction>
0.0654

> <Gold.Rescore>
     Score         DG    S(hbond)    S(metal)    S(lipo)     H(rot)  DE(clash)    DE(int)     intcor
     11.76     -13.18       0.00        0.00     102.94       1.70       0.04       1.38       ----

> <Gold.Chemscore.Fitness>
11.7594

> <Gold.Chemscore.DG>
-13.1845

> <Gold.Chemscore.ZeroCoef>
-5.4800

> <Gold.Chemscore.Hbond>
0.0000

> <Gold.Chemscore.Metal>
0.0000

> <Gold.Chemscore.Lipo>
102.9406

> <Gold.Chemscore.Internal_Hbond>
0.0000

> <Gold.Chemscore.DEClash>
0.0427

> <Gold.Chemscore.DEInternal>
1.3823

> <Gold.Chemscore.Rot>
1.6951

> <Gold.Chemscore.Internal.Correction>
   9.000000E+99

> <Gold.Chemscore.Hbond.Weighted>
-0.0000

> <Gold.Chemscore.Metal.Weighted>
-0.0000

> <Gold.Chemscore.Lipo.Weighted>
-12.0441

> <Gold.Chemscore.Internal_Hbond.Weighted>
0.0000

> <Gold.Chemscore.DEClash.Weighted>
0.0427

> <Gold.Chemscore.DEInternal.Weighted>
1.3823

> <Gold.Chemscore.Rot.Weighted>
4.3395

> <Gold.Chemscore.Internal.Correction.Weighted>
   9.000000E+99

> <Gold.Protein.RotatedTorsions>
[ 6907 6896 6895 6894 ] final  -10.64 input  -60.11 | X-H torsion
[ 7974 7965 7964 7962 ] final  130.45 input  175.53 | X-H torsion
[ 8008 7997 7996 7995 ] final  -23.20 input   59.86 | X-H torsion
[ 10167 10162 10161 10158 ] final  160.62 input  -65.29 | X-H torsion
[ 10718 10713 10712 10709 ] final   65.24 input   66.30 | X-H torsion
[ 10763 10752 10751 10750 ] final -122.35 input  -60.55 | X-H torsion
[ 11005 11000 10999 10996 ] final  -83.56 input  -57.11 | X-H torsion

> <Gold.Protein.ActiveResidues>
 VAL166  LYS551  ARG553  GLY616  TRP617  ASP618  TYR619  PRO620  LYS621  CYS622 
 ASP623  PHE694  ASN695  SER759  ASP760  ASP761  ALA762  ILE779  LEU786  VAL792 
 PHE793  MET794  SER795  GLU796  ALA797  LYS798  CYS799  TRP800  GLU811  SER814 

> <Gold.Protein.RotatedAtoms>
  151.3988  135.0968  159.9548 H   0  0  0  0  0  0  0  0  0  0  0  0  # atno 6907 bound_to 6896
  152.5057  133.8908  159.7403 H   0  0  0  0  0  0  0  0  0  0  0  0  # atno 6908 bound_to 6896
  150.9378  133.6635  159.2825 H   0  0  0  0  0  0  0  0  0  0  0  0  # atno 6909 bound_to 6896
  145.0178  139.4160  143.5213 H   0  0  0  0  0  0  0  0  0  0  0  0  # atno 7974 bound_to 7965
  154.4599  140.1987  156.0274 H   0  0  0  0  0  0  0  0  0  0  0  0  # atno 8008 bound_to 7997
  156.0820  140.3270  155.7677 H   0  0  0  0  0  0  0  0  0  0  0  0  # atno 8009 bound_to 7997
  155.5097  140.0560  157.2916 H   0  0  0  0  0  0  0  0  0  0  0  0  # atno 8010 bound_to 7997
  139.4841  144.4616  151.8697 H   0  0  0  0  0  0  0  0  0  0  0  0  # atno 10167 bound_to 10162
  157.6092  130.9203  149.9951 H   0  0  0  0  0  0  0  0  0  0  0  0  # atno 10718 bound_to 10713
  154.8688  135.4136  154.2768 H   0  0  0  0  0  0  0  0  0  0  0  0  # atno 10763 bound_to 10752
  153.3668  135.7006  153.6674 H   0  0  0  0  0  0  0  0  0  0  0  0  # atno 10764 bound_to 10752
  153.5552  135.3621  155.2748 H   0  0  0  0  0  0  0  0  0  0  0  0  # atno 10765 bound_to 10752
  141.1657  133.7300  156.8738 H   0  0  0  0  0  0  0  0  0  0  0  0  # atno 11005 bound_to 11000
  146.3480  139.9658  142.8712 LP  0  0  0  0  0  0  0  0  0  0  0  0  # atno 17320 bound_to 7965
  145.1937  140.9823  143.4196 LP  0  0  0  0  0  0  0  0  0  0  0  0  # atno 17321 bound_to 7965
  140.4079  144.2408  150.5890 LP  0  0  0  0  0  0  0  0  0  0  0  0  # atno 17342 bound_to 10162
  140.4995  143.2322  151.8700 LP  0  0  0  0  0  0  0  0  0  0  0  0  # atno 17343 bound_to 10162
  156.1189  130.3646  149.9920 LP  0  0  0  0  0  0  0  0  0  0  0  0  # atno 17370 bound_to 10713
  156.8004  130.9288  151.3646 LP  0  0  0  0  0  0  0  0  0  0  0  0  # atno 17371 bound_to 10713
  140.1763  134.9065  157.2895 LP  0  0  0  0  0  0  0  0  0  0  0  0  # atno 17394 bound_to 11000
  140.2445  134.3756  155.7467 LP  0  0  0  0  0  0  0  0  0  0  0  0  # atno 17395 bound_to 11000

$$$$
