#       Name:                AV-unprocessed.smi:652
#       Creating user name   scv26
#       Creation time:       Fri Mar 27 00:12:56 2020


#       File generated by GOLD software.
#

@<TRIPOS>MOLECULE
AV-unprocessed.smi:652
    54    55     1
SMALL
NO_CHARGES


@<TRIPOS>ATOM
      1 ****         7.3501  -6.9660   5.9455 C.3            1 S1                 0.0000
      2 ****         6.1478  -7.9029   6.1449 C.3            1 S1                 0.0000
      3 ****         6.3135  -9.2102   5.3587 C.3            1 S1                 0.0000
      4 ****         4.9104  -7.2443   5.7350 N.am           1 S1                 0.0000
      5 ****         4.1991  -6.3875   6.4846 C.2            1 S1                 0.0000
      6 ****         4.5275  -6.0558   7.6240 O.2            1 S1                 0.0000
      7 ****         2.9268  -5.8270   5.8391 C.3            1 S1                 0.0000
      8 ****         2.3887  -4.5624   6.5423 C.3            1 S1                 0.0000
      9 ****         1.0840  -4.1137   5.9933 N.4            1 S1                 1.0000
     10 ****         0.3695  -3.2063   6.9225 C.3            1 S1                 0.0000
     11 ****        -0.9933  -2.8011   6.3402 C.3            1 S1                 0.0000
     12 ****        -0.8029  -2.1954   5.0678 O.3            1 S1                 0.0000
     13 ****        -0.2098  -3.0824   4.1267 C.3            1 S1                 0.0000
     14 ****        -0.1463  -2.3415   2.7778 C.3            1 S1                 0.0000
     15 ****         0.2586  -3.2024   1.6740 N.pl3          1 S1                 0.0000
     16 ****        -0.6429  -4.0709   1.0410 C.ar           1 S1                 0.0000
     17 ****        -0.3085  -4.9313  -0.0315 C.ar           1 S1                 0.0000
     18 ****        -1.3159  -5.7513  -0.5680 C.ar           1 S1                 0.0000
     19 ****        -2.5990  -5.6635  -0.0001 C.ar           1 S1                 0.0000
     20 ****        -2.8992  -4.8339   1.0238 N.ar           1 S1                 0.0000
     21 ****        -1.9137  -4.0630   1.5160 N.pl3          1 S1                 1.0000
     22 ****         1.1840  -3.4983   4.6457 C.3            1 S1                 0.0000
     23 ****         8.2775  -7.4502   6.2527 H              1 S1                 0.0000
     24 ****         7.2471  -6.0553   6.5364 H              1 S1                 0.0000
     25 ****         7.4582  -6.6748   4.9003 H              1 S1                 0.0000
     26 ****         6.0789  -8.1595   7.2036 H              1 S1                 0.0000
     27 ****         7.2151  -9.7405   5.6666 H              1 S1                 0.0000
     28 ****         6.3874  -9.0234   4.2867 H              1 S1                 0.0000
     29 ****         5.4679  -9.8787   5.5235 H              1 S1                 0.0000
     30 ****         4.5691  -7.4619   4.8098 H              1 S1                 0.0000
     31 ****         3.1424  -5.6176   4.7912 H              1 S1                 0.0000
     32 ****         2.1681  -6.6106   5.8554 H              1 S1                 0.0000
     33 ****         2.2514  -4.7843   7.6022 H              1 S1                 0.0000
     34 ****         3.1139  -3.7486   6.4875 H              1 S1                 0.0000
     35 ****         0.2229  -3.6985   7.8848 H              1 S1                 0.0000
     36 ****         0.9761  -2.3179   7.1057 H              1 S1                 0.0000
     37 ****        -1.6544  -3.6649   6.2533 H              1 S1                 0.0000
     38 ****        -1.4867  -2.0877   7.0006 H              1 S1                 0.0000
     39 ****        -0.8472  -3.9629   4.0284 H              1 S1                 0.0000
     40 ****        -1.1094  -1.8857   2.5481 H              1 S1                 0.0000
     41 ****         0.5623  -1.5155   2.8451 H              1 S1                 0.0000
     42 ****         1.2227  -3.1787   1.3727 H              1 S1                 0.0000
     43 ****         0.6880  -4.9754  -0.4443 H              1 S1                 0.0000
     44 ****        -1.1134  -6.4269  -1.3859 H              1 S1                 0.0000
     45 ****        -3.4075  -6.2735  -0.3759 H              1 S1                 0.0000
     46 ****         1.8420  -2.6288   4.6921 H              1 S1                 0.0000
     47 ****         1.6339  -4.2015   3.9460 H              1 S1                 0.0000
     48 ****         0.5082  -4.9389   5.9047 H              1 S1                 0.0000
     49 ****        -2.1339  -3.4382   2.2918 H              1 S1                 0.0000
     50 ****         5.3602  -6.4291   8.0330 LP             1 S1                 0.0000
     51 ****         3.9614  -5.4132   8.1403 LP             1 S1                 0.0000
     52 ****        -0.2082  -1.3990   5.1772 LP             1 S1                 0.0000
     53 ****        -1.6918  -1.9018   4.7160 LP             1 S1                 0.0000
     54 ****        -3.8238  -4.7948   1.4028 LP             1 S1                 0.0000
@<TRIPOS>BOND
    1    1    2 1     
    2    1   23 1     
    3    1   24 1     
    4    1   25 1     
    5    2    3 1     
    6    2    4 1     
    7    2   26 1     
    8    3   27 1     
    9    3   28 1     
   10    3   29 1     
   11    4    5 am    
   12    4   30 1     
   13    5    6 2     
   14    5    7 1     
   15    7    8 1     
   16    7   31 1     
   17    7   32 1     
   18    8    9 1     
   19    8   33 1     
   20    8   34 1     
   21    9   22 1     
   22    9   10 1     
   23    9   48 1     
   24   10   11 1     
   25   10   35 1     
   26   10   36 1     
   27   11   12 1     
   28   11   37 1     
   29   11   38 1     
   30   12   13 1     
   31   13   14 1     
   32   13   22 1     
   33   13   39 1     
   34   14   15 1     
   35   14   40 1     
   36   14   41 1     
   37   15   16 1     
   38   15   42 1     
   39   16   21 ar    
   40   16   17 ar    
   41   17   18 ar    
   42   17   43 1     
   43   18   19 ar    
   44   18   44 1     
   45   19   20 ar    
   46   19   45 1     
   47   20   21 ar    
   48   21   49 1     
   49   22   46 1     
   50   22   47 1     
   51    6   50 1     
   52    6   51 1     
   53   12   52 1     
   54   12   53 1     
   55   20   54 1     
@<TRIPOS>SUBSTRUCTURE
      1 S1             1
@<TRIPOS>SET
LONE_PAIRS      STATIC     ATOMS    <user>   **** ""
5 50 51 52 53 54
DONOR_HYDROGENS      STATIC     ATOMS    <user>   **** ""
4 30 48 42 49
ATOM$BLUE        STATIC     ATOMS    COLORGROUP SYSTEM
5 50 51 52 53 54
ATOM$RED        STATIC     ATOMS    COLORGROUP SYSTEM
4 30 48 42 49
