#       Name:                AV-unprocessed.smi:675
#       Creating user name   scv26
#       Creation time:       Fri Mar 27 00:26:40 2020


#       File generated by GOLD software.
#

@<TRIPOS>MOLECULE
AV-unprocessed.smi:675
    35    36     1
SMALL
NO_CHARGES


@<TRIPOS>ATOM
      1 ****        -2.6255   5.1778  -0.4850 O.2            1 S1                 0.0000
      2 ****        -2.2268   4.0218  -0.3571 C.2            1 S1                 0.0000
      3 ****        -2.1613   3.4448   0.9149 N.am           1 S1                 0.0000
      4 ****        -1.7304   2.1483   1.1986 C.2            1 S1                 0.0000
      5 ****        -1.7089   1.7526   2.3638 O.2            1 S1                 0.0000
      6 ****        -1.3341   1.3547   0.0973 N.am           1 S1                 0.0000
      7 ****        -0.8580   0.0165   0.3528 C.3            1 S1                 0.0000
      8 ****         0.6759  -0.0602   0.5174 C.3            1 S1                 0.0000
      9 ****         1.0166   0.3049   1.8416 O.3            1 S1                 0.0000
     10 ****         1.1900  -1.4545   0.1601 C.ar           1 S1                 0.0000
     11 ****         1.2671  -2.4582   1.1544 C.ar           1 S1                 0.0000
     12 ****         1.7302  -3.7491   0.8375 C.ar           1 S1                 0.0000
     13 ****         2.1160  -4.0541  -0.4800 C.ar           1 S1                 0.0000
     14 ****         2.0314  -3.0683  -1.4802 C.ar           1 S1                 0.0000
     15 ****         1.5677  -1.7742  -1.1692 C.ar           1 S1                 0.0000
     16 ****         1.4610  -0.6113  -2.4453 Cl             1 S1                 0.0000
     17 ****        -1.3753   1.8888  -1.1815 C.2            1 S1                 0.0000
     18 ****        -1.7927   3.1498  -1.4477 C.2            1 S1                 0.0000
     19 ****        -1.8133   3.7423  -3.0701 Cl             1 S1                 0.0000
     20 ****        -2.4486   4.0162   1.6961 H              1 S1                 0.0000
     21 ****        -1.4153  -0.4213   1.1841 H              1 S1                 0.0000
     22 ****        -1.1690  -0.5457  -0.5298 H              1 S1                 0.0000
     23 ****         1.1574   0.6709  -0.1316 H              1 S1                 0.0000
     24 ****         1.9583   0.3421   1.9096 H              1 S1                 0.0000
     25 ****         0.9666  -2.2479   2.1704 H              1 S1                 0.0000
     26 ****         1.7865  -4.5061   1.6059 H              1 S1                 0.0000
     27 ****         2.4706  -5.0445  -0.7248 H              1 S1                 0.0000
     28 ****         2.3198  -3.3089  -2.4930 H              1 S1                 0.0000
     29 ****        -1.0558   1.2721  -2.0098 H              1 S1                 0.0000
     30 ****        -2.6718   5.5931  -1.3935 LP             1 S1                 0.0000
     31 ****        -2.9034   5.7028   0.3195 LP             1 S1                 0.0000
     32 ****        -1.9996   2.3596   3.1034 LP             1 S1                 0.0000
     33 ****        -1.4007   0.8241   2.5709 LP             1 S1                 0.0000
     34 ****         0.6588  -0.3751   2.4816 LP             1 S1                 0.0000
     35 ****         0.6273   1.2010   2.0552 LP             1 S1                 0.0000
@<TRIPOS>BOND
    1    1    2 2     
    2    2   18 1     
    3    2    3 1     
    4    3   20 1     
    5    3    4 1     
    6    4    5 2     
    7    4    6 1     
    8    6    7 1     
    9    6   17 1     
   10    7    8 1     
   11    7   21 1     
   12    7   22 1     
   13    8    9 1     
   14    8   10 1     
   15    8   23 1     
   16    9   24 1     
   17   10   15 ar    
   18   10   11 ar    
   19   11   12 ar    
   20   11   25 1     
   21   12   13 ar    
   22   12   26 1     
   23   13   14 ar    
   24   13   27 1     
   25   14   15 ar    
   26   14   28 1     
   27   15   16 1     
   28   17   18 2     
   29   17   29 1     
   30   18   19 1     
   31    1   30 1     
   32    1   31 1     
   33    5   32 1     
   34    5   33 1     
   35    9   34 1     
   36    9   35 1     
@<TRIPOS>SUBSTRUCTURE
      1 S1             1
@<TRIPOS>SET
LONE_PAIRS      STATIC     ATOMS    <user>   **** ""
6 30 31 32 33 34 35
DONOR_HYDROGENS      STATIC     ATOMS    <user>   **** ""
2 20 24
ATOM$BLUE        STATIC     ATOMS    COLORGROUP SYSTEM
6 30 31 32 33 34 35
ATOM$RED        STATIC     ATOMS    COLORGROUP SYSTEM
2 20 24
