#       Name:                AV-unprocessed.smi:2857
#       Creating user name   scv26
#       Creation time:       Fri Mar 27 15:45:11 2020


#       File generated by GOLD software.
#

@<TRIPOS>MOLECULE
AV-unprocessed.smi:2857
    52    54     1
SMALL
NO_CHARGES


@<TRIPOS>ATOM
      1 ****        -6.0731  -0.2037   0.9393 C.3            1 S1                 0.0000
      2 ****        -5.0637   0.9209   0.8321 C.ar           1 S1                 0.0000
      3 ****        -5.4907   2.2628   0.8249 C.ar           1 S1                 0.0000
      4 ****        -4.5460   3.2999   0.7266 C.ar           1 S1                 0.0000
      5 ****        -3.1703   3.0033   0.6355 C.ar           1 S1                 0.0000
      6 ****        -2.1656   4.1352   0.5287 C.3            1 S1                 0.0000
      7 ****        -2.7275   1.6601   0.6400 C.ar           1 S1                 0.0000
      8 ****        -1.3686   1.4395   0.5466 O.3            1 S1                 0.0000
      9 ****        -0.8962   0.0993   0.5202 C.3            1 S1                 0.0000
     10 ****         0.6360   0.1228   0.4100 C.3            1 S1                 0.0000
     11 ****         0.9817   0.3701  -0.9390 O.3            1 S1                 0.0000
     12 ****         1.2657  -1.2105   0.8601 C.3            1 S1                 0.0000
     13 ****         2.7194  -1.1930   0.7907 N.pl3          1 S1                 0.0000
     14 ****         3.4294  -0.6536   1.8153 N.2            1 S1                 0.0000
     15 ****         4.7099  -0.7685   1.4693 C.2            1 S1                 0.0000
     16 ****         4.8652  -1.3896   0.1999 C.2            1 S1                 0.0000
     17 ****         6.0012  -1.7516  -0.6419 C.2            1 S1                 0.0000
     18 ****         5.7633  -2.3216  -1.7816 N.2            1 S1                 0.0000
     19 ****         4.4553  -2.5867  -2.2030 N.am           1 S1                 0.0000
     20 ****         4.3526  -3.2312  -3.5102 C.3            1 S1                 0.0000
     21 ****         3.3260  -2.2916  -1.4909 C.2            1 S1                 0.0000
     22 ****         2.1840  -2.5375  -1.8790 O.2            1 S1                 0.0000
     23 ****         3.5891  -1.6388  -0.1855 C.2            1 S1                 0.0000
     24 ****        -3.6892   0.6222   0.7401 C.ar           1 S1                 0.0000
     25 ****        -7.0950   0.1767   0.9471 H              1 S1                 0.0000
     26 ****        -5.9125  -0.7678   1.8583 H              1 S1                 0.0000
     27 ****        -5.9711  -0.8858   0.0949 H              1 S1                 0.0000
     28 ****        -6.5418   2.5024   0.8947 H              1 S1                 0.0000
     29 ****        -4.8833   4.3262   0.7209 H              1 S1                 0.0000
     30 ****        -1.6591   4.0994  -0.4359 H              1 S1                 0.0000
     31 ****        -1.4148   4.0534   1.3149 H              1 S1                 0.0000
     32 ****        -2.6481   5.1081   0.6234 H              1 S1                 0.0000
     33 ****        -1.1833  -0.3854   1.4548 H              1 S1                 0.0000
     34 ****        -1.3359  -0.4692  -0.3015 H              1 S1                 0.0000
     35 ****         1.0336   0.9281   1.0293 H              1 S1                 0.0000
     36 ****         0.5997   1.1951  -1.1978 H              1 S1                 0.0000
     37 ****         0.9799  -1.4252   1.8910 H              1 S1                 0.0000
     38 ****         0.8850  -2.0403   0.2657 H              1 S1                 0.0000
     39 ****         5.4710  -0.4005   2.1413 H              1 S1                 0.0000
     40 ****         7.0204  -1.5451  -0.3157 H              1 S1                 0.0000
     41 ****         3.7570  -2.6237  -4.1934 H              1 S1                 0.0000
     42 ****         3.8770  -4.2086  -3.4188 H              1 S1                 0.0000
     43 ****         5.3307  -3.3814  -3.9704 H              1 S1                 0.0000
     44 ****        -3.3954  -0.4164   0.7494 H              1 S1                 0.0000
     45 ****        -0.9429   1.8865   1.3333 LP             1 S1                 0.0000
     46 ****        -1.0561   1.8787  -0.2957 LP             1 S1                 0.0000
     47 ****         0.6266  -0.3633  -1.5187 LP             1 S1                 0.0000
     48 ****         1.9765   0.4150  -1.0301 LP             1 S1                 0.0000
     49 ****         3.0654  -0.2528   2.6561 LP             1 S1                 0.0000
     50 ****         6.5294  -2.5769  -2.3713 LP             1 S1                 0.0000
     51 ****         2.0411  -2.9794  -2.7646 LP             1 S1                 0.0000
     52 ****         1.3990  -2.2953  -1.3087 LP             1 S1                 0.0000
@<TRIPOS>BOND
    1    1    2 1     
    2    1   25 1     
    3    1   26 1     
    4    1   27 1     
    5    2   24 ar    
    6    2    3 ar    
    7    3    4 ar    
    8    3   28 1     
    9    4    5 ar    
   10    4   29 1     
   11    5    6 1     
   12    5    7 ar    
   13    6   30 1     
   14    6   31 1     
   15    6   32 1     
   16    7    8 1     
   17    7   24 ar    
   18    8    9 1     
   19    9   10 1     
   20    9   33 1     
   21    9   34 1     
   22   10   11 1     
   23   10   12 1     
   24   10   35 1     
   25   11   36 1     
   26   12   13 1     
   27   12   37 1     
   28   12   38 1     
   29   13   23 1     
   30   13   14 1     
   31   14   15 2     
   32   15   16 1     
   33   15   39 1     
   34   16   23 2     
   35   16   17 1     
   36   17   18 2     
   37   17   40 1     
   38   18   19 1     
   39   19   20 1     
   40   19   21 am    
   41   20   41 1     
   42   20   42 1     
   43   20   43 1     
   44   21   22 2     
   45   21   23 1     
   46   24   44 1     
   47    8   45 1     
   48    8   46 1     
   49   11   47 1     
   50   11   48 1     
   51   14   49 1     
   52   18   50 1     
   53   22   51 1     
   54   22   52 1     
@<TRIPOS>SUBSTRUCTURE
      1 S1             1
@<TRIPOS>SET
LONE_PAIRS      STATIC     ATOMS    <user>   **** ""
8 45 46 47 48 49 50 51 52
DONOR_HYDROGENS      STATIC     ATOMS    <user>   **** ""
1 36
ATOM$BLUE        STATIC     ATOMS    COLORGROUP SYSTEM
8 45 46 47 48 49 50 51 52
ATOM$RED        STATIC     ATOMS    COLORGROUP SYSTEM
1 36
