AV-unprocessed.smi:1761|AV-procd|sdf|7095|dock4
  -GOLD-   22720 8313D 1   1.00000     0.00000
 Structure written by MMmdl.
 34 35  0  0  0  0  0  0  0  0  1 V2000
  149.8950  140.5732  157.1600 O   0  0  0  0  0  0  0  0  0  0  0  0
  149.5908  141.7398  156.9092 C   0  0  0  0  0  0  0  0  0  0  0  0
  150.1424  142.8261  157.4777 N   0  0  0  0  0  0  0  0  0  0  0  0
  151.1816  142.8798  158.4446 C   0  0  0  0  0  0  0  0  0  0  0  0
  151.2454  144.0808  159.1870 C   0  0  0  0  0  0  0  0  0  0  0  0
  152.2423  144.2360  160.1695 C   0  0  0  0  0  0  0  0  0  0  0  0
  153.1517  143.1850  160.3840 C   0  0  0  0  0  0  0  0  0  0  0  0
  153.0190  142.0229  159.6018 C   0  0  0  0  0  0  0  0  0  0  0  0
  152.0641  141.8721  158.6599 N   0  0  0  0  0  0  0  0  0  0  0  0
  148.6472  142.0863  156.0215 N   0  0  0  0  0  0  0  0  0  0  0  0
  147.8413  141.1570  155.2319 C   0  0  2  0  0  0  0  0  0  0  0  0
  146.9316  140.3756  156.2025 C   0  0  0  0  0  0  0  0  0  0  0  0
  146.1449  139.2643  155.4931 C   0  0  0  0  0  0  0  0  0  0  0  0
  147.0918  138.3059  154.7589 C   0  0  0  0  0  0  0  0  0  0  0  0
  147.9654  139.0705  153.7554 C   0  0  0  0  0  0  0  0  0  0  0  0
  148.7622  140.2005  154.4358 C   0  0  1  0  0  0  0  0  0  0  0  0
  149.4348  140.9152  153.4183 O   0  0  0  0  0  0  0  0  0  0  0  0
  149.7792  143.7199  157.1814 H   0  0  0  0  0  0  0  0  0  0  0  0
  150.5387  144.8785  159.0087 H   0  0  0  0  0  0  0  0  0  0  0  0
  152.3067  145.1459  160.7476 H   0  0  0  0  0  0  0  0  0  0  0  0
  153.9302  143.2671  161.1279 H   0  0  0  0  0  0  0  0  0  0  0  0
  153.6968  141.1928  159.7350 H   0  0  0  0  0  0  0  0  0  0  0  0
  148.4633  143.0695  155.8857 H   0  0  0  0  0  0  0  0  0  0  0  0
  147.1974  141.6959  154.5338 H   0  0  0  0  0  0  0  0  0  0  0  0
  147.5344  139.9301  156.9956 H   0  0  0  0  0  0  0  0  0  0  0  0
  146.2377  141.0590  156.6933 H   0  0  0  0  0  0  0  0  0  0  0  0
  145.5457  138.7124  156.2177 H   0  0  0  0  0  0  0  0  0  0  0  0
  145.4439  139.7062  154.7838 H   0  0  0  0  0  0  0  0  0  0  0  0
  147.7259  137.7885  155.4799 H   0  0  0  0  0  0  0  0  0  0  0  0
  146.5169  137.5370  154.2419 H   0  0  0  0  0  0  0  0  0  0  0  0
  148.6473  138.3785  153.2597 H   0  0  0  0  0  0  0  0  0  0  0  0
  147.3268  139.4864  152.9743 H   0  0  0  0  0  0  0  0  0  0  0  0
  149.5065  139.7615  155.1021 H   0  0  0  0  0  0  0  0  0  0  0  0
  149.3715  140.4239  152.6133 H   0  0  0  0  0  0  0  0  0  0  0  0
  1  2  2  0  0  0  0
  2  3  1  0  0  0  0
  2 10  1  0  0  0  0
  3  4  1  0  0  0  0
  3 18  1  0  0  0  0
  4  9  1  0  0  0  0
  4  5  2  0  0  0  0
  5  6  1  0  0  0  0
  5 19  1  0  0  0  0
  6  7  2  0  0  0  0
  6 20  1  0  0  0  0
  7  8  1  0  0  0  0
  7 21  1  0  0  0  0
  8  9  2  0  0  0  0
  8 22  1  0  0  0  0
 10 11  1  0  0  0  0
 10 23  1  0  0  0  0
 11 16  1  0  0  0  0
 11 12  1  0  0  0  0
 11 24  1  0  0  0  0
 12 13  1  0  0  0  0
 12 25  1  0  0  0  0
 12 26  1  0  0  0  0
 13 14  1  0  0  0  0
 13 27  1  0  0  0  0
 13 28  1  0  0  0  0
 14 15  1  0  0  0  0
 14 29  1  0  0  0  0
 14 30  1  0  0  0  0
 15 16  1  0  0  0  0
 15 31  1  0  0  0  0
 15 32  1  0  0  0  0
 16 17  1  0  0  0  0
 16 33  1  0  0  0  0
 17 34  1  0  0  0  0
M  END
> <s_m_source_file>
AV-unprocessed.smi

> <i_m_source_file_index>
1761

> <i_lp_mmshare_version>
43012

> <i_f3d_flags>
0

> <s_epik_input>
bjFbY0hdW2NIXVtjSF1bY0hdYzFbTkhdQyg9TylbTkhdW0NAQEhdMltDSDJdW0NIMl1bQ0gyXVtDSDJdW0NASF0yW09IXQ==

> <s_epik_cmdline>
J2VwaWtfcHl0aG9uJywgJy1waCcsICc3LjAnLCAnLXRuJywgJzgnLCAnLW1hJywgJzIwMCcsICctbWV0YWxfYmluZGluZycsICctaW1hZScsICc8aW5maWxlLm1hZT4nLCAnLW9tYWUnLCAnPG91dGZpbGUubWFlPic=

> <r_lp_tautomer_probability>
1

> <r_epik_Ionization_Penalty>
4.92589e-05

> <r_epik_Ionization_Penalty_Charging>
0

> <r_epik_Ionization_Penalty_Neutral>
4.92589e-05

> <r_epik_State_Penalty>
-0

> <r_epik_Charging_Adjusted_Penalty>
0

> <i_epik_Tot_Q>
0

> <i_epik_Tot_abs_Q>
0

> <r_epik_Metal_State_Penalty>
-0

> <b_epik_Metal_Only>
0

> <s_lp_Force_Field>
OPLS_2005

> <r_lp_Energy>
12.6575

> <b_lp_Chiralities_Consistent>
1

> <s_lp_Variant>
AV-unprocessed.smi:1761-1

> <Gold.Version>
5.8.1

> <Gold.Id.Protein>
6NUR|6NUR_protein|mol2

> <Gold.PLP.Fitness>
41.4614

> <Gold.PLP.PLP>
-30.3113

> <Gold.PLP.part.hbond>
-4.3729

> <Gold.PLP.part.metal>
0.0000

> <Gold.PLP.part.buried>
-4.6156

> <Gold.PLP.part.nonpolar>
-22.2520

> <Gold.PLP.part.repulsive>
0.1491

> <Gold.PLP.ligand.clash>
0.0000

> <Gold.PLP.ligand.torsion>
0.1266

> <Gold.PLP.Chemscore.Hbond>
3.8007

> <Gold.PLP.Chemscore.CHOScore>
0.0000

> <Gold.PLP.Chemscore.Metal>
0.0000

> <Gold.Chemscore.Hbonds>
donor molecule, donor type, donor heavy atom, donor atom, acceptor molecule, acceptor atom, score
      L1  H     3    18       P1  8028  0.91
      L1  H    10    23       P1  8028  1.00
      L1  H    17    34       P1  7957  0.98
      P1  H  7989  7998       L1    17  0.13
      P1  H  8011  8017       L1    17  0.30

> <Gold.PLP.Chemscore.Internal.Correction>
0.0011

> <Gold.Rescore>
     Score         DG    S(hbond)    S(metal)    S(lipo)     H(rot)  DE(clash)    DE(int)     intcor
     17.26     -19.78       2.99        0.00      68.83       1.47       0.00       2.52       ----

> <Gold.Chemscore.Fitness>
17.2584

> <Gold.Chemscore.DG>
-19.7823

> <Gold.Chemscore.ZeroCoef>
-5.4800

> <Gold.Chemscore.Hbond>
2.9942

> <Gold.Chemscore.Metal>
0.0000

> <Gold.Chemscore.Lipo>
68.8275

> <Gold.Chemscore.Internal_Hbond>
0.0000

> <Gold.Chemscore.DEClash>
0.0000

> <Gold.Chemscore.DEInternal>
2.5239

> <Gold.Chemscore.Rot>
1.4653

> <Gold.Chemscore.Internal.Correction>
   9.000000E+99

> <Gold.Chemscore.Hbonds>
donor molecule, donor type, donor heavy atom, donor atom, acceptor molecule, acceptor atom, score
      L1  H     3    18       P1  8028  0.75
      L1  H    10    23       P1  8028  0.96
      L1  H    17    34       P1  7957  0.90
      P1  H  7989  7998       L1    17  0.01

> <Gold.Chemscore.Hbond.Weighted>
-10.0006

> <Gold.Chemscore.Metal.Weighted>
-0.0000

> <Gold.Chemscore.Lipo.Weighted>
-8.0528

> <Gold.Chemscore.Internal_Hbond.Weighted>
0.0000

> <Gold.Chemscore.DEClash.Weighted>
0.0000

> <Gold.Chemscore.DEInternal.Weighted>
2.5239

> <Gold.Chemscore.Rot.Weighted>
3.7511

> <Gold.Chemscore.Internal.Correction.Weighted>
   9.000000E+99

> <Gold.Protein.RotatedTorsions>
[ 6907 6896 6895 6894 ] final  -77.25 input  -60.11 | X-H torsion
[ 7974 7965 7964 7962 ] final -157.71 input  175.53 | X-H torsion
[ 8008 7997 7996 7995 ] final   46.47 input   59.86 | X-H torsion
[ 10167 10162 10161 10158 ] final   34.47 input  -65.29 | X-H torsion
[ 10718 10713 10712 10709 ] final  -15.77 input   66.30 | X-H torsion
[ 10763 10752 10751 10750 ] final  167.73 input  -60.55 | X-H torsion
[ 11005 11000 10999 10996 ] final  136.91 input  -57.11 | X-H torsion

> <Gold.Protein.ActiveResidues>
 VAL166  LYS551  ARG553  GLY616  TRP617  ASP618  TYR619  PRO620  LYS621  CYS622 
 ASP623  PHE694  ASN695  SER759  ASP760  ASP761  ALA762  ILE779  LEU786  VAL792 
 PHE793  MET794  SER795  GLU796  ALA797  LYS798  CYS799  TRP800  GLU811  SER814 

> <Gold.Protein.RotatedAtoms>
  150.7004  134.4450  159.5309 H   0  0  0  0  0  0  0  0  0  0  0  0  # atno 6907 bound_to 6896
  152.2153  134.8460  160.0501 H   0  0  0  0  0  0  0  0  0  0  0  0  # atno 6908 bound_to 6896
  151.9331  133.3581  159.3974 H   0  0  0  0  0  0  0  0  0  0  0  0  # atno 6909 bound_to 6896
  144.7536  140.3931  143.6029 H   0  0  0  0  0  0  0  0  0  0  0  0  # atno 7974 bound_to 7965
  155.3530  140.3414  155.4239 H   0  0  0  0  0  0  0  0  0  0  0  0  # atno 8008 bound_to 7997
  156.1754  140.1646  156.8407 H   0  0  0  0  0  0  0  0  0  0  0  0  # atno 8009 bound_to 7997
  154.5276  140.0752  156.8270 H   0  0  0  0  0  0  0  0  0  0  0  0  # atno 8010 bound_to 7997
  140.4312  144.1322  150.6159 H   0  0  0  0  0  0  0  0  0  0  0  0  # atno 10167 bound_to 10162
  156.5971  130.4814  149.6255 H   0  0  0  0  0  0  0  0  0  0  0  0  # atno 10718 bound_to 10713
  154.3582  135.2753  155.2335 H   0  0  0  0  0  0  0  0  0  0  0  0  # atno 10763 bound_to 10752
  154.4535  135.5925  153.6211 H   0  0  0  0  0  0  0  0  0  0  0  0  # atno 10764 bound_to 10752
  152.9845  135.6047  154.3799 H   0  0  0  0  0  0  0  0  0  0  0  0  # atno 10765 bound_to 10752
  140.0078  134.9452  157.0212 H   0  0  0  0  0  0  0  0  0  0  0  0  # atno 11005 bound_to 11000
  145.6855  139.1627  143.2676 LP  0  0  0  0  0  0  0  0  0  0  0  0  # atno 17320 bound_to 7965
  146.1519  140.6912  142.9318 LP  0  0  0  0  0  0  0  0  0  0  0  0  # atno 17321 bound_to 7965
  140.4425  143.2520  151.9454 LP  0  0  0  0  0  0  0  0  0  0  0  0  # atno 17342 bound_to 10162
  139.4785  144.5640  151.8194 LP  0  0  0  0  0  0  0  0  0  0  0  0  # atno 17343 bound_to 10162
  156.2500  130.6902  151.1636 LP  0  0  0  0  0  0  0  0  0  0  0  0  # atno 17370 bound_to 10713
  157.7289  131.0628  150.5799 LP  0  0  0  0  0  0  0  0  0  0  0  0  # atno 17371 bound_to 10713
  140.4610  134.1484  155.7191 LP  0  0  0  0  0  0  0  0  0  0  0  0  # atno 17394 bound_to 11000
  141.1689  133.8648  157.1630 LP  0  0  0  0  0  0  0  0  0  0  0  0  # atno 17395 bound_to 11000

$$$$
