AV-unprocessed.smi:762|AV-procd|sdf|3633|dock9
  -GOLD-   22720 1 23D 1   1.00000     0.00000
 Structure written by MMmdl.
 42 44  0  0  0  0  0  0  0  0  1 V2000
  150.1638  135.7381  158.8731 O   0  0  0  0  0  0  0  0  0  0  0  0
  149.6141  136.8238  159.0578 C   0  0  0  0  0  0  0  0  0  0  0  0
  148.0993  136.8902  159.2531 C   0  0  0  0  0  0  0  0  0  0  0  0
  147.5707  136.0940  160.4334 C   0  0  0  0  0  0  0  0  0  0  0  0
  147.9850  136.3249  161.6945 C   0  0  0  0  0  0  0  0  0  0  0  0
  147.5314  135.5222  162.9003 C   0  0  0  0  0  0  0  0  0  0  0  0
  146.8645  134.1962  162.4986 C   0  0  0  0  0  0  0  0  0  0  0  0
  145.8835  134.4000  161.3375 C   0  0  0  0  0  0  0  0  0  0  0  0
  146.5879  134.9783  160.0964 C   0  0  0  0  0  0  0  0  0  0  0  0
  150.2757  137.9907  159.0915 N   0  0  0  0  0  0  0  0  0  0  0  0
  151.7134  138.1410  158.9050 C   0  0  0  0  0  0  0  0  0  0  0  0
  152.1192  139.6202  158.7917 C   0  0  0  0  0  0  0  0  0  0  0  0
  151.6685  140.2028  157.5412 N   0  0  0  0  0  0  0  0  0  0  0  0
  151.5442  139.6083  156.3448 C   0  0  0  0  0  0  0  0  0  0  0  0
  151.1214  140.4016  155.3616 N   0  0  0  0  0  0  0  0  0  0  0  0
  150.9555  141.6355  155.9583 N   0  0  0  0  0  0  0  0  0  0  0  0
  151.2794  141.4600  157.2450 C   0  0  0  0  0  0  0  0  0  0  0  0
  151.2710  142.5607  158.2573 C   0  0  0  0  0  0  0  0  0  0  0  0
  152.0067  143.8586  158.0067 C   0  0  0  0  0  0  0  0  0  0  0  0
  152.5113  142.9005  159.0539 C   0  0  0  0  0  0  0  0  0  0  0  0
  147.8393  137.9399  159.3968 H   0  0  0  0  0  0  0  0  0  0  0  0
  147.5802  136.5803  158.3450 H   0  0  0  0  0  0  0  0  0  0  0  0
  148.6829  137.1257  161.8915 H   0  0  0  0  0  0  0  0  0  0  0  0
  148.3891  135.3250  163.5437 H   0  0  0  0  0  0  0  0  0  0  0  0
  146.8374  136.1367  163.4745 H   0  0  0  0  0  0  0  0  0  0  0  0
  147.6303  133.4796  162.1981 H   0  0  0  0  0  0  0  0  0  0  0  0
  146.3534  133.7602  163.3574 H   0  0  0  0  0  0  0  0  0  0  0  0
  145.3964  133.4583  161.0828 H   0  0  0  0  0  0  0  0  0  0  0  0
  145.0920  135.0798  161.6555 H   0  0  0  0  0  0  0  0  0  0  0  0
  145.8390  135.3482  159.3954 H   0  0  0  0  0  0  0  0  0  0  0  0
  147.1386  134.1902  159.5819 H   0  0  0  0  0  0  0  0  0  0  0  0
  149.7435  138.8350  159.2457 H   0  0  0  0  0  0  0  0  0  0  0  0
  152.2463  137.6575  159.7258 H   0  0  0  0  0  0  0  0  0  0  0  0
  151.9927  137.6053  157.9980 H   0  0  0  0  0  0  0  0  0  0  0  0
  151.7127  140.1947  159.6245 H   0  0  0  0  0  0  0  0  0  0  0  0
  153.2037  139.7252  158.8401 H   0  0  0  0  0  0  0  0  0  0  0  0
  151.7733  138.5644  156.1876 H   0  0  0  0  0  0  0  0  0  0  0  0
  150.3102  142.6077  158.7662 H   0  0  0  0  0  0  0  0  0  0  0  0
  152.5889  143.9466  157.0920 H   0  0  0  0  0  0  0  0  0  0  0  0
  151.5331  144.7764  158.3490 H   0  0  0  0  0  0  0  0  0  0  0  0
  152.3770  143.1783  160.0972 H   0  0  0  0  0  0  0  0  0  0  0  0
  153.4246  142.3519  158.8313 H   0  0  0  0  0  0  0  0  0  0  0  0
  1  2  2  0  0  0  0
  2  3  1  0  0  0  0
  2 10  1  0  0  0  0
  3  4  1  0  0  0  0
  3 21  1  0  0  0  0
  3 22  1  0  0  0  0
  4  9  1  0  0  0  0
  4  5  2  0  0  0  0
  5  6  1  0  0  0  0
  5 23  1  0  0  0  0
  6  7  1  0  0  0  0
  6 24  1  0  0  0  0
  6 25  1  0  0  0  0
  7  8  1  0  0  0  0
  7 26  1  0  0  0  0
  7 27  1  0  0  0  0
  8  9  1  0  0  0  0
  8 28  1  0  0  0  0
  8 29  1  0  0  0  0
  9 30  1  0  0  0  0
  9 31  1  0  0  0  0
 10 11  1  0  0  0  0
 10 32  1  0  0  0  0
 11 12  1  0  0  0  0
 11 33  1  0  0  0  0
 11 34  1  0  0  0  0
 12 13  1  0  0  0  0
 12 35  1  0  0  0  0
 12 36  1  0  0  0  0
 13 17  1  0  0  0  0
 13 14  1  0  0  0  0
 14 15  2  0  0  0  0
 14 37  1  0  0  0  0
 15 16  1  0  0  0  0
 16 17  2  0  0  0  0
 17 18  1  0  0  0  0
 18 20  1  0  0  0  0
 18 19  1  0  0  0  0
 18 38  1  0  0  0  0
 19 20  1  0  0  0  0
 19 39  1  0  0  0  0
 19 40  1  0  0  0  0
 20 41  1  0  0  0  0
 20 42  1  0  0  0  0
M  END
> <s_m_source_file>
AV-unprocessed.smi

> <i_m_source_file_index>
762

> <i_lp_mmshare_version>
43012

> <i_f3d_flags>
0

> <s_epik_input>
W0NIMl0xW0NIMl1bQ0gyXVtDSDJdW0NIXT1DMVtDSDJdQyg9TylbTkhdW0NIMl1bQ0gyXW4yW2NIXW5uYzJbQ0hdM1tDSDJdW0NIMl0z

> <s_epik_cmdline>
J2VwaWtfcHl0aG9uJywgJy1waCcsICc3LjAnLCAnLXRuJywgJzgnLCAnLW1hJywgJzIwMCcsICctbWV0YWxfYmluZGluZycsICctaW1hZScsICc8aW5maWxlLm1hZT4nLCAnLW9tYWUnLCAnPG91dGZpbGUubWFlPic=

> <r_lp_tautomer_probability>
1

> <r_epik_Ionization_Penalty>
0.000270947

> <r_epik_Ionization_Penalty_Charging>
0

> <r_epik_Ionization_Penalty_Neutral>
0.000270947

> <r_epik_State_Penalty>
-0

> <r_epik_Charging_Adjusted_Penalty>
0

> <i_epik_Tot_Q>
0

> <i_epik_Tot_abs_Q>
0

> <r_epik_Metal_State_Penalty>
-0

> <b_epik_Metal_Only>
0

> <s_lp_Force_Field>
OPLS_2005

> <r_lp_Energy>
11.3747

> <b_lp_Chiralities_Consistent>
1

> <s_lp_Variant>
AV-unprocessed.smi:762-1

> <Gold.Version>
5.8.1

> <Gold.Id.Protein>
6NUR|6NUR_protein|mol2

> <Gold.PLP.Fitness>
44.4722

> <Gold.PLP.PLP>
-39.3713

> <Gold.PLP.part.hbond>
-1.9515

> <Gold.PLP.part.metal>
0.0000

> <Gold.PLP.part.buried>
-4.6622

> <Gold.PLP.part.nonpolar>
-33.6402

> <Gold.PLP.part.repulsive>
0.3411

> <Gold.PLP.ligand.clash>
0.0000

> <Gold.PLP.ligand.torsion>
0.5006

> <Gold.PLP.Chemscore.Hbond>
1.9760

> <Gold.PLP.Chemscore.CHOScore>
0.0000

> <Gold.PLP.Chemscore.Metal>
0.0000

> <Gold.Chemscore.Hbonds>
donor molecule, donor type, donor heavy atom, donor atom, acceptor molecule, acceptor atom, score
      P1  H  6896  6909       L1     1  0.69
      P1  H  7989  7998       L1    15  0.99

> <Gold.PLP.Chemscore.Internal.Correction>
0.1742

> <Gold.Rescore>
     Score         DG    S(hbond)    S(metal)    S(lipo)     H(rot)  DE(clash)    DE(int)     intcor
     15.51     -16.08       1.71        0.00      87.80       2.10       0.03       0.54       ----

> <Gold.Chemscore.Fitness>
15.5146

> <Gold.Chemscore.DG>
-16.0817

> <Gold.Chemscore.ZeroCoef>
-5.4800

> <Gold.Chemscore.Hbond>
1.7104

> <Gold.Chemscore.Metal>
0.0000

> <Gold.Chemscore.Lipo>
87.8017

> <Gold.Chemscore.Internal_Hbond>
0.0000

> <Gold.Chemscore.DEClash>
0.0265

> <Gold.Chemscore.DEInternal>
0.5405

> <Gold.Chemscore.Rot>
2.1031

> <Gold.Chemscore.Internal.Correction>
   9.000000E+99

> <Gold.Chemscore.Hbonds>
donor molecule, donor type, donor heavy atom, donor atom, acceptor molecule, acceptor atom, score
      P1  H  6896  6909       L1     1  0.65
      P1  H  7989  7998       L1    15  0.32

> <Gold.Chemscore.Hbond.Weighted>
-5.7127

> <Gold.Chemscore.Metal.Weighted>
-0.0000

> <Gold.Chemscore.Lipo.Weighted>
-10.2728

> <Gold.Chemscore.Internal_Hbond.Weighted>
0.0000

> <Gold.Chemscore.DEClash.Weighted>
0.0265

> <Gold.Chemscore.DEInternal.Weighted>
0.5405

> <Gold.Chemscore.Rot.Weighted>
5.3838

> <Gold.Chemscore.Internal.Correction.Weighted>
   9.000000E+99

> <Gold.Protein.RotatedTorsions>
[ 6907 6896 6895 6894 ] final   52.13 input  -60.11 | X-H torsion
[ 7974 7965 7964 7962 ] final  -99.65 input  175.53 | X-H torsion
[ 8008 7997 7996 7995 ] final  -23.30 input   59.86 | X-H torsion
[ 10167 10162 10161 10158 ] final  175.74 input  -65.29 | X-H torsion
[ 10718 10713 10712 10709 ] final -166.78 input   66.30 | X-H torsion
[ 10763 10752 10751 10750 ] final  -91.27 input  -60.55 | X-H torsion
[ 11005 11000 10999 10996 ] final  112.16 input  -57.11 | X-H torsion

> <Gold.Protein.ActiveResidues>
 VAL166  LYS551  ARG553  GLY616  TRP617  ASP618  TYR619  PRO620  LYS621  CYS622 
 ASP623  PHE694  ASN695  SER759  ASP760  ASP761  ALA762  ILE779  LEU786  VAL792 
 PHE793  MET794  SER795  GLU796  ALA797  LYS798  CYS799  TRP800  GLU811  SER814 

> <Gold.Protein.RotatedAtoms>
  152.3200  134.7392  160.0315 H   0  0  0  0  0  0  0  0  0  0  0  0  # atno 6907 bound_to 6896
  151.7844  133.3347  159.3489 H   0  0  0  0  0  0  0  0  0  0  0  0  # atno 6908 bound_to 6896
  150.7365  134.5832  159.5994 H   0  0  0  0  0  0  0  0  0  0  0  0  # atno 6909 bound_to 6896
  145.3048  140.9386  143.2803 H   0  0  0  0  0  0  0  0  0  0  0  0  # atno 7974 bound_to 7965
  154.4593  140.1984  156.0289 H   0  0  0  0  0  0  0  0  0  0  0  0  # atno 8008 bound_to 7997
  156.0809  140.3271  155.7664 H   0  0  0  0  0  0  0  0  0  0  0  0  # atno 8009 bound_to 7997
  155.5113  140.0562  157.2914 H   0  0  0  0  0  0  0  0  0  0  0  0  # atno 8010 bound_to 7997
  139.5188  144.2997  152.0390 H   0  0  0  0  0  0  0  0  0  0  0  0  # atno 10167 bound_to 10162
  156.6728  130.9091  151.3046 H   0  0  0  0  0  0  0  0  0  0  0  0  # atno 10718 bound_to 10713
  154.6743  135.5274  153.8179 H   0  0  0  0  0  0  0  0  0  0  0  0  # atno 10763 bound_to 10752
  153.0522  135.6537  154.0675 H   0  0  0  0  0  0  0  0  0  0  0  0  # atno 10764 bound_to 10752
  154.0570  135.2964  155.3311 H   0  0  0  0  0  0  0  0  0  0  0  0  # atno 10765 bound_to 10752
  139.8920  134.9524  156.6543 H   0  0  0  0  0  0  0  0  0  0  0  0  # atno 11005 bound_to 11000
  144.9064  139.4584  143.6608 LP  0  0  0  0  0  0  0  0  0  0  0  0  # atno 17320 bound_to 7965
  146.3139  139.7847  142.8998 LP  0  0  0  0  0  0  0  0  0  0  0  0  # atno 17321 bound_to 7965
  140.2445  144.4234  150.6246 LP  0  0  0  0  0  0  0  0  0  0  0  0  # atno 17342 bound_to 10162
  140.6268  143.2182  151.6580 LP  0  0  0  0  0  0  0  0  0  0  0  0  # atno 17343 bound_to 10162
  157.7071  130.9397  150.0967 LP  0  0  0  0  0  0  0  0  0  0  0  0  # atno 17370 bound_to 10713
  156.1926  130.3655  149.8890 LP  0  0  0  0  0  0  0  0  0  0  0  0  # atno 17371 bound_to 10713
  140.7496  133.8908  155.8337 LP  0  0  0  0  0  0  0  0  0  0  0  0  # atno 17394 bound_to 11000
  141.0011  134.1149  157.4316 LP  0  0  0  0  0  0  0  0  0  0  0  0  # atno 17395 bound_to 11000

$$$$
