#       Name:                AV-unprocessed.smi:888
#       Creating user name   scv26
#       Creation time:       Fri Mar 27 01:54:13 2020


#       File generated by GOLD software.
#

@<TRIPOS>MOLECULE
AV-unprocessed.smi:888
    49    50     1
SMALL
NO_CHARGES


@<TRIPOS>ATOM
      1 ****         2.7896  -0.7159   2.6951 C.3            1 S1                 0.0000
      2 ****         3.9450   0.0772   2.0721 C.3            1 S1                 0.0000
      3 ****         3.9634   1.5126   2.5077 C.2            1 S1                 0.0000
      4 ****         4.2123   1.8746   3.7729 N.2            1 S1                 0.0000
      5 ****         4.1490   3.2519   3.7909 N.2            1 S1                 0.0000
      6 ****         3.8806   3.5887   2.5314 C.2            1 S1                 0.0000
      7 ****         3.7584   2.5611   1.6770 N.pl3          1 S1                 0.0000
      8 ****         3.4924   2.6336   0.2483 C.3            1 S1                 0.0000
      9 ****         1.9909   2.7655  -0.0725 C.3            1 S1                 0.0000
     10 ****         1.2280   1.5646   0.2683 N.am           1 S1                 0.0000
     11 ****         1.1434   0.4138  -0.4226 C.2            1 S1                 0.0000
     12 ****         1.7316   0.2533  -1.4900 O.2            1 S1                 0.0000
     13 ****         0.3600  -0.5206   0.1412 N.am           1 S1                 0.0000
     14 ****         0.0720  -1.8392  -0.4208 C.3            1 S1                 0.0000
     15 ****        -1.3407  -2.2940  -0.0044 C.3            1 S1                 0.0000
     16 ****        -1.1564  -3.5515   0.8406 C.3            1 S1                 0.0000
     17 ****         0.1432  -4.1577   0.3223 C.3            1 S1                 0.0000
     18 ****         1.0632  -2.9568   0.0338 C.3            1 S1                 0.0000
     19 ****         2.0694  -3.2961  -1.0820 C.3            1 S1                 0.0000
     20 ****         1.8504  -2.6043   1.3197 C.3            1 S1                 0.0000
     21 ****         2.7878  -1.7452   2.3363 H              1 S1                 0.0000
     22 ****         1.8247  -0.2746   2.4472 H              1 S1                 0.0000
     23 ****         2.8711  -0.7436   3.7819 H              1 S1                 0.0000
     24 ****         4.8942  -0.3788   2.3547 H              1 S1                 0.0000
     25 ****         3.8869   0.0043   0.9881 H              1 S1                 0.0000
     26 ****         3.7762   4.6180   2.2205 H              1 S1                 0.0000
     27 ****         4.0127   3.5113  -0.1370 H              1 S1                 0.0000
     28 ****         3.9429   1.7828  -0.2605 H              1 S1                 0.0000
     29 ****         1.5669   3.6045   0.4799 H              1 S1                 0.0000
     30 ****         1.8527   3.0045  -1.1283 H              1 S1                 0.0000
     31 ****         0.6798   1.6205   1.1149 H              1 S1                 0.0000
     32 ****        -0.0787  -0.2983   1.0228 H              1 S1                 0.0000
     33 ****         0.0712  -1.7631  -1.5101 H              1 S1                 0.0000
     34 ****        -1.9018  -1.5287   0.5339 H              1 S1                 0.0000
     35 ****        -1.9169  -2.5405  -0.8973 H              1 S1                 0.0000
     36 ****        -1.0480  -3.2808   1.8915 H              1 S1                 0.0000
     37 ****        -2.0002  -4.2373   0.7599 H              1 S1                 0.0000
     38 ****         0.5759  -4.8735   1.0222 H              1 S1                 0.0000
     39 ****        -0.0683  -4.7008  -0.6001 H              1 S1                 0.0000
     40 ****         2.7159  -4.1250  -0.7924 H              1 S1                 0.0000
     41 ****         2.7085  -2.4426  -1.3098 H              1 S1                 0.0000
     42 ****         1.5638  -3.5817  -2.0052 H              1 S1                 0.0000
     43 ****         2.4478  -3.4513   1.6591 H              1 S1                 0.0000
     44 ****         1.1876  -2.3254   2.1392 H              1 S1                 0.0000
     45 ****         2.5412  -1.7765   1.1559 H              1 S1                 0.0000
     46 ****         4.4045   1.2700   4.5460 LP             1 S1                 0.0000
     47 ****         4.2762   3.8607   4.5740 LP             1 S1                 0.0000
     48 ****         2.2924   0.9901  -1.8676 LP             1 S1                 0.0000
     49 ****         1.6493  -0.6141  -1.9808 LP             1 S1                 0.0000
@<TRIPOS>BOND
    1    1    2 1     
    2    1   21 1     
    3    1   22 1     
    4    1   23 1     
    5    2    3 1     
    6    2   24 1     
    7    2   25 1     
    8    3    7 1     
    9    3    4 2     
   10    4    5 1     
   11    5    6 2     
   12    6    7 1     
   13    6   26 1     
   14    7    8 1     
   15    8    9 1     
   16    8   27 1     
   17    8   28 1     
   18    9   10 1     
   19    9   29 1     
   20    9   30 1     
   21   10   11 am    
   22   10   31 1     
   23   11   12 2     
   24   11   13 am    
   25   13   14 1     
   26   13   32 1     
   27   14   18 1     
   28   14   15 1     
   29   14   33 1     
   30   15   16 1     
   31   15   34 1     
   32   15   35 1     
   33   16   17 1     
   34   16   36 1     
   35   16   37 1     
   36   17   18 1     
   37   17   38 1     
   38   17   39 1     
   39   18   19 1     
   40   18   20 1     
   41   19   40 1     
   42   19   41 1     
   43   19   42 1     
   44   20   43 1     
   45   20   44 1     
   46   20   45 1     
   47    4   46 1     
   48    5   47 1     
   49   12   48 1     
   50   12   49 1     
@<TRIPOS>SUBSTRUCTURE
      1 S1             1
@<TRIPOS>SET
LONE_PAIRS      STATIC     ATOMS    <user>   **** ""
4 46 47 48 49
DONOR_HYDROGENS      STATIC     ATOMS    <user>   **** ""
2 31 32
ATOM$BLUE        STATIC     ATOMS    COLORGROUP SYSTEM
4 46 47 48 49
ATOM$RED        STATIC     ATOMS    COLORGROUP SYSTEM
2 31 32
