AV-unprocessed.smi:1135|AV-procd|sdf|4861|dock1
  -GOLD-   22720 3433D 1   1.00000     0.00000
 Structure written by MMmdl.
 46 47  0  0  0  0  0  0  0  0  2 V2000
  142.8283  147.0002  157.2853 C   0  0  0  0  0  0  0  0  0  0  0  0
  143.4230  146.6720  158.6620 C   0  0  2  0  0  0  0  0  0  0  0  0
  144.8824  147.1483  158.7757 C   0  0  0  0  0  0  0  0  0  0  0  0
  145.4847  146.8081  160.1522 C   0  0  0  0  0  0  0  0  0  0  0  0
  145.4022  145.3011  160.4947 C   0  0  2  0  0  0  0  0  0  0  0  0
  145.8969  145.0964  161.9442 C   0  0  0  0  0  0  0  0  0  0  0  0
  146.2823  144.5807  159.5623 N   0  0  0  0  0  0  0  0  0  0  0  0
  146.5469  143.2648  159.5188 C   0  0  0  0  0  0  0  0  0  0  0  0
  146.0390  142.4241  160.2608 O   0  0  0  0  0  0  0  0  0  0  0  0
  147.4692  142.9762  158.5890 N   0  0  0  0  0  0  0  0  0  0  0  0
  148.0444  141.6525  158.3564 C   0  0  0  0  0  0  0  0  0  0  0  0
  149.2832  141.6986  157.4378 C   0  0  0  0  0  0  0  0  0  0  0  0
  150.4464  142.4899  158.0121 C   0  0  0  0  0  0  0  0  0  0  0  0
  151.2790  141.9719  159.0286 C   0  0  0  0  0  0  0  0  0  0  0  0
  152.3658  142.7435  159.4895 C   0  0  0  0  0  0  0  0  0  0  0  0
  152.5941  144.0174  158.9297 C   0  0  0  0  0  0  0  0  0  0  0  0
  151.7290  144.4877  157.9209 C   0  0  0  0  0  0  0  0  0  0  0  0
  150.6996  143.7179  157.5045 N   0  3  0  0  0  0  0  0  0  0  0  0
  143.9259  144.8429  160.3566 C   0  0  0  0  0  0  0  0  0  0  0  0
  143.3257  145.1684  158.9769 C   0  0  0  0  0  0  0  0  0  0  0  0
  143.3700  146.4910  156.4877 H   0  0  0  0  0  0  0  0  0  0  0  0
  142.8693  148.0713  157.0853 H   0  0  0  0  0  0  0  0  0  0  0  0
  141.7834  146.6946  157.2264 H   0  0  0  0  0  0  0  0  0  0  0  0
  142.8361  147.2093  159.4086 H   0  0  0  0  0  0  0  0  0  0  0  0
  145.4823  146.6956  157.9853 H   0  0  0  0  0  0  0  0  0  0  0  0
  144.9333  148.2258  158.6161 H   0  0  0  0  0  0  0  0  0  0  0  0
  146.5209  147.1471  160.1900 H   0  0  0  0  0  0  0  0  0  0  0  0
  144.9551  147.3836  160.9129 H   0  0  0  0  0  0  0  0  0  0  0  0
  145.3198  145.6993  162.6460 H   0  0  0  0  0  0  0  0  0  0  0  0
  146.9436  145.3844  162.0508 H   0  0  0  0  0  0  0  0  0  0  0  0
  145.8060  144.0599  162.2687 H   0  0  0  0  0  0  0  0  0  0  0  0
  146.7647  145.1611  158.8918 H   0  0  0  0  0  0  0  0  0  0  0  0
  147.8243  143.7320  158.0213 H   0  0  0  0  0  0  0  0  0  0  0  0
  148.2993  141.1777  159.3053 H   0  0  0  0  0  0  0  0  0  0  0  0
  147.2779  141.0243  157.9024 H   0  0  0  0  0  0  0  0  0  0  0  0
  149.6199  140.6825  157.2276 H   0  0  0  0  0  0  0  0  0  0  0  0
  149.0066  142.1292  156.4746 H   0  0  0  0  0  0  0  0  0  0  0  0
  151.0974  140.9899  159.4406 H   0  0  0  0  0  0  0  0  0  0  0  0
  153.0188  142.3611  160.2602 H   0  0  0  0  0  0  0  0  0  0  0  0
  153.4218  144.6236  159.2674 H   0  0  0  0  0  0  0  0  0  0  0  0
  151.8314  145.4469  157.4347 H   0  0  0  0  0  0  0  0  0  0  0  0
  143.8245  143.7766  160.5570 H   0  0  0  0  0  0  0  0  0  0  0  0
  143.3245  145.3386  161.1200 H   0  0  0  0  0  0  0  0  0  0  0  0
  142.2822  144.8527  158.9527 H   0  0  0  0  0  0  0  0  0  0  0  0
  143.8360  144.5910  158.2048 H   0  0  0  0  0  0  0  0  0  0  0  0
  150.0936  144.0741  156.7648 H   0  0  0  0  0  0  0  0  0  0  0  0
  1  2  1  0  0  0  0
  1 21  1  0  0  0  0
  1 22  1  0  0  0  0
  1 23  1  0  0  0  0
  2 20  1  0  0  0  0
  2  3  1  0  0  0  0
  2 24  1  0  0  0  0
  3  4  1  0  0  0  0
  3 25  1  0  0  0  0
  3 26  1  0  0  0  0
  4  5  1  0  0  0  0
  4 27  1  0  0  0  0
  4 28  1  0  0  0  0
  5  6  1  0  0  0  0
  5  7  1  0  0  0  0
  5 19  1  0  0  0  0
  6 29  1  0  0  0  0
  6 30  1  0  0  0  0
  6 31  1  0  0  0  0
  7  8  1  0  0  0  0
  7 32  1  0  0  0  0
  8  9  2  0  0  0  0
  8 10  1  0  0  0  0
 10 11  1  0  0  0  0
 10 33  1  0  0  0  0
 11 12  1  0  0  0  0
 11 34  1  0  0  0  0
 11 35  1  0  0  0  0
 12 13  1  0  0  0  0
 12 36  1  0  0  0  0
 12 37  1  0  0  0  0
 13 18  1  0  0  0  0
 13 14  2  0  0  0  0
 14 15  1  0  0  0  0
 14 38  1  0  0  0  0
 15 16  2  0  0  0  0
 15 39  1  0  0  0  0
 16 17  1  0  0  0  0
 16 40  1  0  0  0  0
 17 18  2  0  0  0  0
 17 41  1  0  0  0  0
 18 46  1  0  0  0  0
 19 20  1  0  0  0  0
 19 42  1  0  0  0  0
 19 43  1  0  0  0  0
 20 44  1  0  0  0  0
 20 45  1  0  0  0  0
M  CHG  1  18   1
M  END
> <s_m_source_file>
AV-unprocessed.smi

> <i_m_source_file_index>
1135

> <i_lp_mmshare_version>
43012

> <i_f3d_flags>
0

> <s_epik_input>
W0NIMl0xW0NIMl1bQ0BIXShbQ0gzXSlbQ0gyXVtDSDJdW0NAQF0xKFtDSDNdKVtOSF1DKD1PKVtOSF1bQ0gyXVtDSDJdYzJbY0hdW2NIXVtjSF1bY0hdbjI=

> <s_epik_cmdline>
J2VwaWtfcHl0aG9uJywgJy1waCcsICc3LjAnLCAnLXRuJywgJzgnLCAnLW1hJywgJzIwMCcsICctbWV0YWxfYmluZGluZycsICctaW1hZScsICc8aW5maWxlLm1hZT4nLCAnLW9tYWUnLCAnPG91dGZpbGUubWFlPic=

> <r_epik_Ionization_Penalty>
1.55217

> <r_epik_Ionization_Penalty_Charging>
1.55211

> <r_epik_Ionization_Penalty_Neutral>
5.91929e-05

> <r_epik_State_Penalty>
1.64641

> <r_epik_Charging_Adjusted_Penalty>
3.19851

> <i_epik_Tot_Q>
1

> <i_epik_Tot_abs_Q>
1

> <r_epik_Metal_State_Penalty>
1.68848

> <b_epik_Metal_Only>
0

> <s_lp_Force_Field>
OPLS_2005

> <r_lp_Energy>
12.4708

> <b_lp_Chiralities_Consistent>
1

> <s_lp_Variant>
AV-unprocessed.smi:1135-4

> <Gold.Version>
5.8.1

> <Gold.Id.Protein>
6NUR|6NUR_protein|mol2

> <Gold.PLP.Fitness>
48.6336

> <Gold.PLP.PLP>
-36.4586

> <Gold.PLP.part.hbond>
-4.5332

> <Gold.PLP.part.metal>
0.0000

> <Gold.PLP.part.buried>
-4.1567

> <Gold.PLP.part.nonpolar>
-28.5003

> <Gold.PLP.part.repulsive>
0.1081

> <Gold.PLP.ligand.clash>
0.0000

> <Gold.PLP.ligand.torsion>
0.2756

> <Gold.PLP.Chemscore.Hbond>
4.2301

> <Gold.PLP.Chemscore.CHOScore>
0.0000

> <Gold.PLP.Chemscore.Metal>
0.0000

> <Gold.Chemscore.Hbonds>
donor molecule, donor type, donor heavy atom, donor atom, acceptor molecule, acceptor atom, score
      L1  H     7    32       P1  8029  0.83
      L1  H    10    33       P1  8029  0.19
      L1  H    18    46       P1  8028  2.00
      P1  H  6934  6946       L1     9  1.00

> <Gold.PLP.Chemscore.Internal.Correction>
0.0358

> <Gold.Rescore>
     Score         DG    S(hbond)    S(metal)    S(lipo)     H(rot)  DE(clash)    DE(int)     intcor
     22.21     -22.67       2.91        0.00      96.90       1.51       0.03       0.43       ----

> <Gold.Chemscore.Fitness>
22.2092

> <Gold.Chemscore.DG>
-22.6680

> <Gold.Chemscore.ZeroCoef>
-5.4800

> <Gold.Chemscore.Hbond>
2.9081

> <Gold.Chemscore.Metal>
0.0000

> <Gold.Chemscore.Lipo>
96.8961

> <Gold.Chemscore.Internal_Hbond>
0.0000

> <Gold.Chemscore.DEClash>
0.0318

> <Gold.Chemscore.DEInternal>
0.4271

> <Gold.Chemscore.Rot>
1.5085

> <Gold.Chemscore.Internal.Correction>
   9.000000E+99

> <Gold.Chemscore.Hbonds>
donor molecule, donor type, donor heavy atom, donor atom, acceptor molecule, acceptor atom, score
      L1  H     7    32       P1  8029  0.82
      L1  H    10    33       P1  8029  0.02
      L1  H    18    46       P1  8028  0.98
      P1  H  6934  6946       L1     9  0.99

> <Gold.Chemscore.Hbond.Weighted>
-9.7129

> <Gold.Chemscore.Metal.Weighted>
-0.0000

> <Gold.Chemscore.Lipo.Weighted>
-11.3368

> <Gold.Chemscore.Internal_Hbond.Weighted>
0.0000

> <Gold.Chemscore.DEClash.Weighted>
0.0318

> <Gold.Chemscore.DEInternal.Weighted>
0.4271

> <Gold.Chemscore.Rot.Weighted>
3.8617

> <Gold.Chemscore.Internal.Correction.Weighted>
   9.000000E+99

> <Gold.Protein.RotatedTorsions>
[ 6907 6896 6895 6894 ] final  -93.96 input  -60.11 | X-H torsion
[ 7974 7965 7964 7962 ] final   35.94 input  175.53 | X-H torsion
[ 8008 7997 7996 7995 ] final  -77.23 input   59.86 | X-H torsion
[ 10167 10162 10161 10158 ] final -167.00 input  -65.29 | X-H torsion
[ 10718 10713 10712 10709 ] final   71.11 input   66.30 | X-H torsion
[ 10763 10752 10751 10750 ] final  -36.33 input  -60.55 | X-H torsion
[ 11005 11000 10999 10996 ] final  -18.94 input  -57.11 | X-H torsion

> <Gold.Protein.ActiveResidues>
 VAL166  LYS551  ARG553  GLY616  TRP617  ASP618  TYR619  PRO620  LYS621  CYS622 
 ASP623  PHE694  ASN695  SER759  ASP760  ASP761  ALA762  ILE779  LEU786  VAL792 
 PHE793  MET794  SER795  GLU796  ALA797  LYS798  CYS799  TRP800  GLU811  SER814 

> <Gold.Protein.RotatedAtoms>
  150.6932  134.1887  159.4276 H   0  0  0  0  0  0  0  0  0  0  0  0  # atno 6907 bound_to 6896
  151.9858  135.0002  160.0568 H   0  0  0  0  0  0  0  0  0  0  0  0  # atno 6908 bound_to 6896
  152.1713  133.4610  159.4947 H   0  0  0  0  0  0  0  0  0  0  0  0  # atno 6909 bound_to 6896
  146.1247  139.6080  142.9266 H   0  0  0  0  0  0  0  0  0  0  0  0  # atno 7974 bound_to 7965
  154.5577  140.0714  156.8769 H   0  0  0  0  0  0  0  0  0  0  0  0  # atno 8008 bound_to 7997
  155.2871  140.3375  155.4236 H   0  0  0  0  0  0  0  0  0  0  0  0  # atno 8009 bound_to 7997
  156.2016  140.1724  156.7873 H   0  0  0  0  0  0  0  0  0  0  0  0  # atno 8010 bound_to 7997
  139.6078  144.0877  152.1811 H   0  0  0  0  0  0  0  0  0  0  0  0  # atno 10167 bound_to 10162
  157.6435  130.9512  150.0744 H   0  0  0  0  0  0  0  0  0  0  0  0  # atno 10718 bound_to 10713
  153.8780  135.6824  153.4769 H   0  0  0  0  0  0  0  0  0  0  0  0  # atno 10763 bound_to 10752
  153.1250  135.4723  154.9255 H   0  0  0  0  0  0  0  0  0  0  0  0  # atno 10764 bound_to 10752
  154.7682  135.3230  154.8194 H   0  0  0  0  0  0  0  0  0  0  0  0  # atno 10765 bound_to 10752
  140.8318  133.7991  155.9766 H   0  0  0  0  0  0  0  0  0  0  0  0  # atno 11005 bound_to 11000
  145.5390  141.0422  143.2341 LP  0  0  0  0  0  0  0  0  0  0  0  0  # atno 17320 bound_to 7965
  144.7631  139.6909  143.7226 LP  0  0  0  0  0  0  0  0  0  0  0  0  # atno 17321 bound_to 7965
  140.0488  144.5949  150.7352 LP  0  0  0  0  0  0  0  0  0  0  0  0  # atno 17342 bound_to 10162
  140.7297  143.2676  151.3995 LP  0  0  0  0  0  0  0  0  0  0  0  0  # atno 17343 bound_to 10162
  156.1739  130.3647  149.9128 LP  0  0  0  0  0  0  0  0  0  0  0  0  # atno 17370 bound_to 10713
  156.7097  130.8965  151.3608 LP  0  0  0  0  0  0  0  0  0  0  0  0  # atno 17371 bound_to 10713
  140.8990  134.2402  157.5052 LP  0  0  0  0  0  0  0  0  0  0  0  0  # atno 17394 bound_to 11000
  139.8705  134.9697  156.4677 LP  0  0  0  0  0  0  0  0  0  0  0  0  # atno 17395 bound_to 11000

$$$$
