AV-unprocessed.smi:1482|AV-procd|sdf|5988|dock10
  -GOLD-   22720 6 83D 1   1.00000     0.00000
 Structure written by MMmdl.
 36 37  0  0  0  0  0  0  0  0  1 V2000
  146.2920  143.8568  161.3938 C   0  0  0  0  0  0  0  0  0  0  0  0
  146.8234  142.9408  160.4523 O   0  0  0  0  0  0  0  0  0  0  0  0
  146.3919  143.2119  159.1294 C   0  0  0  0  0  0  0  0  0  0  0  0
  146.3373  141.9004  158.3414 C   0  0  0  0  0  0  0  0  0  0  0  0
  147.6166  141.6689  157.7608 O   0  0  0  0  0  0  0  0  0  0  0  0
  147.7101  141.5279  156.3903 C   0  0  0  0  0  0  0  0  0  0  0  0
  146.5620  141.4239  155.6739 N   0  0  0  0  0  0  0  0  0  0  0  0
  146.6473  141.2975  154.3333 C   0  0  0  0  0  0  0  0  0  0  0  0
  147.8705  141.2668  153.6379 C   0  0  0  0  0  0  0  0  0  0  0  0
  149.0614  141.3726  154.3793 C   0  0  0  0  0  0  0  0  0  0  0  0
  148.9886  141.5041  155.7822 C   0  0  0  0  0  0  0  0  0  0  0  0
  150.2665  141.6252  156.6010 C   0  0  0  0  0  0  0  0  0  0  0  0
  150.5000  142.9778  157.0936 N   0  0  0  0  0  0  0  0  0  0  0  0
  151.3725  143.3025  158.0598 C   0  0  0  0  0  0  0  0  0  0  0  0
  152.0791  142.4713  158.6325 O   0  0  0  0  0  0  0  0  0  0  0  0
  151.4086  144.7615  158.3780 C   0  0  0  0  0  0  0  0  0  0  0  0
  152.2332  145.2000  159.5714 C   0  0  0  0  0  0  0  0  0  0  0  0
  150.7275  145.2213  159.6512 C   0  0  0  0  0  0  0  0  0  0  0  0
  146.6505  143.6057  162.3919 H   0  0  0  0  0  0  0  0  0  0  0  0
  145.2019  143.8201  161.4086 H   0  0  0  0  0  0  0  0  0  0  0  0
  146.6049  144.8774  161.1707 H   0  0  0  0  0  0  0  0  0  0  0  0
  145.4058  143.6791  159.1437 H   0  0  0  0  0  0  0  0  0  0  0  0
  147.0801  143.9073  158.6466 H   0  0  0  0  0  0  0  0  0  0  0  0
  146.0716  141.0797  159.0098 H   0  0  0  0  0  0  0  0  0  0  0  0
  145.5721  141.9697  157.5666 H   0  0  0  0  0  0  0  0  0  0  0  0
  145.7121  141.2194  153.7989 H   0  0  0  0  0  0  0  0  0  0  0  0
  147.8939  141.1658  152.5631 H   0  0  0  0  0  0  0  0  0  0  0  0
  150.0176  141.3536  153.8773 H   0  0  0  0  0  0  0  0  0  0  0  0
  150.2806  140.9225  157.4347 H   0  0  0  0  0  0  0  0  0  0  0  0
  151.1064  141.3494  155.9631 H   0  0  0  0  0  0  0  0  0  0  0  0
  149.9599  143.7192  156.6716 H   0  0  0  0  0  0  0  0  0  0  0  0
  151.3711  145.4453  157.5311 H   0  0  0  0  0  0  0  0  0  0  0  0
  152.7538  144.4406  160.1524 H   0  0  0  0  0  0  0  0  0  0  0  0
  152.7544  146.1513  159.4882 H   0  0  0  0  0  0  0  0  0  0  0  0
  150.2275  146.1871  159.6216 H   0  0  0  0  0  0  0  0  0  0  0  0
  150.2503  144.4764  160.2856 H   0  0  0  0  0  0  0  0  0  0  0  0
  1  2  1  0  0  0  0
  1 19  1  0  0  0  0
  1 20  1  0  0  0  0
  1 21  1  0  0  0  0
  2  3  1  0  0  0  0
  3  4  1  0  0  0  0
  3 22  1  0  0  0  0
  3 23  1  0  0  0  0
  4  5  1  0  0  0  0
  4 24  1  0  0  0  0
  4 25  1  0  0  0  0
  5  6  1  0  0  0  0
  6 11  1  0  0  0  0
  6  7  2  0  0  0  0
  7  8  1  0  0  0  0
  8  9  2  0  0  0  0
  8 26  1  0  0  0  0
  9 10  1  0  0  0  0
  9 27  1  0  0  0  0
 10 11  2  0  0  0  0
 10 28  1  0  0  0  0
 11 12  1  0  0  0  0
 12 13  1  0  0  0  0
 12 29  1  0  0  0  0
 12 30  1  0  0  0  0
 13 14  1  0  0  0  0
 13 31  1  0  0  0  0
 14 15  2  0  0  0  0
 14 16  1  0  0  0  0
 16 18  1  0  0  0  0
 16 17  1  0  0  0  0
 16 32  1  0  0  0  0
 17 18  1  0  0  0  0
 17 33  1  0  0  0  0
 17 34  1  0  0  0  0
 18 35  1  0  0  0  0
 18 36  1  0  0  0  0
M  END
> <s_m_source_file>
AV-unprocessed.smi

> <i_m_source_file_index>
1482

> <i_lp_mmshare_version>
43012

> <i_f3d_flags>
0

> <s_epik_input>
W0NIM11PW0NIMl1bQ0gyXU9jMW5bY0hdW2NIXVtjSF1jMVtDSDJdW05IXUMoPU8pW0NIXTJbQ0gyXVtDSDJdMg==

> <s_epik_cmdline>
J2VwaWtfcHl0aG9uJywgJy1waCcsICc3LjAnLCAnLXRuJywgJzgnLCAnLW1hJywgJzIwMCcsICctbWV0YWxfYmluZGluZycsICctaW1hZScsICc8aW5maWxlLm1hZT4nLCAnLW9tYWUnLCAnPG91dGZpbGUubWFlPic=

> <r_lp_tautomer_probability>
1

> <r_epik_Ionization_Penalty>
6.12052e-05

> <r_epik_Ionization_Penalty_Charging>
0

> <r_epik_Ionization_Penalty_Neutral>
6.12052e-05

> <r_epik_State_Penalty>
-0

> <r_epik_Charging_Adjusted_Penalty>
0

> <i_epik_Tot_Q>
0

> <i_epik_Tot_abs_Q>
0

> <r_epik_Metal_State_Penalty>
-0

> <b_epik_Metal_Only>
0

> <s_lp_Force_Field>
OPLS_2005

> <r_lp_Energy>
6.94905

> <b_lp_Chiralities_Consistent>
1

> <s_lp_Variant>
AV-unprocessed.smi:1482-1

> <Gold.Version>
5.8.1

> <Gold.Id.Protein>
6NUR|6NUR_protein|mol2

> <Gold.PLP.Fitness>
45.1016

> <Gold.PLP.PLP>
-36.1356

> <Gold.PLP.part.hbond>
-3.0000

> <Gold.PLP.part.metal>
0.0000

> <Gold.PLP.part.buried>
-5.7914

> <Gold.PLP.part.nonpolar>
-28.0198

> <Gold.PLP.part.repulsive>
0.2047

> <Gold.PLP.ligand.clash>
0.0000

> <Gold.PLP.ligand.torsion>
1.3356

> <Gold.PLP.Chemscore.Hbond>
2.8328

> <Gold.PLP.Chemscore.CHOScore>
1.0000

> <Gold.PLP.Chemscore.Metal>
0.0000

> <Gold.Chemscore.Hbonds>
donor molecule, donor type, donor heavy atom, donor atom, acceptor molecule, acceptor atom, score
      L1  H    13    31       P1  8028  1.00
      P1  H  6933  6944       L1     2  0.94
      P1  H  6934  6946       L1     2  0.77
      L1  C     8    26       P1 10175  1.00

> <Gold.PLP.Chemscore.Internal.Correction>
0.1389

> <Gold.Rescore>
     Score         DG    S(hbond)    S(metal)    S(lipo)     H(rot)  DE(clash)    DE(int)     intcor
     14.90     -16.31       2.16        0.00      79.32       2.21       0.19       1.23       ----

> <Gold.Chemscore.Fitness>
14.8984

> <Gold.Chemscore.DG>
-16.3125

> <Gold.Chemscore.ZeroCoef>
-5.4800

> <Gold.Chemscore.Hbond>
2.1611

> <Gold.Chemscore.Metal>
0.0000

> <Gold.Chemscore.Lipo>
79.3225

> <Gold.Chemscore.Internal_Hbond>
0.0000

> <Gold.Chemscore.DEClash>
0.1890

> <Gold.Chemscore.DEInternal>
1.2251

> <Gold.Chemscore.Rot>
2.2134

> <Gold.Chemscore.Internal.Correction>
   9.000000E+99

> <Gold.Chemscore.Hbonds>
donor molecule, donor type, donor heavy atom, donor atom, acceptor molecule, acceptor atom, score
      L1  H    13    31       P1  8028  1.00
      P1  H  6933  6944       L1     2  0.22
      P1  H  6934  6946       L1     2  0.52

> <Gold.Chemscore.Hbond.Weighted>
-7.2180

> <Gold.Chemscore.Metal.Weighted>
-0.0000

> <Gold.Chemscore.Lipo.Weighted>
-9.2807

> <Gold.Chemscore.Internal_Hbond.Weighted>
0.0000

> <Gold.Chemscore.DEClash.Weighted>
0.1890

> <Gold.Chemscore.DEInternal.Weighted>
1.2251

> <Gold.Chemscore.Rot.Weighted>
5.6663

> <Gold.Chemscore.Internal.Correction.Weighted>
   9.000000E+99

> <Gold.Protein.RotatedTorsions>
[ 6907 6896 6895 6894 ] final  102.16 input  -60.11 | X-H torsion
[ 7974 7965 7964 7962 ] final  -51.65 input  175.53 | X-H torsion
[ 8008 7997 7996 7995 ] final  178.83 input   59.86 | X-H torsion
[ 10167 10162 10161 10158 ] final -109.45 input  -65.29 | X-H torsion
[ 10718 10713 10712 10709 ] final  -39.56 input   66.30 | X-H torsion
[ 10763 10752 10751 10750 ] final   60.14 input  -60.55 | X-H torsion
[ 11005 11000 10999 10996 ] final -158.09 input  -57.11 | X-H torsion

> <Gold.Protein.ActiveResidues>
 VAL166  LYS551  ARG553  GLY616  TRP617  ASP618  TYR619  PRO620  LYS621  CYS622 
 ASP623  PHE694  ASN695  SER759  ASP760  ASP761  ALA762  ILE779  LEU786  VAL792 
 PHE793  MET794  SER795  GLU796  ALA797  LYS798  CYS799  TRP800  GLU811  SER814 

> <Gold.Protein.RotatedAtoms>
  152.5331  134.0017  159.7897 H   0  0  0  0  0  0  0  0  0  0  0  0  # atno 6907 bound_to 6896
  151.0234  133.5848  159.2676 H   0  0  0  0  0  0  0  0  0  0  0  0  # atno 6908 bound_to 6896
  151.2879  135.0740  159.9247 H   0  0  0  0  0  0  0  0  0  0  0  0  # atno 6909 bound_to 6896
  145.9166  140.7869  142.9668 H   0  0  0  0  0  0  0  0  0  0  0  0  # atno 7974 bound_to 7965
  156.0502  140.1323  157.0059 H   0  0  0  0  0  0  0  0  0  0  0  0  # atno 8008 bound_to 7997
  154.4431  140.1012  156.6436 H   0  0  0  0  0  0  0  0  0  0  0  0  # atno 8009 bound_to 7997
  155.5535  140.3463  155.4476 H   0  0  0  0  0  0  0  0  0  0  0  0  # atno 8010 bound_to 7997
  140.1552  143.4166  152.1466 H   0  0  0  0  0  0  0  0  0  0  0  0  # atno 10167 bound_to 10162
  156.2911  130.4228  149.8238 H   0  0  0  0  0  0  0  0  0  0  0  0  # atno 10718 bound_to 10713
  152.9913  135.5546  154.5827 H   0  0  0  0  0  0  0  0  0  0  0  0  # atno 10763 bound_to 10752
  154.5205  135.2807  155.1269 H   0  0  0  0  0  0  0  0  0  0  0  0  # atno 10764 bound_to 10752
  154.2624  135.6378  153.5332 H   0  0  0  0  0  0  0  0  0  0  0  0  # atno 10765 bound_to 10752
  140.6575  134.4385  157.5235 H   0  0  0  0  0  0  0  0  0  0  0  0  # atno 11005 bound_to 11000
  144.6748  140.1910  143.7396 LP  0  0  0  0  0  0  0  0  0  0  0  0  # atno 17320 bound_to 7965
  145.8603  139.2219  143.1720 LP  0  0  0  0  0  0  0  0  0  0  0  0  # atno 17321 bound_to 7965
  139.5407  144.7253  151.4743 LP  0  0  0  0  0  0  0  0  0  0  0  0  # atno 17342 bound_to 10162
  140.6678  143.8360  150.6962 LP  0  0  0  0  0  0  0  0  0  0  0  0  # atno 17343 bound_to 10162
  156.5650  130.8400  151.3340 LP  0  0  0  0  0  0  0  0  0  0  0  0  # atno 17370 bound_to 10713
  157.7342  130.9743  150.2019 LP  0  0  0  0  0  0  0  0  0  0  0  0  # atno 17371 bound_to 10713
  139.9024  134.8525  156.1840 LP  0  0  0  0  0  0  0  0  0  0  0  0  # atno 17394 bound_to 11000
  141.0490  133.6898  156.1737 LP  0  0  0  0  0  0  0  0  0  0  0  0  # atno 17395 bound_to 11000

$$$$
