#       Name:                AV-unprocessed.smi:2673
#       Creating user name   scv26
#       Creation time:       Fri Mar 27 14:38:19 2020


#       File generated by GOLD software.
#

@<TRIPOS>MOLECULE
AV-unprocessed.smi:2673
    36    37     1
SMALL
NO_CHARGES


@<TRIPOS>ATOM
      1 ****        -0.3135   2.0556  -0.2088 O.2            1 S1                 0.0000
      2 ****        -0.8461   0.9547  -0.3644 C.2            1 S1                 0.0000
      3 ****        -2.1979   0.6511  -0.4074 N.2            1 S1                 0.0000
      4 ****        -3.0847   1.5948  -0.4855 C.2            1 S1                 0.0000
      5 ****        -4.4412   1.3057  -0.5208 N.pl3          1 S1                 0.0000
      6 ****        -5.3230   2.2931  -0.6057 N.2            1 S1                 0.0000
      7 ****        -4.7366   3.4301  -0.6454 C.2            1 S1                 0.0000
      8 ****        -2.9700   3.4078  -0.5804 S.3            1 S1                 0.0000
      9 ****        -0.1316  -0.1714  -0.5302 N.am           1 S1                 0.0000
     10 ****         1.3279  -0.3713  -0.5759 C.3            1 S1                 0.0000
     11 ****         1.9010   0.2114  -1.9003 C.3            1 S1                 0.0000
     12 ****         3.1958  -0.0849  -2.0198 F              1 S1                 0.0000
     13 ****         1.2584  -0.3041  -2.9498 F              1 S1                 0.0000
     14 ****         1.7856   1.5382  -1.9500 F              1 S1                 0.0000
     15 ****         2.0472   0.2433   0.6601 C.3            1 S1                 0.0000
     16 ****         1.5960  -0.3828   1.9924 C.3            1 S1                 0.0000
     17 ****         1.8136  -1.9025   1.9878 C.3            1 S1                 0.0000
     18 ****         1.1221  -2.5581   0.7837 C.3            1 S1                 0.0000
     19 ****         1.5630  -1.9059  -0.5420 C.3            1 S1                 0.0000
     20 ****        -5.2248   4.4020  -0.7155 H              1 S1                 0.0000
     21 ****        -0.6733  -1.0145  -0.6523 H              1 S1                 0.0000
     22 ****         3.1223   0.0911   0.5582 H              1 S1                 0.0000
     23 ****         1.9184   1.3239   0.7003 H              1 S1                 0.0000
     24 ****         2.1494   0.0660   2.8177 H              1 S1                 0.0000
     25 ****         0.5440  -0.1604   2.1739 H              1 S1                 0.0000
     26 ****         2.8825  -2.1171   1.9547 H              1 S1                 0.0000
     27 ****         1.4400  -2.3364   2.9157 H              1 S1                 0.0000
     28 ****         1.3513  -3.6239   0.7642 H              1 S1                 0.0000
     29 ****         0.0401  -2.4821   0.8972 H              1 S1                 0.0000
     30 ****         1.0419  -2.3866  -1.3710 H              1 S1                 0.0000
     31 ****         2.6216  -2.1204  -0.6919 H              1 S1                 0.0000
     32 ****        -4.7794   0.3546  -0.4879 H              1 S1                 0.0000
     33 ****        -0.8785   2.8725  -0.0934 LP             1 S1                 0.0000
     34 ****         0.6835   2.1316  -0.1980 LP             1 S1                 0.0000
     35 ****        -2.4923  -0.3042  -0.3780 LP             1 S1                 0.0000
     36 ****        -6.3145   2.1659  -0.6349 LP             1 S1                 0.0000
@<TRIPOS>BOND
    1    1    2 2     
    2    2    3 1     
    3    2    9 am    
    4    3    4 2     
    5    4    8 1     
    6    4    5 1     
    7    5    6 1     
    8    5   32 1     
    9    6    7 2     
   10    7    8 1     
   11    7   20 1     
   12    9   10 1     
   13    9   21 1     
   14   10   19 1     
   15   10   11 1     
   16   10   15 1     
   17   11   12 1     
   18   11   13 1     
   19   11   14 1     
   20   15   16 1     
   21   15   22 1     
   22   15   23 1     
   23   16   17 1     
   24   16   24 1     
   25   16   25 1     
   26   17   18 1     
   27   17   26 1     
   28   17   27 1     
   29   18   19 1     
   30   18   28 1     
   31   18   29 1     
   32   19   30 1     
   33   19   31 1     
   34    1   33 1     
   35    1   34 1     
   36    3   35 1     
   37    6   36 1     
@<TRIPOS>SUBSTRUCTURE
      1 S1             1
@<TRIPOS>SET
LONE_PAIRS      STATIC     ATOMS    <user>   **** ""
4 33 34 35 36
DONOR_HYDROGENS      STATIC     ATOMS    <user>   **** ""
2 32 21
ATOM$BLUE        STATIC     ATOMS    COLORGROUP SYSTEM
4 33 34 35 36
ATOM$RED        STATIC     ATOMS    COLORGROUP SYSTEM
2 32 21
