AV-unprocessed.smi:764|AV-procd|sdf|3642|dock5
  -GOLD-   22720 1 43D 1   1.00000     0.00000
 Structure written by MMmdl.
 37 37  0  0  0  0  0  0  0  0  2 V2000
  151.4937  138.3915  154.4621 C   0  0  0  0  0  0  0  0  0  0  0  0
  150.1609  138.8430  155.0751 C   0  0  0  0  0  0  0  0  0  0  0  0
  148.9946  138.6800  154.0913 C   0  0  0  0  0  0  0  0  0  0  0  0
  150.2585  140.2409  155.4881 N   0  0  0  0  0  0  0  0  0  0  0  0
  151.2338  140.7773  156.2387 C   0  0  0  0  0  0  0  0  0  0  0  0
  152.1868  140.1343  156.6786 O   0  0  0  0  0  0  0  0  0  0  0  0
  151.1139  142.2760  156.5304 C   0  0  0  0  0  0  0  0  0  0  0  0
  150.7248  142.5708  157.9891 C   0  0  0  0  0  0  0  0  0  0  0  0
  150.1071  143.9059  158.1084 N   0  3  0  0  0  0  0  0  0  0  0  0
  151.0624  144.9880  158.4144 C   0  0  0  0  0  0  0  0  0  0  0  0
  151.4832  144.9458  159.8901 C   0  0  0  0  0  0  0  0  0  0  0  0
  152.1813  143.7176  160.2148 N   0  0  0  0  0  0  0  0  0  0  0  0
  153.2313  143.1237  159.5466 C   0  0  0  0  0  0  0  0  0  0  0  0
  153.5490  141.9817  160.2244 C   0  0  0  0  0  0  0  0  0  0  0  0
  152.6257  141.9627  161.3071 C   0  0  0  0  0  0  0  0  0  0  0  0
  151.8095  143.0046  161.2994 N   0  0  0  0  0  0  0  0  0  0  0  0
  151.4470  137.3484  154.1480 H   0  0  0  0  0  0  0  0  0  0  0  0
  152.3081  138.4819  155.1818 H   0  0  0  0  0  0  0  0  0  0  0  0
  151.7530  138.9902  153.5881 H   0  0  0  0  0  0  0  0  0  0  0  0
  149.9556  138.2068  155.9376 H   0  0  0  0  0  0  0  0  0  0  0  0
  148.8919  137.6418  153.7747 H   0  0  0  0  0  0  0  0  0  0  0  0
  149.1391  139.2873  153.1971 H   0  0  0  0  0  0  0  0  0  0  0  0
  148.0507  138.9786  154.5485 H   0  0  0  0  0  0  0  0  0  0  0  0
  149.5213  140.8528  155.1689 H   0  0  0  0  0  0  0  0  0  0  0  0
  152.0674  142.7500  156.2947 H   0  0  0  0  0  0  0  0  0  0  0  0
  150.3719  142.7120  155.8594 H   0  0  0  0  0  0  0  0  0  0  0  0
  150.0202  141.8199  158.3504 H   0  0  0  0  0  0  0  0  0  0  0  0
  151.6041  142.5270  158.6338 H   0  0  0  0  0  0  0  0  0  0  0  0
  149.6448  144.1244  157.2372 H   0  0  0  0  0  0  0  0  0  0  0  0
  151.9393  144.8865  157.7734 H   0  0  0  0  0  0  0  0  0  0  0  0
  150.6005  145.9483  158.1811 H   0  0  0  0  0  0  0  0  0  0  0  0
  152.1348  145.7883  160.1269 H   0  0  0  0  0  0  0  0  0  0  0  0
  150.6095  145.0291  160.5381 H   0  0  0  0  0  0  0  0  0  0  0  0
  153.6599  143.5565  158.6546 H   0  0  0  0  0  0  0  0  0  0  0  0
  154.3221  141.2673  159.9829 H   0  0  0  0  0  0  0  0  0  0  0  0
  152.5246  141.2282  162.0924 H   0  0  0  0  0  0  0  0  0  0  0  0
  149.4151  143.8729  158.8433 H   0  0  0  0  0  0  0  0  0  0  0  0
  1  2  1  0  0  0  0
  1 17  1  0  0  0  0
  1 18  1  0  0  0  0
  1 19  1  0  0  0  0
  2  3  1  0  0  0  0
  2  4  1  0  0  0  0
  2 20  1  0  0  0  0
  3 21  1  0  0  0  0
  3 22  1  0  0  0  0
  3 23  1  0  0  0  0
  4  5  1  0  0  0  0
  4 24  1  0  0  0  0
  5  6  2  0  0  0  0
  5  7  1  0  0  0  0
  7  8  1  0  0  0  0
  7 25  1  0  0  0  0
  7 26  1  0  0  0  0
  8  9  1  0  0  0  0
  8 27  1  0  0  0  0
  8 28  1  0  0  0  0
  9 10  1  0  0  0  0
  9 29  1  0  0  0  0
  9 37  1  0  0  0  0
 10 11  1  0  0  0  0
 10 30  1  0  0  0  0
 10 31  1  0  0  0  0
 11 12  1  0  0  0  0
 11 32  1  0  0  0  0
 11 33  1  0  0  0  0
 12 16  1  0  0  0  0
 12 13  1  0  0  0  0
 13 14  2  0  0  0  0
 13 34  1  0  0  0  0
 14 15  1  0  0  0  0
 14 35  1  0  0  0  0
 15 16  2  0  0  0  0
 15 36  1  0  0  0  0
M  CHG  1   9   1
M  END
> <s_m_source_file>
AV-unprocessed.smi

> <i_m_source_file_index>
764

> <i_lp_mmshare_version>
43012

> <i_f3d_flags>
0

> <s_epik_input>
W0NIM11bQ0hdKFtDSDNdKVtOSF1DKD1PKVtDSDJdW0NIMl1bTkhdW0NIMl1bQ0gyXW4xW2NIXVtjSF1bY0hdbjE=

> <s_epik_cmdline>
J2VwaWtfcHl0aG9uJywgJy1waCcsICc3LjAnLCAnLXRuJywgJzgnLCAnLW1hJywgJzIwMCcsICctbWV0YWxfYmluZGluZycsICctaW1hZScsICc8aW5maWxlLm1hZT4nLCAnLW9tYWUnLCAnPG91dGZpbGUubWFlPic=

> <r_lp_tautomer_probability>
1

> <r_epik_Ionization_Penalty>
0.00578048

> <r_epik_Ionization_Penalty_Charging>
0.00577767

> <r_epik_Ionization_Penalty_Neutral>
2.80872e-06

> <r_epik_State_Penalty>
-0

> <r_epik_Charging_Adjusted_Penalty>
0.00577767

> <i_epik_Tot_Q>
1

> <i_epik_Tot_abs_Q>
1

> <r_epik_Metal_State_Penalty>
-0

> <b_epik_Metal_Only>
0

> <s_lp_Force_Field>
OPLS_2005

> <r_lp_Energy>
3.7627

> <b_lp_Chiralities_Consistent>
1

> <s_lp_Variant>
AV-unprocessed.smi:764-1

> <Gold.Version>
5.8.1

> <Gold.Id.Protein>
6NUR|6NUR_protein|mol2

> <Gold.PLP.Fitness>
48.0719

> <Gold.PLP.PLP>
-40.3788

> <Gold.PLP.part.hbond>
-3.0732

> <Gold.PLP.part.metal>
0.0000

> <Gold.PLP.part.buried>
-5.3378

> <Gold.PLP.part.nonpolar>
-31.4395

> <Gold.PLP.part.repulsive>
0.2525

> <Gold.PLP.ligand.clash>
0.0000

> <Gold.PLP.ligand.torsion>
0.7024

> <Gold.PLP.Chemscore.Hbond>
2.9750

> <Gold.PLP.Chemscore.CHOScore>
0.0000

> <Gold.PLP.Chemscore.Metal>
0.0000

> <Gold.Chemscore.Hbonds>
donor molecule, donor type, donor heavy atom, donor atom, acceptor molecule, acceptor atom, score
      L1  H     9    29       P1  8028  2.00
      P1  H  6933  6945       L1    16  0.07
      P1  H  7997  8009       L1     6  0.68

> <Gold.PLP.Chemscore.Internal.Correction>
0.1729

> <Gold.Rescore>
     Score         DG    S(hbond)    S(metal)    S(lipo)     H(rot)  DE(clash)    DE(int)     intcor
     13.52     -16.60       1.81        0.00      95.19       2.37       0.35       2.73       ----

> <Gold.Chemscore.Fitness>
13.5191

> <Gold.Chemscore.DG>
-16.5972

> <Gold.Chemscore.ZeroCoef>
-5.4800

> <Gold.Chemscore.Hbond>
1.8135

> <Gold.Chemscore.Metal>
0.0000

> <Gold.Chemscore.Lipo>
95.1870

> <Gold.Chemscore.Internal_Hbond>
0.0000

> <Gold.Chemscore.DEClash>
0.3453

> <Gold.Chemscore.DEInternal>
2.7327

> <Gold.Chemscore.Rot>
2.3738

> <Gold.Chemscore.Internal.Correction>
   9.000000E+99

> <Gold.Chemscore.Hbonds>
donor molecule, donor type, donor heavy atom, donor atom, acceptor molecule, acceptor atom, score
      L1  H     9    29       P1  8028  0.45
      P1  H  6933  6945       L1    16  0.01
      P1  H  7997  8009       L1     6  0.66

> <Gold.Chemscore.Hbond.Weighted>
-6.0572

> <Gold.Chemscore.Metal.Weighted>
-0.0000

> <Gold.Chemscore.Lipo.Weighted>
-11.1369

> <Gold.Chemscore.Internal_Hbond.Weighted>
0.0000

> <Gold.Chemscore.DEClash.Weighted>
0.3453

> <Gold.Chemscore.DEInternal.Weighted>
2.7327

> <Gold.Chemscore.Rot.Weighted>
6.0769

> <Gold.Chemscore.Internal.Correction.Weighted>
   9.000000E+99

> <Gold.Protein.RotatedTorsions>
[ 6907 6896 6895 6894 ] final    1.38 input  -60.11 | X-H torsion
[ 7974 7965 7964 7962 ] final  -41.10 input  175.53 | X-H torsion
[ 8008 7997 7996 7995 ] final -166.06 input   59.86 | X-H torsion
[ 10167 10162 10161 10158 ] final   17.78 input  -65.29 | X-H torsion
[ 10718 10713 10712 10709 ] final  -40.10 input   66.30 | X-H torsion
[ 10763 10752 10751 10750 ] final   83.67 input  -60.55 | X-H torsion
[ 11005 11000 10999 10996 ] final   13.62 input  -57.11 | X-H torsion

> <Gold.Protein.ActiveResidues>
 VAL166  LYS551  ARG553  GLY616  TRP617  ASP618  TYR619  PRO620  LYS621  CYS622 
 ASP623  PHE694  ASN695  SER759  ASP760  ASP761  ALA762  ILE779  LEU786  VAL792 
 PHE793  MET794  SER795  GLU796  ALA797  LYS798  CYS799  TRP800  GLU811  SER814 

> <Gold.Protein.RotatedAtoms>
  151.5917  135.1053  160.0040 H   0  0  0  0  0  0  0  0  0  0  0  0  # atno 6907 bound_to 6896
  152.4303  133.7261  159.6572 H   0  0  0  0  0  0  0  0  0  0  0  0  # atno 6908 bound_to 6896
  150.8195  133.8207  159.3168 H   0  0  0  0  0  0  0  0  0  0  0  0  # atno 6909 bound_to 6896
  146.0242  140.6812  142.9163 H   0  0  0  0  0  0  0  0  0  0  0  0  # atno 7974 bound_to 7965
  155.8586  140.0974  157.1628 H   0  0  0  0  0  0  0  0  0  0  0  0  # atno 8008 bound_to 7997
  154.3989  140.1369  156.3995 H   0  0  0  0  0  0  0  0  0  0  0  0  # atno 8009 bound_to 7997
  155.7882  140.3456  155.5337 H   0  0  0  0  0  0  0  0  0  0  0  0  # atno 8010 bound_to 7997
  140.5701  143.9178  150.6706 H   0  0  0  0  0  0  0  0  0  0  0  0  # atno 10167 bound_to 10162
  156.2851  130.4221  149.8297 H   0  0  0  0  0  0  0  0  0  0  0  0  # atno 10718 bound_to 10713
  153.1312  135.4682  154.9352 H   0  0  0  0  0  0  0  0  0  0  0  0  # atno 10763 bound_to 10752
  154.7666  135.3146  154.8277 H   0  0  0  0  0  0  0  0  0  0  0  0  # atno 10764 bound_to 10752
  153.8819  135.6893  153.4820 H   0  0  0  0  0  0  0  0  0  0  0  0  # atno 10765 bound_to 10752
  140.4786  134.0958  155.7746 H   0  0  0  0  0  0  0  0  0  0  0  0  # atno 11005 bound_to 11000
  144.7002  140.3620  143.7162 LP  0  0  0  0  0  0  0  0  0  0  0  0  # atno 17320 bound_to 7965
  145.7144  139.1693  143.2520 LP  0  0  0  0  0  0  0  0  0  0  0  0  # atno 17321 bound_to 7965
  140.2651  143.3496  152.1288 LP  0  0  0  0  0  0  0  0  0  0  0  0  # atno 17342 bound_to 10162
  139.5113  144.6898  151.5790 LP  0  0  0  0  0  0  0  0  0  0  0  0  # atno 17343 bound_to 10162
  156.5730  130.8433  151.3362 LP  0  0  0  0  0  0  0  0  0  0  0  0  # atno 17370 bound_to 10713
  157.7326  130.9717  150.1936 LP  0  0  0  0  0  0  0  0  0  0  0  0  # atno 17371 bound_to 10713
  141.1542  133.8913  157.2020 LP  0  0  0  0  0  0  0  0  0  0  0  0  # atno 17394 bound_to 11000
  139.9840  135.0088  156.9818 LP  0  0  0  0  0  0  0  0  0  0  0  0  # atno 17395 bound_to 11000

$$$$
