#       Name:                AV-unprocessed.smi:1236
#       Creating user name   scv26
#       Creation time:       Fri Mar 27 04:26:13 2020


#       File generated by GOLD software.
#

@<TRIPOS>MOLECULE
AV-unprocessed.smi:1236
    45    46     1
SMALL
NO_CHARGES


@<TRIPOS>ATOM
      1 ****        -0.4858   3.8314   0.8059 C.3            1 S1                 0.0000
      2 ****        -0.1442   2.3379   0.8962 C.3            1 S1                 0.0000
      3 ****         1.3862   2.1131   0.9031 C.3            1 S1                 0.0000
      4 ****         1.7651   0.6828   1.0281 N.4            1 S1                 1.0000
      5 ****         3.0946   0.3782   0.4507 C.3            1 S1                 0.0000
      6 ****         3.3779  -1.1314   0.5390 C.3            1 S1                 0.0000
      7 ****         3.2870  -1.5586   1.8929 O.3            1 S1                 0.0000
      8 ****         1.9900  -1.3409   2.4354 C.3            1 S1                 0.0000
      9 ****         1.6715   0.1629   2.4137 C.3            1 S1                 0.0000
     10 ****        -0.7849   1.6352  -0.2172 N.am           1 S1                 0.0000
     11 ****        -1.2652   0.3825  -0.1866 C.2            1 S1                 0.0000
     12 ****        -1.1973  -0.3443   0.8050 O.2            1 S1                 0.0000
     13 ****        -1.8062   0.0370  -1.3678 N.am           1 S1                 0.0000
     14 ****        -2.3569  -1.2169  -1.7451 C.ar           1 S1                 0.0000
     15 ****        -2.8650  -1.2763  -3.0624 C.ar           1 S1                 0.0000
     16 ****        -3.4277  -2.4779  -3.5346 C.ar           1 S1                 0.0000
     17 ****        -3.4675  -3.5907  -2.6759 C.ar           1 S1                 0.0000
     18 ****        -2.9393  -3.4476  -1.3797 C.ar           1 S1                 0.0000
     19 ****        -2.3977  -2.2974  -0.9258 N.ar           1 S1                 0.0000
     20 ****        -0.0619   4.3813   1.6467 H              1 S1                 0.0000
     21 ****        -1.5647   3.9900   0.8217 H              1 S1                 0.0000
     22 ****        -0.0972   4.2751  -0.1115 H              1 S1                 0.0000
     23 ****        -0.5657   1.9759   1.8350 H              1 S1                 0.0000
     24 ****         1.7899   2.5089  -0.0303 H              1 S1                 0.0000
     25 ****         1.8577   2.6864   1.7028 H              1 S1                 0.0000
     26 ****         3.1292   0.6954  -0.5923 H              1 S1                 0.0000
     27 ****         3.8639   0.9387   0.9843 H              1 S1                 0.0000
     28 ****         2.6779  -1.6951  -0.0799 H              1 S1                 0.0000
     29 ****         4.3791  -1.3483   0.1666 H              1 S1                 0.0000
     30 ****         1.2452  -1.9052   1.8715 H              1 S1                 0.0000
     31 ****         1.9667  -1.7156   3.4586 H              1 S1                 0.0000
     32 ****         2.3675   0.7020   3.0582 H              1 S1                 0.0000
     33 ****         0.6721   0.3270   2.8157 H              1 S1                 0.0000
     34 ****        -0.8872   2.1562  -1.0762 H              1 S1                 0.0000
     35 ****        -1.8109   0.7459  -2.0864 H              1 S1                 0.0000
     36 ****        -2.8270  -0.4118  -3.7094 H              1 S1                 0.0000
     37 ****        -3.8214  -2.5436  -4.5382 H              1 S1                 0.0000
     38 ****        -3.8916  -4.5289  -3.0020 H              1 S1                 0.0000
     39 ****        -2.9502  -4.2777  -0.6893 H              1 S1                 0.0000
     40 ****         1.0947   0.1644   0.4781 H              1 S1                 0.0000
     41 ****         3.9540  -1.0499   2.4373 LP             1 S1                 0.0000
     42 ****         3.4957  -2.5355   1.9378 LP             1 S1                 0.0000
     43 ****        -0.7673  -0.0081   1.6429 LP             1 S1                 0.0000
     44 ****        -1.5722  -1.2708   0.7725 LP             1 S1                 0.0000
     45 ****        -2.0311  -2.2425   0.0030 LP             1 S1                 0.0000
@<TRIPOS>BOND
    1    1    2 1     
    2    1   20 1     
    3    1   21 1     
    4    1   22 1     
    5    2    3 1     
    6    2   10 1     
    7    2   23 1     
    8    3    4 1     
    9    3   24 1     
   10    3   25 1     
   11    4    9 1     
   12    4    5 1     
   13    4   40 1     
   14    5    6 1     
   15    5   26 1     
   16    5   27 1     
   17    6    7 1     
   18    6   28 1     
   19    6   29 1     
   20    7    8 1     
   21    8    9 1     
   22    8   30 1     
   23    8   31 1     
   24    9   32 1     
   25    9   33 1     
   26   10   11 am    
   27   10   34 1     
   28   11   12 2     
   29   11   13 am    
   30   13   14 1     
   31   13   35 1     
   32   14   19 ar    
   33   14   15 ar    
   34   15   16 ar    
   35   15   36 1     
   36   16   17 ar    
   37   16   37 1     
   38   17   18 ar    
   39   17   38 1     
   40   18   19 ar    
   41   18   39 1     
   42    7   41 1     
   43    7   42 1     
   44   12   43 1     
   45   12   44 1     
   46   19   45 1     
@<TRIPOS>SUBSTRUCTURE
      1 S1             1
@<TRIPOS>SET
LONE_PAIRS      STATIC     ATOMS    <user>   **** ""
5 41 42 43 44 45
DONOR_HYDROGENS      STATIC     ATOMS    <user>   **** ""
3 40 34 35
ATOM$BLUE        STATIC     ATOMS    COLORGROUP SYSTEM
5 41 42 43 44 45
ATOM$RED        STATIC     ATOMS    COLORGROUP SYSTEM
3 40 34 35
