AV-unprocessed.smi:148|AV-procd|sdf|1202|dock1
  -GOLD-   2262018363D 1   1.00000     0.00000
 Structure written by MMmdl.
 63 67  0  0  0  0  0  0  0  0  1 V2000
  154.9865  139.9779  160.0223 O   0  0  0  0  0  0  0  0  0  0  0  0
  153.9386  140.0827  159.0813 C   0  0  0  0  0  0  0  0  0  0  0  0
  152.7139  140.8106  159.6842 C   0  0  2  0  0  0  0  0  0  0  0  0
  151.4737  140.7013  158.7594 C   0  0  0  0  0  0  0  0  0  0  0  0
  150.9659  139.3440  158.6665 N   0  0  0  0  0  0  0  0  0  0  0  0
  151.6010  138.1998  159.0926 C   0  0  0  0  0  0  0  0  0  0  0  0
  150.9424  137.0911  158.8918 N   0  0  0  0  0  0  0  0  0  0  0  0
  149.7632  137.5034  158.2826 C   0  0  0  0  0  0  0  0  0  0  0  0
  148.6110  136.8312  157.7850 C   0  0  0  0  0  0  0  0  0  0  0  0
  148.4300  135.4910  157.8043 N   0  0  0  0  0  0  0  0  0  0  0  0
  148.3916  134.9741  156.4366 C   0  0  0  0  0  0  0  0  0  0  0  0
  148.4331  133.4411  156.4162 C   0  0  0  0  0  0  0  0  0  0  0  0
  147.2993  132.8693  157.2725 C   0  0  0  0  0  0  0  0  0  0  0  0
  147.3872  133.4280  158.6991 C   0  0  0  0  0  0  0  0  0  0  0  0
  147.3858  134.9795  158.7120 C   0  0  1  0  0  0  0  0  0  0  0  0
  147.4776  135.5872  160.1477 C   0  0  2  0  0  0  0  0  0  0  0  0
  147.3936  134.5868  161.3174 C   0  0  0  0  0  0  0  0  0  0  0  0
  146.7494  135.3436  162.4907 C   0  0  0  0  0  0  0  0  0  0  0  0
  146.5510  136.7854  162.0136 C   0  0  0  0  0  0  0  0  0  0  0  0
  146.4419  136.6673  160.4942 C   0  0  1  0  0  0  0  0  0  0  0  0
  146.7212  137.8977  159.8589 O   0  0  0  0  0  0  0  0  0  0  0  0
  147.6158  137.5821  157.2524 N   0  0  0  0  0  0  0  0  0  0  0  0
  147.7435  138.9108  157.1880 C   0  0  0  0  0  0  0  0  0  0  0  0
  148.7615  139.6729  157.5947 N   0  0  0  0  0  0  0  0  0  0  0  0
  149.7572  138.9192  158.1438 C   0  0  0  0  0  0  0  0  0  0  0  0
  153.0515  142.2713  160.0927 C   0  0  2  0  0  0  0  0  0  0  0  0
  153.2940  142.5007  161.5861 C   0  0  0  0  0  0  0  0  0  0  0  0
  152.3858  143.6787  161.9361 C   0  0  0  0  0  0  0  0  0  0  0  0
  152.2009  144.3462  160.6987 O   0  0  0  0  0  0  0  0  0  0  0  0
  152.0113  143.3377  159.7203 C   0  0  0  0  0  0  0  0  0  0  0  0
  154.6095  139.9384  160.8879 H   0  0  0  0  0  0  0  0  0  0  0  0
  154.2998  140.5979  158.1911 H   0  0  0  0  0  0  0  0  0  0  0  0
  153.6837  139.0679  158.7769 H   0  0  0  0  0  0  0  0  0  0  0  0
  152.4612  140.2865  160.6075 H   0  0  0  0  0  0  0  0  0  0  0  0
  150.6578  141.3300  159.1130 H   0  0  0  0  0  0  0  0  0  0  0  0
  151.7087  141.0451  157.7528 H   0  0  0  0  0  0  0  0  0  0  0  0
  152.5778  138.2139  159.5542 H   0  0  0  0  0  0  0  0  0  0  0  0
  147.4833  135.3237  155.9435 H   0  0  0  0  0  0  0  0  0  0  0  0
  149.2339  135.3666  155.8646 H   0  0  0  0  0  0  0  0  0  0  0  0
  148.3502  133.0784  155.3915 H   0  0  0  0  0  0  0  0  0  0  0  0
  149.3950  133.0929  156.7950 H   0  0  0  0  0  0  0  0  0  0  0  0
  146.3359  133.1294  156.8322 H   0  0  0  0  0  0  0  0  0  0  0  0
  147.3525  131.7803  157.2903 H   0  0  0  0  0  0  0  0  0  0  0  0
  146.5475  133.0336  159.2688 H   0  0  0  0  0  0  0  0  0  0  0  0
  148.2903  133.0407  159.1692 H   0  0  0  0  0  0  0  0  0  0  0  0
  146.4267  135.2878  158.2952 H   0  0  0  0  0  0  0  0  0  0  0  0
  148.4440  136.0838  160.2477 H   0  0  0  0  0  0  0  0  0  0  0  0
  146.7900  133.7145  161.0719 H   0  0  0  0  0  0  0  0  0  0  0  0
  148.3855  134.2192  161.5815 H   0  0  0  0  0  0  0  0  0  0  0  0
  145.7831  134.8961  162.7260 H   0  0  0  0  0  0  0  0  0  0  0  0
  147.3584  135.2983  163.3942 H   0  0  0  0  0  0  0  0  0  0  0  0
  145.6790  137.2610  162.4634 H   0  0  0  0  0  0  0  0  0  0  0  0
  147.4272  137.3782  162.2817 H   0  0  0  0  0  0  0  0  0  0  0  0
  145.4306  136.3506  160.2437 H   0  0  0  0  0  0  0  0  0  0  0  0
  147.3694  137.7489  159.1874 H   0  0  0  0  0  0  0  0  0  0  0  0
  146.9127  139.4384  156.7434 H   0  0  0  0  0  0  0  0  0  0  0  0
  153.9818  142.5544  159.5985 H   0  0  0  0  0  0  0  0  0  0  0  0
  153.0881  141.6329  162.2117 H   0  0  0  0  0  0  0  0  0  0  0  0
  154.3379  142.7708  161.7507 H   0  0  0  0  0  0  0  0  0  0  0  0
  151.4210  143.3262  162.3045 H   0  0  0  0  0  0  0  0  0  0  0  0
  152.8208  144.3369  162.6884 H   0  0  0  0  0  0  0  0  0  0  0  0
  152.1570  143.7290  158.7130 H   0  0  0  0  0  0  0  0  0  0  0  0
  150.9879  142.9716  159.7944 H   0  0  0  0  0  0  0  0  0  0  0  0
  1  2  1  0  0  0  0
  1 31  1  0  0  0  0
  2  3  1  0  0  0  0
  2 32  1  0  0  0  0
  2 33  1  0  0  0  0
  3  4  1  0  0  0  0
  3 26  1  0  0  0  0
  3 34  1  0  0  0  0
  4  5  1  0  0  0  0
  4 35  1  0  0  0  0
  4 36  1  0  0  0  0
  5 25  1  0  0  0  0
  5  6  1  0  0  0  0
  6  7  2  0  0  0  0
  6 37  1  0  0  0  0
  7  8  1  0  0  0  0
  8 25  2  0  0  0  0
  8  9  1  0  0  0  0
  9 10  1  0  0  0  0
  9 22  2  0  0  0  0
 10 15  1  0  0  0  0
 10 11  1  0  0  0  0
 11 12  1  0  0  0  0
 11 38  1  0  0  0  0
 11 39  1  0  0  0  0
 12 13  1  0  0  0  0
 12 40  1  0  0  0  0
 12 41  1  0  0  0  0
 13 14  1  0  0  0  0
 13 42  1  0  0  0  0
 13 43  1  0  0  0  0
 14 15  1  0  0  0  0
 14 44  1  0  0  0  0
 14 45  1  0  0  0  0
 15 16  1  0  0  0  0
 15 46  1  0  0  0  0
 16 20  1  0  0  0  0
 16 17  1  0  0  0  0
 16 47  1  0  0  0  0
 17 18  1  0  0  0  0
 17 48  1  0  0  0  0
 17 49  1  0  0  0  0
 18 19  1  0  0  0  0
 18 50  1  0  0  0  0
 18 51  1  0  0  0  0
 19 20  1  0  0  0  0
 19 52  1  0  0  0  0
 19 53  1  0  0  0  0
 20 21  1  0  0  0  0
 20 54  1  0  0  0  0
 21 55  1  0  0  0  0
 22 23  1  0  0  0  0
 23 24  2  0  0  0  0
 23 56  1  0  0  0  0
 24 25  1  0  0  0  0
 26 30  1  0  0  0  0
 26 27  1  0  0  0  0
 26 57  1  0  0  0  0
 27 28  1  0  0  0  0
 27 58  1  0  0  0  0
 27 59  1  0  0  0  0
 28 29  1  0  0  0  0
 28 60  1  0  0  0  0
 28 61  1  0  0  0  0
 29 30  1  0  0  0  0
 30 62  1  0  0  0  0
 30 63  1  0  0  0  0
M  END
> <s_m_source_file>
AV-unprocessed.smi

> <i_m_source_file_index>
148

> <i_lp_mmshare_version>
43012

> <i_f3d_flags>
0

> <s_epik_input>
W0NIMl0xT1tDSDJdW0NIMl1bQ0BIXTFbQ0BIXShbQ0gyXVtPSF0pW0NIMl1uKFtjSF1uMiljKGMyMyluW2NIXW5jM040W0NIMl1bQ0gyXVtDSDJdW0NIMl1bQ0BIXTRbQ0BASF01W0NIMl1bQ0gyXVtDSDJdW0NASF01W09IXQ==

> <s_epik_cmdline>
J2VwaWtfcHl0aG9uJywgJy1waCcsICc3LjAnLCAnLXRuJywgJzgnLCAnLW1hJywgJzIwMCcsICctbWV0YWxfYmluZGluZycsICctaW1hZScsICc8aW5maWxlLm1hZT4nLCAnLW9tYWUnLCAnPG91dGZpbGUubWFlPic=

> <r_lp_tautomer_probability>
1

> <r_epik_Ionization_Penalty>
0.00556303

> <r_epik_Ionization_Penalty_Charging>
0

> <r_epik_Ionization_Penalty_Neutral>
0.00556303

> <r_epik_State_Penalty>
0.00401767

> <r_epik_Charging_Adjusted_Penalty>
0.00401767

> <i_epik_Tot_Q>
0

> <i_epik_Tot_abs_Q>
0

> <r_epik_Metal_State_Penalty>
-0

> <b_epik_Metal_Only>
0

> <s_lp_Force_Field>
OPLS_2005

> <r_lp_Energy>
68.457

> <b_lp_Chiralities_Consistent>
1

> <s_lp_Variant>
AV-unprocessed.smi:148-1

> <Gold.Version>
5.8.1

> <Gold.Id.Protein>
6NUR|6NUR_protein|mol2

> <Gold.PLP.Fitness>
52.4262

> <Gold.PLP.PLP>
-49.4390

> <Gold.PLP.part.hbond>
-3.0000

> <Gold.PLP.part.metal>
0.0000

> <Gold.PLP.part.buried>
-7.6541

> <Gold.PLP.part.nonpolar>
-38.1880

> <Gold.PLP.part.repulsive>
0.0695

> <Gold.PLP.ligand.clash>
0.0000

> <Gold.PLP.ligand.torsion>
3.0021

> <Gold.PLP.Chemscore.Hbond>
2.6841

> <Gold.PLP.Chemscore.CHOScore>
0.0000

> <Gold.PLP.Chemscore.Metal>
0.0000

> <Gold.Chemscore.Hbonds>
donor molecule, donor type, donor heavy atom, donor atom, acceptor molecule, acceptor atom, score
      P1  H  6934  6947       L1    21  0.96

> <Gold.PLP.Chemscore.Internal.Correction>
0.9390

> <Gold.Rescore>
     Score         DG    S(hbond)    S(metal)    S(lipo)     H(rot)  DE(clash)    DE(int)     intcor
     13.04     -17.31       1.71        0.00     124.81       3.32       0.08       4.19       ----

> <Gold.Chemscore.Fitness>
13.0377

> <Gold.Chemscore.DG>
-17.3069

> <Gold.Chemscore.ZeroCoef>
-5.4800

> <Gold.Chemscore.Hbond>
1.7140

> <Gold.Chemscore.Metal>
0.0000

> <Gold.Chemscore.Lipo>
124.8053

> <Gold.Chemscore.Internal_Hbond>
0.0000

> <Gold.Chemscore.DEClash>
0.0779

> <Gold.Chemscore.DEInternal>
4.1913

> <Gold.Chemscore.Rot>
3.3203

> <Gold.Chemscore.Internal.Correction>
   9.000000E+99

> <Gold.Chemscore.Hbonds>
donor molecule, donor type, donor heavy atom, donor atom, acceptor molecule, acceptor atom, score
      P1  H  6896  6907       L1     7  0.02
      P1  H  6934  6947       L1    21  0.64

> <Gold.Chemscore.Hbond.Weighted>
-5.7247

> <Gold.Chemscore.Metal.Weighted>
-0.0000

> <Gold.Chemscore.Lipo.Weighted>
-14.6022

> <Gold.Chemscore.Internal_Hbond.Weighted>
0.0000

> <Gold.Chemscore.DEClash.Weighted>
0.0779

> <Gold.Chemscore.DEInternal.Weighted>
4.1913

> <Gold.Chemscore.Rot.Weighted>
8.5000

> <Gold.Chemscore.Internal.Correction.Weighted>
   9.000000E+99

> <Gold.Protein.RotatedTorsions>
[ 6907 6896 6895 6894 ] final   19.75 input  -60.11 | X-H torsion
[ 7974 7965 7964 7962 ] final   75.15 input  175.53 | X-H torsion
[ 8008 7997 7996 7995 ] final    3.58 input   59.86 | X-H torsion
[ 10167 10162 10161 10158 ] final   69.31 input  -65.29 | X-H torsion
[ 10718 10713 10712 10709 ] final   34.14 input   66.30 | X-H torsion
[ 10763 10752 10751 10750 ] final  107.00 input  -60.55 | X-H torsion
[ 11005 11000 10999 10996 ] final -116.51 input  -57.11 | X-H torsion

> <Gold.Protein.ActiveResidues>
 VAL166  LYS551  ARG553  GLY616  TRP617  ASP618  TYR619  PRO620  LYS621  CYS622 
 ASP623  PHE694  ASN695  SER759  ASP760  ASP761  ALA762  ILE779  LEU786  VAL792 
 PHE793  MET794  SER795  GLU796  ALA797  LYS798  CYS799  TRP800  GLU811  SER814 

> <Gold.Protein.RotatedAtoms>
  151.8857  135.0436  160.0492 H   0  0  0  0  0  0  0  0  0  0  0  0  # atno 6907 bound_to 6896
  152.2476  133.5183  159.5315 H   0  0  0  0  0  0  0  0  0  0  0  0  # atno 6908 bound_to 6896
  150.7073  134.0920  159.3977 H   0  0  0  0  0  0  0  0  0  0  0  0  # atno 6909 bound_to 6896
  145.7193  139.2642  143.1605 H   0  0  0  0  0  0  0  0  0  0  0  0  # atno 7974 bound_to 7965
  154.7054  140.2681  155.6679 H   0  0  0  0  0  0  0  0  0  0  0  0  # atno 8008 bound_to 7997
  156.2778  140.2764  156.1602 H   0  0  0  0  0  0  0  0  0  0  0  0  # atno 8009 bound_to 7997
  155.0707  140.0372  157.2597 H   0  0  0  0  0  0  0  0  0  0  0  0  # atno 8010 bound_to 7997
  140.0692  144.5167  150.7239 H   0  0  0  0  0  0  0  0  0  0  0  0  # atno 10167 bound_to 10162
  157.3066  130.7378  149.6699 H   0  0  0  0  0  0  0  0  0  0  0  0  # atno 10718 bound_to 10713
  153.4007  135.3858  155.1986 H   0  0  0  0  0  0  0  0  0  0  0  0  # atno 10763 bound_to 10752
  154.8729  135.3770  154.4622 H   0  0  0  0  0  0  0  0  0  0  0  0  # atno 10764 bound_to 10752
  153.5119  135.7087  153.5838 H   0  0  0  0  0  0  0  0  0  0  0  0  # atno 10765 bound_to 10752
  141.0417  133.9825  157.2983 H   0  0  0  0  0  0  0  0  0  0  0  0  # atno 11005 bound_to 11000
  146.0641  140.7940  142.9720 LP  0  0  0  0  0  0  0  0  0  0  0  0  # atno 17320 bound_to 7965
  144.6921  140.3241  143.7227 LP  0  0  0  0  0  0  0  0  0  0  0  0  # atno 17321 bound_to 7965
  140.7134  143.2524  151.4510 LP  0  0  0  0  0  0  0  0  0  0  0  0  # atno 17342 bound_to 10162
  139.5846  144.1632  152.2013 LP  0  0  0  0  0  0  0  0  0  0  0  0  # atno 17343 bound_to 10162
  155.9675  130.4264  150.4696 LP  0  0  0  0  0  0  0  0  0  0  0  0  # atno 17370 bound_to 10713
  157.2687  131.0582  151.2274 LP  0  0  0  0  0  0  0  0  0  0  0  0  # atno 17371 bound_to 10713
  139.9281  135.0201  156.8305 LP  0  0  0  0  0  0  0  0  0  0  0  0  # atno 17394 bound_to 11000
  140.6221  133.9984  155.7623 LP  0  0  0  0  0  0  0  0  0  0  0  0  # atno 17395 bound_to 11000

$$$$
