#       Name:                AV-unprocessed.smi:2641
#       Creating user name   scv26
#       Creation time:       Fri Mar 27 14:28:35 2020


#       File generated by GOLD software.
#

@<TRIPOS>MOLECULE
AV-unprocessed.smi:2641
    46    47     1
SMALL
NO_CHARGES


@<TRIPOS>ATOM
      1 ****        -4.5506   3.9532   0.6648 C.3            1 S1                 0.0000
      2 ****        -3.8162   2.6522   0.9111 C.ar           1 S1                 0.0000
      3 ****        -3.4545   2.2241   2.2065 C.ar           1 S1                 0.0000
      4 ****        -2.7688   1.0012   2.3606 C.ar           1 S1                 0.0000
      5 ****        -2.4590   0.2309   1.2178 C.ar           1 S1                 0.0000
      6 ****        -1.7202  -1.0888   1.3506 C.3            1 S1                 0.0000
      7 ****        -0.2176  -0.8837   1.1493 C.2            1 S1                 0.0000
      8 ****         0.4023  -0.1748   1.9407 O.2            1 S1                 0.0000
      9 ****         0.3166  -1.5161   0.0877 N.am           1 S1                 0.0000
     10 ****         1.6936  -1.5959  -0.4266 C.3            1 S1                 0.0000
     11 ****         2.0394  -3.1068  -0.3923 C.2            1 S1                 0.0000
     12 ****         1.6632  -3.8136  -1.3544 O.co2          1 S1                 0.0000
     13 ****         2.6288  -3.5509   0.6182 O.co2          1 S1                -1.0000
     14 ****         1.6656  -1.0568  -1.8858 C.3            1 S1                 0.0000
     15 ****         3.0528  -1.0336  -2.5584 C.3            1 S1                 0.0000
     16 ****         4.0607  -0.2237  -1.7304 C.3            1 S1                 0.0000
     17 ****         4.1371  -0.7432  -0.2877 C.3            1 S1                 0.0000
     18 ****         2.7440  -0.7586   0.3721 C.3            1 S1                 0.0000
     19 ****        -2.8458   0.7102  -0.0525 C.ar           1 S1                 0.0000
     20 ****        -3.5006   1.8871  -0.1582 N.pl3          1 S1                 1.0000
     21 ****        -4.8191   4.4369   1.6045 H              1 S1                 0.0000
     22 ****        -5.4668   3.7737   0.1014 H              1 S1                 0.0000
     23 ****        -3.9238   4.6398   0.0951 H              1 S1                 0.0000
     24 ****        -3.6963   2.8230   3.0727 H              1 S1                 0.0000
     25 ****        -2.4814   0.6616   3.3452 H              1 S1                 0.0000
     26 ****        -1.8937  -1.5165   2.3388 H              1 S1                 0.0000
     27 ****        -2.1147  -1.8032   0.6259 H              1 S1                 0.0000
     28 ****        -0.3352  -2.0722  -0.4465 H              1 S1                 0.0000
     29 ****         0.9729  -1.6303  -2.5034 H              1 S1                 0.0000
     30 ****         1.2689  -0.0405  -1.8800 H              1 S1                 0.0000
     31 ****         3.4227  -2.0505  -2.6937 H              1 S1                 0.0000
     32 ****         2.9701  -0.6061  -3.5579 H              1 S1                 0.0000
     33 ****         5.0459  -0.2673  -2.1953 H              1 S1                 0.0000
     34 ****         3.7670   0.8266  -1.7242 H              1 S1                 0.0000
     35 ****         4.5719  -1.7431  -0.2786 H              1 S1                 0.0000
     36 ****         4.8117  -0.1143   0.2936 H              1 S1                 0.0000
     37 ****         2.4090   0.2772   0.4383 H              1 S1                 0.0000
     38 ****         2.8353  -1.1118   1.4003 H              1 S1                 0.0000
     39 ****        -2.6491   0.1931  -0.9806 H              1 S1                 0.0000
     40 ****        -3.7679   2.2131  -1.0872 H              1 S1                 0.0000
     41 ****        -0.0762   0.2590   2.7040 LP             1 S1                 0.0000
     42 ****         1.3849  -0.0324   1.8207 LP             1 S1                 0.0000
     43 ****         1.8293  -4.7997  -1.3455 LP             1 S1                 0.0000
     44 ****         1.1966  -3.3922  -2.1321 LP             1 S1                 0.0000
     45 ****         2.8268  -4.5283   0.6923 LP             1 S1                 0.0000
     46 ****         2.9019  -2.9284   1.3516 LP             1 S1                 0.0000
@<TRIPOS>BOND
    1    1    2 1     
    2    1   21 1     
    3    1   22 1     
    4    1   23 1     
    5    2   20 ar    
    6    2    3 ar    
    7    3    4 ar    
    8    3   24 1     
    9    4    5 ar    
   10    4   25 1     
   11    5    6 1     
   12    5   19 ar    
   13    6    7 1     
   14    6   26 1     
   15    6   27 1     
   16    7    8 2     
   17    7    9 am    
   18    9   10 1     
   19    9   28 1     
   20   10   18 1     
   21   10   11 1     
   22   10   14 1     
   23   11   12 ar    
   24   11   13 ar    
   25   14   15 1     
   26   14   29 1     
   27   14   30 1     
   28   15   16 1     
   29   15   31 1     
   30   15   32 1     
   31   16   17 1     
   32   16   33 1     
   33   16   34 1     
   34   17   18 1     
   35   17   35 1     
   36   17   36 1     
   37   18   37 1     
   38   18   38 1     
   39   19   20 ar    
   40   19   39 1     
   41   20   40 1     
   42    8   41 1     
   43    8   42 1     
   44   12   43 1     
   45   12   44 1     
   46   13   45 1     
   47   13   46 1     
@<TRIPOS>SUBSTRUCTURE
      1 S1             1
@<TRIPOS>SET
LONE_PAIRS      STATIC     ATOMS    <user>   **** ""
6 41 42 43 44 45 46
DONOR_HYDROGENS      STATIC     ATOMS    <user>   **** ""
2 28 40
ATOM$BLUE        STATIC     ATOMS    COLORGROUP SYSTEM
6 41 42 43 44 45 46
ATOM$RED        STATIC     ATOMS    COLORGROUP SYSTEM
2 28 40
