AV-unprocessed.smi:1446|AV-procd|sdf|5889|dock8
  -GOLD-   22720 5573D 1   1.00000     0.00000
 Structure written by MMmdl.
 47 48  0  0  0  0  0  0  0  0  1 V2000
  159.8765  138.4926  165.6359 C   0  0  0  0  0  0  0  0  0  0  0  0
  158.4045  138.4102  165.2478 C   0  0  0  0  0  0  0  0  0  0  0  0
  157.5412  138.8733  165.9924 O   0  0  0  0  0  0  0  0  0  0  0  0
  158.1327  137.8171  164.0747 N   0  0  0  0  0  0  0  0  0  0  0  0
  156.7954  137.6276  163.5081 C   0  0  2  0  0  0  0  0  0  0  0  0
  156.1669  139.0102  163.2435 C   0  0  0  0  0  0  0  0  0  0  0  0
  156.2761  139.9057  164.0832 O   0  0  0  0  0  0  0  0  0  0  0  0
  155.5054  139.1346  162.0771 N   0  0  0  0  0  0  0  0  0  0  0  0
  154.8179  140.2692  161.5708 C   0  0  0  0  0  0  0  0  0  0  0  0
  154.2171  140.0912  160.3070 C   0  0  0  0  0  0  0  0  0  0  0  0
  153.5071  141.1557  159.7192 C   0  0  0  0  0  0  0  0  0  0  0  0
  153.4091  142.3911  160.4028 C   0  0  0  0  0  0  0  0  0  0  0  0
  152.7095  143.5005  159.8798 N   0  0  0  0  0  0  0  0  0  0  0  0
  151.9758  143.2679  158.6380 C   0  0  0  0  0  0  0  0  0  0  0  0
  151.5505  144.6062  158.0084 C   0  0  0  0  0  0  0  0  0  0  0  0
  150.8132  145.3726  158.9551 O   0  0  0  0  0  0  0  0  0  0  0  0
  151.5924  145.6831  160.1054 C   0  0  0  0  0  0  0  0  0  0  0  0
  152.0144  144.3834  160.8122 C   0  0  0  0  0  0  0  0  0  0  0  0
  154.0440  142.4681  161.6639 C   0  0  0  0  0  0  0  0  0  0  0  0
  154.7228  141.4485  162.2298 N   0  0  0  0  0  0  0  0  0  0  0  0
  155.9241  136.8323  164.5252 C   0  0  0  0  0  0  0  0  0  0  0  0
  156.3413  135.3504  164.6096 C   0  0  0  0  0  0  0  0  0  0  0  0
  154.4149  136.9133  164.2149 C   0  0  0  0  0  0  0  0  0  0  0  0
  160.2945  137.4930  165.7553 H   0  0  0  0  0  0  0  0  0  0  0  0
  160.0003  139.0300  166.5767 H   0  0  0  0  0  0  0  0  0  0  0  0
  160.4443  139.0163  164.8665 H   0  0  0  0  0  0  0  0  0  0  0  0
  158.9075  137.4597  163.5347 H   0  0  0  0  0  0  0  0  0  0  0  0
  156.8696  137.0634  162.5758 H   0  0  0  0  0  0  0  0  0  0  0  0
  155.4954  138.3190  161.4825 H   0  0  0  0  0  0  0  0  0  0  0  0
  154.2969  139.1479  159.7865 H   0  0  0  0  0  0  0  0  0  0  0  0
  153.0584  141.0046  158.7491 H   0  0  0  0  0  0  0  0  0  0  0  0
  152.5687  142.7089  157.9153 H   0  0  0  0  0  0  0  0  0  0  0  0
  151.0944  142.6645  158.8588 H   0  0  0  0  0  0  0  0  0  0  0  0
  152.4208  145.1694  157.6677 H   0  0  0  0  0  0  0  0  0  0  0  0
  150.9260  144.4265  157.1333 H   0  0  0  0  0  0  0  0  0  0  0  0
  152.4660  146.2709  159.8187 H   0  0  0  0  0  0  0  0  0  0  0  0
  151.0001  146.3014  160.7797 H   0  0  0  0  0  0  0  0  0  0  0  0
  151.1350  143.8726  161.2068 H   0  0  0  0  0  0  0  0  0  0  0  0
  152.6615  144.6271  161.6554 H   0  0  0  0  0  0  0  0  0  0  0  0
  153.9951  143.3680  162.2587 H   0  0  0  0  0  0  0  0  0  0  0  0
  156.0725  137.2602  165.5183 H   0  0  0  0  0  0  0  0  0  0  0  0
  156.2565  134.8606  163.6391 H   0  0  0  0  0  0  0  0  0  0  0  0
  155.7106  134.8043  165.3117 H   0  0  0  0  0  0  0  0  0  0  0  0
  157.3690  135.2332  164.9530 H   0  0  0  0  0  0  0  0  0  0  0  0
  154.1990  136.5509  163.2094 H   0  0  0  0  0  0  0  0  0  0  0  0
  154.0326  137.9313  164.2922 H   0  0  0  0  0  0  0  0  0  0  0  0
  153.8379  136.3080  164.9144 H   0  0  0  0  0  0  0  0  0  0  0  0
  1  2  1  0  0  0  0
  1 24  1  0  0  0  0
  1 25  1  0  0  0  0
  1 26  1  0  0  0  0
  2  3  2  0  0  0  0
  2  4  1  0  0  0  0
  4  5  1  0  0  0  0
  4 27  1  0  0  0  0
  5  6  1  0  0  0  0
  5 21  1  0  0  0  0
  5 28  1  0  0  0  0
  6  7  2  0  0  0  0
  6  8  1  0  0  0  0
  8  9  1  0  0  0  0
  8 29  1  0  0  0  0
  9 20  1  0  0  0  0
  9 10  2  0  0  0  0
 10 11  1  0  0  0  0
 10 30  1  0  0  0  0
 11 12  2  0  0  0  0
 11 31  1  0  0  0  0
 12 13  1  0  0  0  0
 12 19  1  0  0  0  0
 13 18  1  0  0  0  0
 13 14  1  0  0  0  0
 14 15  1  0  0  0  0
 14 32  1  0  0  0  0
 14 33  1  0  0  0  0
 15 16  1  0  0  0  0
 15 34  1  0  0  0  0
 15 35  1  0  0  0  0
 16 17  1  0  0  0  0
 17 18  1  0  0  0  0
 17 36  1  0  0  0  0
 17 37  1  0  0  0  0
 18 38  1  0  0  0  0
 18 39  1  0  0  0  0
 19 20  2  0  0  0  0
 19 40  1  0  0  0  0
 21 22  1  0  0  0  0
 21 23  1  0  0  0  0
 21 41  1  0  0  0  0
 22 42  1  0  0  0  0
 22 43  1  0  0  0  0
 22 44  1  0  0  0  0
 23 45  1  0  0  0  0
 23 46  1  0  0  0  0
 23 47  1  0  0  0  0
M  END
> <s_m_source_file>
AV-unprocessed.smi

> <i_m_source_file_index>
1446

> <i_lp_mmshare_version>
43012

> <i_f3d_flags>
0

> <s_epik_input>
W0NIM11DKD1PKVtOSF1bQ0BASF0oW0NIXShbQ0gzXSlbQ0gzXSlDKD1PKVtOSF1jMVtjSF1bY0hdYyhbY0hdbjEpTjJbQ0gyXVtDSDJdT1tDSDJdW0NIMl0y

> <s_epik_cmdline>
J2VwaWtfcHl0aG9uJywgJy1waCcsICc3LjAnLCAnLXRuJywgJzgnLCAnLW1hJywgJzIwMCcsICctbWV0YWxfYmluZGluZycsICctaW1hZScsICc8aW5maWxlLm1hZT4nLCAnLW9tYWUnLCAnPG91dGZpbGUubWFlPic=

> <r_lp_tautomer_probability>
1

> <r_epik_Ionization_Penalty>
0.00298315

> <r_epik_Ionization_Penalty_Charging>
0

> <r_epik_Ionization_Penalty_Neutral>
0.00298315

> <r_epik_State_Penalty>
0.0038483

> <r_epik_Charging_Adjusted_Penalty>
0.0038483

> <i_epik_Tot_Q>
0

> <i_epik_Tot_abs_Q>
0

> <r_epik_Metal_State_Penalty>
-0

> <b_epik_Metal_Only>
0

> <s_lp_Force_Field>
OPLS_2005

> <r_lp_Energy>
27.9322

> <b_lp_Chiralities_Consistent>
1

> <s_lp_Variant>
AV-unprocessed.smi:1446-1

> <Gold.Version>
5.8.1

> <Gold.Id.Protein>
6NUR|6NUR_protein|mol2

> <Gold.PLP.Fitness>
41.8482

> <Gold.PLP.PLP>
-43.5474

> <Gold.PLP.part.hbond>
-2.2190

> <Gold.PLP.part.metal>
0.0000

> <Gold.PLP.part.buried>
-6.5650

> <Gold.PLP.part.nonpolar>
-35.4080

> <Gold.PLP.part.repulsive>
0.2466

> <Gold.PLP.ligand.clash>
0.0000

> <Gold.PLP.ligand.torsion>
1.0473

> <Gold.PLP.Chemscore.Hbond>
0.0000

> <Gold.PLP.Chemscore.CHOScore>
0.0000

> <Gold.PLP.Chemscore.Metal>
0.0000

> <Gold.PLP.Chemscore.Internal.Correction>
0.3954

> <Gold.Rescore>
     Score         DG    S(hbond)    S(metal)    S(lipo)     H(rot)  DE(clash)    DE(int)     intcor
      9.63     -14.48       0.00        0.00     114.95       1.74       0.05       4.80       ----

> <Gold.Chemscore.Fitness>
9.6263

> <Gold.Chemscore.DG>
-14.4761

> <Gold.Chemscore.ZeroCoef>
-5.4800

> <Gold.Chemscore.Hbond>
0.0000

> <Gold.Chemscore.Metal>
0.0000

> <Gold.Chemscore.Lipo>
114.9473

> <Gold.Chemscore.Internal_Hbond>
0.0000

> <Gold.Chemscore.DEClash>
0.0464

> <Gold.Chemscore.DEInternal>
4.8034

> <Gold.Chemscore.Rot>
1.7394

> <Gold.Chemscore.Internal.Correction>
   9.000000E+99

> <Gold.Chemscore.Hbond.Weighted>
-0.0000

> <Gold.Chemscore.Metal.Weighted>
-0.0000

> <Gold.Chemscore.Lipo.Weighted>
-13.4488

> <Gold.Chemscore.Internal_Hbond.Weighted>
0.0000

> <Gold.Chemscore.DEClash.Weighted>
0.0464

> <Gold.Chemscore.DEInternal.Weighted>
4.8034

> <Gold.Chemscore.Rot.Weighted>
4.4528

> <Gold.Chemscore.Internal.Correction.Weighted>
   9.000000E+99

> <Gold.Protein.RotatedTorsions>
[ 6907 6896 6895 6894 ] final   84.56 input  -60.11 | X-H torsion
[ 7974 7965 7964 7962 ] final -150.07 input  175.53 | X-H torsion
[ 8008 7997 7996 7995 ] final -104.86 input   59.86 | X-H torsion
[ 10167 10162 10161 10158 ] final   84.68 input  -65.29 | X-H torsion
[ 10718 10713 10712 10709 ] final -129.45 input   66.30 | X-H torsion
[ 10763 10752 10751 10750 ] final    1.66 input  -60.55 | X-H torsion
[ 11005 11000 10999 10996 ] final -173.38 input  -57.11 | X-H torsion

> <Gold.Protein.ActiveResidues>
 VAL166  LYS551  ARG553  GLY616  TRP617  ASP618  TYR619  PRO620  LYS621  CYS622 
 ASP623  PHE694  ASN695  SER759  ASP760  ASP761  ALA762  ILE779  LEU786  VAL792 
 PHE793  MET794  SER795  GLU796  ALA797  LYS798  CYS799  TRP800  GLU811  SER814 

> <Gold.Protein.RotatedAtoms>
  152.5355  134.2722  159.8975 H   0  0  0  0  0  0  0  0  0  0  0  0  # atno 6907 bound_to 6896
  151.2678  133.4263  159.2627 H   0  0  0  0  0  0  0  0  0  0  0  0  # atno 6908 bound_to 6896
  151.0395  134.9611  159.8210 H   0  0  0  0  0  0  0  0  0  0  0  0  # atno 6909 bound_to 6896
  144.7929  140.4980  143.5760 H   0  0  0  0  0  0  0  0  0  0  0  0  # atno 7974 bound_to 7965
  154.8915  140.0416  157.1841 H   0  0  0  0  0  0  0  0  0  0  0  0  # atno 8008 bound_to 7997
  154.8536  140.2933  155.5562 H   0  0  0  0  0  0  0  0  0  0  0  0  # atno 8009 bound_to 7997
  156.2996  140.2460  156.3499 H   0  0  0  0  0  0  0  0  0  0  0  0  # atno 8010 bound_to 7997
  139.9055  144.6303  150.8592 H   0  0  0  0  0  0  0  0  0  0  0  0  # atno 10167 bound_to 10162
  156.2048  130.6881  151.0582 H   0  0  0  0  0  0  0  0  0  0  0  0  # atno 10718 bound_to 10713
  153.3053  135.6959  153.7165 H   0  0  0  0  0  0  0  0  0  0  0  0  # atno 10763 bound_to 10752
  153.6064  135.3452  155.2964 H   0  0  0  0  0  0  0  0  0  0  0  0  # atno 10764 bound_to 10752
  154.8561  135.4353  154.2175 H   0  0  0  0  0  0  0  0  0  0  0  0  # atno 10765 bound_to 10752
  140.4864  134.6026  157.4938 H   0  0  0  0  0  0  0  0  0  0  0  0  # atno 11005 bound_to 11000
  145.5748  139.1485  143.3268 LP  0  0  0  0  0  0  0  0  0  0  0  0  # atno 17320 bound_to 7965
  146.2187  140.5880  142.9027 LP  0  0  0  0  0  0  0  0  0  0  0  0  # atno 17321 bound_to 7965
  140.7697  143.3404  151.2219 LP  0  0  0  0  0  0  0  0  0  0  0  0  # atno 17342 bound_to 10162
  139.6988  143.9568  152.2895 LP  0  0  0  0  0  0  0  0  0  0  0  0  # atno 17343 bound_to 10162
  157.7006  131.0777  150.6832 LP  0  0  0  0  0  0  0  0  0  0  0  0  # atno 17370 bound_to 10713
  156.6890  130.4589  149.5605 LP  0  0  0  0  0  0  0  0  0  0  0  0  # atno 17371 bound_to 10713
  139.9795  134.7160  155.9885 LP  0  0  0  0  0  0  0  0  0  0  0  0  # atno 17394 bound_to 11000
  141.1506  133.6549  156.4001 LP  0  0  0  0  0  0  0  0  0  0  0  0  # atno 17395 bound_to 11000

$$$$
