AV-unprocessed.smi:53|AV-procd|sdf|522|dock1
  -GOLD-   2262016393D 1   1.00000     0.00000
 Structure written by MMmdl.
 30 31  0  0  0  0  0  0  0  0  1 V2000
  153.1520  143.2090  160.1020 N   0  0  0  0  0  0  0  0  0  0  0  0
  152.2616  142.5801  159.3220 C   0  0  0  0  0  0  0  0  0  0  0  0
  151.1430  143.3038  158.7612 C   0  0  0  0  0  0  0  0  0  0  0  0
  150.2869  142.6013  157.9868 C   0  0  0  0  0  0  0  0  0  0  0  0
  150.4603  141.2463  157.7340 N   0  0  0  0  0  0  0  0  0  0  0  0
  149.4995  140.4562  156.8638 C   0  0  1  0  0  0  0  0  0  0  0  0
  148.3835  141.2428  156.5591 O   0  0  0  0  0  0  0  0  0  0  0  0
  148.4075  141.6231  155.1859 C   0  0  2  0  0  0  0  0  0  0  0  0
  146.9804  141.9284  154.7068 C   0  0  0  0  0  0  0  0  0  0  0  0
  146.9376  143.1993  154.0940 O   0  0  0  0  0  0  0  0  0  0  0  0
  149.0239  140.3862  154.5340 C   0  0  1  0  0  0  0  0  0  0  0  0
  149.4989  140.6255  153.2219 O   0  0  0  0  0  0  0  0  0  0  0  0
  150.1232  140.0052  155.5206 C   0  0  1  0  0  0  0  0  0  0  0  0
  151.3541  140.6471  155.2206 O   0  0  0  0  0  0  0  0  0  0  0  0
  151.5704  140.5681  158.2922 C   0  0  0  0  0  0  0  0  0  0  0  0
  151.7722  139.3735  158.0765 O   0  0  0  0  0  0  0  0  0  0  0  0
  152.4255  141.2949  159.0760 N   0  0  0  0  0  0  0  0  0  0  0  0
  149.1492  139.6263  157.4805 H   0  0  0  0  0  0  0  0  0  0  0  0
  149.0666  142.4815  155.0421 H   0  0  0  0  0  0  0  0  0  0  0  0
  148.2831  139.5857  154.5004 H   0  0  0  0  0  0  0  0  0  0  0  0
  150.2914  138.9280  155.5380 H   0  0  0  0  0  0  0  0  0  0  0  0
  153.9325  142.7004  160.4911 H   0  0  0  0  0  0  0  0  0  0  0  0
  153.0396  144.1932  160.2984 H   0  0  0  0  0  0  0  0  0  0  0  0
  150.9697  144.3565  158.9333 H   0  0  0  0  0  0  0  0  0  0  0  0
  149.4507  143.1369  157.5645 H   0  0  0  0  0  0  0  0  0  0  0  0
  146.6697  141.1960  153.9611 H   0  0  0  0  0  0  0  0  0  0  0  0
  146.2657  141.8779  155.5287 H   0  0  0  0  0  0  0  0  0  0  0  0
  147.7292  143.6662  154.3142 H   0  0  0  0  0  0  0  0  0  0  0  0
  149.1354  139.9690  152.6476 H   0  0  0  0  0  0  0  0  0  0  0  0
  151.9657  140.4547  155.9153 H   0  0  0  0  0  0  0  0  0  0  0  0
  1  2  1  0  0  0  0
  1 22  1  0  0  0  0
  1 23  1  0  0  0  0
  2 17  2  0  0  0  0
  2  3  1  0  0  0  0
  3  4  2  0  0  0  0
  3 24  1  0  0  0  0
  4  5  1  0  0  0  0
  4 25  1  0  0  0  0
  5  6  1  0  0  0  0
  5 15  1  0  0  0  0
  6 18  1  0  0  0  0
  6 13  1  0  0  0  0
  6  7  1  0  0  0  0
  7  8  1  0  0  0  0
  8 19  1  0  0  0  0
  8  9  1  0  0  0  0
  8 11  1  0  0  0  0
  9 10  1  0  0  0  0
  9 26  1  0  0  0  0
  9 27  1  0  0  0  0
 10 28  1  0  0  0  0
 11 20  1  0  0  0  0
 11 12  1  0  0  0  0
 11 13  1  0  0  0  0
 12 29  1  0  0  0  0
 13 21  1  0  0  0  0
 13 14  1  0  0  0  0
 14 30  1  0  0  0  0
 15 16  2  0  0  0  0
 15 17  1  0  0  0  0
M  END
> <s_m_source_file>
AV-unprocessed.smi

> <i_m_source_file_index>
53

> <i_lp_mmshare_version>
43012

> <i_f3d_flags>
0

> <s_epik_input>
W05IMl1jMVtjSF1bY0hdbihjKD1PKW4xKVtDQEBIXTJPW0NASF0oW0NIMl1bT0hdKVtDQEBIXShbT0hdKVtDQEBIXTJbT0hd

> <s_epik_cmdline>
J2VwaWtfcHl0aG9uJywgJy1waCcsICc3LjAnLCAnLXRuJywgJzgnLCAnLW1hJywgJzIwMCcsICctbWV0YWxfYmluZGluZycsICctaW1hZScsICc8aW5maWxlLm1hZT4nLCAnLW9tYWUnLCAnPG91dGZpbGUubWFlPic=

> <r_lp_tautomer_probability>
0.99996

> <r_epik_Ionization_Penalty>
0.00069087

> <r_epik_Ionization_Penalty_Charging>
2.61959e-08

> <r_epik_Ionization_Penalty_Neutral>
0.000690844

> <r_epik_State_Penalty>
1.15523e-05

> <r_epik_Charging_Adjusted_Penalty>
1.15785e-05

> <i_epik_Tot_Q>
0

> <i_epik_Tot_abs_Q>
0

> <r_epik_Metal_State_Penalty>
-0

> <b_epik_Metal_Only>
0

> <s_epik_Chemistry_Notes>
This compound contains an acetal/aminal-like group ( X-CH(R)-Y where X, Y are N, S, or O) that may be acid/base labile, releasing an aldehyde.

> <s_lp_Force_Field>
OPLS_2005

> <r_lp_Energy>
37.6612

> <b_lp_Chiralities_Consistent>
1

> <s_lp_Variant>
AV-unprocessed.smi:53-10

> <Gold.Version>
5.8.1

> <Gold.Id.Protein>
6NUR|6NUR_protein|mol2

> <Gold.PLP.Fitness>
37.2033

> <Gold.PLP.PLP>
-26.3973

> <Gold.PLP.part.hbond>
-4.2360

> <Gold.PLP.part.metal>
0.0000

> <Gold.PLP.part.buried>
-3.3405

> <Gold.PLP.part.nonpolar>
-18.4066

> <Gold.PLP.part.repulsive>
0.1001

> <Gold.PLP.ligand.clash>
0.0000

> <Gold.PLP.ligand.torsion>
0.8670

> <Gold.PLP.Chemscore.Hbond>
3.1520

> <Gold.PLP.Chemscore.CHOScore>
1.0000

> <Gold.PLP.Chemscore.Metal>
0.0000

> <Gold.Chemscore.Hbonds>
donor molecule, donor type, donor heavy atom, donor atom, acceptor molecule, acceptor atom, score
      L1  H    10    28       P1  8028  1.00
      L1  H    12    29       P1  7957  0.32
      P1  H  7989  7998       L1    14  0.83
      P1  H  8011  8017       L1    12  1.00
      L1  C     4    25       P1  8028  1.00

> <Gold.PLP.Chemscore.Internal.Correction>
0.0839

> <Gold.Rescore>
     Score         DG    S(hbond)    S(metal)    S(lipo)     H(rot)  DE(clash)    DE(int)     intcor
      7.75      -8.69       2.39        0.00      40.31       3.71       0.02       0.92       ----

> <Gold.Chemscore.Fitness>
7.7475

> <Gold.Chemscore.DG>
-8.6925

> <Gold.Chemscore.ZeroCoef>
-5.4800

> <Gold.Chemscore.Hbond>
2.3930

> <Gold.Chemscore.Metal>
0.0000

> <Gold.Chemscore.Lipo>
40.3099

> <Gold.Chemscore.Internal_Hbond>
0.0000

> <Gold.Chemscore.DEClash>
0.0233

> <Gold.Chemscore.DEInternal>
0.9217

> <Gold.Chemscore.Rot>
3.7095

> <Gold.Chemscore.Internal.Correction>
   9.000000E+99

> <Gold.Chemscore.Hbonds>
donor molecule, donor type, donor heavy atom, donor atom, acceptor molecule, acceptor atom, score
      L1  H    10    28       P1  8028  0.36
      L1  H    12    29       P1  7957  0.31
      P1  H  7989  7998       L1    14  0.74
      P1  H  8011  8017       L1    12  0.81

> <Gold.Chemscore.Hbond.Weighted>
-7.9926

> <Gold.Chemscore.Metal.Weighted>
-0.0000

> <Gold.Chemscore.Lipo.Weighted>
-4.7163

> <Gold.Chemscore.Internal_Hbond.Weighted>
0.0000

> <Gold.Chemscore.DEClash.Weighted>
0.0233

> <Gold.Chemscore.DEInternal.Weighted>
0.9217

> <Gold.Chemscore.Rot.Weighted>
9.4964

> <Gold.Chemscore.Internal.Correction.Weighted>
   9.000000E+99

> <Gold.Protein.RotatedTorsions>
[ 6907 6896 6895 6894 ] final   52.36 input  -60.11 | X-H torsion
[ 7974 7965 7964 7962 ] final  -84.52 input  175.53 | X-H torsion
[ 8008 7997 7996 7995 ] final  -78.74 input   59.86 | X-H torsion
[ 10167 10162 10161 10158 ] final   97.14 input  -65.29 | X-H torsion
[ 10718 10713 10712 10709 ] final  158.08 input   66.30 | X-H torsion
[ 10763 10752 10751 10750 ] final  170.92 input  -60.55 | X-H torsion
[ 11005 11000 10999 10996 ] final -143.25 input  -57.11 | X-H torsion

> <Gold.Protein.ActiveResidues>
 VAL166  LYS551  ARG553  GLY616  TRP617  ASP618  TYR619  PRO620  LYS621  CYS622 
 ASP623  PHE694  ASN695  SER759  ASP760  ASP761  ALA762  ILE779  LEU786  VAL792 
 PHE793  MET794  SER795  GLU796  ALA797  LYS798  CYS799  TRP800  GLU811  SER814 

> <Gold.Protein.RotatedAtoms>
  152.3224  134.7363  160.0310 H   0  0  0  0  0  0  0  0  0  0  0  0  # atno 6907 bound_to 6896
  151.7807  133.3344  159.3479 H   0  0  0  0  0  0  0  0  0  0  0  0  # atno 6908 bound_to 6896
  150.7377  134.5865  159.6010 H   0  0  0  0  0  0  0  0  0  0  0  0  # atno 6909 bound_to 6896
  145.5056  140.9544  143.1736 H   0  0  0  0  0  0  0  0  0  0  0  0  # atno 7974 bound_to 7965
  154.5718  140.0689  156.8976 H   0  0  0  0  0  0  0  0  0  0  0  0  # atno 8008 bound_to 7997
  155.2620  140.3359  155.4254 H   0  0  0  0  0  0  0  0  0  0  0  0  # atno 8009 bound_to 7997
  156.2124  140.1764  156.7650 H   0  0  0  0  0  0  0  0  0  0  0  0  # atno 8010 bound_to 7997
  139.7828  144.6882  150.9999 H   0  0  0  0  0  0  0  0  0  0  0  0  # atno 10167 bound_to 10162
  157.1827  131.0636  151.2123 H   0  0  0  0  0  0  0  0  0  0  0  0  # atno 10718 bound_to 10713
  154.4046  135.2755  155.2075 H   0  0  0  0  0  0  0  0  0  0  0  0  # atno 10763 bound_to 10752
  154.4087  135.6027  153.5943 H   0  0  0  0  0  0  0  0  0  0  0  0  # atno 10764 bound_to 10752
  152.9831  135.5944  154.4318 H   0  0  0  0  0  0  0  0  0  0  0  0  # atno 10765 bound_to 10752
  140.8144  134.2705  157.4927 H   0  0  0  0  0  0  0  0  0  0  0  0  # atno 11005 bound_to 11000
  144.7756  139.6638  143.7176 LP  0  0  0  0  0  0  0  0  0  0  0  0  # atno 17320 bound_to 7965
  146.2199  139.5616  142.9625 LP  0  0  0  0  0  0  0  0  0  0  0  0  # atno 17321 bound_to 7965
  140.7819  143.4464  151.0476 LP  0  0  0  0  0  0  0  0  0  0  0  0  # atno 17342 bound_to 10162
  139.8144  143.7906  152.3173 LP  0  0  0  0  0  0  0  0  0  0  0  0  # atno 17343 bound_to 10162
  157.3937  130.7296  149.6716 LP  0  0  0  0  0  0  0  0  0  0  0  0  # atno 17370 bound_to 10713
  155.9722  130.4139  150.4107 LP  0  0  0  0  0  0  0  0  0  0  0  0  # atno 17371 bound_to 10713
  139.8712  134.9501  156.4045 LP  0  0  0  0  0  0  0  0  0  0  0  0  # atno 17394 bound_to 11000
  140.9164  133.7676  155.9853 LP  0  0  0  0  0  0  0  0  0  0  0  0  # atno 17395 bound_to 11000

$$$$
