AV-unprocessed.smi:3061|AV-procd|sdf|11680|dock6
  -GOLD-   2272017 83D 1   1.00000     0.00000
 Structure written by MMmdl.
 35 36  0  0  0  0  0  0  0  0  1 V2000
  153.7782  140.6989  160.8255 C   0  0  0  0  0  0  0  0  0  0  0  0
  152.7387  141.7456  160.3974 C   0  0  1  0  0  0  0  0  0  0  0  0
  153.3983  142.9438  159.6883 C   0  0  0  0  0  0  0  0  0  0  0  0
  152.4758  144.0505  159.5075 N   0  0  0  0  0  0  0  0  0  0  0  0
  152.3443  145.1890  160.1896 C   0  0  0  0  0  0  0  0  0  0  0  0
  151.3704  145.9705  159.7441 N   0  0  0  0  0  0  0  0  0  0  0  0
  150.9114  145.1985  158.7144 C   0  0  0  0  0  0  0  0  0  0  0  0
  151.5403  144.0379  158.5286 N   0  0  0  0  0  0  0  0  0  0  0  0
  151.7470  141.1283  159.5194 N   0  0  0  0  0  0  0  0  0  0  0  0
  152.0181  140.4065  158.4217 C   0  0  0  0  0  0  0  0  0  0  0  0
  153.1604  140.2099  158.0055 O   0  0  0  0  0  0  0  0  0  0  0  0
  150.8102  139.8125  157.6808 C   0  0  2  0  0  0  0  0  0  0  0  0
  151.2534  138.9293  156.4962 C   0  0  0  0  0  0  0  0  0  0  0  0
  150.7777  139.6914  155.2707 C   0  0  0  0  0  0  0  0  0  0  0  0
  151.0337  139.3355  154.1215 O   0  0  0  0  0  0  0  0  0  0  0  0
  150.0725  140.7701  155.6219 N   0  0  0  0  0  0  0  0  0  0  0  0
  149.4739  141.7317  154.7063 C   0  0  0  0  0  0  0  0  0  0  0  0
  149.9072  140.9005  157.0591 C   0  0  0  0  0  0  0  0  0  0  0  0
  154.5183  141.1345  161.4971 H   0  0  0  0  0  0  0  0  0  0  0  0
  154.3087  140.2908  159.9646 H   0  0  0  0  0  0  0  0  0  0  0  0
  153.3077  139.8680  161.3522 H   0  0  0  0  0  0  0  0  0  0  0  0
  152.2462  142.1196  161.2973 H   0  0  0  0  0  0  0  0  0  0  0  0
  154.2433  143.3071  160.2747 H   0  0  0  0  0  0  0  0  0  0  0  0
  153.7980  142.6479  158.7167 H   0  0  0  0  0  0  0  0  0  0  0  0
  152.9699  145.4489  161.0311 H   0  0  0  0  0  0  0  0  0  0  0  0
  150.0895  145.5012  158.0825 H   0  0  0  0  0  0  0  0  0  0  0  0
  150.7788  141.2346  159.7860 H   0  0  0  0  0  0  0  0  0  0  0  0
  150.2235  139.2149  158.3810 H   0  0  0  0  0  0  0  0  0  0  0  0
  152.3314  138.7659  156.4485 H   0  0  0  0  0  0  0  0  0  0  0  0
  150.7670  137.9540  156.5291 H   0  0  0  0  0  0  0  0  0  0  0  0
  150.2474  142.2442  154.1329 H   0  0  0  0  0  0  0  0  0  0  0  0
  148.8990  142.4839  155.2475 H   0  0  0  0  0  0  0  0  0  0  0  0
  148.8019  141.2306  154.0083 H   0  0  0  0  0  0  0  0  0  0  0  0
  148.8616  140.7313  157.3194 H   0  0  0  0  0  0  0  0  0  0  0  0
  150.1676  141.9098  157.3828 H   0  0  0  0  0  0  0  0  0  0  0  0
  1  2  1  0  0  0  0
  1 19  1  0  0  0  0
  1 20  1  0  0  0  0
  1 21  1  0  0  0  0
  2  3  1  0  0  0  0
  2  9  1  0  0  0  0
  2 22  1  0  0  0  0
  3  4  1  0  0  0  0
  3 23  1  0  0  0  0
  3 24  1  0  0  0  0
  4  8  1  0  0  0  0
  4  5  1  0  0  0  0
  5  6  2  0  0  0  0
  5 25  1  0  0  0  0
  6  7  1  0  0  0  0
  7  8  2  0  0  0  0
  7 26  1  0  0  0  0
  9 10  1  0  0  0  0
  9 27  1  0  0  0  0
 10 11  2  0  0  0  0
 10 12  1  0  0  0  0
 12 18  1  0  0  0  0
 12 13  1  0  0  0  0
 12 28  1  0  0  0  0
 13 14  1  0  0  0  0
 13 29  1  0  0  0  0
 13 30  1  0  0  0  0
 14 15  2  0  0  0  0
 14 16  1  0  0  0  0
 16 17  1  0  0  0  0
 16 18  1  0  0  0  0
 17 31  1  0  0  0  0
 17 32  1  0  0  0  0
 17 33  1  0  0  0  0
 18 34  1  0  0  0  0
 18 35  1  0  0  0  0
M  END
> <s_m_source_file>
AV-unprocessed.smi

> <i_m_source_file_index>
3061

> <i_lp_mmshare_version>
43012

> <i_f3d_flags>
0

> <s_epik_input>
bjFbY0hdbltjSF1uMVtDSDJdW0NAQEhdKFtDSDNdKVtOSF1DKD1PKVtDQEBIXTJbQ0gyXUMoPU8pTihbQ0gzXSlbQ0gyXTI=

> <s_epik_cmdline>
J2VwaWtfcHl0aG9uJywgJy1waCcsICc3LjAnLCAnLXRuJywgJzgnLCAnLW1hJywgJzIwMCcsICctbWV0YWxfYmluZGluZycsICctaW1hZScsICc8aW5maWxlLm1hZT4nLCAnLW9tYWUnLCAnPG91dGZpbGUubWFlPic=

> <r_lp_tautomer_probability>
1

> <r_epik_Ionization_Penalty>
4.97611e-05

> <r_epik_Ionization_Penalty_Charging>
0

> <r_epik_Ionization_Penalty_Neutral>
4.97611e-05

> <r_epik_State_Penalty>
-0

> <r_epik_Charging_Adjusted_Penalty>
0

> <i_epik_Tot_Q>
0

> <i_epik_Tot_abs_Q>
0

> <r_epik_Metal_State_Penalty>
-0

> <b_epik_Metal_Only>
0

> <s_lp_Force_Field>
OPLS_2005

> <r_lp_Energy>
12.6192

> <b_lp_Chiralities_Consistent>
1

> <s_lp_Variant>
AV-unprocessed.smi:3061-2

> <Gold.Version>
5.8.1

> <Gold.Id.Protein>
6NUR|6NUR_protein|mol2

> <Gold.PLP.Fitness>
43.3841

> <Gold.PLP.PLP>
-35.4113

> <Gold.PLP.part.hbond>
-3.9895

> <Gold.PLP.part.metal>
0.0000

> <Gold.PLP.part.buried>
-1.9876

> <Gold.PLP.part.nonpolar>
-30.6717

> <Gold.PLP.part.repulsive>
0.6450

> <Gold.PLP.ligand.clash>
0.0000

> <Gold.PLP.ligand.torsion>
0.4387

> <Gold.PLP.Chemscore.Hbond>
1.9440

> <Gold.PLP.Chemscore.CHOScore>
1.0000

> <Gold.PLP.Chemscore.Metal>
0.0000

> <Gold.Chemscore.Hbonds>
donor molecule, donor type, donor heavy atom, donor atom, acceptor molecule, acceptor atom, score
      P1  H  7989  7998       L1    15  1.00
      P1  H  7997  8010       L1    11  0.94
      L1  C     7    26       P1  8028  0.01
      L1  C     7    26       P1  8029  0.93

> <Gold.PLP.Chemscore.Internal.Correction>
0.0183

> <Gold.Rescore>
     Score         DG    S(hbond)    S(metal)    S(lipo)     H(rot)  DE(clash)    DE(int)     intcor
     10.03     -11.16       1.91        0.00      46.95       2.42       0.06       1.08       ----

> <Gold.Chemscore.Fitness>
10.0307

> <Gold.Chemscore.DG>
-11.1623

> <Gold.Chemscore.ZeroCoef>
-5.4800

> <Gold.Chemscore.Hbond>
1.9114

> <Gold.Chemscore.Metal>
0.0000

> <Gold.Chemscore.Lipo>
46.9478

> <Gold.Chemscore.Internal_Hbond>
0.0000

> <Gold.Chemscore.DEClash>
0.0551

> <Gold.Chemscore.DEInternal>
1.0765

> <Gold.Chemscore.Rot>
2.4197

> <Gold.Chemscore.Internal.Correction>
   9.000000E+99

> <Gold.Chemscore.Hbonds>
donor molecule, donor type, donor heavy atom, donor atom, acceptor molecule, acceptor atom, score
      P1  H  7989  7998       L1    15  0.26
      P1  H  7997  8010       L1    11  0.92

> <Gold.Chemscore.Hbond.Weighted>
-6.3839

> <Gold.Chemscore.Metal.Weighted>
-0.0000

> <Gold.Chemscore.Lipo.Weighted>
-5.4929

> <Gold.Chemscore.Internal_Hbond.Weighted>
0.0000

> <Gold.Chemscore.DEClash.Weighted>
0.0551

> <Gold.Chemscore.DEInternal.Weighted>
1.0765

> <Gold.Chemscore.Rot.Weighted>
6.1945

> <Gold.Chemscore.Internal.Correction.Weighted>
   9.000000E+99

> <Gold.Protein.RotatedTorsions>
[ 6907 6896 6895 6894 ] final   95.54 input  -60.11 | X-H torsion
[ 7974 7965 7964 7962 ] final  122.67 input  175.53 | X-H torsion
[ 8008 7997 7996 7995 ] final   36.27 input   59.86 | X-H torsion
[ 10167 10162 10161 10158 ] final -110.17 input  -65.29 | X-H torsion
[ 10718 10713 10712 10709 ] final  -18.58 input   66.30 | X-H torsion
[ 10763 10752 10751 10750 ] final   45.29 input  -60.55 | X-H torsion
[ 11005 11000 10999 10996 ] final   92.11 input  -57.11 | X-H torsion

> <Gold.Protein.ActiveResidues>
 VAL166  LYS551  ARG553  GLY616  TRP617  ASP618  TYR619  PRO620  LYS621  CYS622 
 ASP623  PHE694  ASN695  SER759  ASP760  ASP761  ALA762  ILE779  LEU786  VAL792 
 PHE793  MET794  SER795  GLU796  ALA797  LYS798  CYS799  TRP800  GLU811  SER814 

> <Gold.Protein.RotatedAtoms>
  152.5443  134.1023  159.8322 H   0  0  0  0  0  0  0  0  0  0  0  0  # atno 6907 bound_to 6896
  151.1100  133.5173  159.2613 H   0  0  0  0  0  0  0  0  0  0  0  0  # atno 6908 bound_to 6896
  151.1895  135.0406  159.8881 H   0  0  0  0  0  0  0  0  0  0  0  0  # atno 6909 bound_to 6896
  145.1048  139.3493  143.4793 H   0  0  0  0  0  0  0  0  0  0  0  0  # atno 7974 bound_to 7965
  155.1847  140.3303  155.4369 H   0  0  0  0  0  0  0  0  0  0  0  0  # atno 8008 bound_to 7997
  156.2464  140.1920  156.6894 H   0  0  0  0  0  0  0  0  0  0  0  0  # atno 8009 bound_to 7997
  154.6247  140.0590  156.9644 H   0  0  0  0  0  0  0  0  0  0  0  0  # atno 8010 bound_to 7997
  140.1474  143.4228  152.1519 H   0  0  0  0  0  0  0  0  0  0  0  0  # atno 10167 bound_to 10162
  156.5576  130.4717  149.6422 H   0  0  0  0  0  0  0  0  0  0  0  0  # atno 10718 bound_to 10713
  152.9827  135.6044  154.3413 H   0  0  0  0  0  0  0  0  0  0  0  0  # atno 10763 bound_to 10752
  154.3110  135.2771  155.2568 H   0  0  0  0  0  0  0  0  0  0  0  0  # atno 10764 bound_to 10752
  154.4777  135.5925  153.6423 H   0  0  0  0  0  0  0  0  0  0  0  0  # atno 10765 bound_to 10752
  139.8828  134.8714  156.3525 H   0  0  0  0  0  0  0  0  0  0  0  0  # atno 11005 bound_to 11000
  146.3528  140.0941  142.8611 LP  0  0  0  0  0  0  0  0  0  0  0  0  # atno 17320 bound_to 7965
  145.0914  140.9287  143.4767 LP  0  0  0  0  0  0  0  0  0  0  0  0  # atno 17321 bound_to 7965
  139.5442  144.7284  151.4635 LP  0  0  0  0  0  0  0  0  0  0  0  0  # atno 17342 bound_to 10162
  140.6723  143.8266  150.7015 LP  0  0  0  0  0  0  0  0  0  0  0  0  # atno 17343 bound_to 10162
  156.2828  130.7080  151.1909 LP  0  0  0  0  0  0  0  0  0  0  0  0  # atno 17370 bound_to 10713
  157.7375  131.0551  150.5351 LP  0  0  0  0  0  0  0  0  0  0  0  0  # atno 17371 bound_to 10713
  140.9584  133.7404  156.0368 LP  0  0  0  0  0  0  0  0  0  0  0  0  # atno 17394 bound_to 11000
  140.8019  134.3499  157.5437 LP  0  0  0  0  0  0  0  0  0  0  0  0  # atno 17395 bound_to 11000

$$$$
