AV-unprocessed.smi:1362|AV-procd|sdf|5562|dock9
  -GOLD-   22720 5153D 1   1.00000     0.00000
 Structure written by MMmdl.
 38 38  0  0  0  0  0  0  0  0  2 V2000
  150.5380  134.6503  155.0792 C   0  0  0  0  0  0  0  0  0  0  0  0
  150.6139  135.8943  155.9381 C   0  0  0  0  0  0  0  0  0  0  0  0
  150.9050  137.0136  155.3926 N   0  0  0  0  0  0  0  0  0  0  0  0
  150.9786  138.1709  156.1862 C   0  0  0  0  0  0  0  0  0  0  0  0
  151.3338  139.4550  155.4571 C   0  0  0  0  0  0  0  0  0  0  0  0
  150.7441  138.1221  157.5288 C   0  0  0  0  0  0  0  0  0  0  0  0
  150.8169  139.3510  158.4358 C   0  0  0  0  0  0  0  0  0  0  0  0
  152.1978  139.9893  158.6079 C   0  0  0  0  0  0  0  0  0  0  0  0
  153.1773  139.5472  158.0066 O   0  0  0  0  0  0  0  0  0  0  0  0
  152.2573  141.0359  159.4456 N   0  0  0  0  0  0  0  0  0  0  0  0
  153.4593  141.8050  159.7653 C   0  0  2  0  0  0  0  0  0  0  0  0
  154.2791  141.0305  160.8155 C   0  0  0  0  0  0  0  0  0  0  0  0
  153.0714  143.2365  160.2226 C   0  0  0  0  0  0  0  0  0  0  0  0
  152.2815  143.2329  161.5464 C   0  0  0  0  0  0  0  0  0  0  0  0
  152.2710  143.9989  159.1511 C   0  0  0  0  0  0  0  0  0  0  0  0
  150.4049  136.8142  158.1174 C   0  0  0  0  0  0  0  0  0  0  0  0
  150.1683  136.7177  159.3211 O   0  0  0  0  0  0  0  0  0  0  0  0
  150.3622  135.7368  157.2827 N   0  5  0  0  0  0  0  0  0  0  0  0
  150.5660  134.9034  154.0185 H   0  0  0  0  0  0  0  0  0  0  0  0
  149.6127  134.1074  155.2745 H   0  0  0  0  0  0  0  0  0  0  0  0
  151.3788  133.9915  155.2972 H   0  0  0  0  0  0  0  0  0  0  0  0
  152.2980  139.8316  155.7986 H   0  0  0  0  0  0  0  0  0  0  0  0
  150.5780  140.2201  155.6348 H   0  0  0  0  0  0  0  0  0  0  0  0
  151.3985  139.2939  154.3804 H   0  0  0  0  0  0  0  0  0  0  0  0
  150.1214  140.1189  158.0960 H   0  0  0  0  0  0  0  0  0  0  0  0
  150.4538  139.0684  159.4241 H   0  0  0  0  0  0  0  0  0  0  0  0
  151.4010  141.3268  159.8942 H   0  0  0  0  0  0  0  0  0  0  0  0
  154.0651  141.8974  158.8618 H   0  0  0  0  0  0  0  0  0  0  0  0
  155.2472  141.4960  160.9972 H   0  0  0  0  0  0  0  0  0  0  0  0
  154.4796  140.0108  160.4852 H   0  0  0  0  0  0  0  0  0  0  0  0
  153.7500  140.9710  161.7671 H   0  0  0  0  0  0  0  0  0  0  0  0
  153.9917  143.7955  160.3982 H   0  0  0  0  0  0  0  0  0  0  0  0
  151.3631  142.6521  161.4564 H   0  0  0  0  0  0  0  0  0  0  0  0
  152.0044  144.2453  161.8416 H   0  0  0  0  0  0  0  0  0  0  0  0
  152.8619  142.8120  162.3674 H   0  0  0  0  0  0  0  0  0  0  0  0
  151.3644  143.4597  158.8745 H   0  0  0  0  0  0  0  0  0  0  0  0
  152.8556  144.1607  158.2462 H   0  0  0  0  0  0  0  0  0  0  0  0
  151.9728  144.9836  159.5118 H   0  0  0  0  0  0  0  0  0  0  0  0
  1  2  1  0  0  0  0
  1 19  1  0  0  0  0
  1 20  1  0  0  0  0
  1 21  1  0  0  0  0
  2 18  1  0  0  0  0
  2  3  2  0  0  0  0
  3  4  1  0  0  0  0
  4  5  1  0  0  0  0
  4  6  2  0  0  0  0
  5 22  1  0  0  0  0
  5 23  1  0  0  0  0
  5 24  1  0  0  0  0
  6  7  1  0  0  0  0
  6 16  1  0  0  0  0
  7  8  1  0  0  0  0
  7 25  1  0  0  0  0
  7 26  1  0  0  0  0
  8  9  2  0  0  0  0
  8 10  1  0  0  0  0
 10 11  1  0  0  0  0
 10 27  1  0  0  0  0
 11 12  1  0  0  0  0
 11 13  1  0  0  0  0
 11 28  1  0  0  0  0
 12 29  1  0  0  0  0
 12 30  1  0  0  0  0
 12 31  1  0  0  0  0
 13 14  1  0  0  0  0
 13 15  1  0  0  0  0
 13 32  1  0  0  0  0
 14 33  1  0  0  0  0
 14 34  1  0  0  0  0
 14 35  1  0  0  0  0
 15 36  1  0  0  0  0
 15 37  1  0  0  0  0
 15 38  1  0  0  0  0
 16 17  2  0  0  0  0
 16 18  1  0  0  0  0
M  CHG  1  18  -1
M  END
> <s_m_source_file>
AV-unprocessed.smi

> <i_m_source_file_index>
1362

> <i_lp_mmshare_version>
43012

> <i_f3d_flags>
0

> <s_epik_input>
W0NIM11jMW5jKFtDSDNdKWMoYyg9TylbbkhdMSlbQ0gyXUMoPU8pW05IXVtDQEhdKFtDSDNdKVtDSF0oW0NIM10pW0NIM10=

> <s_epik_cmdline>
J2VwaWtfcHl0aG9uJywgJy1waCcsICc3LjAnLCAnLXRuJywgJzgnLCAnLW1hJywgJzIwMCcsICctbWV0YWxfYmluZGluZycsICctaW1hZScsICc8aW5maWxlLm1hZT4nLCAnLW9tYWUnLCAnPG91dGZpbGUubWFlPic=

> <r_lp_tautomer_probability>
0.839158

> <r_epik_Ionization_Penalty>
6.62204

> <r_epik_Ionization_Penalty_Charging>
7.30593e-08

> <r_epik_Ionization_Penalty_Neutral>
6.62204

> <r_epik_State_Penalty>
4.44062

> <r_epik_Charging_Adjusted_Penalty>
4.44062

> <i_epik_Tot_Q>
-1

> <i_epik_Tot_abs_Q>
1

> <r_epik_Metal_State_Penalty>
0.802984

> <b_epik_Metal_Only>
1

> <s_lp_Force_Field>
OPLS_2005

> <r_lp_Energy>
10.6651

> <b_lp_Chiralities_Consistent>
1

> <s_lp_Variant>
AV-unprocessed.smi:1362-5

> <Gold.Version>
5.8.1

> <Gold.Id.Protein>
6NUR|6NUR_protein|mol2

> <Gold.PLP.Fitness>
38.8204

> <Gold.PLP.PLP>
-33.5798

> <Gold.PLP.part.hbond>
-2.0000

> <Gold.PLP.part.metal>
0.0000

> <Gold.PLP.part.buried>
-5.3902

> <Gold.PLP.part.nonpolar>
-26.7758

> <Gold.PLP.part.repulsive>
0.2389

> <Gold.PLP.ligand.clash>
0.0000

> <Gold.PLP.ligand.torsion>
0.3690

> <Gold.PLP.Chemscore.Hbond>
1.9833

> <Gold.PLP.Chemscore.CHOScore>
0.0000

> <Gold.PLP.Chemscore.Metal>
0.0000

> <Gold.Chemscore.Hbonds>
donor molecule, donor type, donor heavy atom, donor atom, acceptor molecule, acceptor atom, score
      P1  H  6896  6908       L1    17  0.98
      P1  H  7997  8010       L1     9  1.00

> <Gold.PLP.Chemscore.Internal.Correction>
0.0286

> <Gold.Rescore>
     Score         DG    S(hbond)    S(metal)    S(lipo)     H(rot)  DE(clash)    DE(int)     intcor
     16.62     -17.07       1.92        0.00      80.15       1.64       0.00       0.44       ----

> <Gold.Chemscore.Fitness>
16.6215

> <Gold.Chemscore.DG>
-17.0694

> <Gold.Chemscore.ZeroCoef>
-5.4800

> <Gold.Chemscore.Hbond>
1.9216

> <Gold.Chemscore.Metal>
0.0000

> <Gold.Chemscore.Lipo>
80.1545

> <Gold.Chemscore.Internal_Hbond>
0.0000

> <Gold.Chemscore.DEClash>
0.0048

> <Gold.Chemscore.DEInternal>
0.4431

> <Gold.Chemscore.Rot>
1.6433

> <Gold.Chemscore.Internal.Correction>
   9.000000E+99

> <Gold.Chemscore.Hbonds>
donor molecule, donor type, donor heavy atom, donor atom, acceptor molecule, acceptor atom, score
      P1  H  6896  6908       L1    17  0.22
      P1  H  7997  8010       L1     9  0.99

> <Gold.Chemscore.Hbond.Weighted>
-6.4183

> <Gold.Chemscore.Metal.Weighted>
-0.0000

> <Gold.Chemscore.Lipo.Weighted>
-9.3781

> <Gold.Chemscore.Internal_Hbond.Weighted>
0.0000

> <Gold.Chemscore.DEClash.Weighted>
0.0048

> <Gold.Chemscore.DEInternal.Weighted>
0.4431

> <Gold.Chemscore.Rot.Weighted>
4.2069

> <Gold.Chemscore.Internal.Correction.Weighted>
   9.000000E+99

> <Gold.Protein.RotatedTorsions>
[ 6907 6896 6895 6894 ] final -176.16 input  -60.11 | X-H torsion
[ 7974 7965 7964 7962 ] final  -75.80 input  175.53 | X-H torsion
[ 8008 7997 7996 7995 ] final   23.56 input   59.86 | X-H torsion
[ 10167 10162 10161 10158 ] final   65.39 input  -65.29 | X-H torsion
[ 10718 10713 10712 10709 ] final  -70.81 input   66.30 | X-H torsion
[ 10763 10752 10751 10750 ] final  -45.21 input  -60.55 | X-H torsion
[ 11005 11000 10999 10996 ] final -116.59 input  -57.11 | X-H torsion

> <Gold.Protein.ActiveResidues>
 VAL166  LYS551  ARG553  GLY616  TRP617  ASP618  TYR619  PRO620  LYS621  CYS622 
 ASP623  PHE694  ASN695  SER759  ASP760  ASP761  ALA762  ILE779  LEU786  VAL792 
 PHE793  MET794  SER795  GLU796  ALA797  LYS798  CYS799  TRP800  GLU811  SER814 

> <Gold.Protein.RotatedAtoms>
  151.6003  133.3357  159.3045 H   0  0  0  0  0  0  0  0  0  0  0  0  # atno 6907 bound_to 6896
  150.8211  134.7423  159.6785 H   0  0  0  0  0  0  0  0  0  0  0  0  # atno 6908 bound_to 6896
  152.4305  134.5793  159.9995 H   0  0  0  0  0  0  0  0  0  0  0  0  # atno 6909 bound_to 6896
  145.6212  140.9362  143.1137 H   0  0  0  0  0  0  0  0  0  0  0  0  # atno 7974 bound_to 7965
  154.9828  140.3104  155.4939 H   0  0  0  0  0  0  0  0  0  0  0  0  # atno 8008 bound_to 7997
  156.2951  140.2263  156.4868 H   0  0  0  0  0  0  0  0  0  0  0  0  # atno 8009 bound_to 7997
  154.7774  140.0448  157.1088 H   0  0  0  0  0  0  0  0  0  0  0  0  # atno 8010 bound_to 7997
  140.1118  144.4811  150.6973 H   0  0  0  0  0  0  0  0  0  0  0  0  # atno 10167 bound_to 10162
  156.0391  130.4339  150.2351 H   0  0  0  0  0  0  0  0  0  0  0  0  # atno 10718 bound_to 10713
  154.0248  135.6664  153.4775 H   0  0  0  0  0  0  0  0  0  0  0  0  # atno 10763 bound_to 10752
  153.0565  135.5053  154.7989 H   0  0  0  0  0  0  0  0  0  0  0  0  # atno 10764 bound_to 10752
  154.6915  135.3062  154.9438 H   0  0  0  0  0  0  0  0  0  0  0  0  # atno 10765 bound_to 10752
  141.0412  133.9833  157.2991 H   0  0  0  0  0  0  0  0  0  0  0  0  # atno 11005 bound_to 11000
  144.7230  139.7966  143.7375 LP  0  0  0  0  0  0  0  0  0  0  0  0  # atno 17320 bound_to 7965
  146.1430  139.4491  143.0097 LP  0  0  0  0  0  0  0  0  0  0  0  0  # atno 17321 bound_to 7965
  140.6921  143.2382  151.5102 LP  0  0  0  0  0  0  0  0  0  0  0  0  # atno 17342 bound_to 10162
  139.5615  144.2145  152.1698 LP  0  0  0  0  0  0  0  0  0  0  0  0  # atno 17343 bound_to 10162
  157.0448  131.0045  151.3272 LP  0  0  0  0  0  0  0  0  0  0  0  0  # atno 17370 bound_to 10713
  157.5183  130.7982  149.7781 LP  0  0  0  0  0  0  0  0  0  0  0  0  # atno 17371 bound_to 10713
  139.9277  135.0201  156.8292 LP  0  0  0  0  0  0  0  0  0  0  0  0  # atno 17394 bound_to 11000
  140.6231  133.9975  155.7627 LP  0  0  0  0  0  0  0  0  0  0  0  0  # atno 17395 bound_to 11000

$$$$
