AV-unprocessed.smi:3116|AV-procd|sdf|11874|dock1
  -GOLD-   2272017253D 1   1.00000     0.00000
 Structure written by MMmdl.
 33 33  0  0  0  0  0  0  0  0  1 V2000
  145.6844  134.5475  151.9614 C   0  0  0  0  0  0  0  0  0  0  0  0
  145.2497  136.0265  151.9922 C   0  0  2  0  0  0  0  0  0  0  0  0
  146.2873  136.8511  152.6323 N   0  0  0  0  0  0  0  0  0  0  0  0
  146.0815  138.2969  152.5467 C   0  0  2  0  0  0  0  0  0  0  0  0
  146.5532  138.8312  151.1802 C   0  0  0  0  0  0  0  0  0  0  0  0
  146.7932  138.9998  153.7338 C   0  0  1  0  0  0  0  0  0  0  0  0
  148.3100  138.7364  153.7748 C   0  0  0  0  0  0  0  0  0  0  0  0
  146.4942  140.4271  153.8199 N   0  0  0  0  0  0  0  0  0  0  0  0
  146.9129  141.4556  152.9975 C   0  0  0  0  0  0  0  0  0  0  0  0
  146.3510  142.6093  153.4634 C   0  0  0  0  0  0  0  0  0  0  0  0
  145.5902  142.1836  154.5871 C   0  0  0  0  0  0  0  0  0  0  0  0
  145.6745  140.8801  154.7950 N   0  0  0  0  0  0  0  0  0  0  0  0
  143.9073  136.2175  152.7161 C   0  0  0  0  0  0  0  0  0  0  0  0
  143.1161  137.1950  152.2650 N   0  0  0  0  0  0  0  0  0  0  0  0
  143.5776  135.5025  153.6610 O   0  0  0  0  0  0  0  0  0  0  0  0
  144.9299  133.9224  151.4823 H   0  0  0  0  0  0  0  0  0  0  0  0
  145.8506  134.1577  152.9668 H   0  0  0  0  0  0  0  0  0  0  0  0
  146.6108  134.4123  151.4045 H   0  0  0  0  0  0  0  0  0  0  0  0
  145.0893  136.3578  150.9648 H   0  0  0  0  0  0  0  0  0  0  0  0
  147.2169  136.6000  152.3274 H   0  0  0  0  0  0  0  0  0  0  0  0
  145.0142  138.5009  152.6469 H   0  0  0  0  0  0  0  0  0  0  0  0
  146.5004  139.9196  151.1505 H   0  0  0  0  0  0  0  0  0  0  0  0
  145.9282  138.4623  150.3673 H   0  0  0  0  0  0  0  0  0  0  0  0
  147.5836  138.5450  150.9664 H   0  0  0  0  0  0  0  0  0  0  0  0
  146.3955  138.5431  154.6422 H   0  0  0  0  0  0  0  0  0  0  0  0
  148.5195  137.6668  153.7925 H   0  0  0  0  0  0  0  0  0  0  0  0
  148.7574  139.1731  154.6681 H   0  0  0  0  0  0  0  0  0  0  0  0
  148.8221  139.1579  152.9094 H   0  0  0  0  0  0  0  0  0  0  0  0
  147.5672  141.2838  152.1555 H   0  0  0  0  0  0  0  0  0  0  0  0
  146.4641  143.6051  153.0614 H   0  0  0  0  0  0  0  0  0  0  0  0
  144.9811  142.7782  155.2516 H   0  0  0  0  0  0  0  0  0  0  0  0
  142.2187  137.3542  152.6991 H   0  0  0  0  0  0  0  0  0  0  0  0
  143.4146  137.7625  151.4850 H   0  0  0  0  0  0  0  0  0  0  0  0
  1  2  1  0  0  0  0
  1 16  1  0  0  0  0
  1 17  1  0  0  0  0
  1 18  1  0  0  0  0
  2  3  1  0  0  0  0
  2 13  1  0  0  0  0
  2 19  1  0  0  0  0
  3  4  1  0  0  0  0
  3 20  1  0  0  0  0
  4  5  1  0  0  0  0
  4  6  1  0  0  0  0
  4 21  1  0  0  0  0
  5 22  1  0  0  0  0
  5 23  1  0  0  0  0
  5 24  1  0  0  0  0
  6  7  1  0  0  0  0
  6  8  1  0  0  0  0
  6 25  1  0  0  0  0
  7 26  1  0  0  0  0
  7 27  1  0  0  0  0
  7 28  1  0  0  0  0
  8 12  1  0  0  0  0
  8  9  1  0  0  0  0
  9 10  2  0  0  0  0
  9 29  1  0  0  0  0
 10 11  1  0  0  0  0
 10 30  1  0  0  0  0
 11 12  2  0  0  0  0
 11 31  1  0  0  0  0
 13 14  1  0  0  0  0
 13 15  2  0  0  0  0
 14 32  1  0  0  0  0
 14 33  1  0  0  0  0
M  END
> <s_m_source_file>
AV-unprocessed.smi

> <i_m_source_file_index>
3116

> <i_lp_mmshare_version>
43012

> <i_f3d_flags>
0

> <s_epik_input>
W05IMl1DKD1PKVtDQEhdKFtDSDNdKVtOSF1bQ0BIXShbQ0gzXSlbQ0BIXShbQ0gzXSluMVtjSF1bY0hdW2NIXW4x

> <s_epik_cmdline>
J2VwaWtfcHl0aG9uJywgJy1waCcsICc3LjAnLCAnLXRuJywgJzgnLCAnLW1hJywgJzIwMCcsICctbWV0YWxfYmluZGluZycsICctaW1hZScsICc8aW5maWxlLm1hZT4nLCAnLW9tYWUnLCAnPG91dGZpbGUubWFlPic=

> <r_lp_tautomer_probability>
1

> <r_epik_Ionization_Penalty>
0.865977

> <r_epik_Ionization_Penalty_Charging>
0

> <r_epik_Ionization_Penalty_Neutral>
0.865977

> <r_epik_State_Penalty>
0.901888

> <r_epik_Charging_Adjusted_Penalty>
0.901888

> <i_epik_Tot_Q>
0

> <i_epik_Tot_abs_Q>
0

> <r_epik_Metal_State_Penalty>
0.901181

> <b_epik_Metal_Only>
0

> <s_lp_Force_Field>
OPLS_2005

> <r_lp_Energy>
11.5103

> <b_lp_Chiralities_Consistent>
1

> <s_lp_Variant>
AV-unprocessed.smi:3116-13

> <Gold.Version>
5.8.1

> <Gold.Id.Protein>
6NUR|6NUR_protein|mol2

> <Gold.PLP.Fitness>
32.7549

> <Gold.PLP.PLP>
-25.9280

> <Gold.PLP.part.hbond>
-3.0000

> <Gold.PLP.part.metal>
0.0000

> <Gold.PLP.part.buried>
-1.9684

> <Gold.PLP.part.nonpolar>
-21.7718

> <Gold.PLP.part.repulsive>
0.2017

> <Gold.PLP.ligand.clash>
0.0000

> <Gold.PLP.ligand.torsion>
1.1901

> <Gold.PLP.Chemscore.Hbond>
2.0000

> <Gold.PLP.Chemscore.CHOScore>
0.9994

> <Gold.PLP.Chemscore.Metal>
0.0000

> <Gold.Chemscore.Hbonds>
donor molecule, donor type, donor heavy atom, donor atom, acceptor molecule, acceptor atom, score
      L1  H     3    20       P1  7948  1.00
      L1  H    14    33       P1 10171  1.00
      L1  C     9    29       P1  7957  0.93

> <Gold.PLP.Chemscore.Internal.Correction>
0.2089

> <Gold.Rescore>
     Score         DG    S(hbond)    S(metal)    S(lipo)     H(rot)  DE(clash)    DE(int)     intcor
     11.45     -12.41       1.92        0.00      56.53       2.38       0.63       0.33       ----

> <Gold.Chemscore.Fitness>
11.4450

> <Gold.Chemscore.DG>
-12.4091

> <Gold.Chemscore.ZeroCoef>
-5.4800

> <Gold.Chemscore.Hbond>
1.9215

> <Gold.Chemscore.Metal>
0.0000

> <Gold.Chemscore.Lipo>
56.5250

> <Gold.Chemscore.Internal_Hbond>
0.0000

> <Gold.Chemscore.DEClash>
0.6342

> <Gold.Chemscore.DEInternal>
0.3299

> <Gold.Chemscore.Rot>
2.3836

> <Gold.Chemscore.Internal.Correction>
   9.000000E+99

> <Gold.Chemscore.Hbonds>
donor molecule, donor type, donor heavy atom, donor atom, acceptor molecule, acceptor atom, score
      L1  H     3    20       P1  7948  1.00
      L1  H    14    33       P1 10171  0.90

> <Gold.Chemscore.Hbond.Weighted>
-6.4177

> <Gold.Chemscore.Metal.Weighted>
-0.0000

> <Gold.Chemscore.Lipo.Weighted>
-6.6134

> <Gold.Chemscore.Internal_Hbond.Weighted>
0.0000

> <Gold.Chemscore.DEClash.Weighted>
0.6342

> <Gold.Chemscore.DEInternal.Weighted>
0.3299

> <Gold.Chemscore.Rot.Weighted>
6.1020

> <Gold.Chemscore.Internal.Correction.Weighted>
   9.000000E+99

> <Gold.Protein.RotatedTorsions>
[ 6907 6896 6895 6894 ] final   85.86 input  -60.11 | X-H torsion
[ 7974 7965 7964 7962 ] final   45.72 input  175.53 | X-H torsion
[ 8008 7997 7996 7995 ] final  -15.03 input   59.86 | X-H torsion
[ 10167 10162 10161 10158 ] final   44.27 input  -65.29 | X-H torsion
[ 10718 10713 10712 10709 ] final  -34.03 input   66.30 | X-H torsion
[ 10763 10752 10751 10750 ] final  -74.44 input  -60.55 | X-H torsion
[ 11005 11000 10999 10996 ] final  -65.43 input  -57.11 | X-H torsion

> <Gold.Protein.ActiveResidues>
 VAL166  LYS551  ARG553  GLY616  TRP617  ASP618  TYR619  PRO620  LYS621  CYS622 
 ASP623  PHE694  ASN695  SER759  ASP760  ASP761  ALA762  ILE779  LEU786  VAL792 
 PHE793  MET794  SER795  GLU796  ALA797  LYS798  CYS799  TRP800  GLU811  SER814 

> <Gold.Protein.RotatedAtoms>
  152.5383  134.2520  159.8902 H   0  0  0  0  0  0  0  0  0  0  0  0  # atno 6907 bound_to 6896
  151.2483  133.4357  159.2618 H   0  0  0  0  0  0  0  0  0  0  0  0  # atno 6908 bound_to 6896
  151.0563  134.9721  159.8293 H   0  0  0  0  0  0  0  0  0  0  0  0  # atno 6909 bound_to 6896
  146.0455  139.4934  142.9751 H   0  0  0  0  0  0  0  0  0  0  0  0  # atno 7974 bound_to 7965
  154.5162  140.2207  155.9061 H   0  0  0  0  0  0  0  0  0  0  0  0  # atno 8008 bound_to 7997
  156.1610  140.3142  155.8773 H   0  0  0  0  0  0  0  0  0  0  0  0  # atno 8009 bound_to 7997
  155.3751  140.0469  157.3035 H   0  0  0  0  0  0  0  0  0  0  0  0  # atno 8010 bound_to 7997
  140.3360  144.2529  150.6161 H   0  0  0  0  0  0  0  0  0  0  0  0  # atno 10167 bound_to 10162
  156.3555  130.4315  149.7668 H   0  0  0  0  0  0  0  0  0  0  0  0  # atno 10718 bound_to 10713
  154.4732  135.5864  153.6336 H   0  0  0  0  0  0  0  0  0  0  0  0  # atno 10763 bound_to 10752
  152.9837  135.6072  154.3341 H   0  0  0  0  0  0  0  0  0  0  0  0  # atno 10764 bound_to 10752
  154.3224  135.2843  155.2492 H   0  0  0  0  0  0  0  0  0  0  0  0  # atno 10765 bound_to 10752
  141.1454  133.6681  156.5985 H   0  0  0  0  0  0  0  0  0  0  0  0  # atno 11005 bound_to 11000
  145.6813  141.0190  143.1605 LP  0  0  0  0  0  0  0  0  0  0  0  0  # atno 17320 bound_to 7965
  144.7096  139.8424  143.7419 LP  0  0  0  0  0  0  0  0  0  0  0  0  # atno 17321 bound_to 7965
  140.5353  143.2234  151.8173 LP  0  0  0  0  0  0  0  0  0  0  0  0  # atno 17342 bound_to 10162
  139.4848  144.4669  151.9473 LP  0  0  0  0  0  0  0  0  0  0  0  0  # atno 17343 bound_to 10162
  156.4852  130.8059  151.3072 LP  0  0  0  0  0  0  0  0  0  0  0  0  # atno 17370 bound_to 10713
  157.7467  130.9993  150.2884 LP  0  0  0  0  0  0  0  0  0  0  0  0  # atno 17371 bound_to 10713
  140.3707  134.7608  157.4596 LP  0  0  0  0  0  0  0  0  0  0  0  0  # atno 17394 bound_to 11000
  140.0713  134.5859  155.8639 LP  0  0  0  0  0  0  0  0  0  0  0  0  # atno 17395 bound_to 11000

$$$$
