AV-unprocessed.smi:598|AV-procd|sdf|3022|dock7
  -GOLD-   2262023533D 1   1.00000     0.00000
 Structure written by MMmdl.
 43 44  0  0  0  0  0  0  0  0  3 V2000
  152.1661  145.0137  158.8970 C   0  0  0  0  0  0  0  0  0  0  0  0
  152.3990  143.5173  158.6293 C   0  0  1  0  0  0  0  0  0  0  0  0
  152.8125  142.7658  159.9111 C   0  0  0  0  0  0  0  0  0  0  0  0
  153.1398  141.2928  159.6203 C   0  0  0  0  0  0  0  0  0  0  0  0
  151.9766  140.5883  158.9062 C   0  0  0  0  0  0  0  0  0  0  0  0
  151.5736  141.3391  157.6222 C   0  0  1  0  0  0  0  0  0  0  0  0
  150.4917  140.6236  156.9494 N   0  0  0  0  0  0  0  0  0  0  0  0
  150.5379  140.1428  155.6977 C   0  0  0  0  0  0  0  0  0  0  0  0
  151.5327  140.2285  154.9766 O   0  0  0  0  0  0  0  0  0  0  0  0
  149.2649  139.4478  155.1954 C   0  0  0  0  0  0  0  0  0  0  0  0
  148.1100  140.3572  155.1094 N   0  0  0  0  0  0  0  0  0  0  0  0
  146.9756  140.0308  155.8791 C   0  0  0  0  0  0  0  0  0  0  0  0
  145.8626  140.7904  155.8712 C   0  0  0  0  0  0  0  0  0  0  0  0
  144.7050  140.4378  156.6639 N   0  3  0  0  0  0  0  0  0  0  0  0
  143.7194  141.1673  156.6227 O   0  0  0  0  0  0  0  0  0  0  0  0
  144.7419  139.4231  157.3538 O   0  5  0  0  0  0  0  0  0  0  0  0
  145.8608  141.9752  155.0347 C   0  0  0  0  0  0  0  0  0  0  0  0
  146.9415  142.2911  154.2942 C   0  0  0  0  0  0  0  0  0  0  0  0
  148.1512  141.4624  154.3034 C   0  0  0  0  0  0  0  0  0  0  0  0
  149.1413  141.7444  153.6277 O   0  0  0  0  0  0  0  0  0  0  0  0
  151.2091  142.8213  157.9153 C   0  0  1  0  0  0  0  0  0  0  0  0
  149.8610  142.9819  158.6567 C   0  0  0  0  0  0  0  0  0  0  0  0
  151.4011  145.1753  159.6566 H   0  0  0  0  0  0  0  0  0  0  0  0
  151.8566  145.5333  157.9898 H   0  0  0  0  0  0  0  0  0  0  0  0
  153.0799  145.4909  159.2519 H   0  0  0  0  0  0  0  0  0  0  0  0
  153.2470  143.4636  157.9445 H   0  0  0  0  0  0  0  0  0  0  0  0
  153.6841  143.2457  160.3576 H   0  0  0  0  0  0  0  0  0  0  0  0
  152.0185  142.8262  160.6558 H   0  0  0  0  0  0  0  0  0  0  0  0
  154.0350  141.2350  158.9999 H   0  0  0  0  0  0  0  0  0  0  0  0
  153.3757  140.7732  160.5494 H   0  0  0  0  0  0  0  0  0  0  0  0
  152.2680  139.5656  158.6637 H   0  0  0  0  0  0  0  0  0  0  0  0
  151.1250  140.5102  159.5830 H   0  0  0  0  0  0  0  0  0  0  0  0
  152.4412  141.3273  156.9593 H   0  0  0  0  0  0  0  0  0  0  0  0
  149.6346  140.5049  157.4697 H   0  0  0  0  0  0  0  0  0  0  0  0
  149.4829  139.0055  154.2224 H   0  0  0  0  0  0  0  0  0  0  0  0
  149.0259  138.6041  155.8459 H   0  0  0  0  0  0  0  0  0  0  0  0
  147.0739  139.1259  156.4616 H   0  0  0  0  0  0  0  0  0  0  0  0
  144.9929  142.6169  154.9944 H   0  0  0  0  0  0  0  0  0  0  0  0
  146.9184  143.1772  153.6769 H   0  0  0  0  0  0  0  0  0  0  0  0
  151.0853  143.3187  156.9523 H   0  0  0  0  0  0  0  0  0  0  0  0
  149.8836  142.5370  159.6508 H   0  0  0  0  0  0  0  0  0  0  0  0
  149.0432  142.5162  158.1069 H   0  0  0  0  0  0  0  0  0  0  0  0
  149.5906  144.0309  158.7712 H   0  0  0  0  0  0  0  0  0  0  0  0
  1  2  1  0  0  0  0
  1 23  1  0  0  0  0
  1 24  1  0  0  0  0
  1 25  1  0  0  0  0
  2 21  1  0  0  0  0
  2  3  1  0  0  0  0
  2 26  1  0  0  0  0
  3  4  1  0  0  0  0
  3 27  1  0  0  0  0
  3 28  1  0  0  0  0
  4  5  1  0  0  0  0
  4 29  1  0  0  0  0
  4 30  1  0  0  0  0
  5  6  1  0  0  0  0
  5 31  1  0  0  0  0
  5 32  1  0  0  0  0
  6  7  1  0  0  0  0
  6 21  1  0  0  0  0
  6 33  1  0  0  0  0
  7  8  1  0  0  0  0
  7 34  1  0  0  0  0
  8  9  2  0  0  0  0
  8 10  1  0  0  0  0
 10 11  1  0  0  0  0
 10 35  1  0  0  0  0
 10 36  1  0  0  0  0
 11 19  1  0  0  0  0
 11 12  1  0  0  0  0
 12 13  2  0  0  0  0
 12 37  1  0  0  0  0
 13 14  1  0  0  0  0
 13 17  1  0  0  0  0
 14 15  2  0  0  0  0
 14 16  1  0  0  0  0
 17 18  2  0  0  0  0
 17 38  1  0  0  0  0
 18 19  1  0  0  0  0
 18 39  1  0  0  0  0
 19 20  2  0  0  0  0
 21 22  1  0  0  0  0
 21 40  1  0  0  0  0
 22 41  1  0  0  0  0
 22 42  1  0  0  0  0
 22 43  1  0  0  0  0
M  CHG  1  14   1
M  CHG  1  16  -1
M  END
> <s_m_source_file>
AV-unprocessed.smi

> <i_m_source_file_index>
598

> <i_lp_mmshare_version>
43012

> <i_f3d_flags>
0

> <s_epik_input>
W0NIM11bQ0BASF0xW0NIMl1bQ0gyXVtDSDJdW0NASF0oW0NASF0xW0NIM10pW05IXUMoPU8pW0NIMl1uMltjSF1jKFtOK10oPU8pW08tXSlbY0hdW2NIXWMyPU8=

> <s_epik_cmdline>
J2VwaWtfcHl0aG9uJywgJy1waCcsICc3LjAnLCAnLXRuJywgJzgnLCAnLW1hJywgJzIwMCcsICctbWV0YWxfYmluZGluZycsICctaW1hZScsICc8aW5maWxlLm1hZT4nLCAnLW9tYWUnLCAnPG91dGZpbGUubWFlPic=

> <r_lp_tautomer_probability>
1

> <r_epik_Ionization_Penalty>
1.91291e-08

> <r_epik_Ionization_Penalty_Charging>
8.21931e-11

> <r_epik_Ionization_Penalty_Neutral>
1.90469e-08

> <r_epik_State_Penalty>
-0

> <r_epik_Charging_Adjusted_Penalty>
8.21931e-11

> <i_epik_Tot_Q>
0

> <i_epik_Tot_abs_Q>
2

> <r_epik_Metal_State_Penalty>
-0

> <b_epik_Metal_Only>
0

> <s_lp_Force_Field>
OPLS_2005

> <r_lp_Energy>
25.1906

> <b_lp_Chiralities_Consistent>
1

> <s_lp_Variant>
AV-unprocessed.smi:598-2

> <Gold.Version>
5.8.1

> <Gold.Id.Protein>
6NUR|6NUR_protein|mol2

> <Gold.PLP.Fitness>
44.8620

> <Gold.PLP.PLP>
-39.7476

> <Gold.PLP.part.hbond>
-2.5199

> <Gold.PLP.part.metal>
0.0000

> <Gold.PLP.part.buried>
-4.7120

> <Gold.PLP.part.nonpolar>
-33.0951

> <Gold.PLP.part.repulsive>
1.5136

> <Gold.PLP.ligand.clash>
0.0000

> <Gold.PLP.ligand.torsion>
0.0307

> <Gold.PLP.Chemscore.Hbond>
1.7200

> <Gold.PLP.Chemscore.CHOScore>
0.0000

> <Gold.PLP.Chemscore.Metal>
0.0000

> <Gold.Chemscore.Hbonds>
donor molecule, donor type, donor heavy atom, donor atom, acceptor molecule, acceptor atom, score
      P1  H  7989  7998       L1     9  1.00
      P1  H  8011  8017       L1    20  0.66

> <Gold.PLP.Chemscore.Internal.Correction>
0.0158

> <Gold.Rescore>
     Score         DG    S(hbond)    S(metal)    S(lipo)     H(rot)  DE(clash)    DE(int)     intcor
     16.90     -18.47       1.65        0.00      97.72       1.54       0.42       1.14       ----

> <Gold.Chemscore.Fitness>
16.9039

> <Gold.Chemscore.DG>
-18.4684

> <Gold.Chemscore.ZeroCoef>
-5.4800

> <Gold.Chemscore.Hbond>
1.6456

> <Gold.Chemscore.Metal>
0.0000

> <Gold.Chemscore.Lipo>
97.7163

> <Gold.Chemscore.Internal_Hbond>
0.0000

> <Gold.Chemscore.DEClash>
0.4204

> <Gold.Chemscore.DEInternal>
1.1441

> <Gold.Chemscore.Rot>
1.5393

> <Gold.Chemscore.Internal.Correction>
   9.000000E+99

> <Gold.Chemscore.Hbonds>
donor molecule, donor type, donor heavy atom, donor atom, acceptor molecule, acceptor atom, score
      P1  H  7989  7998       L1     9  0.94
      P1  H  8011  8017       L1    20  0.65

> <Gold.Chemscore.Hbond.Weighted>
-5.4963

> <Gold.Chemscore.Metal.Weighted>
-0.0000

> <Gold.Chemscore.Lipo.Weighted>
-11.4328

> <Gold.Chemscore.Internal_Hbond.Weighted>
0.0000

> <Gold.Chemscore.DEClash.Weighted>
0.4204

> <Gold.Chemscore.DEInternal.Weighted>
1.1441

> <Gold.Chemscore.Rot.Weighted>
3.9407

> <Gold.Chemscore.Internal.Correction.Weighted>
   9.000000E+99

> <Gold.Protein.RotatedTorsions>
[ 6907 6896 6895 6894 ] final  -96.03 input  -60.11 | X-H torsion
[ 7974 7965 7964 7962 ] final -171.32 input  175.53 | X-H torsion
[ 8008 7997 7996 7995 ] final  -84.52 input   59.86 | X-H torsion
[ 10167 10162 10161 10158 ] final -110.77 input  -65.29 | X-H torsion
[ 10718 10713 10712 10709 ] final  126.67 input   66.30 | X-H torsion
[ 10763 10752 10751 10750 ] final  147.22 input  -60.55 | X-H torsion
[ 11005 11000 10999 10996 ] final -155.23 input  -57.11 | X-H torsion

> <Gold.Protein.ActiveResidues>
 VAL166  LYS551  ARG553  GLY616  TRP617  ASP618  TYR619  PRO620  LYS621  CYS622 
 ASP623  PHE694  ASN695  SER759  ASP760  ASP761  ALA762  ILE779  LEU786  VAL792 
 PHE793  MET794  SER795  GLU796  ALA797  LYS798  CYS799  TRP800  GLU811  SER814 

> <Gold.Protein.RotatedAtoms>
  150.6978  134.1565  159.4159 H   0  0  0  0  0  0  0  0  0  0  0  0  # atno 6907 bound_to 6896
  151.9547  135.0150  160.0553 H   0  0  0  0  0  0  0  0  0  0  0  0  # atno 6908 bound_to 6896
  152.1980  133.4785  159.5080 H   0  0  0  0  0  0  0  0  0  0  0  0  # atno 6909 bound_to 6896
  144.7158  140.1940  143.6345 H   0  0  0  0  0  0  0  0  0  0  0  0  # atno 7974 bound_to 7965
  154.6307  140.0604  156.9728 H   0  0  0  0  0  0  0  0  0  0  0  0  # atno 8008 bound_to 7997
  155.1670  140.3287  155.4381 H   0  0  0  0  0  0  0  0  0  0  0  0  # atno 8009 bound_to 7997
  156.2481  140.1921  156.6775 H   0  0  0  0  0  0  0  0  0  0  0  0  # atno 8010 bound_to 7997
  140.1408  143.4280  152.1563 H   0  0  0  0  0  0  0  0  0  0  0  0  # atno 10167 bound_to 10162
  157.5399  131.1097  150.8876 H   0  0  0  0  0  0  0  0  0  0  0  0  # atno 10718 bound_to 10713
  154.0348  135.2894  155.3363 H   0  0  0  0  0  0  0  0  0  0  0  0  # atno 10763 bound_to 10752
  154.6965  135.5205  153.8469 H   0  0  0  0  0  0  0  0  0  0  0  0  # atno 10764 bound_to 10752
  153.0624  135.6619  154.0558 H   0  0  0  0  0  0  0  0  0  0  0  0  # atno 10765 bound_to 10752
  140.6888  134.4064  157.5221 H   0  0  0  0  0  0  0  0  0  0  0  0  # atno 11005 bound_to 11000
  145.8742  139.2288  143.1643 LP  0  0  0  0  0  0  0  0  0  0  0  0  # atno 17320 bound_to 7965
  146.0056  140.8481  142.9996 LP  0  0  0  0  0  0  0  0  0  0  0  0  # atno 17321 bound_to 7965
  139.5473  144.7309  151.4544 LP  0  0  0  0  0  0  0  0  0  0  0  0  # atno 17342 bound_to 10162
  140.6761  143.8186  150.7060 LP  0  0  0  0  0  0  0  0  0  0  0  0  # atno 17343 bound_to 10162
  156.9432  130.5392  149.5280 LP  0  0  0  0  0  0  0  0  0  0  0  0  # atno 17370 bound_to 10713
  156.0488  130.5561  150.8942 LP  0  0  0  0  0  0  0  0  0  0  0  0  # atno 17371 bound_to 10713
  139.8930  134.8742  156.2246 LP  0  0  0  0  0  0  0  0  0  0  0  0  # atno 17394 bound_to 11000
  141.0258  133.7015  156.1346 LP  0  0  0  0  0  0  0  0  0  0  0  0  # atno 17395 bound_to 11000

$$$$
