AV-unprocessed.smi:2083|AV-procd|sdf|8496|dock2
  -GOLD-   2272011203D 1   1.00000     0.00000
 Structure written by MMmdl.
 45 46  0  0  0  0  0  0  0  0  2 V2000
  146.8590  133.9989  162.4615 C   0  0  0  0  0  0  0  0  0  0  0  0
  147.1365  135.1122  161.5106 C   0  0  0  0  0  0  0  0  0  0  0  0
  147.5093  135.1415  160.1963 C   0  0  0  0  0  0  0  0  0  0  0  0
  147.6014  136.5315  159.9212 C   0  0  0  0  0  0  0  0  0  0  0  0
  147.9703  136.9953  158.6329 N   0  0  0  0  0  0  0  0  0  0  0  0
  147.4498  136.6238  157.4511 C   0  0  0  0  0  0  0  0  0  0  0  0
  146.5366  135.8116  157.3005 O   0  0  0  0  0  0  0  0  0  0  0  0
  148.0516  137.2520  156.4306 N   0  0  0  0  0  0  0  0  0  0  0  0
  147.7064  137.0725  155.0228 C   0  0  0  0  0  0  0  0  0  0  0  0
  147.4677  135.5845  154.6364 C   0  0  2  0  0  0  0  0  0  0  0  0
  148.7600  134.7652  154.8554 C   0  0  0  0  0  0  0  0  0  0  0  0
  146.9659  135.3832  153.2360 N   0  3  2  0  0  0  0  0  0  0  0  0
  145.7760  136.1960  152.8472 C   0  0  0  0  0  0  0  0  0  0  0  0
  145.4180  136.0080  151.3635 C   0  0  0  0  0  0  0  0  0  0  0  0
  145.1953  134.5318  151.0241 C   0  0  0  0  0  0  0  0  0  0  0  0
  146.4275  133.7125  151.4331 C   0  0  2  0  0  0  0  0  0  0  0  0
  146.2377  132.2217  151.1190 C   0  0  0  0  0  0  0  0  0  0  0  0
  146.7395  133.9413  152.9250 C   0  0  0  0  0  0  0  0  0  0  0  0
  147.3078  137.2833  160.9712 N   0  0  0  0  0  0  0  0  0  0  0  0
  147.0092  136.3772  161.9956 O   0  0  0  0  0  0  0  0  0  0  0  0
  146.8250  133.0416  161.9414 H   0  0  0  0  0  0  0  0  0  0  0  0
  145.9017  134.1457  162.9617 H   0  0  0  0  0  0  0  0  0  0  0  0
  147.6351  133.9414  163.2246 H   0  0  0  0  0  0  0  0  0  0  0  0
  147.6881  134.3020  159.5410 H   0  0  0  0  0  0  0  0  0  0  0  0
  148.7089  137.6826  158.6108 H   0  0  0  0  0  0  0  0  0  0  0  0
  148.7930  137.9044  156.6409 H   0  0  0  0  0  0  0  0  0  0  0  0
  146.8229  137.6825  154.8297 H   0  0  0  0  0  0  0  0  0  0  0  0
  148.5168  137.4909  154.4249 H   0  0  0  0  0  0  0  0  0  0  0  0
  146.7012  135.1991  155.3108 H   0  0  0  0  0  0  0  0  0  0  0  0
  149.1184  134.8410  155.8819 H   0  0  0  0  0  0  0  0  0  0  0  0
  149.5600  135.1149  154.2023 H   0  0  0  0  0  0  0  0  0  0  0  0
  148.6223  133.7024  154.6645 H   0  0  0  0  0  0  0  0  0  0  0  0
  144.9270  135.9302  153.4794 H   0  0  0  0  0  0  0  0  0  0  0  0
  145.9683  137.2590  152.9875 H   0  0  0  0  0  0  0  0  0  0  0  0
  144.5239  136.5835  151.1215 H   0  0  0  0  0  0  0  0  0  0  0  0
  146.2195  136.4084  150.7415 H   0  0  0  0  0  0  0  0  0  0  0  0
  144.3090  134.1636  151.5431 H   0  0  0  0  0  0  0  0  0  0  0  0
  145.0018  134.4213  149.9564 H   0  0  0  0  0  0  0  0  0  0  0  0
  147.2804  134.0644  150.8504 H   0  0  0  0  0  0  0  0  0  0  0  0
  145.3990  131.8022  151.6753 H   0  0  0  0  0  0  0  0  0  0  0  0
  147.1285  131.6488  151.3774 H   0  0  0  0  0  0  0  0  0  0  0  0
  146.0438  132.0660  150.0572 H   0  0  0  0  0  0  0  0  0  0  0  0
  147.6149  133.3500  153.1875 H   0  0  0  0  0  0  0  0  0  0  0  0
  145.9195  133.5653  153.5395 H   0  0  0  0  0  0  0  0  0  0  0  0
  147.7118  135.6965  152.6316 H   0  0  0  0  0  0  0  0  0  0  0  0
  1  2  1  0  0  0  0
  1 21  1  0  0  0  0
  1 22  1  0  0  0  0
  1 23  1  0  0  0  0
  2 20  1  0  0  0  0
  2  3  2  0  0  0  0
  3  4  1  0  0  0  0
  3 24  1  0  0  0  0
  4  5  1  0  0  0  0
  4 19  2  0  0  0  0
  5  6  1  0  0  0  0
  5 25  1  0  0  0  0
  6  7  2  0  0  0  0
  6  8  1  0  0  0  0
  8  9  1  0  0  0  0
  8 26  1  0  0  0  0
  9 10  1  0  0  0  0
  9 27  1  0  0  0  0
  9 28  1  0  0  0  0
 10 11  1  0  0  0  0
 10 12  1  0  0  0  0
 10 29  1  0  0  0  0
 11 30  1  0  0  0  0
 11 31  1  0  0  0  0
 11 32  1  0  0  0  0
 12 18  1  0  0  0  0
 12 13  1  0  0  0  0
 12 45  1  0  0  0  0
 13 14  1  0  0  0  0
 13 33  1  0  0  0  0
 13 34  1  0  0  0  0
 14 15  1  0  0  0  0
 14 35  1  0  0  0  0
 14 36  1  0  0  0  0
 15 16  1  0  0  0  0
 15 37  1  0  0  0  0
 15 38  1  0  0  0  0
 16 17  1  0  0  0  0
 16 18  1  0  0  0  0
 16 39  1  0  0  0  0
 17 40  1  0  0  0  0
 17 41  1  0  0  0  0
 17 42  1  0  0  0  0
 18 43  1  0  0  0  0
 18 44  1  0  0  0  0
 19 20  1  0  0  0  0
M  CHG  1  12   1
M  END
> <s_m_source_file>
AV-unprocessed.smi

> <i_m_source_file_index>
2083

> <i_lp_mmshare_version>
43012

> <i_f3d_flags>
0

> <s_epik_input>
W0NIM11jMVtjSF1jKG5vMSlbTkhdQyg9TylbTkhdW0NIMl1bQ0BIXShbQ0gzXSlOMltDSDJdW0NIMl1bQ0gyXVtDQEBIXShbQ0gzXSlbQ0gyXTI=

> <s_epik_cmdline>
J2VwaWtfcHl0aG9uJywgJy1waCcsICc3LjAnLCAnLXRuJywgJzgnLCAnLW1hJywgJzIwMCcsICctbWV0YWxfYmluZGluZycsICctaW1hZScsICc8aW5maWxlLm1hZT4nLCAnLW9tYWUnLCAnPG91dGZpbGUubWFlPic=

> <r_epik_Ionization_Penalty>
0.00216453

> <r_epik_Ionization_Penalty_Charging>
0.00212879

> <r_epik_Ionization_Penalty_Neutral>
3.57418e-05

> <r_epik_State_Penalty>
0.00146033

> <r_epik_Charging_Adjusted_Penalty>
0.00358912

> <i_epik_Tot_Q>
1

> <i_epik_Tot_abs_Q>
1

> <r_epik_Metal_State_Penalty>
0.0215827

> <b_epik_Metal_Only>
0

> <s_lp_Force_Field>
OPLS_2005

> <r_lp_Energy>
18.748

> <b_lp_Chiralities_Consistent>
1

> <s_lp_Variant>
AV-unprocessed.smi:2083-7

> <Gold.Version>
5.8.1

> <Gold.Id.Protein>
6NUR|6NUR_protein|mol2

> <Gold.PLP.Fitness>
39.0817

> <Gold.PLP.PLP>
-28.8238

> <Gold.PLP.part.hbond>
-3.0000

> <Gold.PLP.part.metal>
0.0000

> <Gold.PLP.part.buried>
-3.4290

> <Gold.PLP.part.nonpolar>
-21.7816

> <Gold.PLP.part.repulsive>
0.1190

> <Gold.PLP.ligand.clash>
0.0000

> <Gold.PLP.ligand.torsion>
0.5954

> <Gold.PLP.Chemscore.Hbond>
3.7920

> <Gold.PLP.Chemscore.CHOScore>
0.0000

> <Gold.PLP.Chemscore.Metal>
0.0000

> <Gold.Chemscore.Hbonds>
donor molecule, donor type, donor heavy atom, donor atom, acceptor molecule, acceptor atom, score
      L1  H    12    45       P1  7948  2.00
      P1  H  6931  6943       L1    19  0.45
      P1  H  6934  6947       L1    19  1.00

> <Gold.PLP.Chemscore.Internal.Correction>
0.0727

> <Gold.Rescore>
     Score         DG    S(hbond)    S(metal)    S(lipo)     H(rot)  DE(clash)    DE(int)     intcor
     15.24     -17.19       2.59        0.00      59.98       1.55       0.00       1.95       ----

> <Gold.Chemscore.Fitness>
15.2361

> <Gold.Chemscore.DG>
-17.1889

> <Gold.Chemscore.ZeroCoef>
-5.4800

> <Gold.Chemscore.Hbond>
2.5906

> <Gold.Chemscore.Metal>
0.0000

> <Gold.Chemscore.Lipo>
59.9797

> <Gold.Chemscore.Internal_Hbond>
0.0000

> <Gold.Chemscore.DEClash>
0.0000

> <Gold.Chemscore.DEInternal>
1.9528

> <Gold.Chemscore.Rot>
1.5474

> <Gold.Chemscore.Internal.Correction>
   9.000000E+99

> <Gold.Chemscore.Hbonds>
donor molecule, donor type, donor heavy atom, donor atom, acceptor molecule, acceptor atom, score
      L1  H    12    45       P1  7948  0.94
      P1  H  6931  6943       L1    19  0.09
      P1  H  6934  6947       L1    19  0.98

> <Gold.Chemscore.Hbond.Weighted>
-8.6525

> <Gold.Chemscore.Metal.Weighted>
-0.0000

> <Gold.Chemscore.Lipo.Weighted>
-7.0176

> <Gold.Chemscore.Internal_Hbond.Weighted>
0.0000

> <Gold.Chemscore.DEClash.Weighted>
0.0000

> <Gold.Chemscore.DEInternal.Weighted>
1.9528

> <Gold.Chemscore.Rot.Weighted>
3.9612

> <Gold.Chemscore.Internal.Correction.Weighted>
   9.000000E+99

> <Gold.Protein.RotatedTorsions>
[ 6907 6896 6895 6894 ] final -136.80 input  -60.11 | X-H torsion
[ 7974 7965 7964 7962 ] final  -80.81 input  175.53 | X-H torsion
[ 8008 7997 7996 7995 ] final   95.08 input   59.86 | X-H torsion
[ 10167 10162 10161 10158 ] final   83.90 input  -65.29 | X-H torsion
[ 10718 10713 10712 10709 ] final  150.84 input   66.30 | X-H torsion
[ 10763 10752 10751 10750 ] final   90.01 input  -60.55 | X-H torsion
[ 11005 11000 10999 10996 ] final  -18.19 input  -57.11 | X-H torsion

> <Gold.Protein.ActiveResidues>
 VAL166  LYS551  ARG553  GLY616  TRP617  ASP618  TYR619  PRO620  LYS621  CYS622 
 ASP623  PHE694  ASN695  SER759  ASP760  ASP761  ALA762  ILE779  LEU786  VAL792 
 PHE793  MET794  SER795  GLU796  ALA797  LYS798  CYS799  TRP800  GLU811  SER814 

> <Gold.Protein.RotatedAtoms>
  151.0145  133.5934  159.2678 H   0  0  0  0  0  0  0  0  0  0  0  0  # atno 6907 bound_to 6896
  151.3073  135.0784  159.9270 H   0  0  0  0  0  0  0  0  0  0  0  0  # atno 6908 bound_to 6896
  152.5308  133.9816  159.7863 H   0  0  0  0  0  0  0  0  0  0  0  0  # atno 6909 bound_to 6896
  145.5551  140.9491  143.1478 H   0  0  0  0  0  0  0  0  0  0  0  0  # atno 7974 bound_to 7965
  156.0650  140.3291  155.7506 H   0  0  0  0  0  0  0  0  0  0  0  0  # atno 8008 bound_to 7997
  155.5396  140.0600  157.2890 H   0  0  0  0  0  0  0  0  0  0  0  0  # atno 8009 bound_to 7997
  154.4500  140.1913  156.0565 H   0  0  0  0  0  0  0  0  0  0  0  0  # atno 8010 bound_to 7997
  139.9136  144.6256  150.8512 H   0  0  0  0  0  0  0  0  0  0  0  0  # atno 10167 bound_to 10162
  157.2783  131.0830  151.1550 H   0  0  0  0  0  0  0  0  0  0  0  0  # atno 10718 bound_to 10713
  153.1931  135.4449  155.0173 H   0  0  0  0  0  0  0  0  0  0  0  0  # atno 10763 bound_to 10752
  154.8102  135.3291  154.7328 H   0  0  0  0  0  0  0  0  0  0  0  0  # atno 10764 bound_to 10752
  153.7780  135.6979  153.4949 H   0  0  0  0  0  0  0  0  0  0  0  0  # atno 10765 bound_to 10752
  140.8243  133.8044  155.9692 H   0  0  0  0  0  0  0  0  0  0  0  0  # atno 11005 bound_to 11000
  144.7510  139.7193  143.7273 LP  0  0  0  0  0  0  0  0  0  0  0  0  # atno 17320 bound_to 7965
  146.1890  139.5120  142.9817 LP  0  0  0  0  0  0  0  0  0  0  0  0  # atno 17321 bound_to 7965
  140.7679  143.3347  151.2334 LP  0  0  0  0  0  0  0  0  0  0  0  0  # atno 17342 bound_to 10162
  139.6921  143.9674  152.2864 LP  0  0  0  0  0  0  0  0  0  0  0  0  # atno 17343 bound_to 10162
  157.2994  130.6835  149.6156 LP  0  0  0  0  0  0  0  0  0  0  0  0  # atno 17370 bound_to 10713
  155.9664  130.4396  150.5267 LP  0  0  0  0  0  0  0  0  0  0  0  0  # atno 17371 bound_to 10713
  140.9066  134.2313  157.5011 LP  0  0  0  0  0  0  0  0  0  0  0  0  # atno 17394 bound_to 11000
  139.8707  134.9731  156.4796 LP  0  0  0  0  0  0  0  0  0  0  0  0  # atno 17395 bound_to 11000

$$$$
