#       Name:                AV-unprocessed.smi:2204
#       Creating user name   scv26
#       Creation time:       Fri Mar 27 12:15:44 2020


#       File generated by GOLD software.
#

@<TRIPOS>MOLECULE
AV-unprocessed.smi:2204
    44    45     1
SMALL
NO_CHARGES


@<TRIPOS>ATOM
      1 ****        -1.4088   3.2560  -2.0027 C.3            1 S1                 0.0000
      2 ****        -1.6898   1.8638  -1.5199 C.2            1 S1                 0.0000
      3 ****        -2.4603   1.4612  -0.3940 C.2            1 S1                 0.0000
      4 ****        -2.3737   0.0976  -0.3957 C.2            1 S1                 0.0000
      5 ****        -2.9524  -0.9019   0.5507 C.3            1 S1                 0.0000
      6 ****        -1.5930  -0.2548  -1.4832 N.pl3          1 S1                 0.0000
      7 ****        -1.1661  -1.5778  -1.9232 C.3            1 S1                 0.0000
      8 ****         0.2749  -1.8777  -1.4976 C.2            1 S1                 0.0000
      9 ****         1.0839  -2.3019  -2.3221 O.2            1 S1                 0.0000
     10 ****         0.5806  -1.6368  -0.2130 N.am           1 S1                 0.0000
     11 ****         1.9137  -1.6688   0.3807 C.3            1 S1                 0.0000
     12 ****         2.0635  -2.9155   1.2642 C.3            1 S1                 0.0000
     13 ****         2.1685  -0.3621   1.1602 C.3            1 S1                 0.0000
     14 ****         2.1578   0.9142   0.3073 C.3            1 S1                 0.0000
     15 ****         1.6790   1.9526   1.2955 C.3            1 S1                 0.0000
     16 ****         0.6531   1.1584   2.0938 C.3            1 S1                 0.0000
     17 ****         1.1739  -0.1645   2.1667 O.3            1 S1                 0.0000
     18 ****        -1.1795   0.8323  -2.1716 N.2            1 S1                 0.0000
     19 ****        -2.0649   3.9799  -1.5191 H              1 S1                 0.0000
     20 ****        -1.5591   3.3403  -3.0794 H              1 S1                 0.0000
     21 ****        -0.3800   3.5435  -1.7846 H              1 S1                 0.0000
     22 ****        -2.9869   2.0815   0.3161 H              1 S1                 0.0000
     23 ****        -3.5082  -0.4070   1.3476 H              1 S1                 0.0000
     24 ****        -2.1664  -1.4998   1.0129 H              1 S1                 0.0000
     25 ****        -3.6359  -1.5763   0.0345 H              1 S1                 0.0000
     26 ****        -1.8325  -2.3358  -1.5114 H              1 S1                 0.0000
     27 ****        -1.2550  -1.6333  -3.0093 H              1 S1                 0.0000
     28 ****        -0.1614  -1.3036   0.3853 H              1 S1                 0.0000
     29 ****         2.6679  -1.7304  -0.4056 H              1 S1                 0.0000
     30 ****         3.0596  -2.9651   1.7046 H              1 S1                 0.0000
     31 ****         1.9148  -3.8267   0.6839 H              1 S1                 0.0000
     32 ****         1.3387  -2.9173   2.0791 H              1 S1                 0.0000
     33 ****         3.1304  -0.4239   1.6713 H              1 S1                 0.0000
     34 ****         3.1347   1.1473  -0.1167 H              1 S1                 0.0000
     35 ****         1.4449   0.8447  -0.5147 H              1 S1                 0.0000
     36 ****         2.5001   2.2666   1.9411 H              1 S1                 0.0000
     37 ****         1.2562   2.8370   0.8181 H              1 S1                 0.0000
     38 ****         0.4766   1.5753   3.0853 H              1 S1                 0.0000
     39 ****        -0.2991   1.1283   1.5638 H              1 S1                 0.0000
     40 ****         0.8008  -2.4508  -3.2695 LP             1 S1                 0.0000
     41 ****         2.0245  -2.4977  -2.0447 LP             1 S1                 0.0000
     42 ****         1.5831  -0.3087   3.0677 LP             1 S1                 0.0000
     43 ****         0.4309  -0.8195   2.0294 LP             1 S1                 0.0000
     44 ****        -0.6115   0.8523  -2.9944 LP             1 S1                 0.0000
@<TRIPOS>BOND
    1    1    2 1     
    2    1   19 1     
    3    1   20 1     
    4    1   21 1     
    5    2   18 2     
    6    2    3 1     
    7    3    4 2     
    8    3   22 1     
    9    4    5 1     
   10    4    6 1     
   11    5   23 1     
   12    5   24 1     
   13    5   25 1     
   14    6    7 1     
   15    6   18 1     
   16    7    8 1     
   17    7   26 1     
   18    7   27 1     
   19    8    9 2     
   20    8   10 am    
   21   10   11 1     
   22   10   28 1     
   23   11   12 1     
   24   11   13 1     
   25   11   29 1     
   26   12   30 1     
   27   12   31 1     
   28   12   32 1     
   29   13   17 1     
   30   13   14 1     
   31   13   33 1     
   32   14   15 1     
   33   14   34 1     
   34   14   35 1     
   35   15   16 1     
   36   15   36 1     
   37   15   37 1     
   38   16   17 1     
   39   16   38 1     
   40   16   39 1     
   41    9   40 1     
   42    9   41 1     
   43   17   42 1     
   44   17   43 1     
   45   18   44 1     
@<TRIPOS>SUBSTRUCTURE
      1 S1             1
@<TRIPOS>SET
LONE_PAIRS      STATIC     ATOMS    <user>   **** ""
5 40 41 42 43 44
DONOR_HYDROGENS      STATIC     ATOMS    <user>   **** ""
1 28
ATOM$BLUE        STATIC     ATOMS    COLORGROUP SYSTEM
5 40 41 42 43 44
ATOM$RED        STATIC     ATOMS    COLORGROUP SYSTEM
1 28
