AV-unprocessed.smi:3265|AV-procd|sdf|12499|dock1
  -GOLD-   2272018403D 1   1.00000     0.00000
 Structure written by MMmdl.
 41 42  0  0  0  0  0  0  0  0  2 V2000
  150.8931  144.4544  160.9631 C   0  0  0  0  0  0  0  0  0  0  0  0
  150.9351  144.5154  159.4294 C   0  0  1  0  0  0  0  0  0  0  0  0
  152.2850  145.0521  158.9247 C   0  0  0  0  0  0  0  0  0  0  0  0
  152.3070  145.0771  157.3915 C   0  0  0  0  0  0  0  0  0  0  0  0
  151.9782  143.6912  156.8145 C   0  0  0  0  0  0  0  0  0  0  0  0
  150.6684  143.1984  157.3146 N   0  3  1  0  0  0  0  0  0  0  0  0
  150.2678  141.9230  156.6685 C   0  0  0  0  0  0  0  0  0  0  0  0
  151.4424  140.9341  156.5396 C   0  0  0  0  0  0  0  0  0  0  0  0
  151.0924  139.7933  155.7024 N   0  0  0  0  0  0  0  0  0  0  0  0
  151.9651  138.8961  155.2175 C   0  0  0  0  0  0  0  0  0  0  0  0
  153.1729  138.9329  155.4509 O   0  0  0  0  0  0  0  0  0  0  0  0
  151.3876  137.7845  154.3398 C   0  0  0  0  0  0  0  0  0  0  0  0
  150.8757  136.6908  155.1462 N   0  0  0  0  0  0  0  0  0  0  0  0
  149.6144  136.1320  155.1305 C   0  0  0  0  0  0  0  0  0  0  0  0
  149.5987  135.1381  156.0666 C   0  0  0  0  0  0  0  0  0  0  0  0
  150.9137  135.1637  156.6095 C   0  0  0  0  0  0  0  0  0  0  0  0
  151.6756  136.0947  156.0578 N   0  0  0  0  0  0  0  0  0  0  0  0
  150.6389  143.1385  158.8013 C   0  0  0  0  0  0  0  0  0  0  0  0
  151.6488  143.7726  161.3550 H   0  0  0  0  0  0  0  0  0  0  0  0
  149.9204  144.1113  161.3169 H   0  0  0  0  0  0  0  0  0  0  0  0
  151.0735  145.4371  161.3998 H   0  0  0  0  0  0  0  0  0  0  0  0
  150.1549  145.2071  159.1076 H   0  0  0  0  0  0  0  0  0  0  0  0
  152.4646  146.0545  159.3145 H   0  0  0  0  0  0  0  0  0  0  0  0
  153.0978  144.4239  159.2928 H   0  0  0  0  0  0  0  0  0  0  0  0
  151.5852  145.8085  157.0253 H   0  0  0  0  0  0  0  0  0  0  0  0
  153.2853  145.4050  157.0388 H   0  0  0  0  0  0  0  0  0  0  0  0
  151.9588  143.7555  155.7259 H   0  0  0  0  0  0  0  0  0  0  0  0
  152.7611  142.9777  157.0768 H   0  0  0  0  0  0  0  0  0  0  0  0
  149.4896  141.4521  157.2706 H   0  0  0  0  0  0  0  0  0  0  0  0
  149.8204  142.1252  155.6941 H   0  0  0  0  0  0  0  0  0  0  0  0
  152.3075  141.4133  156.0830 H   0  0  0  0  0  0  0  0  0  0  0  0
  151.7622  140.5888  157.5243 H   0  0  0  0  0  0  0  0  0  0  0  0
  150.1186  139.6864  155.4547 H   0  0  0  0  0  0  0  0  0  0  0  0
  150.5755  138.1768  153.7262 H   0  0  0  0  0  0  0  0  0  0  0  0
  152.1529  137.4102  153.6579 H   0  0  0  0  0  0  0  0  0  0  0  0
  148.8421  136.4858  154.4633 H   0  0  0  0  0  0  0  0  0  0  0  0
  148.7736  134.4909  156.3245 H   0  0  0  0  0  0  0  0  0  0  0  0
  151.3340  134.5383  157.3831 H   0  0  0  0  0  0  0  0  0  0  0  0
  151.3650  142.4014  159.1487 H   0  0  0  0  0  0  0  0  0  0  0  0
  149.6613  142.8005  159.1423 H   0  0  0  0  0  0  0  0  0  0  0  0
  149.9853  143.8872  157.0330 H   0  0  0  0  0  0  0  0  0  0  0  0
  1  2  1  0  0  0  0
  1 19  1  0  0  0  0
  1 20  1  0  0  0  0
  1 21  1  0  0  0  0
  2 18  1  0  0  0  0
  2  3  1  0  0  0  0
  2 22  1  0  0  0  0
  3  4  1  0  0  0  0
  3 23  1  0  0  0  0
  3 24  1  0  0  0  0
  4  5  1  0  0  0  0
  4 25  1  0  0  0  0
  4 26  1  0  0  0  0
  5  6  1  0  0  0  0
  5 27  1  0  0  0  0
  5 28  1  0  0  0  0
  6  7  1  0  0  0  0
  6 18  1  0  0  0  0
  6 41  1  0  0  0  0
  7  8  1  0  0  0  0
  7 29  1  0  0  0  0
  7 30  1  0  0  0  0
  8  9  1  0  0  0  0
  8 31  1  0  0  0  0
  8 32  1  0  0  0  0
  9 10  1  0  0  0  0
  9 33  1  0  0  0  0
 10 11  2  0  0  0  0
 10 12  1  0  0  0  0
 12 13  1  0  0  0  0
 12 34  1  0  0  0  0
 12 35  1  0  0  0  0
 13 17  1  0  0  0  0
 13 14  1  0  0  0  0
 14 15  2  0  0  0  0
 14 36  1  0  0  0  0
 15 16  1  0  0  0  0
 15 37  1  0  0  0  0
 16 17  2  0  0  0  0
 16 38  1  0  0  0  0
 18 39  1  0  0  0  0
 18 40  1  0  0  0  0
M  CHG  1   6   1
M  END
> <s_m_source_file>
AV-unprocessed.smi

> <i_m_source_file_index>
3265

> <i_lp_mmshare_version>
43012

> <i_f3d_flags>
0

> <s_epik_input>
W0NIM11bQ0BASF0xW0NIMl1bQ0gyXVtDSDJdTihbQ0gyXTEpW0NIMl1bQ0gyXVtOSF1DKD1PKVtDSDJdbjJbY0hdW2NIXVtjSF1uMg==

> <s_epik_cmdline>
J2VwaWtfcHl0aG9uJywgJy1waCcsICc3LjAnLCAnLXRuJywgJzgnLCAnLW1hJywgJzIwMCcsICctbWV0YWxfYmluZGluZycsICctaW1hZScsICc8aW5maWxlLm1hZT4nLCAnLW9tYWUnLCAnPG91dGZpbGUubWFlPic=

> <r_lp_tautomer_probability>
1

> <r_epik_Ionization_Penalty>
0.00231455

> <r_epik_Ionization_Penalty_Charging>
0.00230623

> <r_epik_Ionization_Penalty_Neutral>
8.31727e-06

> <r_epik_State_Penalty>
0.00159065

> <r_epik_Charging_Adjusted_Penalty>
0.00389688

> <i_epik_Tot_Q>
1

> <i_epik_Tot_abs_Q>
1

> <r_epik_Metal_State_Penalty>
-0

> <b_epik_Metal_Only>
0

> <s_lp_Force_Field>
OPLS_2005

> <r_lp_Energy>
15.6905

> <b_lp_Chiralities_Consistent>
1

> <s_lp_Variant>
AV-unprocessed.smi:3265-4

> <Gold.Version>
5.8.1

> <Gold.Id.Protein>
6NUR|6NUR_protein|mol2

> <Gold.PLP.Fitness>
47.4668

> <Gold.PLP.PLP>
-34.1222

> <Gold.PLP.part.hbond>
-3.0000

> <Gold.PLP.part.metal>
0.0000

> <Gold.PLP.part.buried>
-5.6361

> <Gold.PLP.part.nonpolar>
-26.1393

> <Gold.PLP.part.repulsive>
0.1566

> <Gold.PLP.ligand.clash>
0.0000

> <Gold.PLP.ligand.torsion>
0.6701

> <Gold.PLP.Chemscore.Hbond>
4.0000

> <Gold.PLP.Chemscore.CHOScore>
0.8670

> <Gold.PLP.Chemscore.Metal>
0.0000

> <Gold.Chemscore.Hbonds>
donor molecule, donor type, donor heavy atom, donor atom, acceptor molecule, acceptor atom, score
      L1  H     6    41       P1  8028  2.00
      P1  H  7997  8010       L1    11  0.98
      P1  H 10752 10765       L1    17  0.80
      L1  C    14    36       P1  7948  0.70

> <Gold.PLP.Chemscore.Internal.Correction>
0.0837

> <Gold.Rescore>
     Score         DG    S(hbond)    S(metal)    S(lipo)     H(rot)  DE(clash)    DE(int)     intcor
     19.09     -22.80       2.81        0.00     108.09       1.84       3.02       0.69       ----

> <Gold.Chemscore.Fitness>
19.0866

> <Gold.Chemscore.DG>
-22.7994

> <Gold.Chemscore.ZeroCoef>
-5.4800

> <Gold.Chemscore.Hbond>
2.8082

> <Gold.Chemscore.Metal>
0.0000

> <Gold.Chemscore.Lipo>
108.0919

> <Gold.Chemscore.Internal_Hbond>
0.0000

> <Gold.Chemscore.DEClash>
3.0226

> <Gold.Chemscore.DEInternal>
0.6902

> <Gold.Chemscore.Rot>
1.8386

> <Gold.Chemscore.Internal.Correction>
   9.000000E+99

> <Gold.Chemscore.Hbonds>
donor molecule, donor type, donor heavy atom, donor atom, acceptor molecule, acceptor atom, score
      L1  H     6    41       P1  8028  0.90
      P1  H  7997  8010       L1    11  0.93
      P1  H 10752 10765       L1    17  0.11

> <Gold.Chemscore.Hbond.Weighted>
-9.3795

> <Gold.Chemscore.Metal.Weighted>
-0.0000

> <Gold.Chemscore.Lipo.Weighted>
-12.6468

> <Gold.Chemscore.Internal_Hbond.Weighted>
0.0000

> <Gold.Chemscore.DEClash.Weighted>
3.0226

> <Gold.Chemscore.DEInternal.Weighted>
0.6902

> <Gold.Chemscore.Rot.Weighted>
4.7069

> <Gold.Chemscore.Internal.Correction.Weighted>
   9.000000E+99

> <Gold.Protein.RotatedTorsions>
[ 6907 6896 6895 6894 ] final  154.47 input  -60.11 | X-H torsion
[ 7974 7965 7964 7962 ] final   50.75 input  175.53 | X-H torsion
[ 8008 7997 7996 7995 ] final  110.12 input   59.86 | X-H torsion
[ 10167 10162 10161 10158 ] final  -85.20 input  -65.29 | X-H torsion
[ 10718 10713 10712 10709 ] final  -65.36 input   66.30 | X-H torsion
[ 10763 10752 10751 10750 ] final -166.75 input  -60.55 | X-H torsion
[ 11005 11000 10999 10996 ] final   -3.50 input  -57.11 | X-H torsion

> <Gold.Protein.ActiveResidues>
 VAL166  LYS551  ARG553  GLY616  TRP617  ASP618  TYR619  PRO620  LYS621  CYS622 
 ASP623  PHE694  ASN695  SER759  ASP760  ASP761  ALA762  ILE779  LEU786  VAL792 
 PHE793  MET794  SER795  GLU796  ALA797  LYS798  CYS799  TRP800  GLU811  SER814 

> <Gold.Protein.RotatedAtoms>
  152.0580  133.4049  159.4405 H   0  0  0  0  0  0  0  0  0  0  0  0  # atno 6907 bound_to 6896
  150.6867  134.3232  159.4805 H   0  0  0  0  0  0  0  0  0  0  0  0  # atno 6908 bound_to 6896
  152.1050  134.9314  160.0619 H   0  0  0  0  0  0  0  0  0  0  0  0  # atno 6909 bound_to 6896
  145.9981  139.4410  143.0032 H   0  0  0  0  0  0  0  0  0  0  0  0  # atno 7974 bound_to 7965
  156.2030  140.3044  155.9567 H   0  0  0  0  0  0  0  0  0  0  0  0  # atno 8008 bound_to 7997
  155.2909  140.0442  157.3040 H   0  0  0  0  0  0  0  0  0  0  0  0  # atno 8009 bound_to 7997
  154.5595  140.2316  155.8366 H   0  0  0  0  0  0  0  0  0  0  0  0  # atno 8010 bound_to 7997
  140.4060  143.2642  151.9080 H   0  0  0  0  0  0  0  0  0  0  0  0  # atno 10167 bound_to 10162
  156.0674  130.4246  150.1552 H   0  0  0  0  0  0  0  0  0  0  0  0  # atno 10718 bound_to 10713
  154.6802  135.2953  154.9624 H   0  0  0  0  0  0  0  0  0  0  0  0  # atno 10763 bound_to 10752
  154.0621  135.6630  153.4817 H   0  0  0  0  0  0  0  0  0  0  0  0  # atno 10764 bound_to 10752
  153.0542  135.5155  154.7841 H   0  0  0  0  0  0  0  0  0  0  0  0  # atno 10765 bound_to 10752
  140.6700  133.9245  155.8489 H   0  0  0  0  0  0  0  0  0  0  0  0  # atno 11005 bound_to 11000
  145.7529  140.9965  143.1241 LP  0  0  0  0  0  0  0  0  0  0  0  0  # atno 17320 bound_to 7965
  144.6910  139.9236  143.7469 LP  0  0  0  0  0  0  0  0  0  0  0  0  # atno 17321 bound_to 7965
  139.4783  144.5585  151.8276 LP  0  0  0  0  0  0  0  0  0  0  0  0  # atno 17342 bound_to 10162
  140.4689  144.1616  150.5915 LP  0  0  0  0  0  0  0  0  0  0  0  0  # atno 17343 bound_to 10162
  156.9610  130.9804  151.3479 LP  0  0  0  0  0  0  0  0  0  0  0  0  # atno 17370 bound_to 10713
  157.5725  130.8320  149.8410 LP  0  0  0  0  0  0  0  0  0  0  0  0  # atno 17371 bound_to 10713
  141.0399  134.0636  157.3914 LP  0  0  0  0  0  0  0  0  0  0  0  0  # atno 17394 bound_to 11000
  139.8985  135.0154  156.7149 LP  0  0  0  0  0  0  0  0  0  0  0  0  # atno 17395 bound_to 11000

$$$$
