#       Name:                AV-unprocessed.smi:332
#       Creating user name   scv26
#       Creation time:       Thu Mar 26 22:26:39 2020


#       File generated by GOLD software.
#

@<TRIPOS>MOLECULE
AV-unprocessed.smi:332
    46    48     1
SMALL
NO_CHARGES


@<TRIPOS>ATOM
      1 ****        -1.3215  -0.7088  -2.6181 C.3            1 S1                 0.0000
      2 ****        -1.0100  -0.4531  -1.1355 C.3            1 S1                 0.0000
      3 ****         0.4200  -0.6662  -0.9162 N.am           1 S1                 0.0000
      4 ****         1.2779   0.2096  -0.3693 C.2            1 S1                 0.0000
      5 ****         0.9441   1.3228   0.0389 O.2            1 S1                 0.0000
      6 ****         2.7319  -0.2687  -0.2497 C.3            1 S1                 0.0000
      7 ****         3.6954   0.8285  -0.0605 N.am           1 S1                 0.0000
      8 ****         4.1052   1.1014   1.2600 C.2            1 S1                 0.0000
      9 ****         4.9785   2.0805   1.5444 C.2            1 S1                 0.0000
     10 ****         5.5023   2.8664   0.4525 C.2            1 S1                 0.0000
     11 ****         5.1140   2.6164  -0.8139 C.2            1 S1                 0.0000
     12 ****         4.1583   1.5481  -1.1292 C.2            1 S1                 0.0000
     13 ****         3.7973   1.3140  -2.2830 O.2            1 S1                 0.0000
     14 ****        -1.8268  -1.3699  -0.1922 C.3            1 S1                 0.0000
     15 ****        -1.6181  -1.1097   1.3183 C.3            1 S1                 0.0000
     16 ****        -3.0572  -1.0257   1.8593 C.3            1 S1                 0.0000
     17 ****        -3.6761   0.3169   1.4294 C.3            1 S1                 0.0000
     18 ****        -3.9182   0.1090  -0.0765 C.3            1 S1                 0.0000
     19 ****        -3.3700  -1.3125  -0.3196 C.3            1 S1                 0.0000
     20 ****        -3.7968  -2.0145   0.9660 C.3            1 S1                 0.0000
     21 ****        -2.3654  -0.4953  -2.8476 H              1 S1                 0.0000
     22 ****        -1.1247  -1.7454  -2.8936 H              1 S1                 0.0000
     23 ****        -0.7130  -0.0719  -3.2611 H              1 S1                 0.0000
     24 ****        -1.2549   0.5879  -0.9238 H              1 S1                 0.0000
     25 ****         0.7900  -1.5580  -1.2120 H              1 S1                 0.0000
     26 ****         2.7890  -0.9744   0.5801 H              1 S1                 0.0000
     27 ****         2.9955  -0.8494  -1.1358 H              1 S1                 0.0000
     28 ****         3.6619   0.4733   2.0192 H              1 S1                 0.0000
     29 ****         5.2782   2.2773   2.5634 H              1 S1                 0.0000
     30 ****         6.2076   3.6596   0.6521 H              1 S1                 0.0000
     31 ****         5.5151   3.2159  -1.6178 H              1 S1                 0.0000
     32 ****        -1.5261  -2.3996  -0.3966 H              1 S1                 0.0000
     33 ****        -1.0731  -1.9361   1.7761 H              1 S1                 0.0000
     34 ****        -1.0618  -0.1946   1.5242 H              1 S1                 0.0000
     35 ****        -3.1350  -1.2202   2.9293 H              1 S1                 0.0000
     36 ****        -4.6185   0.4970   1.9483 H              1 S1                 0.0000
     37 ****        -3.0159   1.1613   1.6318 H              1 S1                 0.0000
     38 ****        -4.9868   0.1441  -0.2930 H              1 S1                 0.0000
     39 ****        -3.4420   0.8712  -0.6917 H              1 S1                 0.0000
     40 ****        -3.7502  -1.7764  -1.2301 H              1 S1                 0.0000
     41 ****        -3.4232  -3.0368   1.0498 H              1 S1                 0.0000
     42 ****        -4.8771  -2.0153   1.1231 H              1 S1                 0.0000
     43 ****        -0.0099   1.6148  -0.0286 LP             1 S1                 0.0000
     44 ****         1.6272   1.9346   0.4378 LP             1 S1                 0.0000
     45 ****         3.1451   0.5777  -2.4632 LP             1 S1                 0.0000
     46 ****         4.1563   1.8603  -3.0398 LP             1 S1                 0.0000
@<TRIPOS>BOND
    1    1    2 1     
    2    1   21 1     
    3    1   22 1     
    4    1   23 1     
    5    2    3 1     
    6    2   14 1     
    7    2   24 1     
    8    3    4 am    
    9    3   25 1     
   10    4    5 2     
   11    4    6 1     
   12    6    7 1     
   13    6   26 1     
   14    6   27 1     
   15    7   12 am    
   16    7    8 1     
   17    8    9 2     
   18    8   28 1     
   19    9   10 1     
   20    9   29 1     
   21   10   11 2     
   22   10   30 1     
   23   11   12 1     
   24   11   31 1     
   25   12   13 2     
   26   14   19 1     
   27   14   15 1     
   28   14   32 1     
   29   15   16 1     
   30   15   33 1     
   31   15   34 1     
   32   16   20 1     
   33   16   17 1     
   34   16   35 1     
   35   17   18 1     
   36   17   36 1     
   37   17   37 1     
   38   18   19 1     
   39   18   38 1     
   40   18   39 1     
   41   19   20 1     
   42   19   40 1     
   43   20   41 1     
   44   20   42 1     
   45    5   43 1     
   46    5   44 1     
   47   13   45 1     
   48   13   46 1     
@<TRIPOS>SUBSTRUCTURE
      1 S1             1
@<TRIPOS>SET
LONE_PAIRS      STATIC     ATOMS    <user>   **** ""
4 43 44 45 46
DONOR_HYDROGENS      STATIC     ATOMS    <user>   **** ""
1 25
ATOM$BLUE        STATIC     ATOMS    COLORGROUP SYSTEM
4 43 44 45 46
ATOM$RED        STATIC     ATOMS    COLORGROUP SYSTEM
1 25
