AV-unprocessed.smi:3183|AV-procd|sdf|12157|dock8
  -GOLD-   2272017593D 1   1.00000     0.00000
 Structure written by MMmdl.
 43 44  0  0  0  0  0  0  0  0  2 V2000
  152.0675  145.9325  160.4138 C   0  0  0  0  0  0  0  0  0  0  0  0
  151.4165  145.1516  159.2603 C   0  0  2  0  0  0  0  0  0  0  0  0
  150.3055  144.2090  159.7623 C   0  0  0  0  0  0  0  0  0  0  0  0
  149.6030  143.4989  158.5947 C   0  0  0  0  0  0  0  0  0  0  0  0
  150.6005  142.7315  157.7083 C   0  0  1  0  0  0  0  0  0  0  0  0
  149.8792  142.0993  156.5811 N   0  3  0  0  0  0  0  0  0  0  0  0
  148.9314  141.0291  156.9563 C   0  0  0  0  0  0  0  0  0  0  0  0
  149.6768  139.7332  157.3072 C   0  0  0  0  0  0  0  0  0  0  0  0
  150.8915  139.4758  156.4683 C   0  0  0  0  0  0  0  0  0  0  0  0
  151.0262  139.2150  155.1315 C   0  0  0  0  0  0  0  0  0  0  0  0
  152.4279  139.0646  154.9452 C   0  0  0  0  0  0  0  0  0  0  0  0
  153.1073  139.2181  156.0678 N   0  0  0  0  0  0  0  0  0  0  0  0
  152.1673  139.4691  157.0032 N   0  0  0  0  0  0  0  0  0  0  0  0
  152.5772  139.6951  158.3759 C   0  0  0  0  0  0  0  0  0  0  0  0
  151.7149  143.6812  157.2127 C   0  0  0  0  0  0  0  0  0  0  0  0
  152.4398  144.4013  158.3700 C   0  0  2  0  0  0  0  0  0  0  0  0
  153.3677  143.4424  159.1436 C   0  0  0  0  0  0  0  0  0  0  0  0
  152.5026  145.2666  161.1593 H   0  0  0  0  0  0  0  0  0  0  0  0
  151.3321  146.5549  160.9247 H   0  0  0  0  0  0  0  0  0  0  0  0
  152.8567  146.5903  160.0488 H   0  0  0  0  0  0  0  0  0  0  0  0
  150.9355  145.8965  158.6242 H   0  0  0  0  0  0  0  0  0  0  0  0
  150.7189  143.4700  160.4493 H   0  0  0  0  0  0  0  0  0  0  0  0
  149.5695  144.7758  160.3340 H   0  0  0  0  0  0  0  0  0  0  0  0
  148.8481  142.8158  158.9864 H   0  0  0  0  0  0  0  0  0  0  0  0
  149.0680  144.2372  157.9952 H   0  0  0  0  0  0  0  0  0  0  0  0
  151.0413  141.9354  158.3097 H   0  0  0  0  0  0  0  0  0  0  0  0
  149.3460  142.8225  156.1197 H   0  0  0  0  0  0  0  0  0  0  0  0
  148.3338  141.3512  157.8089 H   0  0  0  0  0  0  0  0  0  0  0  0
  148.2463  140.8484  156.1268 H   0  0  0  0  0  0  0  0  0  0  0  0
  149.9717  139.7632  158.3568 H   0  0  0  0  0  0  0  0  0  0  0  0
  148.9931  138.8892  157.2075 H   0  0  0  0  0  0  0  0  0  0  0  0
  150.2426  139.1419  154.3921 H   0  0  0  0  0  0  0  0  0  0  0  0
  152.9676  138.8509  154.0343 H   0  0  0  0  0  0  0  0  0  0  0  0
  151.9907  139.0659  159.0454 H   0  0  0  0  0  0  0  0  0  0  0  0
  152.4175  140.7414  158.6373 H   0  0  0  0  0  0  0  0  0  0  0  0
  153.6332  139.4554  158.5072 H   0  0  0  0  0  0  0  0  0  0  0  0
  152.4477  143.1399  156.6144 H   0  0  0  0  0  0  0  0  0  0  0  0
  151.2792  144.4285  156.5478 H   0  0  0  0  0  0  0  0  0  0  0  0
  153.0885  145.1524  157.9171 H   0  0  0  0  0  0  0  0  0  0  0  0
  152.8126  142.6826  159.6925 H   0  0  0  0  0  0  0  0  0  0  0  0
  153.9887  143.9794  159.8604 H   0  0  0  0  0  0  0  0  0  0  0  0
  154.0459  142.9256  158.4643 H   0  0  0  0  0  0  0  0  0  0  0  0
  150.5541  141.7324  155.9251 H   0  0  0  0  0  0  0  0  0  0  0  0
  1  2  1  0  0  0  0
  1 18  1  0  0  0  0
  1 19  1  0  0  0  0
  1 20  1  0  0  0  0
  2 16  1  0  0  0  0
  2  3  1  0  0  0  0
  2 21  1  0  0  0  0
  3  4  1  0  0  0  0
  3 22  1  0  0  0  0
  3 23  1  0  0  0  0
  4  5  1  0  0  0  0
  4 24  1  0  0  0  0
  4 25  1  0  0  0  0
  5  6  1  0  0  0  0
  5 15  1  0  0  0  0
  5 26  1  0  0  0  0
  6  7  1  0  0  0  0
  6 27  1  0  0  0  0
  6 43  1  0  0  0  0
  7  8  1  0  0  0  0
  7 28  1  0  0  0  0
  7 29  1  0  0  0  0
  8  9  1  0  0  0  0
  8 30  1  0  0  0  0
  8 31  1  0  0  0  0
  9 13  1  0  0  0  0
  9 10  2  0  0  0  0
 10 11  1  0  0  0  0
 10 32  1  0  0  0  0
 11 12  2  0  0  0  0
 11 33  1  0  0  0  0
 12 13  1  0  0  0  0
 13 14  1  0  0  0  0
 14 34  1  0  0  0  0
 14 35  1  0  0  0  0
 14 36  1  0  0  0  0
 15 16  1  0  0  0  0
 15 37  1  0  0  0  0
 15 38  1  0  0  0  0
 16 17  1  0  0  0  0
 16 39  1  0  0  0  0
 17 40  1  0  0  0  0
 17 41  1  0  0  0  0
 17 42  1  0  0  0  0
M  CHG  1   6   1
M  END
> <s_m_source_file>
AV-unprocessed.smi

> <i_m_source_file_index>
3183

> <i_lp_mmshare_version>
43012

> <i_f3d_flags>
0

> <s_epik_input>
W0NIM11bQ0BASF0xW0NIMl1bQ0gyXVtDQEhdKFtDSDJdW0NASF0xW0NIM10pW05IXVtDSDJdW0NIMl1jMltjSF1bY0hdbm4yW0NIM10=

> <s_epik_cmdline>
J2VwaWtfcHl0aG9uJywgJy1waCcsICc3LjAnLCAnLXRuJywgJzgnLCAnLW1hJywgJzIwMCcsICctbWV0YWxfYmluZGluZycsICctaW1hZScsICc8aW5maWxlLm1hZT4nLCAnLW9tYWUnLCAnPG91dGZpbGUubWFlPic=

> <r_lp_tautomer_probability>
1

> <r_epik_Ionization_Penalty>
0.000327718

> <r_epik_Ionization_Penalty_Charging>
0.000294043

> <r_epik_Ionization_Penalty_Neutral>
3.36755e-05

> <r_epik_State_Penalty>
-0

> <r_epik_Charging_Adjusted_Penalty>
0.000294043

> <i_epik_Tot_Q>
1

> <i_epik_Tot_abs_Q>
1

> <r_epik_Metal_State_Penalty>
-0

> <b_epik_Metal_Only>
0

> <s_lp_Force_Field>
OPLS_2005

> <r_lp_Energy>
13.9597

> <b_lp_Chiralities_Consistent>
1

> <s_lp_Variant>
AV-unprocessed.smi:3183-5

> <Gold.Version>
5.8.1

> <Gold.Id.Protein>
6NUR|6NUR_protein|mol2

> <Gold.PLP.Fitness>
45.0123

> <Gold.PLP.PLP>
-36.4960

> <Gold.PLP.part.hbond>
-1.9929

> <Gold.PLP.part.metal>
0.0000

> <Gold.PLP.part.buried>
-3.9854

> <Gold.PLP.part.nonpolar>
-31.3799

> <Gold.PLP.part.repulsive>
0.0486

> <Gold.PLP.ligand.clash>
0.0000

> <Gold.PLP.ligand.torsion>
0.2455

> <Gold.PLP.Chemscore.Hbond>
3.0000

> <Gold.PLP.Chemscore.CHOScore>
0.0000

> <Gold.PLP.Chemscore.Metal>
0.0000

> <Gold.Chemscore.Hbonds>
donor molecule, donor type, donor heavy atom, donor atom, acceptor molecule, acceptor atom, score
      L1  H     6    27       P1  8028  2.00
      P1  H  7997  8009       L1    12  1.00

> <Gold.PLP.Chemscore.Internal.Correction>
0.0074

> <Gold.Rescore>
     Score         DG    S(hbond)    S(metal)    S(lipo)     H(rot)  DE(clash)    DE(int)     intcor
     19.93     -21.45       1.81        0.00     114.97       1.38       1.27       0.25       ----

> <Gold.Chemscore.Fitness>
19.9264

> <Gold.Chemscore.DG>
-21.4455

> <Gold.Chemscore.ZeroCoef>
-5.4800

> <Gold.Chemscore.Hbond>
1.8081

> <Gold.Chemscore.Metal>
0.0000

> <Gold.Chemscore.Lipo>
114.9669

> <Gold.Chemscore.Internal_Hbond>
0.0000

> <Gold.Chemscore.DEClash>
1.2739

> <Gold.Chemscore.DEInternal>
0.2452

> <Gold.Chemscore.Rot>
1.3768

> <Gold.Chemscore.Internal.Correction>
   9.000000E+99

> <Gold.Chemscore.Hbonds>
donor molecule, donor type, donor heavy atom, donor atom, acceptor molecule, acceptor atom, score
      L1  H     6    27       P1  8028  0.93
      P1  H  7997  8009       L1    12  0.81

> <Gold.Chemscore.Hbond.Weighted>
-6.0391

> <Gold.Chemscore.Metal.Weighted>
-0.0000

> <Gold.Chemscore.Lipo.Weighted>
-13.4511

> <Gold.Chemscore.Internal_Hbond.Weighted>
0.0000

> <Gold.Chemscore.DEClash.Weighted>
1.2739

> <Gold.Chemscore.DEInternal.Weighted>
0.2452

> <Gold.Chemscore.Rot.Weighted>
3.5247

> <Gold.Chemscore.Internal.Correction.Weighted>
   9.000000E+99

> <Gold.Protein.RotatedTorsions>
[ 6907 6896 6895 6894 ] final -143.22 input  -60.11 | X-H torsion
[ 7974 7965 7964 7962 ] final -171.97 input  175.53 | X-H torsion
[ 8008 7997 7996 7995 ] final -154.53 input   59.86 | X-H torsion
[ 10167 10162 10161 10158 ] final   75.68 input  -65.29 | X-H torsion
[ 10718 10713 10712 10709 ] final  100.55 input   66.30 | X-H torsion
[ 10763 10752 10751 10750 ] final -109.82 input  -60.55 | X-H torsion
[ 11005 11000 10999 10996 ] final  139.07 input  -57.11 | X-H torsion

> <Gold.Protein.ActiveResidues>
 VAL166  LYS551  ARG553  GLY616  TRP617  ASP618  TYR619  PRO620  LYS621  CYS622 
 ASP623  PHE694  ASN695  SER759  ASP760  ASP761  ALA762  ILE779  LEU786  VAL792 
 PHE793  MET794  SER795  GLU796  ALA797  LYS798  CYS799  TRP800  GLU811  SER814 

> <Gold.Protein.RotatedAtoms>
  151.0975  133.5269  159.2611 H   0  0  0  0  0  0  0  0  0  0  0  0  # atno 6907 bound_to 6896
  151.2112  135.0481  159.8922 H   0  0  0  0  0  0  0  0  0  0  0  0  # atno 6908 bound_to 6896
  152.5440  134.0790  159.8281 H   0  0  0  0  0  0  0  0  0  0  0  0  # atno 6909 bound_to 6896
  144.7151  140.1843  143.6355 H   0  0  0  0  0  0  0  0  0  0  0  0  # atno 7974 bound_to 7965
  155.6877  140.0752  157.2460 H   0  0  0  0  0  0  0  0  0  0  0  0  # atno 8008 bound_to 7997
  154.4094  140.1670  156.2105 H   0  0  0  0  0  0  0  0  0  0  0  0  # atno 8009 bound_to 7997
  155.9479  140.3379  155.6385 H   0  0  0  0  0  0  0  0  0  0  0  0  # atno 8010 bound_to 7997
  140.0004  144.5690  150.7742 H   0  0  0  0  0  0  0  0  0  0  0  0  # atno 10167 bound_to 10162
  157.6851  131.0701  150.5117 H   0  0  0  0  0  0  0  0  0  0  0  0  # atno 10718 bound_to 10713
  154.8214  135.4587  154.0790 H   0  0  0  0  0  0  0  0  0  0  0  0  # atno 10763 bound_to 10752
  153.2140  135.6885  153.8085 H   0  0  0  0  0  0  0  0  0  0  0  0  # atno 10764 bound_to 10752
  153.7526  135.3296  155.3300 H   0  0  0  0  0  0  0  0  0  0  0  0  # atno 10765 bound_to 10752
  140.0229  134.9388  157.0509 H   0  0  0  0  0  0  0  0  0  0  0  0  # atno 11005 bound_to 11000
  145.8828  139.2332  143.1595 LP  0  0  0  0  0  0  0  0  0  0  0  0  # atno 17320 bound_to 7965
  145.9979  140.8546  143.0033 LP  0  0  0  0  0  0  0  0  0  0  0  0  # atno 17321 bound_to 7965
  140.7421  143.2827  151.3552 LP  0  0  0  0  0  0  0  0  0  0  0  0  # atno 17342 bound_to 10162
  139.6276  144.0784  152.2448 LP  0  0  0  0  0  0  0  0  0  0  0  0  # atno 17343 bound_to 10162
  156.5434  130.4213  149.6143 LP  0  0  0  0  0  0  0  0  0  0  0  0  # atno 17370 bound_to 10713
  156.2965  130.7153  151.2015 LP  0  0  0  0  0  0  0  0  0  0  0  0  # atno 17371 bound_to 10713
  140.4357  134.1734  155.7170 LP  0  0  0  0  0  0  0  0  0  0  0  0  # atno 17394 bound_to 11000
  141.1785  133.8464  157.1341 LP  0  0  0  0  0  0  0  0  0  0  0  0  # atno 17395 bound_to 11000

$$$$
