#       Name:                AV-unprocessed.smi:2034
#       Creating user name   scv26
#       Creation time:       Fri Mar 27 10:54:02 2020


#       File generated by GOLD software.
#

@<TRIPOS>MOLECULE
AV-unprocessed.smi:2034
    58    60     1
SMALL
NO_CHARGES


@<TRIPOS>ATOM
      1 ****        -5.8491  -2.0461  -2.3120 C.3            1 S1                 0.0000
      2 ****        -5.7673  -1.8217  -0.7916 C.3            1 S1                 0.0000
      3 ****        -4.3296  -1.8847  -0.2403 C.3            1 S1                 0.0000
      4 ****        -3.5886  -0.6637  -0.5518 N.3            1 S1                 0.0000
      5 ****        -2.1855  -0.7236  -0.3962 C.ar           1 S1                 0.0000
      6 ****        -1.4552   0.2923   0.2704 C.ar           1 S1                 0.0000
      7 ****        -0.0565   0.1754   0.3831 C.ar           1 S1                 0.0000
      8 ****         0.5842  -0.9577  -0.1679 C.ar           1 S1                 0.0000
      9 ****         1.9882  -1.1742  -0.1393 N.am           1 S1                 0.0000
     10 ****         2.8932  -0.6597   0.7106 C.2            1 S1                 0.0000
     11 ****         2.6327   0.0566   1.6773 O.2            1 S1                 0.0000
     12 ****         4.1355  -1.0446   0.3862 N.am           1 S1                 0.0000
     13 ****         5.3478  -0.6497   1.0947 C.3            1 S1                 0.0000
     14 ****         5.9389   0.6494   0.5219 C.3            1 S1                 0.0000
     15 ****         7.2869   1.0296   1.1343 C.3            1 S1                 0.0000
     16 ****         7.3066   2.5272   0.9309 C.3            1 S1                 0.0000
     17 ****         5.8515   2.8896   1.2061 C.3            1 S1                 0.0000
     18 ****         5.0870   1.7637   0.7845 O.3            1 S1                 0.0000
     19 ****        -0.2222  -1.9070  -0.8248 C.ar           1 S1                 0.0000
     20 ****        -1.5628  -1.8003  -0.9330 N.ar           1 S1                 0.0000
     21 ****        -4.2856   0.5604  -0.1721 C.3            1 S1                 0.0000
     22 ****        -5.7057   0.5808  -0.7649 C.3            1 S1                 0.0000
     23 ****        -6.5138   1.7835  -0.2670 C.3            1 S1                 0.0000
     24 ****        -6.4010  -0.6062  -0.3878 O.3            1 S1                 0.0000
     25 ****        -5.4840  -3.0390  -2.5747 H              1 S1                 0.0000
     26 ****        -5.2511  -1.3262  -2.8698 H              1 S1                 0.0000
     27 ****        -6.8789  -1.9710  -2.6613 H              1 S1                 0.0000
     28 ****        -6.3351  -2.6275  -0.3258 H              1 S1                 0.0000
     29 ****        -4.3584  -1.9949   0.8443 H              1 S1                 0.0000
     30 ****        -3.8362  -2.7742  -0.6315 H              1 S1                 0.0000
     31 ****        -1.9355   1.1565   0.7030 H              1 S1                 0.0000
     32 ****         0.4943   0.9618   0.8755 H              1 S1                 0.0000
     33 ****         2.3401  -1.8273  -0.8238 H              1 S1                 0.0000
     34 ****         4.2543  -1.6395  -0.4207 H              1 S1                 0.0000
     35 ****         5.1589  -0.5497   2.1650 H              1 S1                 0.0000
     36 ****         6.0706  -1.4584   0.9838 H              1 S1                 0.0000
     37 ****         6.0543   0.5663  -0.5602 H              1 S1                 0.0000
     38 ****         7.3048   0.8002   2.2010 H              1 S1                 0.0000
     39 ****         8.1273   0.5213   0.6609 H              1 S1                 0.0000
     40 ****         8.0074   3.0435   1.5874 H              1 S1                 0.0000
     41 ****         7.5655   2.7629  -0.1023 H              1 S1                 0.0000
     42 ****         5.6911   3.0343   2.2751 H              1 S1                 0.0000
     43 ****         5.5422   3.7987   0.6902 H              1 S1                 0.0000
     44 ****         0.2190  -2.7841  -1.2755 H              1 S1                 0.0000
     45 ****        -4.3268   0.6255   0.9161 H              1 S1                 0.0000
     46 ****        -3.7426   1.4335  -0.5354 H              1 S1                 0.0000
     47 ****        -5.6471   0.6430  -1.8516 H              1 S1                 0.0000
     48 ****        -6.0298   2.7213  -0.5405 H              1 S1                 0.0000
     49 ****        -6.6208   1.7655   0.8180 H              1 S1                 0.0000
     50 ****        -7.5141   1.7875  -0.7003 H              1 S1                 0.0000
     51 ****        -3.6029  -0.5977  -1.5495 LP             1 S1                 0.0000
     52 ****         1.6835   0.2975   1.8798 LP             1 S1                 0.0000
     53 ****         3.3703   0.3976   2.2602 LP             1 S1                 0.0000
     54 ****         4.4378   1.5188   1.5046 LP             1 S1                 0.0000
     55 ****         4.5872   1.9991  -0.0490 LP             1 S1                 0.0000
     56 ****        -2.0904  -2.5074  -1.4037 LP             1 S1                 0.0000
     57 ****        -6.4855  -0.6148   0.6086 LP             1 S1                 0.0000
     58 ****        -7.3119  -0.5779  -0.7993 LP             1 S1                 0.0000
@<TRIPOS>BOND
    1    1    2 1     
    2    1   25 1     
    3    1   26 1     
    4    1   27 1     
    5    2   24 1     
    6    2    3 1     
    7    2   28 1     
    8    3    4 1     
    9    3   29 1     
   10    3   30 1     
   11    4    5 1     
   12    4   21 1     
   13    5   20 ar    
   14    5    6 ar    
   15    6    7 ar    
   16    6   31 1     
   17    7    8 ar    
   18    7   32 1     
   19    8    9 1     
   20    8   19 ar    
   21    9   10 am    
   22    9   33 1     
   23   10   11 2     
   24   10   12 am    
   25   12   13 1     
   26   12   34 1     
   27   13   14 1     
   28   13   35 1     
   29   13   36 1     
   30   14   18 1     
   31   14   15 1     
   32   14   37 1     
   33   15   16 1     
   34   15   38 1     
   35   15   39 1     
   36   16   17 1     
   37   16   40 1     
   38   16   41 1     
   39   17   18 1     
   40   17   42 1     
   41   17   43 1     
   42   19   20 ar    
   43   19   44 1     
   44   21   22 1     
   45   21   45 1     
   46   21   46 1     
   47   22   23 1     
   48   22   24 1     
   49   22   47 1     
   50   23   48 1     
   51   23   49 1     
   52   23   50 1     
   53    4   51 1     
   54   11   52 1     
   55   11   53 1     
   56   18   54 1     
   57   18   55 1     
   58   20   56 1     
   59   24   57 1     
   60   24   58 1     
@<TRIPOS>SUBSTRUCTURE
      1 S1             1
@<TRIPOS>SET
LONE_PAIRS      STATIC     ATOMS    <user>   **** ""
8 51 52 53 54 55 56 57 58
DONOR_HYDROGENS      STATIC     ATOMS    <user>   **** ""
2 33 34
ATOM$BLUE        STATIC     ATOMS    COLORGROUP SYSTEM
8 51 52 53 54 55 56 57 58
ATOM$RED        STATIC     ATOMS    COLORGROUP SYSTEM
2 33 34
