AV-unprocessed.smi:1|AV-procd|sdf|16|dock3
  -GOLD-   2262015113D 1   1.00000     0.00000
 Structure written by MMmdl.
 57 62  0  0  0  0  0  0  0  0  1 V2000
  144.2613  144.2446  158.0395 O   0  0  0  0  0  0  0  0  0  0  0  0
  144.1358  144.2052  156.8123 C   0  0  0  0  0  0  0  0  0  0  0  0
  144.9073  143.5234  155.8802 N   0  0  0  0  0  0  0  0  0  0  0  0
  145.9183  142.8071  156.2694 C   0  0  0  0  0  0  0  0  0  0  0  0
  146.4512  142.5298  157.5352 N   0  0  0  0  0  0  0  0  0  0  0  0
  147.5559  141.7056  157.8011 C   0  0  0  0  0  0  0  0  0  0  0  0
  148.2548  141.0769  156.8938 N   0  0  0  0  0  0  0  0  0  0  0  0
  147.7729  141.3290  155.6170 C   0  0  0  0  0  0  0  0  0  0  0  0
  146.7067  142.1111  155.2299 C   0  0  0  0  0  0  0  0  0  0  0  0
  146.5644  142.1021  153.8467 N   0  0  0  0  0  0  0  0  0  0  0  0
  147.5604  141.3107  153.4567 C   0  0  0  0  0  0  0  0  0  0  0  0
  148.3272  140.8156  154.4487 N   0  0  0  0  0  0  0  0  0  0  0  0
  149.5134  139.9034  154.3414 C   0  0  1  0  0  0  0  0  0  0  0  0
  150.5987  140.5021  154.9865 O   0  0  0  0  0  0  0  0  0  0  0  0
  150.7717  139.9149  156.2688 C   0  0  2  0  0  0  0  0  0  0  0  0
  152.1818  140.1759  156.8154 C   0  0  0  0  0  0  0  0  0  0  0  0
  152.1320  141.1010  157.8902 O   0  0  0  0  0  0  0  0  0  0  0  0
  153.0426  141.0375  158.8800 C   0  0  0  0  0  0  0  0  0  0  0  0
  153.9418  140.1957  158.9273 O   0  0  0  0  0  0  0  0  0  0  0  0
  152.8508  142.0971  159.9117 C   0  0  0  0  0  0  0  0  0  0  0  0
  152.2214  143.3111  159.5498 C   0  0  0  0  0  0  0  0  0  0  0  0
  152.0231  144.3286  160.5033 C   0  0  0  0  0  0  0  0  0  0  0  0
  152.4531  144.1450  161.8304 C   0  0  0  0  0  0  0  0  0  0  0  0
  153.0818  142.9426  162.2028 C   0  0  0  0  0  0  0  0  0  0  0  0
  153.2802  141.9235  161.2509 C   0  0  0  0  0  0  0  0  0  0  0  0
  150.4080  138.4456  156.0466 C   0  0  1  0  0  0  0  0  0  0  0  0
  149.9393  137.8270  157.2318 O   0  0  0  0  0  0  0  0  0  0  0  0
  148.2728  137.9312  157.2749 S   0  0  0  0  0  0  0  0  0  0  0  0
  147.7270  136.5665  157.3282 O   0  0  0  0  0  0  0  0  0  0  0  0
  147.9001  138.9725  158.2444 O   0  0  0  0  0  0  0  0  0  0  0  0
  148.0205  138.5371  155.7406 O   0  0  0  0  0  0  0  0  0  0  0  0
  149.2547  138.5480  155.0375 C   0  0  1  0  0  0  0  0  0  0  0  0
  142.9832  144.9353  156.2031 C   0  0  0  0  0  0  0  0  0  0  0  0
  141.8706  145.2873  156.9967 C   0  0  0  0  0  0  0  0  0  0  0  0
  140.7802  145.9693  156.4219 C   0  0  0  0  0  0  0  0  0  0  0  0
  140.7979  146.2996  155.0529 C   0  0  0  0  0  0  0  0  0  0  0  0
  141.9053  145.9463  154.2574 C   0  0  0  0  0  0  0  0  0  0  0  0
  142.9967  145.2647  154.8309 C   0  0  0  0  0  0  0  0  0  0  0  0
  147.8007  141.6211  158.8609 H   0  0  0  0  0  0  0  0  0  0  0  0
  147.7328  141.0879  152.4143 H   0  0  0  0  0  0  0  0  0  0  0  0
  149.7015  139.8226  153.2702 H   0  0  0  0  0  0  0  0  0  0  0  0
  150.0444  140.3716  156.9412 H   0  0  0  0  0  0  0  0  0  0  0  0
  152.6318  139.2415  157.1531 H   0  0  0  0  0  0  0  0  0  0  0  0
  152.8133  140.5743  156.0200 H   0  0  0  0  0  0  0  0  0  0  0  0
  151.8825  143.4748  158.5370 H   0  0  0  0  0  0  0  0  0  0  0  0
  151.5402  145.2508  160.2155 H   0  0  0  0  0  0  0  0  0  0  0  0
  152.3012  144.9252  162.5616 H   0  0  0  0  0  0  0  0  0  0  0  0
  153.4127  142.8005  163.2211 H   0  0  0  0  0  0  0  0  0  0  0  0
  153.7662  141.0133  161.5706 H   0  0  0  0  0  0  0  0  0  0  0  0
  151.2363  137.8840  155.6137 H   0  0  0  0  0  0  0  0  0  0  0  0
  149.2716  137.7373  154.3086 H   0  0  0  0  0  0  0  0  0  0  0  0
  141.8487  145.0352  158.0471 H   0  0  0  0  0  0  0  0  0  0  0  0
  139.9296  146.2378  157.0310 H   0  0  0  0  0  0  0  0  0  0  0  0
  139.9611  146.8218  154.6128 H   0  0  0  0  0  0  0  0  0  0  0  0
  141.9176  146.1972  153.2071 H   0  0  0  0  0  0  0  0  0  0  0  0
  143.8418  144.9954  154.2135 H   0  0  0  0  0  0  0  0  0  0  0  0
  145.9945  142.9577  158.3278 H   0  0  0  0  0  0  0  0  0  0  0  0
  1  2  2  0  0  0  0
  2  3  1  0  0  0  0
  2 33  1  0  0  0  0
  3  4  2  0  0  0  0
  4  9  1  0  0  0  0
  4  5  1  0  0  0  0
  5  6  1  0  0  0  0
  5 57  1  0  0  0  0
  6  7  2  0  0  0  0
  6 39  1  0  0  0  0
  7  8  1  0  0  0  0
  8 12  1  0  0  0  0
  8  9  2  0  0  0  0
  9 10  1  0  0  0  0
 10 11  2  0  0  0  0
 11 12  1  0  0  0  0
 11 40  1  0  0  0  0
 12 13  1  0  0  0  0
 13 32  1  0  0  0  0
 13 14  1  0  0  0  0
 13 41  1  0  0  0  0
 14 15  1  0  0  0  0
 15 16  1  0  0  0  0
 15 26  1  0  0  0  0
 15 42  1  0  0  0  0
 16 17  1  0  0  0  0
 16 43  1  0  0  0  0
 16 44  1  0  0  0  0
 17 18  1  0  0  0  0
 18 19  2  0  0  0  0
 18 20  1  0  0  0  0
 20 25  1  0  0  0  0
 20 21  2  0  0  0  0
 21 22  1  0  0  0  0
 21 45  1  0  0  0  0
 22 23  2  0  0  0  0
 22 46  1  0  0  0  0
 23 24  1  0  0  0  0
 23 47  1  0  0  0  0
 24 25  2  0  0  0  0
 24 48  1  0  0  0  0
 25 49  1  0  0  0  0
 26 32  1  0  0  0  0
 26 27  1  0  0  0  0
 26 50  1  0  0  0  0
 27 28  1  0  0  0  0
 28 29  2  0  0  0  0
 28 30  2  0  0  0  0
 28 31  1  0  0  0  0
 31 32  1  0  0  0  0
 32 51  1  0  0  0  0
 33 38  1  0  0  0  0
 33 34  2  0  0  0  0
 34 35  1  0  0  0  0
 34 52  1  0  0  0  0
 35 36  2  0  0  0  0
 35 53  1  0  0  0  0
 36 37  1  0  0  0  0
 36 54  1  0  0  0  0
 37 38  2  0  0  0  0
 37 55  1  0  0  0  0
 38 56  1  0  0  0  0
M  END
> <s_m_source_file>
AV-unprocessed.smi

> <i_m_source_file_index>
1

> <i_lp_mmshare_version>
43012

> <i_f3d_flags>
0

> <s_epik_input>
W2NIXTFbY0hdW2NIXVtjSF1bY0hdYzFDKD1PKVtOSF1jKG5bY0hdbjIpYyhjMjMpbltjSF1uM1tDQEBIXShbQ0BIXShbQ0BIXTQ1KU9TKE81KSg9Tyk9TylPW0NASF00W0NIMl1PQyg9TyljNltjSF1bY0hdW2NIXVtjSF1bY0hdNg==

> <s_epik_cmdline>
J2VwaWtfcHl0aG9uJywgJy1waCcsICc3LjAnLCAnLXRuJywgJzgnLCAnLW1hJywgJzIwMCcsICctbWV0YWxfYmluZGluZycsICctaW1hZScsICc8aW5maWxlLm1hZT4nLCAnLW9tYWUnLCAnPG91dGZpbGUubWFlPic=

> <r_epik_Ionization_Penalty>
0.122545

> <r_epik_Ionization_Penalty_Charging>
0.122545

> <r_epik_Ionization_Penalty_Neutral>
7.8935e-16

> <r_epik_State_Penalty>
2.69178

> <r_epik_Charging_Adjusted_Penalty>
2.81433

> <i_epik_Tot_Q>
0

> <i_epik_Tot_abs_Q>
0

> <r_epik_Metal_State_Penalty>
3.02665

> <b_epik_Metal_Only>
0

> <s_epik_Chemistry_Notes>
This compound has an ester and may undergo hydrolysis at high or low pH. This compound contains an acetal/aminal-like group ( X-CH(R)-Y where X, Y are N, S, or O) that may be acid/base labile, releasing an aldehyde.

> <s_lp_Force_Field>
OPLS_2005

> <r_lp_Energy>
59.1261

> <b_lp_Chiralities_Consistent>
1

> <s_lp_Variant>
AV-unprocessed.smi:1-16

> <Gold.Version>
5.8.1

> <Gold.Id.Protein>
6NUR|6NUR_protein|mol2

> <Gold.PLP.Fitness>
62.7329

> <Gold.PLP.PLP>
-56.3908

> <Gold.PLP.part.hbond>
-3.0000

> <Gold.PLP.part.metal>
0.0000

> <Gold.PLP.part.buried>
-7.9056

> <Gold.PLP.part.nonpolar>
-44.1958

> <Gold.PLP.part.repulsive>
0.5676

> <Gold.PLP.ligand.clash>
0.0000

> <Gold.PLP.ligand.torsion>
1.3788

> <Gold.PLP.Chemscore.Hbond>
1.9000

> <Gold.PLP.Chemscore.CHOScore>
1.0000

> <Gold.PLP.Chemscore.Metal>
0.0000

> <Gold.Chemscore.Hbonds>
donor molecule, donor type, donor heavy atom, donor atom, acceptor molecule, acceptor atom, score
      P1  H  7989  7998       L1    14  0.95
      P1  H  7997  8009       L1    19  0.93
      L1  C    11    40       P1  7957  1.00

> <Gold.PLP.Chemscore.Internal.Correction>
0.3996

> <Gold.Rescore>
     Score         DG    S(hbond)    S(metal)    S(lipo)     H(rot)  DE(clash)    DE(int)     intcor
     13.65     -19.17       1.49        0.00     121.29       2.13       0.21       5.32       ----

> <Gold.Chemscore.Fitness>
13.6504

> <Gold.Chemscore.DG>
-19.1738

> <Gold.Chemscore.ZeroCoef>
-5.4800

> <Gold.Chemscore.Hbond>
1.4862

> <Gold.Chemscore.Metal>
0.0000

> <Gold.Chemscore.Lipo>
121.2918

> <Gold.Chemscore.Internal_Hbond>
0.0000

> <Gold.Chemscore.DEClash>
0.2052

> <Gold.Chemscore.DEInternal>
5.3182

> <Gold.Chemscore.Rot>
2.1333

> <Gold.Chemscore.Internal.Correction>
   9.000000E+99

> <Gold.Chemscore.Hbonds>
donor molecule, donor type, donor heavy atom, donor atom, acceptor molecule, acceptor atom, score
      P1  H  7989  7998       L1    14  0.21
      P1  H  7997  8009       L1    19  0.71

> <Gold.Chemscore.Hbond.Weighted>
-4.9641

> <Gold.Chemscore.Metal.Weighted>
-0.0000

> <Gold.Chemscore.Lipo.Weighted>
-14.1911

> <Gold.Chemscore.Internal_Hbond.Weighted>
0.0000

> <Gold.Chemscore.DEClash.Weighted>
0.2052

> <Gold.Chemscore.DEInternal.Weighted>
5.3182

> <Gold.Chemscore.Rot.Weighted>
5.4614

> <Gold.Chemscore.Internal.Correction.Weighted>
   9.000000E+99

> <Gold.Protein.RotatedTorsions>
[ 6907 6896 6895 6894 ] final -176.09 input  -60.11 | X-H torsion
[ 7974 7965 7964 7962 ] final -122.45 input  175.53 | X-H torsion
[ 8008 7997 7996 7995 ] final  138.20 input   59.86 | X-H torsion
[ 10167 10162 10161 10158 ] final -149.15 input  -65.29 | X-H torsion
[ 10718 10713 10712 10709 ] final  128.79 input   66.30 | X-H torsion
[ 10763 10752 10751 10750 ] final -133.98 input  -60.55 | X-H torsion
[ 11005 11000 10999 10996 ] final  -29.23 input  -57.11 | X-H torsion

> <Gold.Protein.ActiveResidues>
 VAL166  LYS551  ARG553  GLY616  TRP617  ASP618  TYR619  PRO620  LYS621  CYS622 
 ASP623  PHE694  ASN695  SER759  ASP760  ASP761  ALA762  ILE779  LEU786  VAL792 
 PHE793  MET794  SER795  GLU796  ALA797  LYS798  CYS799  TRP800  GLU811  SER814 

> <Gold.Protein.RotatedAtoms>
  151.5992  133.3358  159.3043 H   0  0  0  0  0  0  0  0  0  0  0  0  # atno 6907 bound_to 6896
  150.8217  134.7432  159.6789 H   0  0  0  0  0  0  0  0  0  0  0  0  # atno 6908 bound_to 6896
  152.4310  134.5783  159.9992 H   0  0  0  0  0  0  0  0  0  0  0  0  # atno 6909 bound_to 6896
  145.0293  140.8054  143.4333 H   0  0  0  0  0  0  0  0  0  0  0  0  # atno 7974 bound_to 7965
  156.2998  140.2400  156.4034 H   0  0  0  0  0  0  0  0  0  0  0  0  # atno 8008 bound_to 7997
  154.8506  140.0424  157.1621 H   0  0  0  0  0  0  0  0  0  0  0  0  # atno 8009 bound_to 7997
  154.9003  140.2976  155.5325 H   0  0  0  0  0  0  0  0  0  0  0  0  # atno 8010 bound_to 7997
  139.7468  143.8579  152.2576 H   0  0  0  0  0  0  0  0  0  0  0  0  # atno 10167 bound_to 10162
  157.5213  131.1098  150.9149 H   0  0  0  0  0  0  0  0  0  0  0  0  # atno 10718 bound_to 10713
  154.8725  135.3749  154.4661 H   0  0  0  0  0  0  0  0  0  0  0  0  # atno 10763 bound_to 10752
  153.5325  135.7027  153.5681 H   0  0  0  0  0  0  0  0  0  0  0  0  # atno 10764 bound_to 10752
  153.3879  135.3980  155.1868 H   0  0  0  0  0  0  0  0  0  0  0  0  # atno 10765 bound_to 10752
  140.9278  133.7357  156.0892 H   0  0  0  0  0  0  0  0  0  0  0  0  # atno 11005 bound_to 11000
  145.1792  139.2361  143.5301 LP  0  0  0  0  0  0  0  0  0  0  0  0  # atno 17320 bound_to 7965
  146.3496  140.1561  142.8591 LP  0  0  0  0  0  0  0  0  0  0  0  0  # atno 17321 bound_to 7965
  139.8545  144.7148  150.9173 LP  0  0  0  0  0  0  0  0  0  0  0  0  # atno 17342 bound_to 10162
  140.7793  143.3870  151.1376 LP  0  0  0  0  0  0  0  0  0  0  0  0  # atno 17343 bound_to 10162
  156.9759  130.5508  149.5293 LP  0  0  0  0  0  0  0  0  0  0  0  0  # atno 17370 bound_to 10713
  156.0355  130.5443  150.8643 LP  0  0  0  0  0  0  0  0  0  0  0  0  # atno 17371 bound_to 10713
  140.7903  134.3625  157.5466 LP  0  0  0  0  0  0  0  0  0  0  0  0  # atno 17394 bound_to 11000
  139.8789  134.9136  156.3087 LP  0  0  0  0  0  0  0  0  0  0  0  0  # atno 17395 bound_to 11000

$$$$
