#       Name:                AV-unprocessed.smi:1174
#       Creating user name   scv26
#       Creation time:       Fri Mar 27 03:53:50 2020


#       File generated by GOLD software.
#

@<TRIPOS>MOLECULE
AV-unprocessed.smi:1174
    46    47     1
SMALL
NO_CHARGES


@<TRIPOS>ATOM
      1 ****        -3.1811  -2.6080  -1.1992 C.3            1 S1                 0.0000
      2 ****        -2.4705  -1.4812  -0.4371 C.3            1 S1                 0.0000
      3 ****        -2.7239  -1.5910   1.0824 C.3            1 S1                 0.0000
      4 ****        -2.3232  -0.4013   1.8118 N.pl3          1 S1                 0.0000
      5 ****        -1.2304  -0.2245   2.6339 C.2            1 S1                 0.0000
      6 ****        -1.2735   1.0600   3.0949 C.2            1 S1                 0.0000
      7 ****        -2.4444   1.5973   2.4918 C.2            1 S1                 0.0000
      8 ****        -3.0744   0.7184   1.7298 N.2            1 S1                 0.0000
      9 ****        -1.0415  -1.5407  -0.7420 N.am           1 S1                 0.0000
     10 ****        -0.2186  -0.4888  -0.8820 C.2            1 S1                 0.0000
     11 ****        -0.5847   0.6756  -0.7219 O.2            1 S1                 0.0000
     12 ****         1.2363  -0.8128  -1.2718 C.3            1 S1                 0.0000
     13 ****         1.6851  -0.0585  -2.5482 C.3            1 S1                 0.0000
     14 ****         2.0784   1.4099  -2.2869 C.3            1 S1                 0.0000
     15 ****         3.0489   1.5179  -1.0995 C.3            1 S1                 0.0000
     16 ****         2.4438   0.8872   0.0861 N.am           1 S1                 0.0000
     17 ****         2.1778   1.4988   1.2668 C.2            1 S1                 0.0000
     18 ****         2.1718   2.8348   1.2258 N.am           1 S1                 0.0000
     19 ****         1.8970   0.8967   2.3016 O.2            1 S1                 0.0000
     20 ****         2.2319  -0.5547  -0.1136 C.3            1 S1                 0.0000
     21 ****        -4.2581  -2.5753  -1.0325 H              1 S1                 0.0000
     22 ****        -2.8251  -3.5890  -0.8826 H              1 S1                 0.0000
     23 ****        -3.0138  -2.5226  -2.2735 H              1 S1                 0.0000
     24 ****        -2.8842  -0.5392  -0.8020 H              1 S1                 0.0000
     25 ****        -3.7860  -1.7521   1.2730 H              1 S1                 0.0000
     26 ****        -2.2020  -2.4537   1.4992 H              1 S1                 0.0000
     27 ****        -0.5175  -1.0155   2.8156 H              1 S1                 0.0000
     28 ****        -0.5711   1.5433   3.7577 H              1 S1                 0.0000
     29 ****        -2.8537   2.5921   2.5864 H              1 S1                 0.0000
     30 ****        -0.6511  -2.4604  -0.8869 H              1 S1                 0.0000
     31 ****         1.2720  -1.8794  -1.5004 H              1 S1                 0.0000
     32 ****         2.5467  -0.5779  -2.9694 H              1 S1                 0.0000
     33 ****         0.9097  -0.1036  -3.3143 H              1 S1                 0.0000
     34 ****         2.5372   1.8320  -3.1815 H              1 S1                 0.0000
     35 ****         1.1908   2.0117  -2.0906 H              1 S1                 0.0000
     36 ****         3.9797   1.0005  -1.3362 H              1 S1                 0.0000
     37 ****         3.3300   2.5601  -0.9493 H              1 S1                 0.0000
     38 ****         1.9950   3.3628   2.0676 H              1 S1                 0.0000
     39 ****         2.3577   3.3091   0.3543 H              1 S1                 0.0000
     40 ****         1.8763  -1.0554   0.7886 H              1 S1                 0.0000
     41 ****         3.1911  -1.0209  -0.3425 H              1 S1                 0.0000
     42 ****        -3.9178   0.8528   1.2096 LP             1 S1                 0.0000
     43 ****        -1.5339   0.8719  -0.4760 LP             1 S1                 0.0000
     44 ****         0.0671   1.4250  -0.8378 LP             1 S1                 0.0000
     45 ****         1.8548  -0.1024   2.3030 LP             1 S1                 0.0000
     46 ****         1.7108   1.4061   3.1417 LP             1 S1                 0.0000
@<TRIPOS>BOND
    1    1    2 1     
    2    1   21 1     
    3    1   22 1     
    4    1   23 1     
    5    2    3 1     
    6    2    9 1     
    7    2   24 1     
    8    3    4 1     
    9    3   25 1     
   10    3   26 1     
   11    4    8 1     
   12    4    5 1     
   13    5    6 2     
   14    5   27 1     
   15    6    7 1     
   16    6   28 1     
   17    7    8 2     
   18    7   29 1     
   19    9   10 am    
   20    9   30 1     
   21   10   11 2     
   22   10   12 1     
   23   12   20 1     
   24   12   13 1     
   25   12   31 1     
   26   13   14 1     
   27   13   32 1     
   28   13   33 1     
   29   14   15 1     
   30   14   34 1     
   31   14   35 1     
   32   15   16 1     
   33   15   36 1     
   34   15   37 1     
   35   16   17 am    
   36   16   20 1     
   37   17   18 am    
   38   17   19 2     
   39   18   38 1     
   40   18   39 1     
   41   20   40 1     
   42   20   41 1     
   43    8   42 1     
   44   11   43 1     
   45   11   44 1     
   46   19   45 1     
   47   19   46 1     
@<TRIPOS>SUBSTRUCTURE
      1 S1             1
@<TRIPOS>SET
LONE_PAIRS      STATIC     ATOMS    <user>   **** ""
5 42 43 44 45 46
DONOR_HYDROGENS      STATIC     ATOMS    <user>   **** ""
3 30 38 39
ATOM$BLUE        STATIC     ATOMS    COLORGROUP SYSTEM
5 42 43 44 45 46
ATOM$RED        STATIC     ATOMS    COLORGROUP SYSTEM
3 30 38 39
