#       Name:                AV-unprocessed.smi:829
#       Creating user name   scv26
#       Creation time:       Fri Mar 27 01:32:07 2020


#       File generated by GOLD software.
#

@<TRIPOS>MOLECULE
AV-unprocessed.smi:829
    52    54     1
SMALL
NO_CHARGES


@<TRIPOS>ATOM
      1 ****        -2.4202   2.9185  -0.2290 O.2            1 S1                 0.0000
      2 ****        -2.7869   1.8318   0.2174 C.2            1 S1                 0.0000
      3 ****        -4.0554   1.5028   0.5175 N.am           1 S1                 0.0000
      4 ****        -5.2263   2.3009   0.4023 C.ar           1 S1                 0.0000
      5 ****        -6.3379   1.9502   1.2006 C.ar           1 S1                 0.0000
      6 ****        -7.5248   2.7057   1.1111 C.ar           1 S1                 0.0000
      7 ****        -7.5946   3.7497   0.2578 N.pl3          1 S1                 1.0000
      8 ****        -6.5648   4.1134  -0.5362 C.ar           1 S1                 0.0000
      9 ****        -5.3521   3.3958  -0.4905 C.ar           1 S1                 0.0000
     10 ****        -1.9449   0.8229   0.4851 N.am           1 S1                 0.0000
     11 ****        -0.4958   0.8725   0.3122 C.3            1 S1                 0.0000
     12 ****        -0.1017   0.5817  -1.1475 C.3            1 S1                 0.0000
     13 ****         1.4272   0.5357  -1.3125 C.3            1 S1                 0.0000
     14 ****         2.0382  -0.4589  -0.3931 N.4            1 S1                 1.0000
     15 ****         3.4965  -0.6367  -0.6167 C.3            1 S1                 0.0000
     16 ****         3.8907  -2.1245  -0.6821 C.3            1 S1                 0.0000
     17 ****         3.8095  -2.8804   0.6477 C.3            1 S1                 0.0000
     18 ****         4.6874  -4.1207   0.4543 C.3            1 S1                 0.0000
     19 ****         5.6887  -3.7680  -0.6555 C.3            1 S1                 0.0000
     20 ****         5.3461  -2.3433  -1.1050 C.3            1 S1                 0.0000
     21 ****         1.6995  -0.1703   1.0252 C.3            1 S1                 0.0000
     22 ****         0.1773  -0.1522   1.2387 C.3            1 S1                 0.0000
     23 ****        -4.1882   0.5997   0.9488 H              1 S1                 0.0000
     24 ****        -6.2832   1.1137   1.8825 H              1 S1                 0.0000
     25 ****        -8.4143   2.5062   1.6909 H              1 S1                 0.0000
     26 ****        -6.7418   4.9588  -1.1851 H              1 S1                 0.0000
     27 ****        -4.5495   3.6923  -1.1482 H              1 S1                 0.0000
     28 ****        -2.3303  -0.0354   0.8517 H              1 S1                 0.0000
     29 ****        -0.1372   1.8668   0.5865 H              1 S1                 0.0000
     30 ****        -0.5291  -0.3709  -1.4648 H              1 S1                 0.0000
     31 ****        -0.5170   1.3422  -1.8101 H              1 S1                 0.0000
     32 ****         1.6653   0.2763  -2.3449 H              1 S1                 0.0000
     33 ****         1.8570   1.5209  -1.1237 H              1 S1                 0.0000
     34 ****         3.7785  -0.1791  -1.5662 H              1 S1                 0.0000
     35 ****         4.0738  -0.1091   0.1443 H              1 S1                 0.0000
     36 ****         3.2522  -2.6310  -1.4083 H              1 S1                 0.0000
     37 ****         4.2228  -2.2678   1.4502 H              1 S1                 0.0000
     38 ****         2.7867  -3.1413   0.9212 H              1 S1                 0.0000
     39 ****         5.1860  -4.4064   1.3811 H              1 S1                 0.0000
     40 ****         4.0753  -4.9669   0.1401 H              1 S1                 0.0000
     41 ****         6.7205  -3.8363  -0.3094 H              1 S1                 0.0000
     42 ****         5.5777  -4.4643  -1.4876 H              1 S1                 0.0000
     43 ****         5.4965  -2.1987  -2.1753 H              1 S1                 0.0000
     44 ****         5.9937  -1.6360  -0.5844 H              1 S1                 0.0000
     45 ****         2.1437  -0.9203   1.6785 H              1 S1                 0.0000
     46 ****         2.1282   0.7907   1.3144 H              1 S1                 0.0000
     47 ****        -0.0449   0.0822   2.2806 H              1 S1                 0.0000
     48 ****        -0.2266  -1.1485   1.0518 H              1 S1                 0.0000
     49 ****         1.6113  -1.3453  -0.6217 H              1 S1                 0.0000
     50 ****        -8.4631   4.2830   0.2071 H              1 S1                 0.0000
     51 ****        -3.0899   3.6421  -0.3961 LP             1 S1                 0.0000
     52 ****        -1.4526   3.0778  -0.4247 LP             1 S1                 0.0000
@<TRIPOS>BOND
    1    1    2 2     
    2    2    3 am    
    3    2   10 am    
    4    3    4 1     
    5    3   23 1     
    6    4    9 ar    
    7    4    5 ar    
    8    5    6 ar    
    9    5   24 1     
   10    6    7 ar    
   11    6   25 1     
   12    7    8 ar    
   13    7   50 1     
   14    8    9 ar    
   15    8   26 1     
   16    9   27 1     
   17   10   11 1     
   18   10   28 1     
   19   11   22 1     
   20   11   12 1     
   21   11   29 1     
   22   12   13 1     
   23   12   30 1     
   24   12   31 1     
   25   13   14 1     
   26   13   32 1     
   27   13   33 1     
   28   14   15 1     
   29   14   21 1     
   30   14   49 1     
   31   15   16 1     
   32   15   34 1     
   33   15   35 1     
   34   16   20 1     
   35   16   17 1     
   36   16   36 1     
   37   17   18 1     
   38   17   37 1     
   39   17   38 1     
   40   18   19 1     
   41   18   39 1     
   42   18   40 1     
   43   19   20 1     
   44   19   41 1     
   45   19   42 1     
   46   20   43 1     
   47   20   44 1     
   48   21   22 1     
   49   21   45 1     
   50   21   46 1     
   51   22   47 1     
   52   22   48 1     
   53    1   51 1     
   54    1   52 1     
@<TRIPOS>SUBSTRUCTURE
      1 S1             1
@<TRIPOS>SET
LONE_PAIRS      STATIC     ATOMS    <user>   **** ""
2 51 52
DONOR_HYDROGENS      STATIC     ATOMS    <user>   **** ""
4 23 50 28 49
ATOM$BLUE        STATIC     ATOMS    COLORGROUP SYSTEM
2 51 52
ATOM$RED        STATIC     ATOMS    COLORGROUP SYSTEM
4 23 50 28 49
