#       Name:                AV-unprocessed.smi:2390
#       Creating user name   scv26
#       Creation time:       Fri Mar 27 13:10:57 2020


#       File generated by GOLD software.
#

@<TRIPOS>MOLECULE
AV-unprocessed.smi:2390
    51    52     1
SMALL
NO_CHARGES


@<TRIPOS>ATOM
      1 ****        -3.2897   3.9022   1.5692 C.3            1 S1                 0.0000
      2 ****        -3.4991   2.9660   0.3974 C.ar           1 S1                 0.0000
      3 ****        -4.7652   2.8279  -0.2044 C.ar           1 S1                 0.0000
      4 ****        -4.8908   1.9413  -1.2889 C.ar           1 S1                 0.0000
      5 ****        -3.7536   1.2333  -1.7235 C.ar           1 S1                 0.0000
      6 ****        -2.5189   1.4313  -1.0655 C.ar           1 S1                 0.0000
      7 ****        -1.4347   0.6668  -1.5728 N.am           1 S1                 0.0000
      8 ****        -0.1522   0.6824  -1.1703 C.2            1 S1                 0.0000
      9 ****         0.3175   1.4394  -0.3208 O.2            1 S1                 0.0000
     10 ****         0.5699  -0.2529  -1.8066 N.am           1 S1                 0.0000
     11 ****         2.0009  -0.5144  -1.6265 C.3            1 S1                 0.0000
     12 ****         2.6071  -0.7961  -3.0116 C.3            1 S1                 0.0000
     13 ****         2.2377  -1.6696  -0.6111 C.3            1 S1                 0.0000
     14 ****         3.7325  -1.9888  -0.3907 C.3            1 S1                 0.0000
     15 ****         1.5134  -1.4247   0.6720 N.4            1 S1                 1.0000
     16 ****         1.0887  -2.6543   1.3821 C.3            1 S1                 0.0000
     17 ****         0.1847  -2.2843   2.5714 C.3            1 S1                 0.0000
     18 ****         0.8655  -1.3809   3.4350 O.3            1 S1                 0.0000
     19 ****         1.2137  -0.1676   2.7774 C.3            1 S1                 0.0000
     20 ****         2.1655  -0.4778   1.6113 C.3            1 S1                 0.0000
     21 ****        -2.4085   2.2868  -0.0186 N.ar           1 S1                 0.0000
     22 ****        -4.2020   4.4504   1.8062 H              1 S1                 0.0000
     23 ****        -2.5077   4.6271   1.3410 H              1 S1                 0.0000
     24 ****        -2.9902   3.3400   2.4541 H              1 S1                 0.0000
     25 ****        -5.6189   3.3850   0.1525 H              1 S1                 0.0000
     26 ****        -5.8434   1.8053  -1.7797 H              1 S1                 0.0000
     27 ****        -3.8340   0.5479  -2.5547 H              1 S1                 0.0000
     28 ****        -1.6698   0.0174  -2.3089 H              1 S1                 0.0000
     29 ****         0.0949  -0.8238  -2.4909 H              1 S1                 0.0000
     30 ****         2.4819   0.3899  -1.2501 H              1 S1                 0.0000
     31 ****         3.6936  -0.8680  -2.9700 H              1 S1                 0.0000
     32 ****         2.3712   0.0062  -3.7117 H              1 S1                 0.0000
     33 ****         2.2248  -1.7265  -3.4328 H              1 S1                 0.0000
     34 ****         1.7880  -2.5581  -1.0574 H              1 S1                 0.0000
     35 ****         4.1967  -2.3664  -1.3013 H              1 S1                 0.0000
     36 ****         3.8699  -2.7575   0.3697 H              1 S1                 0.0000
     37 ****         4.2935  -1.1067  -0.0809 H              1 S1                 0.0000
     38 ****         0.5436  -3.3113   0.7035 H              1 S1                 0.0000
     39 ****         1.9629  -3.2045   1.7322 H              1 S1                 0.0000
     40 ****        -0.7485  -1.8371   2.2248 H              1 S1                 0.0000
     41 ****        -0.0813  -3.1791   3.1344 H              1 S1                 0.0000
     42 ****         0.3161   0.3433   2.4249 H              1 S1                 0.0000
     43 ****         1.6989   0.4964   3.4929 H              1 S1                 0.0000
     44 ****         3.0883  -0.9066   2.0039 H              1 S1                 0.0000
     45 ****         2.4333   0.4457   1.0985 H              1 S1                 0.0000
     46 ****         0.6516  -0.9765   0.3943 H              1 S1                 0.0000
     47 ****        -0.2701   2.1116   0.1297 LP             1 S1                 0.0000
     48 ****         1.2867   1.3822  -0.0811 LP             1 S1                 0.0000
     49 ****         1.7013  -1.8193   3.7656 LP             1 S1                 0.0000
     50 ****         0.2717  -1.1677   4.2109 LP             1 S1                 0.0000
     51 ****        -1.5289   2.4132   0.4402 LP             1 S1                 0.0000
@<TRIPOS>BOND
    1    1    2 1     
    2    1   22 1     
    3    1   23 1     
    4    1   24 1     
    5    2   21 ar    
    6    2    3 ar    
    7    3    4 ar    
    8    3   25 1     
    9    4    5 ar    
   10    4   26 1     
   11    5    6 ar    
   12    5   27 1     
   13    6    7 1     
   14    6   21 ar    
   15    7    8 am    
   16    7   28 1     
   17    8    9 2     
   18    8   10 am    
   19   10   11 1     
   20   10   29 1     
   21   11   12 1     
   22   11   13 1     
   23   11   30 1     
   24   12   31 1     
   25   12   32 1     
   26   12   33 1     
   27   13   14 1     
   28   13   15 1     
   29   13   34 1     
   30   14   35 1     
   31   14   36 1     
   32   14   37 1     
   33   15   20 1     
   34   15   16 1     
   35   15   46 1     
   36   16   17 1     
   37   16   38 1     
   38   16   39 1     
   39   17   18 1     
   40   17   40 1     
   41   17   41 1     
   42   18   19 1     
   43   19   20 1     
   44   19   42 1     
   45   19   43 1     
   46   20   44 1     
   47   20   45 1     
   48    9   47 1     
   49    9   48 1     
   50   18   49 1     
   51   18   50 1     
   52   21   51 1     
@<TRIPOS>SUBSTRUCTURE
      1 S1             1
@<TRIPOS>SET
LONE_PAIRS      STATIC     ATOMS    <user>   **** ""
5 47 48 49 50 51
DONOR_HYDROGENS      STATIC     ATOMS    <user>   **** ""
3 28 29 46
ATOM$BLUE        STATIC     ATOMS    COLORGROUP SYSTEM
5 47 48 49 50 51
ATOM$RED        STATIC     ATOMS    COLORGROUP SYSTEM
3 28 29 46
