#       Name:                AV-unprocessed.smi:3232
#       Creating user name   scv26
#       Creation time:       Fri Mar 27 18:20:25 2020


#       File generated by GOLD software.
#

@<TRIPOS>MOLECULE
AV-unprocessed.smi:3232
    44    45     1
SMALL
NO_CHARGES


@<TRIPOS>ATOM
      1 ****        -4.7978  -0.3835   0.6000 C.3            1 S1                 0.0000
      2 ****        -3.2953  -0.2599   0.8868 C.3            1 S1                 0.0000
      3 ****        -2.5555   0.3436  -0.2480 N.4            1 S1                 1.0000
      4 ****        -2.8786   1.7607  -0.5156 C.3            1 S1                 0.0000
      5 ****        -1.6728   2.3029  -1.2715 C.3            1 S1                 0.0000
      6 ****        -0.5035   1.5837  -0.6089 C.3            1 S1                 0.0000
      7 ****        -1.0787   0.2303  -0.1433 C.3            1 S1                 0.0000
      8 ****        -0.5727  -0.9745  -0.9645 C.3            1 S1                 0.0000
      9 ****         0.8741  -1.1319  -0.8751 N.am           1 S1                 0.0000
     10 ****         1.5331  -1.6105   0.1917 C.2            1 S1                 0.0000
     11 ****         0.9627  -2.0243   1.2019 O.2            1 S1                 0.0000
     12 ****         3.0666  -1.5898   0.1016 C.3            1 S1                 0.0000
     13 ****         3.7443  -2.4979   1.1443 C.3            1 S1                 0.0000
     14 ****         3.5519  -0.2205   0.2075 N.pl3          1 S1                 0.0000
     15 ****         3.4517   0.6705   1.1983 C.2            1 S1                 0.0000
     16 ****         4.0098   1.8413   0.9260 N.2            1 S1                 0.0000
     17 ****         4.4750   1.5847  -0.3326 C.2            1 S1                 0.0000
     18 ****         4.2228   0.3667  -0.8121 N.2            1 S1                 0.0000
     19 ****        -5.3063  -0.8876   1.4221 H              1 S1                 0.0000
     20 ****        -4.9803  -0.9622  -0.3057 H              1 S1                 0.0000
     21 ****        -5.2664   0.5929   0.4766 H              1 S1                 0.0000
     22 ****        -3.1274   0.3207   1.7950 H              1 S1                 0.0000
     23 ****        -2.8943  -1.2568   1.0744 H              1 S1                 0.0000
     24 ****        -3.8043   1.8657  -1.0820 H              1 S1                 0.0000
     25 ****        -2.9932   2.3006   0.4260 H              1 S1                 0.0000
     26 ****        -1.7350   2.0191  -2.3229 H              1 S1                 0.0000
     27 ****        -1.5903   3.3890  -1.2182 H              1 S1                 0.0000
     28 ****         0.3523   1.4929  -1.2784 H              1 S1                 0.0000
     29 ****        -0.1722   2.1544   0.2598 H              1 S1                 0.0000
     30 ****        -0.8039   0.0926   0.9041 H              1 S1                 0.0000
     31 ****        -1.0587  -1.8942  -0.6340 H              1 S1                 0.0000
     32 ****        -0.8356  -0.8476  -2.0152 H              1 S1                 0.0000
     33 ****         1.4193  -0.8172  -1.6653 H              1 S1                 0.0000
     34 ****         3.3351  -1.9691  -0.8863 H              1 S1                 0.0000
     35 ****         3.3952  -3.5276   1.0587 H              1 S1                 0.0000
     36 ****         3.5478  -2.1625   2.1635 H              1 S1                 0.0000
     37 ****         4.8256  -2.5079   1.0044 H              1 S1                 0.0000
     38 ****         2.9550   0.4596   2.1342 H              1 S1                 0.0000
     39 ****         5.0113   2.3193  -0.9151 H              1 S1                 0.0000
     40 ****        -2.8114  -0.1670  -1.0809 H              1 S1                 0.0000
     41 ****        -0.0359  -2.0129   1.2523 LP             1 S1                 0.0000
     42 ****         1.4983  -2.3716   1.9716 LP             1 S1                 0.0000
     43 ****         4.0722   2.6712   1.4805 LP             1 S1                 0.0000
     44 ****         4.4678  -0.0175  -1.7023 LP             1 S1                 0.0000
@<TRIPOS>BOND
    1    1    2 1     
    2    1   19 1     
    3    1   20 1     
    4    1   21 1     
    5    2    3 1     
    6    2   22 1     
    7    2   23 1     
    8    3    7 1     
    9    3    4 1     
   10    3   40 1     
   11    4    5 1     
   12    4   24 1     
   13    4   25 1     
   14    5    6 1     
   15    5   26 1     
   16    5   27 1     
   17    6    7 1     
   18    6   28 1     
   19    6   29 1     
   20    7    8 1     
   21    7   30 1     
   22    8    9 1     
   23    8   31 1     
   24    8   32 1     
   25    9   10 am    
   26    9   33 1     
   27   10   11 2     
   28   10   12 1     
   29   12   13 1     
   30   12   14 1     
   31   12   34 1     
   32   13   35 1     
   33   13   36 1     
   34   13   37 1     
   35   14   18 1     
   36   14   15 1     
   37   15   16 2     
   38   15   38 1     
   39   16   17 1     
   40   17   18 2     
   41   17   39 1     
   42   11   41 1     
   43   11   42 1     
   44   16   43 1     
   45   18   44 1     
@<TRIPOS>SUBSTRUCTURE
      1 S1             1
@<TRIPOS>SET
LONE_PAIRS      STATIC     ATOMS    <user>   **** ""
4 41 42 43 44
DONOR_HYDROGENS      STATIC     ATOMS    <user>   **** ""
2 40 33
ATOM$BLUE        STATIC     ATOMS    COLORGROUP SYSTEM
4 41 42 43 44
ATOM$RED        STATIC     ATOMS    COLORGROUP SYSTEM
2 40 33
