AV-unprocessed.smi:356|AV-procd|sdf|2409|dock9
  -GOLD-   2262022343D 1   1.00000     0.00000
 Structure written by MMmdl.
 41 43  0  0  0  0  0  0  0  0  1 V2000
  153.2435  138.4556  159.2694 C   0  0  0  0  0  0  0  0  0  0  0  0
  152.9182  139.9139  159.1992 C   0  0  0  0  0  0  0  0  0  0  0  0
  153.5227  140.8139  159.9756 N   0  0  0  0  0  0  0  0  0  0  0  0
  152.9273  141.9983  159.5862 C   0  0  0  0  0  0  0  0  0  0  0  0
  153.1335  143.3221  160.0364 C   0  0  0  0  0  0  0  0  0  0  0  0
  152.3947  144.3880  159.4819 C   0  0  0  0  0  0  0  0  0  0  0  0
  151.4411  144.1464  158.4719 C   0  0  0  0  0  0  0  0  0  0  0  0
  151.2200  142.8352  158.0086 C   0  0  0  0  0  0  0  0  0  0  0  0
  151.9601  141.7750  158.5655 C   0  0  0  0  0  0  0  0  0  0  0  0
  151.9874  140.4024  158.3422 N   0  0  0  0  0  0  0  0  0  0  0  0
  151.1691  139.6731  157.3823 C   0  0  0  0  0  0  0  0  0  0  0  0
  151.4181  140.1214  155.9290 C   0  0  1  0  0  0  0  0  0  0  0  0
  152.7547  139.8312  155.5705 O   0  0  0  0  0  0  0  0  0  0  0  0
  150.4803  139.3928  154.9464 C   0  0  0  0  0  0  0  0  0  0  0  0
  149.0675  139.7704  155.0216 N   0  0  0  0  0  0  0  0  0  0  0  0
  148.2401  139.0778  154.0348 C   0  0  0  0  0  0  0  0  0  0  0  0
  146.7665  139.5150  154.1128 C   0  0  0  0  0  0  0  0  0  0  0  0
  146.6745  140.9266  153.9534 O   0  0  0  0  0  0  0  0  0  0  0  0
  147.4303  141.6384  154.9276 C   0  0  0  0  0  0  0  0  0  0  0  0
  148.9052  141.2100  154.8450 C   0  0  0  0  0  0  0  0  0  0  0  0
  154.0641  138.2795  159.9657 H   0  0  0  0  0  0  0  0  0  0  0  0
  153.5423  138.0842  158.2893 H   0  0  0  0  0  0  0  0  0  0  0  0
  152.3752  137.8925  159.6121 H   0  0  0  0  0  0  0  0  0  0  0  0
  153.8616  143.5174  160.8098 H   0  0  0  0  0  0  0  0  0  0  0  0
  152.5605  145.3956  159.8338 H   0  0  0  0  0  0  0  0  0  0  0  0
  150.8796  144.9684  158.0524 H   0  0  0  0  0  0  0  0  0  0  0  0
  150.4913  142.6462  157.2346 H   0  0  0  0  0  0  0  0  0  0  0  0
  151.3438  138.6025  157.4893 H   0  0  0  0  0  0  0  0  0  0  0  0
  150.1229  139.8351  157.6448 H   0  0  0  0  0  0  0  0  0  0  0  0
  151.2736  141.1996  155.8727 H   0  0  0  0  0  0  0  0  0  0  0  0
  152.7560  139.4765  154.6940 H   0  0  0  0  0  0  0  0  0  0  0  0
  150.8471  139.5768  153.9352 H   0  0  0  0  0  0  0  0  0  0  0  0
  150.5684  138.3161  155.0994 H   0  0  0  0  0  0  0  0  0  0  0  0
  148.6205  139.2717  153.0306 H   0  0  0  0  0  0  0  0  0  0  0  0
  148.2866  138.0002  154.1845 H   0  0  0  0  0  0  0  0  0  0  0  0
  146.1847  139.0293  153.3292 H   0  0  0  0  0  0  0  0  0  0  0  0
  146.3267  139.2213  155.0673 H   0  0  0  0  0  0  0  0  0  0  0  0
  147.3343  142.7082  154.7419 H   0  0  0  0  0  0  0  0  0  0  0  0
  147.0272  141.4475  155.9235 H   0  0  0  0  0  0  0  0  0  0  0  0
  149.4762  141.7432  155.6060 H   0  0  0  0  0  0  0  0  0  0  0  0
  149.3142  141.5130  153.8798 H   0  0  0  0  0  0  0  0  0  0  0  0
  1  2  1  0  0  0  0
  1 21  1  0  0  0  0
  1 22  1  0  0  0  0
  1 23  1  0  0  0  0
  2 10  1  0  0  0  0
  2  3  2  0  0  0  0
  3  4  1  0  0  0  0
  4  9  2  0  0  0  0
  4  5  1  0  0  0  0
  5  6  2  0  0  0  0
  5 24  1  0  0  0  0
  6  7  1  0  0  0  0
  6 25  1  0  0  0  0
  7  8  2  0  0  0  0
  7 26  1  0  0  0  0
  8  9  1  0  0  0  0
  8 27  1  0  0  0  0
  9 10  1  0  0  0  0
 10 11  1  0  0  0  0
 11 12  1  0  0  0  0
 11 28  1  0  0  0  0
 11 29  1  0  0  0  0
 12 13  1  0  0  0  0
 12 14  1  0  0  0  0
 12 30  1  0  0  0  0
 13 31  1  0  0  0  0
 14 15  1  0  0  0  0
 14 32  1  0  0  0  0
 14 33  1  0  0  0  0
 15 20  1  0  0  0  0
 15 16  1  0  0  0  0
 16 17  1  0  0  0  0
 16 34  1  0  0  0  0
 16 35  1  0  0  0  0
 17 18  1  0  0  0  0
 17 36  1  0  0  0  0
 17 37  1  0  0  0  0
 18 19  1  0  0  0  0
 19 20  1  0  0  0  0
 19 38  1  0  0  0  0
 19 39  1  0  0  0  0
 20 40  1  0  0  0  0
 20 41  1  0  0  0  0
M  END
> <s_m_source_file>
AV-unprocessed.smi

> <i_m_source_file_index>
356

> <i_lp_mmshare_version>
43012

> <i_f3d_flags>
0

> <s_epik_input>
W2NIXTFbY0hdW2NIXVtjSF1jKGMxMiluKGMobjIpW0NIM10pW0NIMl1bQ0BIXShbT0hdKVtDSDJdTjNbQ0gyXVtDSDJdT1tDSDJdW0NIMl0z

> <s_epik_cmdline>
J2VwaWtfcHl0aG9uJywgJy1waCcsICc3LjAnLCAnLXRuJywgJzgnLCAnLW1hJywgJzIwMCcsICctbWV0YWxfYmluZGluZycsICctaW1hZScsICc8aW5maWxlLm1hZT4nLCAnLW9tYWUnLCAnPG91dGZpbGUubWFlPic=

> <r_epik_Ionization_Penalty>
0.355661

> <r_epik_Ionization_Penalty_Charging>
0

> <r_epik_Ionization_Penalty_Neutral>
0.355661

> <r_epik_State_Penalty>
0.325123

> <r_epik_Charging_Adjusted_Penalty>
0.325123

> <i_epik_Tot_Q>
0

> <i_epik_Tot_abs_Q>
0

> <r_epik_Metal_State_Penalty>
0.239925

> <b_epik_Metal_Only>
0

> <s_lp_Force_Field>
OPLS_2005

> <r_lp_Energy>
29.7319

> <b_lp_Chiralities_Consistent>
1

> <s_lp_Variant>
AV-unprocessed.smi:356-2

> <Gold.Version>
5.8.1

> <Gold.Id.Protein>
6NUR|6NUR_protein|mol2

> <Gold.PLP.Fitness>
48.6268

> <Gold.PLP.PLP>
-45.7402

> <Gold.PLP.part.hbond>
-1.0000

> <Gold.PLP.part.metal>
0.0000

> <Gold.PLP.part.buried>
-5.9621

> <Gold.PLP.part.nonpolar>
-39.3666

> <Gold.PLP.part.repulsive>
0.2816

> <Gold.PLP.ligand.clash>
0.0000

> <Gold.PLP.ligand.torsion>
0.0654

> <Gold.PLP.Chemscore.Hbond>
1.0000

> <Gold.PLP.Chemscore.CHOScore>
0.0000

> <Gold.PLP.Chemscore.Metal>
0.0000

> <Gold.Chemscore.Hbonds>
donor molecule, donor type, donor heavy atom, donor atom, acceptor molecule, acceptor atom, score
      P1  H  7997  8010       L1    13  1.00

> <Gold.PLP.Chemscore.Internal.Correction>
0.0174

> <Gold.Rescore>
     Score         DG    S(hbond)    S(metal)    S(lipo)     H(rot)  DE(clash)    DE(int)     intcor
     17.47     -17.85       0.94        0.00     122.36       1.99       0.06       0.32       ----

> <Gold.Chemscore.Fitness>
17.4665

> <Gold.Chemscore.DG>
-17.8452

> <Gold.Chemscore.ZeroCoef>
-5.4800

> <Gold.Chemscore.Hbond>
0.9384

> <Gold.Chemscore.Metal>
0.0000

> <Gold.Chemscore.Lipo>
122.3601

> <Gold.Chemscore.Internal_Hbond>
0.0000

> <Gold.Chemscore.DEClash>
0.0637

> <Gold.Chemscore.DEInternal>
0.3151

> <Gold.Chemscore.Rot>
1.9863

> <Gold.Chemscore.Internal.Correction>
   9.000000E+99

> <Gold.Chemscore.Hbonds>
donor molecule, donor type, donor heavy atom, donor atom, acceptor molecule, acceptor atom, score
      P1  H  7997  8010       L1    13  0.93

> <Gold.Chemscore.Hbond.Weighted>
-3.1341

> <Gold.Chemscore.Metal.Weighted>
-0.0000

> <Gold.Chemscore.Lipo.Weighted>
-14.3161

> <Gold.Chemscore.Internal_Hbond.Weighted>
0.0000

> <Gold.Chemscore.DEClash.Weighted>
0.0637

> <Gold.Chemscore.DEInternal.Weighted>
0.3151

> <Gold.Chemscore.Rot.Weighted>
5.0850

> <Gold.Chemscore.Internal.Correction.Weighted>
   9.000000E+99

> <Gold.Protein.RotatedTorsions>
[ 6907 6896 6895 6894 ] final -149.81 input  -60.11 | X-H torsion
[ 7974 7965 7964 7962 ] final -177.58 input  175.53 | X-H torsion
[ 8008 7997 7996 7995 ] final   76.59 input   59.86 | X-H torsion
[ 10167 10162 10161 10158 ] final  179.69 input  -65.29 | X-H torsion
[ 10718 10713 10712 10709 ] final  -15.00 input   66.30 | X-H torsion
[ 10763 10752 10751 10750 ] final  168.01 input  -60.55 | X-H torsion
[ 11005 11000 10999 10996 ] final -117.16 input  -57.11 | X-H torsion

> <Gold.Protein.ActiveResidues>
 VAL166  LYS551  ARG553  GLY616  TRP617  ASP618  TYR619  PRO620  LYS621  CYS622 
 ASP623  PHE694  ASN695  SER759  ASP760  ASP761  ALA762  ILE779  LEU786  VAL792 
 PHE793  MET794  SER795  GLU796  ALA797  LYS798  CYS799  TRP800  GLU811  SER814 

> <Gold.Protein.RotatedAtoms>
  151.1896  133.4675  159.2594 H   0  0  0  0  0  0  0  0  0  0  0  0  # atno 6907 bound_to 6896
  151.1177  135.0062  159.8534 H   0  0  0  0  0  0  0  0  0  0  0  0  # atno 6908 bound_to 6896
  152.5454  134.1809  159.8688 H   0  0  0  0  0  0  0  0  0  0  0  0  # atno 6909 bound_to 6896
  144.7128  140.0998  143.6417 H   0  0  0  0  0  0  0  0  0  0  0  0  # atno 7974 bound_to 7965
  155.8295  140.3466  155.5563 H   0  0  0  0  0  0  0  0  0  0  0  0  # atno 8008 bound_to 7997
  155.8257  140.0919  157.1842 H   0  0  0  0  0  0  0  0  0  0  0  0  # atno 8009 bound_to 7997
  154.4004  140.1421  156.3541 H   0  0  0  0  0  0  0  0  0  0  0  0  # atno 8010 bound_to 7997
  139.5347  144.2531  152.0768 H   0  0  0  0  0  0  0  0  0  0  0  0  # atno 10167 bound_to 10162
  156.6080  130.4842  149.6213 H   0  0  0  0  0  0  0  0  0  0  0  0  # atno 10718 bound_to 10713
  154.3623  135.2753  155.2313 H   0  0  0  0  0  0  0  0  0  0  0  0  # atno 10763 bound_to 10752
  154.4496  135.5934  153.6186 H   0  0  0  0  0  0  0  0  0  0  0  0  # atno 10764 bound_to 10752
  152.9843  135.6038  154.3845 H   0  0  0  0  0  0  0  0  0  0  0  0  # atno 10765 bound_to 10752
  141.0373  133.9889  157.3050 H   0  0  0  0  0  0  0  0  0  0  0  0  # atno 11005 bound_to 11000
  145.9547  139.2758  143.1191 LP  0  0  0  0  0  0  0  0  0  0  0  0  # atno 17320 bound_to 7965
  145.9285  140.9065  143.0368 LP  0  0  0  0  0  0  0  0  0  0  0  0  # atno 17321 bound_to 7965
  140.2000  144.4667  150.6436 LP  0  0  0  0  0  0  0  0  0  0  0  0  # atno 17342 bound_to 10162
  140.6547  143.2234  151.5996 LP  0  0  0  0  0  0  0  0  0  0  0  0  # atno 17343 bound_to 10162
  156.2414  130.6853  151.1559 LP  0  0  0  0  0  0  0  0  0  0  0  0  # atno 17370 bound_to 10713
  157.7262  131.0648  150.5920 LP  0  0  0  0  0  0  0  0  0  0  0  0  # atno 17371 bound_to 10713
  139.9250  135.0201  156.8202 LP  0  0  0  0  0  0  0  0  0  0  0  0  # atno 17394 bound_to 11000
  140.6298  133.9916  155.7656 LP  0  0  0  0  0  0  0  0  0  0  0  0  # atno 17395 bound_to 11000

$$$$
