AV-unprocessed.smi:3165|AV-procd|sdf|12090|dock4
  -GOLD-   2272017523D 1   1.00000     0.00000
 Structure written by MMmdl.
 37 38  0  0  0  0  0  0  0  0  1 V2000
  149.0720  140.8714  157.7567 C   0  0  0  0  0  0  0  0  0  0  0  0
  150.3045  141.5408  157.1141 C   0  0  1  0  0  0  0  0  0  0  0  0
  150.4878  141.1446  155.6347 C   0  0  0  0  0  0  0  0  0  0  0  0
  151.0350  139.8097  155.4689 N   0  0  0  0  0  0  0  0  0  0  0  0
  152.2190  139.3057  155.9644 C   0  0  0  0  0  0  0  0  0  0  0  0
  152.3158  138.0096  155.5458 C   0  0  0  0  0  0  0  0  0  0  0  0
  151.1291  137.8104  154.7864 C   0  0  0  0  0  0  0  0  0  0  0  0
  150.3658  138.8902  154.7399 N   0  0  0  0  0  0  0  0  0  0  0  0
  150.2450  143.0019  157.2111 N   0  0  0  0  0  0  0  0  0  0  0  0
  151.5267  143.6996  157.0962 C   0  0  0  0  0  0  0  0  0  0  0  0
  152.0649  144.1331  158.4703 C   0  0  2  0  0  0  0  0  0  0  0  0
  152.2206  142.9704  159.4735 C   0  0  0  0  0  0  0  0  0  0  0  0
  152.7185  143.4927  160.8253 C   0  0  0  0  0  0  0  0  0  0  0  0
  151.8126  144.6335  161.3019 C   0  0  0  0  0  0  0  0  0  0  0  0
  151.6947  145.7149  160.2155 C   0  0  0  0  0  0  0  0  0  0  0  0
  151.2104  145.1433  159.0036 O   0  0  0  0  0  0  0  0  0  0  0  0
  149.1173  139.7859  157.6706 H   0  0  0  0  0  0  0  0  0  0  0  0
  148.1491  141.2014  157.2785 H   0  0  0  0  0  0  0  0  0  0  0  0
  148.9958  141.0910  158.8211 H   0  0  0  0  0  0  0  0  0  0  0  0
  151.1874  141.1951  157.6531 H   0  0  0  0  0  0  0  0  0  0  0  0
  149.5358  141.2087  155.1040 H   0  0  0  0  0  0  0  0  0  0  0  0
  151.1647  141.8433  155.1410 H   0  0  0  0  0  0  0  0  0  0  0  0
  152.8852  139.9048  156.5675 H   0  0  0  0  0  0  0  0  0  0  0  0
  153.1135  137.3111  155.7498 H   0  0  0  0  0  0  0  0  0  0  0  0
  150.8027  136.9200  154.2699 H   0  0  0  0  0  0  0  0  0  0  0  0
  149.6045  143.3629  156.5111 H   0  0  0  0  0  0  0  0  0  0  0  0
  152.2661  143.0597  156.6155 H   0  0  0  0  0  0  0  0  0  0  0  0
  151.4157  144.5808  156.4633 H   0  0  0  0  0  0  0  0  0  0  0  0
  153.0466  144.5807  158.3050 H   0  0  0  0  0  0  0  0  0  0  0  0
  151.2648  142.4660  159.6187 H   0  0  0  0  0  0  0  0  0  0  0  0
  152.9113  142.2229  159.0826 H   0  0  0  0  0  0  0  0  0  0  0  0
  152.7371  142.6880  161.5607 H   0  0  0  0  0  0  0  0  0  0  0  0
  153.7433  143.8525  160.7265 H   0  0  0  0  0  0  0  0  0  0  0  0
  150.8216  144.2418  161.5340 H   0  0  0  0  0  0  0  0  0  0  0  0
  152.2027  145.0649  162.2241 H   0  0  0  0  0  0  0  0  0  0  0  0
  151.0032  146.4938  160.5373 H   0  0  0  0  0  0  0  0  0  0  0  0
  152.6577  146.1975  160.0421 H   0  0  0  0  0  0  0  0  0  0  0  0
  1  2  1  0  0  0  0
  1 17  1  0  0  0  0
  1 18  1  0  0  0  0
  1 19  1  0  0  0  0
  2  3  1  0  0  0  0
  2  9  1  0  0  0  0
  2 20  1  0  0  0  0
  3  4  1  0  0  0  0
  3 21  1  0  0  0  0
  3 22  1  0  0  0  0
  4  8  1  0  0  0  0
  4  5  1  0  0  0  0
  5  6  2  0  0  0  0
  5 23  1  0  0  0  0
  6  7  1  0  0  0  0
  6 24  1  0  0  0  0
  7  8  2  0  0  0  0
  7 25  1  0  0  0  0
  9 10  1  0  0  0  0
  9 26  1  0  0  0  0
 10 11  1  0  0  0  0
 10 27  1  0  0  0  0
 10 28  1  0  0  0  0
 11 16  1  0  0  0  0
 11 12  1  0  0  0  0
 11 29  1  0  0  0  0
 12 13  1  0  0  0  0
 12 30  1  0  0  0  0
 12 31  1  0  0  0  0
 13 14  1  0  0  0  0
 13 32  1  0  0  0  0
 13 33  1  0  0  0  0
 14 15  1  0  0  0  0
 14 34  1  0  0  0  0
 14 35  1  0  0  0  0
 15 16  1  0  0  0  0
 15 36  1  0  0  0  0
 15 37  1  0  0  0  0
M  END
> <s_m_source_file>
AV-unprocessed.smi

> <i_m_source_file_index>
3165

> <i_lp_mmshare_version>
43012

> <i_f3d_flags>
0

> <s_epik_input>
bjFbY0hdW2NIXVtjSF1uMVtDSDJdW0NAQEhdKFtDSDNdKVtOSF1bQ0gyXVtDQEBIXTJbQ0gyXVtDSDJdW0NIMl1bQ0gyXU8y

> <s_epik_cmdline>
J2VwaWtfcHl0aG9uJywgJy1waCcsICc3LjAnLCAnLXRuJywgJzgnLCAnLW1hJywgJzIwMCcsICctbWV0YWxfYmluZGluZycsICctaW1hZScsICc8aW5maWxlLm1hZT4nLCAnLW9tYWUnLCAnPG91dGZpbGUubWFlPic=

> <r_lp_tautomer_probability>
1

> <r_epik_Ionization_Penalty>
2.51982

> <r_epik_Ionization_Penalty_Charging>
0

> <r_epik_Ionization_Penalty_Neutral>
2.51982

> <r_epik_State_Penalty>
2.68614

> <r_epik_Charging_Adjusted_Penalty>
2.68614

> <i_epik_Tot_Q>
0

> <i_epik_Tot_abs_Q>
0

> <r_epik_Metal_State_Penalty>
2.6861

> <b_epik_Metal_Only>
0

> <s_lp_Force_Field>
OPLS_2005

> <r_lp_Energy>
15.9673

> <b_lp_Chiralities_Consistent>
1

> <s_lp_Variant>
AV-unprocessed.smi:3165-6

> <Gold.Version>
5.8.1

> <Gold.Id.Protein>
6NUR|6NUR_protein|mol2

> <Gold.PLP.Fitness>
46.3817

> <Gold.PLP.PLP>
-41.1032

> <Gold.PLP.part.hbond>
-1.0000

> <Gold.PLP.part.metal>
0.0000

> <Gold.PLP.part.buried>
-2.1377

> <Gold.PLP.part.nonpolar>
-36.7349

> <Gold.PLP.part.repulsive>
0.2825

> <Gold.PLP.ligand.clash>
0.0000

> <Gold.PLP.ligand.torsion>
0.6610

> <Gold.PLP.Chemscore.Hbond>
0.9920

> <Gold.PLP.Chemscore.CHOScore>
1.1959

> <Gold.PLP.Chemscore.Metal>
0.0000

> <Gold.Chemscore.Hbonds>
donor molecule, donor type, donor heavy atom, donor atom, acceptor molecule, acceptor atom, score
      L1  H     9    26       P1  8028  0.99

> <Gold.PLP.Chemscore.Internal.Correction>
0.0367

> <Gold.Rescore>
     Score         DG    S(hbond)    S(metal)    S(lipo)     H(rot)  DE(clash)    DE(int)     intcor
     16.92     -18.07       0.98        0.00     113.90       1.57       0.51       0.64       ----

> <Gold.Chemscore.Fitness>
16.9183

> <Gold.Chemscore.DG>
-18.0659

> <Gold.Chemscore.ZeroCoef>
-5.4800

> <Gold.Chemscore.Hbond>
0.9841

> <Gold.Chemscore.Metal>
0.0000

> <Gold.Chemscore.Lipo>
113.9003

> <Gold.Chemscore.Internal_Hbond>
0.0000

> <Gold.Chemscore.DEClash>
0.5116

> <Gold.Chemscore.DEInternal>
0.6360

> <Gold.Chemscore.Rot>
1.5731

> <Gold.Chemscore.Internal.Correction>
   9.000000E+99

> <Gold.Chemscore.Hbonds>
donor molecule, donor type, donor heavy atom, donor atom, acceptor molecule, acceptor atom, score
      L1  H     9    26       P1  8028  0.94

> <Gold.Chemscore.Hbond.Weighted>
-3.2868

> <Gold.Chemscore.Metal.Weighted>
-0.0000

> <Gold.Chemscore.Lipo.Weighted>
-13.3263

> <Gold.Chemscore.Internal_Hbond.Weighted>
0.0000

> <Gold.Chemscore.DEClash.Weighted>
0.5116

> <Gold.Chemscore.DEInternal.Weighted>
0.6360

> <Gold.Chemscore.Rot.Weighted>
4.0273

> <Gold.Chemscore.Internal.Correction.Weighted>
   9.000000E+99

> <Gold.Protein.RotatedTorsions>
[ 6907 6896 6895 6894 ] final  166.85 input  -60.11 | X-H torsion
[ 7974 7965 7964 7962 ] final  127.81 input  175.53 | X-H torsion
[ 8008 7997 7996 7995 ] final  109.01 input   59.86 | X-H torsion
[ 10167 10162 10161 10158 ] final -114.45 input  -65.29 | X-H torsion
[ 10718 10713 10712 10709 ] final  114.60 input   66.30 | X-H torsion
[ 10763 10752 10751 10750 ] final  -60.36 input  -60.55 | X-H torsion
[ 11005 11000 10999 10996 ] final  173.78 input  -57.11 | X-H torsion

> <Gold.Protein.ActiveResidues>
 VAL166  LYS551  ARG553  GLY616  TRP617  ASP618  TYR619  PRO620  LYS621  CYS622 
 ASP623  PHE694  ASN695  SER759  ASP760  ASP761  ALA762  ILE779  LEU786  VAL792 
 PHE793  MET794  SER795  GLU796  ALA797  LYS798  CYS799  TRP800  GLU811  SER814 

> <Gold.Protein.RotatedAtoms>
  151.8724  133.3478  159.3739 H   0  0  0  0  0  0  0  0  0  0  0  0  # atno 6907 bound_to 6896
  150.7149  134.5099  159.5611 H   0  0  0  0  0  0  0  0  0  0  0  0  # atno 6908 bound_to 6896
  152.2635  134.8010  160.0477 H   0  0  0  0  0  0  0  0  0  0  0  0  # atno 6909 bound_to 6896
  145.0464  139.3919  143.5076 H   0  0  0  0  0  0  0  0  0  0  0  0  # atno 7974 bound_to 7965
  156.1947  140.3065  155.9403 H   0  0  0  0  0  0  0  0  0  0  0  0  # atno 8008 bound_to 7997
  155.3093  140.0450  157.3051 H   0  0  0  0  0  0  0  0  0  0  0  0  # atno 8009 bound_to 7997
  154.5495  140.2287  155.8518 H   0  0  0  0  0  0  0  0  0  0  0  0  # atno 8010 bound_to 7997
  140.1008  143.4614  152.1813 H   0  0  0  0  0  0  0  0  0  0  0  0  # atno 10167 bound_to 10162
  157.6271  131.1001  150.7209 H   0  0  0  0  0  0  0  0  0  0  0  0  # atno 10718 bound_to 10713
  154.2680  135.6295  153.5299 H   0  0  0  0  0  0  0  0  0  0  0  0  # atno 10763 bound_to 10752
  152.9885  135.5603  154.5631 H   0  0  0  0  0  0  0  0  0  0  0  0  # atno 10764 bound_to 10752
  154.5195  135.2881  155.1250 H   0  0  0  0  0  0  0  0  0  0  0  0  # atno 10765 bound_to 10752
  140.3442  134.7250  157.4223 H   0  0  0  0  0  0  0  0  0  0  0  0  # atno 11005 bound_to 11000
  146.3514  140.0091  142.8669 LP  0  0  0  0  0  0  0  0  0  0  0  0  # atno 17320 bound_to 7965
  145.1582  140.9659  143.4392 LP  0  0  0  0  0  0  0  0  0  0  0  0  # atno 17321 bound_to 7965
  139.5672  144.7442  151.3990 LP  0  0  0  0  0  0  0  0  0  0  0  0  # atno 17342 bound_to 10162
  140.6978  143.7705  150.7355 LP  0  0  0  0  0  0  0  0  0  0  0  0  # atno 17343 bound_to 10162
  156.7555  130.4782  149.5447 LP  0  0  0  0  0  0  0  0  0  0  0  0  # atno 17370 bound_to 10713
  156.1451  130.6271  151.0520 LP  0  0  0  0  0  0  0  0  0  0  0  0  # atno 17371 bound_to 10713
  140.0756  134.5802  155.8595 LP  0  0  0  0  0  0  0  0  0  0  0  0  # atno 17394 bound_to 11000
  141.2030  133.6629  156.6038 LP  0  0  0  0  0  0  0  0  0  0  0  0  # atno 17395 bound_to 11000

$$$$
