AV-unprocessed.smi:2908|AV-procd|sdf|11168|dock4
  -GOLD-   2272016 53D 1   1.00000     0.00000
 Structure written by MMmdl.
 43 44  0  0  0  0  0  0  0  0  1 V2000
  153.6680  138.7133  157.3304 O   0  0  0  0  0  0  0  0  0  0  0  0
  152.5590  138.9275  157.8219 C   0  0  0  0  0  0  0  0  0  0  0  0
  152.4100  139.4541  159.0473 N   0  0  0  0  0  0  0  0  0  0  0  0
  153.4848  139.9795  159.8808 C   0  0  0  0  0  0  0  0  0  0  0  0
  152.9325  140.8062  161.0568 C   0  0  0  0  0  0  0  0  0  0  0  0
  152.6386  142.2537  160.6943 C   0  0  0  0  0  0  0  0  0  0  0  0
  152.8259  142.7141  159.3740 C   0  0  0  0  0  0  0  0  0  0  0  0
  152.5040  144.0528  159.0777 C   0  0  0  0  0  0  0  0  0  0  0  0
  152.0103  144.8761  160.1080 C   0  0  0  0  0  0  0  0  0  0  0  0
  151.8615  144.3222  161.3947 C   0  0  0  0  0  0  0  0  0  0  0  0
  152.1632  143.0392  161.6883 N   0  0  0  0  0  0  0  0  0  0  0  0
  151.3938  138.6628  157.1782 N   0  0  0  0  0  0  0  0  0  0  0  0
  150.0417  138.7999  157.7426 C   0  0  0  0  0  0  0  0  0  0  0  0
  149.4464  140.1292  157.2479 C   0  0  0  0  0  0  0  0  0  0  0  0
  149.4220  140.1995  155.7005 C   0  0  0  0  0  0  0  0  0  0  0  0
  148.8747  141.5649  155.2078 C   0  0  1  0  0  0  0  0  0  0  0  0
  149.2331  141.7763  153.8547 O   0  0  0  0  0  0  0  0  0  0  0  0
  147.3527  141.7711  155.3735 C   0  0  0  0  0  0  0  0  0  0  0  0
  146.6999  140.7906  154.7489 F   0  0  0  0  0  0  0  0  0  0  0  0
  146.9847  141.7892  156.6545 F   0  0  0  0  0  0  0  0  0  0  0  0
  146.9927  142.9238  154.8091 F   0  0  0  0  0  0  0  0  0  0  0  0
  150.7974  139.8035  155.1017 C   0  0  0  0  0  0  0  0  0  0  0  0
  151.3339  138.4992  155.7224 C   0  0  0  0  0  0  0  0  0  0  0  0
  151.4687  139.5867  159.3880 H   0  0  0  0  0  0  0  0  0  0  0  0
  154.0966  139.1557  160.2490 H   0  0  0  0  0  0  0  0  0  0  0  0
  154.1367  140.6161  159.2799 H   0  0  0  0  0  0  0  0  0  0  0  0
  152.0165  140.3435  161.4277 H   0  0  0  0  0  0  0  0  0  0  0  0
  153.6387  140.7821  161.8875 H   0  0  0  0  0  0  0  0  0  0  0  0
  153.1987  142.0550  158.6037 H   0  0  0  0  0  0  0  0  0  0  0  0
  152.6306  144.4404  158.0778 H   0  0  0  0  0  0  0  0  0  0  0  0
  151.7521  145.9072  159.9176 H   0  0  0  0  0  0  0  0  0  0  0  0
  151.4843  144.9232  162.2087 H   0  0  0  0  0  0  0  0  0  0  0  0
  149.4222  137.9668  157.4072 H   0  0  0  0  0  0  0  0  0  0  0  0
  150.0110  138.7569  158.8313 H   0  0  0  0  0  0  0  0  0  0  0  0
  148.4381  140.2501  157.6449 H   0  0  0  0  0  0  0  0  0  0  0  0
  150.0368  140.9530  157.6511 H   0  0  0  0  0  0  0  0  0  0  0  0
  148.7125  139.4365  155.3775 H   0  0  0  0  0  0  0  0  0  0  0  0
  149.3685  142.3459  155.7879 H   0  0  0  0  0  0  0  0  0  0  0  0
  149.5934  140.9733  153.5111 H   0  0  0  0  0  0  0  0  0  0  0  0
  150.7206  139.6691  154.0236 H   0  0  0  0  0  0  0  0  0  0  0  0
  151.5231  140.6012  155.2651 H   0  0  0  0  0  0  0  0  0  0  0  0
  152.3030  138.2475  155.2893 H   0  0  0  0  0  0  0  0  0  0  0  0
  150.6756  137.6656  155.4739 H   0  0  0  0  0  0  0  0  0  0  0  0
  1  2  2  0  0  0  0
  2  3  1  0  0  0  0
  2 12  1  0  0  0  0
  3  4  1  0  0  0  0
  3 24  1  0  0  0  0
  4  5  1  0  0  0  0
  4 25  1  0  0  0  0
  4 26  1  0  0  0  0
  5  6  1  0  0  0  0
  5 27  1  0  0  0  0
  5 28  1  0  0  0  0
  6 11  1  0  0  0  0
  6  7  2  0  0  0  0
  7  8  1  0  0  0  0
  7 29  1  0  0  0  0
  8  9  2  0  0  0  0
  8 30  1  0  0  0  0
  9 10  1  0  0  0  0
  9 31  1  0  0  0  0
 10 11  2  0  0  0  0
 10 32  1  0  0  0  0
 12 23  1  0  0  0  0
 12 13  1  0  0  0  0
 13 14  1  0  0  0  0
 13 33  1  0  0  0  0
 13 34  1  0  0  0  0
 14 15  1  0  0  0  0
 14 35  1  0  0  0  0
 14 36  1  0  0  0  0
 15 16  1  0  0  0  0
 15 22  1  0  0  0  0
 15 37  1  0  0  0  0
 16 17  1  0  0  0  0
 16 18  1  0  0  0  0
 16 38  1  0  0  0  0
 17 39  1  0  0  0  0
 18 19  1  0  0  0  0
 18 20  1  0  0  0  0
 18 21  1  0  0  0  0
 22 23  1  0  0  0  0
 22 40  1  0  0  0  0
 22 41  1  0  0  0  0
 23 42  1  0  0  0  0
 23 43  1  0  0  0  0
M  END
> <s_m_source_file>
AV-unprocessed.smi

> <i_m_source_file_index>
2908

> <i_lp_mmshare_version>
43012

> <i_f3d_flags>
0

> <s_epik_input>
RkMoRikoRilbQ0BASF0oW09IXSlbQ0hdKFtDSDJdW0NIMl0xKVtDSDJdW0NIMl1OMUMoPU8pW05IXVtDSDJdW0NIMl1jMltjSF1bY0hdW2NIXVtjSF1uMg==

> <s_epik_cmdline>
J2VwaWtfcHl0aG9uJywgJy1waCcsICc3LjAnLCAnLXRuJywgJzgnLCAnLW1hJywgJzIwMCcsICctbWV0YWxfYmluZGluZycsICctaW1hZScsICc8aW5maWxlLm1hZT4nLCAnLW9tYWUnLCAnPG91dGZpbGUubWFlPic=

> <r_epik_Ionization_Penalty>
0.0451198

> <r_epik_Ionization_Penalty_Charging>
0

> <r_epik_Ionization_Penalty_Neutral>
0.0451198

> <r_epik_State_Penalty>
0.0381178

> <r_epik_Charging_Adjusted_Penalty>
0.0381178

> <i_epik_Tot_Q>
0

> <i_epik_Tot_abs_Q>
0

> <r_epik_Metal_State_Penalty>
0.0354176

> <b_epik_Metal_Only>
0

> <s_lp_Force_Field>
OPLS_2005

> <r_lp_Energy>
37.4058

> <b_lp_Chiralities_Consistent>
1

> <s_lp_Variant>
AV-unprocessed.smi:2908-2

> <Gold.Version>
5.8.1

> <Gold.Id.Protein>
6NUR|6NUR_protein|mol2

> <Gold.PLP.Fitness>
55.9409

> <Gold.PLP.PLP>
-50.2457

> <Gold.PLP.part.hbond>
-3.6542

> <Gold.PLP.part.metal>
0.0000

> <Gold.PLP.part.buried>
-5.8912

> <Gold.PLP.part.nonpolar>
-41.7738

> <Gold.PLP.part.repulsive>
0.2170

> <Gold.PLP.ligand.clash>
0.0000

> <Gold.PLP.ligand.torsion>
0.7530

> <Gold.PLP.Chemscore.Hbond>
2.3032

> <Gold.PLP.Chemscore.CHOScore>
0.0000

> <Gold.PLP.Chemscore.Metal>
0.0000

> <Gold.Chemscore.Hbonds>
donor molecule, donor type, donor heavy atom, donor atom, acceptor molecule, acceptor atom, score
      P1  H  7997  8008       L1     1  0.90
      P1  H  8011  8017       L1    17  0.09

> <Gold.PLP.Chemscore.Internal.Correction>
0.2916

> <Gold.Rescore>
     Score         DG    S(hbond)    S(metal)    S(lipo)     H(rot)  DE(clash)    DE(int)     intcor
     18.43     -19.73       2.11        0.00     111.87       2.30       0.15       1.14       ----

> <Gold.Chemscore.Fitness>
18.4270

> <Gold.Chemscore.DG>
-19.7253

> <Gold.Chemscore.ZeroCoef>
-5.4800

> <Gold.Chemscore.Hbond>
2.1128

> <Gold.Chemscore.Metal>
0.0000

> <Gold.Chemscore.Lipo>
111.8712

> <Gold.Chemscore.Internal_Hbond>
0.0000

> <Gold.Chemscore.DEClash>
0.1541

> <Gold.Chemscore.DEInternal>
1.1441

> <Gold.Chemscore.Rot>
2.3048

> <Gold.Chemscore.Internal.Correction>
   9.000000E+99

> <Gold.Chemscore.Hbonds>
donor molecule, donor type, donor heavy atom, donor atom, acceptor molecule, acceptor atom, score
      P1  H  7997  8008       L1     1  0.80

> <Gold.Chemscore.Hbond.Weighted>
-7.0567

> <Gold.Chemscore.Metal.Weighted>
-0.0000

> <Gold.Chemscore.Lipo.Weighted>
-13.0889

> <Gold.Chemscore.Internal_Hbond.Weighted>
0.0000

> <Gold.Chemscore.DEClash.Weighted>
0.1541

> <Gold.Chemscore.DEInternal.Weighted>
1.1441

> <Gold.Chemscore.Rot.Weighted>
5.9004

> <Gold.Chemscore.Internal.Correction.Weighted>
   9.000000E+99

> <Gold.Protein.RotatedTorsions>
[ 6907 6896 6895 6894 ] final   23.38 input  -60.11 | X-H torsion
[ 7974 7965 7964 7962 ] final  164.35 input  175.53 | X-H torsion
[ 8008 7997 7996 7995 ] final  -61.17 input   59.86 | X-H torsion
[ 10167 10162 10161 10158 ] final   68.91 input  -65.29 | X-H torsion
[ 10718 10713 10712 10709 ] final  -93.79 input   66.30 | X-H torsion
[ 10763 10752 10751 10750 ] final   15.95 input  -60.55 | X-H torsion
[ 11005 11000 10999 10996 ] final   18.02 input  -57.11 | X-H torsion

> <Gold.Protein.ActiveResidues>
 VAL166  LYS551  ARG553  GLY616  TRP617  ASP618  TYR619  PRO620  LYS621  CYS622 
 ASP623  PHE694  ASN695  SER759  ASP760  ASP761  ALA762  ILE779  LEU786  VAL792 
 PHE793  MET794  SER795  GLU796  ALA797  LYS798  CYS799  TRP800  GLU811  SER814 

> <Gold.Protein.RotatedAtoms>
  151.9415  135.0211  160.0535 H   0  0  0  0  0  0  0  0  0  0  0  0  # atno 6907 bound_to 6896
  152.2032  133.4852  159.5078 H   0  0  0  0  0  0  0  0  0  0  0  0  # atno 6908 bound_to 6896
  150.6959  134.1480  159.4172 H   0  0  0  0  0  0  0  0  0  0  0  0  # atno 6909 bound_to 6896
  144.7549  139.8313  143.6353 H   0  0  0  0  0  0  0  0  0  0  0  0  # atno 7974 bound_to 7965
  154.4435  140.1023  156.6389 H   0  0  0  0  0  0  0  0  0  0  0  0  # atno 8008 bound_to 7997
  155.5523  140.3486  155.4453 H   0  0  0  0  0  0  0  0  0  0  0  0  # atno 8009 bound_to 7997
  156.0520  140.1306  157.0028 H   0  0  0  0  0  0  0  0  0  0  0  0  # atno 8010 bound_to 7997
  140.0735  144.5132  150.7211 H   0  0  0  0  0  0  0  0  0  0  0  0  # atno 10167 bound_to 10162
  156.0018  130.5041  150.5830 H   0  0  0  0  0  0  0  0  0  0  0  0  # atno 10718 bound_to 10713
  153.1476  135.6772  153.8931 H   0  0  0  0  0  0  0  0  0  0  0  0  # atno 10763 bound_to 10752
  153.8367  135.3110  155.3424 H   0  0  0  0  0  0  0  0  0  0  0  0  # atno 10764 bound_to 10752
  154.7837  135.4874  153.9985 H   0  0  0  0  0  0  0  0  0  0  0  0  # atno 10765 bound_to 10752
  140.4294  134.1436  155.7679 H   0  0  0  0  0  0  0  0  0  0  0  0  # atno 11005 bound_to 11000
  146.1547  139.4641  143.0026 LP  0  0  0  0  0  0  0  0  0  0  0  0  # atno 17320 bound_to 7965
  145.6814  141.0190  143.1604 LP  0  0  0  0  0  0  0  0  0  0  0  0  # atno 17321 bound_to 7965
  140.7114  143.2508  151.4570 LP  0  0  0  0  0  0  0  0  0  0  0  0  # atno 17342 bound_to 10162
  139.5822  144.1685  152.1983 LP  0  0  0  0  0  0  0  0  0  0  0  0  # atno 17343 bound_to 10162
  157.3707  131.0765  151.1560 LP  0  0  0  0  0  0  0  0  0  0  0  0  # atno 17370 bound_to 10713
  157.2315  130.6527  149.5851 LP  0  0  0  0  0  0  0  0  0  0  0  0  # atno 17371 bound_to 10713
  141.1752  133.8529  157.1445 LP  0  0  0  0  0  0  0  0  0  0  0  0  # atno 17394 bound_to 11000
  140.0145  134.9974  157.0464 LP  0  0  0  0  0  0  0  0  0  0  0  0  # atno 17395 bound_to 11000

$$$$
