#       Name:                AV-unprocessed.smi:2871
#       Creating user name   scv26
#       Creation time:       Fri Mar 27 15:49:32 2020


#       File generated by GOLD software.
#

@<TRIPOS>MOLECULE
AV-unprocessed.smi:2871
    42    44     1
SMALL
NO_CHARGES


@<TRIPOS>ATOM
      1 ****        -3.1586  -0.0291  -0.8116 C.3            1 S1                 0.0000
      2 ****        -2.4229   0.1018  -2.0648 N.pl3          1 S1                 0.0000
      3 ****        -3.1344   0.3824  -3.3055 C.3            1 S1                 0.0000
      4 ****        -1.0113   0.0562  -2.0540 C.ar           1 S1                 0.0000
      5 ****        -0.2445   0.2180  -3.2338 C.ar           1 S1                 0.0000
      6 ****         1.1609   0.1570  -3.0992 C.ar           1 S1                 0.0000
      7 ****         2.0947   0.3188  -4.2893 C.3            1 S1                 0.0000
      8 ****         2.8556  -0.7688  -4.4155 F              1 S1                 0.0000
      9 ****         1.4182   0.4944  -5.4250 F              1 S1                 0.0000
     10 ****         2.8837   1.3766  -4.1000 F              1 S1                 0.0000
     11 ****         1.7477  -0.0456  -1.8983 N.ar           1 S1                 0.0000
     12 ****         0.9422  -0.1874  -0.8465 C.ar           1 S1                 0.0000
     13 ****         1.5751  -0.3893   0.3661 N.pl3          1 S1                 0.0000
     14 ****         0.8903  -0.4896   1.6490 C.3            1 S1                 0.0000
     15 ****         0.3536   0.8563   2.1523 C.3            1 S1                 0.0000
     16 ****         1.0087   0.9604   3.5350 C.3            1 S1                 0.0000
     17 ****         0.4448  -0.0672   4.5260 C.3            1 S1                 0.0000
     18 ****         1.0676  -1.3669   4.0168 C.3            1 S1                 0.0000
     19 ****         1.8473  -0.8832   2.7867 C.3            1 S1                 0.0000
     20 ****         2.2731   0.3873   3.2530 O.3            1 S1                 0.0000
     21 ****        -0.3937  -0.1491  -0.8657 N.ar           1 S1                 0.0000
     22 ****        -2.9526  -0.9938  -0.3465 H              1 S1                 0.0000
     23 ****        -4.2344   0.0408  -0.9721 H              1 S1                 0.0000
     24 ****        -2.8721   0.7595  -0.1149 H              1 S1                 0.0000
     25 ****        -2.9271  -0.3880  -4.0488 H              1 S1                 0.0000
     26 ****        -2.8336   1.3494  -3.7097 H              1 S1                 0.0000
     27 ****        -4.2126   0.4088  -3.1471 H              1 S1                 0.0000
     28 ****        -0.6986   0.3820  -4.1991 H              1 S1                 0.0000
     29 ****         2.5847  -0.3980   0.3643 H              1 S1                 0.0000
     30 ****         0.0918  -1.2280   1.5626 H              1 S1                 0.0000
     31 ****         0.6809   1.6827   1.5194 H              1 S1                 0.0000
     32 ****        -0.7354   0.8812   2.2023 H              1 S1                 0.0000
     33 ****         1.0536   1.9766   3.9271 H              1 S1                 0.0000
     34 ****         0.7805   0.1453   5.5417 H              1 S1                 0.0000
     35 ****        -0.6455  -0.0890   4.5227 H              1 S1                 0.0000
     36 ****         1.7450  -1.7833   4.7631 H              1 S1                 0.0000
     37 ****         0.3244  -2.1258   3.7696 H              1 S1                 0.0000
     38 ****         2.6543  -1.5545   2.4903 H              1 S1                 0.0000
     39 ****         2.7423  -0.0872  -1.8036 LP             1 S1                 0.0000
     40 ****         2.8418   0.3139   4.0723 LP             1 S1                 0.0000
     41 ****         2.7668   0.8980   2.5492 LP             1 S1                 0.0000
     42 ****        -0.9230  -0.2687  -0.0258 LP             1 S1                 0.0000
@<TRIPOS>BOND
    1    1    2 1     
    2    1   22 1     
    3    1   23 1     
    4    1   24 1     
    5    2    3 1     
    6    2    4 1     
    7    3   25 1     
    8    3   26 1     
    9    3   27 1     
   10    4   21 ar    
   11    4    5 ar    
   12    5    6 ar    
   13    5   28 1     
   14    6    7 1     
   15    6   11 ar    
   16    7    8 1     
   17    7    9 1     
   18    7   10 1     
   19   11   12 ar    
   20   12   13 1     
   21   12   21 ar    
   22   13   14 1     
   23   13   29 1     
   24   14   19 1     
   25   14   15 1     
   26   14   30 1     
   27   15   16 1     
   28   15   31 1     
   29   15   32 1     
   30   16   20 1     
   31   16   17 1     
   32   16   33 1     
   33   17   18 1     
   34   17   34 1     
   35   17   35 1     
   36   18   19 1     
   37   18   36 1     
   38   18   37 1     
   39   19   20 1     
   40   19   38 1     
   41   11   39 1     
   42   20   40 1     
   43   20   41 1     
   44   21   42 1     
@<TRIPOS>SUBSTRUCTURE
      1 S1             1
@<TRIPOS>SET
LONE_PAIRS      STATIC     ATOMS    <user>   **** ""
4 39 40 41 42
DONOR_HYDROGENS      STATIC     ATOMS    <user>   **** ""
1 29
ATOM$BLUE        STATIC     ATOMS    COLORGROUP SYSTEM
4 39 40 41 42
ATOM$RED        STATIC     ATOMS    COLORGROUP SYSTEM
1 29
