#       Name:                AV-unprocessed.smi:998
#       Creating user name   scv26
#       Creation time:       Fri Mar 27 02:25:02 2020


#       File generated by GOLD software.
#

@<TRIPOS>MOLECULE
AV-unprocessed.smi:998
    48    50     1
SMALL
NO_CHARGES


@<TRIPOS>ATOM
      1 ****        -4.8503   2.1018   2.3410 C.3            1 S1                 0.0000
      2 ****        -6.0853   0.9507   1.6103 S.o2           1 S1                 0.0000
      3 ****        -6.7397   0.2227   2.7080 O.2            1 S1                 0.0000
      4 ****        -6.8998   1.7040   0.6449 O.2            1 S1                 0.0000
      5 ****        -5.1265  -0.1923   0.7157 N.pl3          1 S1                 0.0000
      6 ****        -4.3710  -1.2413   1.4245 C.3            1 S1                 0.0000
      7 ****        -2.8859  -0.8623   1.5752 C.3            1 S1                 0.0000
      8 ****        -2.3009  -0.4804   0.2918 N.3            1 S1                 0.0000
      9 ****        -0.8924  -0.4351   0.1874 C.ar           1 S1                 0.0000
     10 ****        -0.0095  -0.6451   1.2766 C.ar           1 S1                 0.0000
     11 ****         1.3845  -0.5893   1.0714 C.ar           1 S1                 0.0000
     12 ****         1.8971  -0.3342  -0.2174 C.ar           1 S1                 0.0000
     13 ****         3.3102  -0.2790  -0.3685 N.am           1 S1                 0.0000
     14 ****         4.0390  -0.3275  -1.4977 C.2            1 S1                 0.0000
     15 ****         3.5824  -0.4468  -2.6343 O.2            1 S1                 0.0000
     16 ****         5.3495  -0.2445  -1.2302 N.am           1 S1                 0.0000
     17 ****         6.3964  -0.2843  -2.1999 C.3            1 S1                 0.0000
     18 ****         7.7028  -0.9329  -1.7955 C.3            1 S1                 0.0000
     19 ****         7.6249   0.5616  -1.9440 C.3            1 S1                 0.0000
     20 ****         0.9760  -0.1219  -1.2705 C.ar           1 S1                 0.0000
     21 ****        -0.3513  -0.1827  -1.0290 N.pl3          1 S1                 1.0000
     22 ****        -3.0406   0.5689  -0.4107 C.3            1 S1                 0.0000
     23 ****        -4.5247   0.1936  -0.5738 C.3            1 S1                 0.0000
     24 ****        -5.3740   2.8548   2.9297 H              1 S1                 0.0000
     25 ****        -4.2925   2.5999   1.5500 H              1 S1                 0.0000
     26 ****        -4.1715   1.5553   2.9933 H              1 S1                 0.0000
     27 ****        -4.8157  -1.4390   2.3995 H              1 S1                 0.0000
     28 ****        -4.4543  -2.1678   0.8549 H              1 S1                 0.0000
     29 ****        -2.7656  -0.0431   2.2833 H              1 S1                 0.0000
     30 ****        -2.3588  -1.7236   1.9862 H              1 S1                 0.0000
     31 ****        -0.3732  -0.8398   2.2742 H              1 S1                 0.0000
     32 ****         2.0548  -0.7458   1.9043 H              1 S1                 0.0000
     33 ****         3.8358  -0.2401   0.4925 H              1 S1                 0.0000
     34 ****         5.6326  -0.1514  -0.2658 H              1 S1                 0.0000
     35 ****         6.1080  -0.4041  -3.2435 H              1 S1                 0.0000
     36 ****         7.7836  -1.3324  -0.7862 H              1 S1                 0.0000
     37 ****         8.2453  -1.4861  -2.5597 H              1 S1                 0.0000
     38 ****         8.1151   1.0071  -2.8074 H              1 S1                 0.0000
     39 ****         7.6535   1.1582  -1.0340 H              1 S1                 0.0000
     40 ****         1.2365   0.1025  -2.2936 H              1 S1                 0.0000
     41 ****        -2.9396   1.5001   0.1455 H              1 S1                 0.0000
     42 ****        -2.6265   0.7545  -1.4014 H              1 S1                 0.0000
     43 ****        -4.6147  -0.6484  -1.2615 H              1 S1                 0.0000
     44 ****        -5.0795   1.0176  -1.0217 H              1 S1                 0.0000
     45 ****        -0.9848  -0.0310  -1.8142 H              1 S1                 0.0000
     46 ****        -2.4543  -1.3032  -0.2555 LP             1 S1                 0.0000
     47 ****         2.5943  -0.5165  -2.7714 LP             1 S1                 0.0000
     48 ****         4.1995  -0.4741  -3.4207 LP             1 S1                 0.0000
@<TRIPOS>BOND
    1    1    2 1     
    2    1   24 1     
    3    1   25 1     
    4    1   26 1     
    5    2    3 2     
    6    2    4 2     
    7    2    5 1     
    8    5   23 1     
    9    5    6 1     
   10    6    7 1     
   11    6   27 1     
   12    6   28 1     
   13    7    8 1     
   14    7   29 1     
   15    7   30 1     
   16    8    9 1     
   17    8   22 1     
   18    9   21 ar    
   19    9   10 ar    
   20   10   11 ar    
   21   10   31 1     
   22   11   12 ar    
   23   11   32 1     
   24   12   13 1     
   25   12   20 ar    
   26   13   14 am    
   27   13   33 1     
   28   14   15 2     
   29   14   16 am    
   30   16   17 1     
   31   16   34 1     
   32   17   19 1     
   33   17   18 1     
   34   17   35 1     
   35   18   19 1     
   36   18   36 1     
   37   18   37 1     
   38   19   38 1     
   39   19   39 1     
   40   20   21 ar    
   41   20   40 1     
   42   21   45 1     
   43   22   23 1     
   44   22   41 1     
   45   22   42 1     
   46   23   43 1     
   47   23   44 1     
   48    8   46 1     
   49   15   47 1     
   50   15   48 1     
@<TRIPOS>SUBSTRUCTURE
      1 S1             1
@<TRIPOS>SET
LONE_PAIRS      STATIC     ATOMS    <user>   **** ""
5 3 4 46 47 48
DONOR_HYDROGENS      STATIC     ATOMS    <user>   **** ""
3 33 34 45
ATOM$BLUE        STATIC     ATOMS    COLORGROUP SYSTEM
5 3 4 46 47 48
ATOM$RED        STATIC     ATOMS    COLORGROUP SYSTEM
3 33 34 45
