#       Name:                AV-unprocessed.smi:1893
#       Creating user name   scv26
#       Creation time:       Fri Mar 27 09:41:29 2020


#       File generated by GOLD software.
#

@<TRIPOS>MOLECULE
AV-unprocessed.smi:1893
    47    48     1
SMALL
NO_CHARGES


@<TRIPOS>ATOM
      1 ****        -1.1937   2.6100   1.7010 C.3            1 S1                 0.0000
      2 ****        -2.1930   1.6367   1.0401 C.3            1 S1                 0.0000
      3 ****        -3.5439   1.7482   1.7828 C.3            1 S1                 0.0000
      4 ****        -4.6049   0.8134   1.1983 C.3            1 S1                 0.0000
      5 ****        -4.0734  -0.6191   1.2076 C.3            1 S1                 0.0000
      6 ****        -2.7428  -0.7015   0.4476 C.3            1 S1                 0.0000
      7 ****        -1.7123   0.2149   1.0173 N.4            1 S1                 1.0000
      8 ****        -0.3905   0.0268   0.3526 C.3            1 S1                 0.0000
      9 ****         0.2914  -1.3064   0.7280 C.3            1 S1                 0.0000
     10 ****         1.6136  -1.4147   0.1239 N.am           1 S1                 0.0000
     11 ****         1.8510  -1.6789  -1.1709 C.2            1 S1                 0.0000
     12 ****         0.9522  -1.8816  -1.9882 O.2            1 S1                 0.0000
     13 ****         3.3273  -1.7031  -1.5977 C.3            1 S1                 0.0000
     14 ****         3.5457  -2.3501  -2.9780 C.3            1 S1                 0.0000
     15 ****         3.8828  -0.3572  -1.5600 N.pl3          1 S1                 0.0000
     16 ****         3.5638   0.7425  -2.2485 C.2            1 S1                 0.0000
     17 ****         4.2913   1.8042  -1.9313 N.2            1 S1                 0.0000
     18 ****         5.1001   1.2507  -0.9797 C.2            1 S1                 0.0000
     19 ****         4.8942  -0.0398  -0.7168 N.2            1 S1                 0.0000
     20 ****        -1.6524   3.5859   1.8640 H              1 S1                 0.0000
     21 ****        -0.3170   2.7957   1.0818 H              1 S1                 0.0000
     22 ****        -0.8589   2.2413   2.6710 H              1 S1                 0.0000
     23 ****        -2.3447   1.9562   0.0076 H              1 S1                 0.0000
     24 ****        -3.4030   1.5169   2.8399 H              1 S1                 0.0000
     25 ****        -3.9113   2.7745   1.7410 H              1 S1                 0.0000
     26 ****        -5.5273   0.8787   1.7761 H              1 S1                 0.0000
     27 ****        -4.8491   1.1154   0.1789 H              1 S1                 0.0000
     28 ****        -3.9346  -0.9586   2.2351 H              1 S1                 0.0000
     29 ****        -4.8045  -1.2898   0.7547 H              1 S1                 0.0000
     30 ****        -2.4055  -1.7355   0.4812 H              1 S1                 0.0000
     31 ****        -2.9008  -0.4594  -0.6047 H              1 S1                 0.0000
     32 ****        -0.5163   0.1134  -0.7276 H              1 S1                 0.0000
     33 ****         0.3064   0.8105   0.6387 H              1 S1                 0.0000
     34 ****         0.4082  -1.3718   1.8102 H              1 S1                 0.0000
     35 ****        -0.2973  -2.1716   0.4250 H              1 S1                 0.0000
     36 ****         2.4083  -1.2628   0.7288 H              1 S1                 0.0000
     37 ****         3.8615  -2.3098  -0.8640 H              1 S1                 0.0000
     38 ****         3.1663  -3.3723  -3.0001 H              1 S1                 0.0000
     39 ****         4.6073  -2.3914  -3.2230 H              1 S1                 0.0000
     40 ****         3.0471  -1.7917  -3.7712 H              1 S1                 0.0000
     41 ****         2.7815   0.7676  -2.9931 H              1 S1                 0.0000
     42 ****         5.8611   1.8165  -0.4624 H              1 S1                 0.0000
     43 ****        -1.5857  -0.0510   1.9834 H              1 S1                 0.0000
     44 ****        -0.0040  -1.8532  -1.6971 LP             1 S1                 0.0000
     45 ****         1.1787  -2.0747  -2.9429 LP             1 S1                 0.0000
     46 ****         4.2578   2.7387  -2.2856 LP             1 S1                 0.0000
     47 ****         5.3682  -0.6271  -0.0607 LP             1 S1                 0.0000
@<TRIPOS>BOND
    1    1    2 1     
    2    1   20 1     
    3    1   21 1     
    4    1   22 1     
    5    2    7 1     
    6    2    3 1     
    7    2   23 1     
    8    3    4 1     
    9    3   24 1     
   10    3   25 1     
   11    4    5 1     
   12    4   26 1     
   13    4   27 1     
   14    5    6 1     
   15    5   28 1     
   16    5   29 1     
   17    6    7 1     
   18    6   30 1     
   19    6   31 1     
   20    7    8 1     
   21    7   43 1     
   22    8    9 1     
   23    8   32 1     
   24    8   33 1     
   25    9   10 1     
   26    9   34 1     
   27    9   35 1     
   28   10   11 am    
   29   10   36 1     
   30   11   12 2     
   31   11   13 1     
   32   13   14 1     
   33   13   15 1     
   34   13   37 1     
   35   14   38 1     
   36   14   39 1     
   37   14   40 1     
   38   15   19 1     
   39   15   16 1     
   40   16   17 2     
   41   16   41 1     
   42   17   18 1     
   43   18   19 2     
   44   18   42 1     
   45   12   44 1     
   46   12   45 1     
   47   17   46 1     
   48   19   47 1     
@<TRIPOS>SUBSTRUCTURE
      1 S1             1
@<TRIPOS>SET
LONE_PAIRS      STATIC     ATOMS    <user>   **** ""
4 44 45 46 47
DONOR_HYDROGENS      STATIC     ATOMS    <user>   **** ""
2 43 36
ATOM$BLUE        STATIC     ATOMS    COLORGROUP SYSTEM
4 44 45 46 47
ATOM$RED        STATIC     ATOMS    COLORGROUP SYSTEM
2 43 36
