AV-unprocessed.smi:705|AV-procd|sdf|3448|dock7
  -GOLD-   22720 0433D 1   1.00000     0.00000
 Structure written by MMmdl.
 29 30  0  0  0  0  0  0  0  0  2 V2000
  152.5830  141.5805  159.5035 N   0  0  0  0  0  0  0  0  0  0  0  0
  152.4968  140.7770  158.4399 C   0  0  0  0  0  0  0  0  0  0  0  0
  153.1556  139.7442  158.3305 O   0  0  0  0  0  0  0  0  0  0  0  0
  151.5329  141.2128  157.3757 C   0  0  0  0  0  0  0  0  0  0  0  0
  151.0360  140.2787  156.4175 C   0  0  0  0  0  0  0  0  0  0  0  0
  150.2012  141.0165  155.6247 C   0  0  0  0  0  0  0  0  0  0  0  0
  149.3751  140.6359  154.4364 C   0  0  2  0  0  0  0  0  0  0  0  0
  147.9221  141.1348  154.5605 C   0  0  0  0  0  0  0  0  0  0  0  0
  147.0926  140.7089  153.3394 C   0  0  0  0  0  0  0  0  0  0  0  0
  147.1676  139.1883  153.1300 C   0  0  0  0  0  0  0  0  0  0  0  0
  148.5746  138.7476  153.0152 N   0  3  0  0  0  0  0  0  0  0  0  0
  149.3919  139.1122  154.1936 C   0  0  0  0  0  0  0  0  0  0  0  0
  150.2401  142.3009  156.1189 N   0  0  0  0  0  0  0  0  0  0  0  0
  151.0475  142.4336  157.1877 N   0  0  0  0  0  0  0  0  0  0  0  0
  149.7244  143.0858  155.7461 H   0  0  0  0  0  0  0  0  0  0  0  0
  153.2109  141.3494  160.2595 H   0  0  0  0  0  0  0  0  0  0  0  0
  152.0170  142.4157  159.5446 H   0  0  0  0  0  0  0  0  0  0  0  0
  151.2586  139.2257  156.3258 H   0  0  0  0  0  0  0  0  0  0  0  0
  149.8100  141.1128  153.5563 H   0  0  0  0  0  0  0  0  0  0  0  0
  147.4651  140.7328  155.4659 H   0  0  0  0  0  0  0  0  0  0  0  0
  147.9043  142.2207  154.6596 H   0  0  0  0  0  0  0  0  0  0  0  0
  146.0547  141.0177  153.4685 H   0  0  0  0  0  0  0  0  0  0  0  0
  147.4595  141.2212  152.4490 H   0  0  0  0  0  0  0  0  0  0  0  0
  146.6944  138.6666  153.9631 H   0  0  0  0  0  0  0  0  0  0  0  0
  146.6288  138.9029  152.2263 H   0  0  0  0  0  0  0  0  0  0  0  0
  148.5956  137.7441  152.9004 H   0  0  0  0  0  0  0  0  0  0  0  0
  150.4131  138.7660  154.0310 H   0  0  0  0  0  0  0  0  0  0  0  0
  149.0122  138.5806  155.0675 H   0  0  0  0  0  0  0  0  0  0  0  0
  148.9802  139.1773  152.1961 H   0  0  0  0  0  0  0  0  0  0  0  0
  1  2  1  0  0  0  0
  1 16  1  0  0  0  0
  1 17  1  0  0  0  0
  2  3  2  0  0  0  0
  2  4  1  0  0  0  0
  4 14  2  0  0  0  0
  4  5  1  0  0  0  0
  5  6  2  0  0  0  0
  5 18  1  0  0  0  0
  6  7  1  0  0  0  0
  6 13  1  0  0  0  0
  7 12  1  0  0  0  0
  7  8  1  0  0  0  0
  7 19  1  0  0  0  0
  8  9  1  0  0  0  0
  8 20  1  0  0  0  0
  8 21  1  0  0  0  0
  9 10  1  0  0  0  0
  9 22  1  0  0  0  0
  9 23  1  0  0  0  0
 10 11  1  0  0  0  0
 10 24  1  0  0  0  0
 10 25  1  0  0  0  0
 11 12  1  0  0  0  0
 11 26  1  0  0  0  0
 11 29  1  0  0  0  0
 12 27  1  0  0  0  0
 12 28  1  0  0  0  0
 13 15  1  0  0  0  0
 13 14  1  0  0  0  0
M  CHG  1  11   1
M  END
> <s_m_source_file>
AV-unprocessed.smi

> <i_m_source_file_index>
705

> <i_lp_mmshare_version>
43012

> <i_f3d_flags>
0

> <s_epik_input>
W05IMl1DKD1PKWMxW2NIXWMoW25IXW4xKVtDQEBIXTJbQ0gyXVtDSDJdW0NIMl1bTkhdW0NIMl0y

> <s_epik_cmdline>
J2VwaWtfcHl0aG9uJywgJy1waCcsICc3LjAnLCAnLXRuJywgJzgnLCAnLW1hJywgJzIwMCcsICctbWV0YWxfYmluZGluZycsICctaW1hZScsICc8aW5maWxlLm1hZT4nLCAnLW9tYWUnLCAnPG91dGZpbGUubWFlPic=

> <r_lp_tautomer_probability>
0.5

> <r_epik_Ionization_Penalty>
0.000245231

> <r_epik_Ionization_Penalty_Charging>
0.000226378

> <r_epik_Ionization_Penalty_Neutral>
1.88531e-05

> <r_epik_State_Penalty>
0.41068

> <r_epik_Charging_Adjusted_Penalty>
0.410906

> <i_epik_Tot_Q>
1

> <i_epik_Tot_abs_Q>
1

> <r_epik_Metal_State_Penalty>
0.446108

> <b_epik_Metal_Only>
0

> <s_lp_Force_Field>
OPLS_2005

> <r_lp_Energy>
15.347

> <b_lp_Chiralities_Consistent>
1

> <s_lp_Variant>
AV-unprocessed.smi:705-3

> <Gold.Version>
5.8.1

> <Gold.Id.Protein>
6NUR|6NUR_protein|mol2

> <Gold.PLP.Fitness>
40.1211

> <Gold.PLP.PLP>
-26.2113

> <Gold.PLP.part.hbond>
-3.8126

> <Gold.PLP.part.metal>
0.0000

> <Gold.PLP.part.buried>
-3.8482

> <Gold.PLP.part.nonpolar>
-19.5715

> <Gold.PLP.part.repulsive>
0.3911

> <Gold.PLP.ligand.clash>
0.0000

> <Gold.PLP.ligand.torsion>
0.3212

> <Gold.PLP.Chemscore.Hbond>
4.8453

> <Gold.PLP.Chemscore.CHOScore>
0.0000

> <Gold.PLP.Chemscore.Metal>
0.0000

> <Gold.Chemscore.Hbonds>
donor molecule, donor type, donor heavy atom, donor atom, acceptor molecule, acceptor atom, score
      L1  H    11    26       P1  7948  1.98
      L1  H    11    29       P1  7957  0.86
      L1  H    13    15       P1  8028  1.00
      P1  H  7997  8008       L1     3  1.00

> <Gold.PLP.Chemscore.Internal.Correction>
0.0164

> <Gold.Rescore>
     Score         DG    S(hbond)    S(metal)    S(lipo)     H(rot)  DE(clash)    DE(int)     intcor
     21.49     -21.92       3.85        0.00      52.42       1.00       0.00       0.42       ----

> <Gold.Chemscore.Fitness>
21.4929

> <Gold.Chemscore.DG>
-21.9163

> <Gold.Chemscore.ZeroCoef>
-5.4800

> <Gold.Chemscore.Hbond>
3.8512

> <Gold.Chemscore.Metal>
0.0000

> <Gold.Chemscore.Lipo>
52.4215

> <Gold.Chemscore.Internal_Hbond>
0.0000

> <Gold.Chemscore.DEClash>
0.0021

> <Gold.Chemscore.DEInternal>
0.4213

> <Gold.Chemscore.Rot>
1.0000

> <Gold.Chemscore.Internal.Correction>
   9.000000E+99

> <Gold.Chemscore.Hbonds>
donor molecule, donor type, donor heavy atom, donor atom, acceptor molecule, acceptor atom, score
      L1  H    11    26       P1  7948  0.93
      L1  H    11    29       P1  7957  0.83
      L1  H    13    15       P1  8028  1.00
      P1  H  7997  8008       L1     3  0.64

> <Gold.Chemscore.Hbond.Weighted>
-12.8630

> <Gold.Chemscore.Metal.Weighted>
-0.0000

> <Gold.Chemscore.Lipo.Weighted>
-6.1333

> <Gold.Chemscore.Internal_Hbond.Weighted>
0.0000

> <Gold.Chemscore.DEClash.Weighted>
0.0021

> <Gold.Chemscore.DEInternal.Weighted>
0.4213

> <Gold.Chemscore.Rot.Weighted>
2.5600

> <Gold.Chemscore.Internal.Correction.Weighted>
   9.000000E+99

> <Gold.Protein.RotatedTorsions>
[ 6907 6896 6895 6894 ] final   30.30 input  -60.11 | X-H torsion
[ 7974 7965 7964 7962 ] final  -22.11 input  175.53 | X-H torsion
[ 8008 7997 7996 7995 ] final  -78.93 input   59.86 | X-H torsion
[ 10167 10162 10161 10158 ] final  -83.74 input  -65.29 | X-H torsion
[ 10718 10713 10712 10709 ] final -177.89 input   66.30 | X-H torsion
[ 10763 10752 10751 10750 ] final  179.40 input  -60.55 | X-H torsion
[ 11005 11000 10999 10996 ] final  169.29 input  -57.11 | X-H torsion

> <Gold.Protein.ActiveResidues>
 VAL166  LYS551  ARG553  GLY616  TRP617  ASP618  TYR619  PRO620  LYS621  CYS622 
 ASP623  PHE694  ASN695  SER759  ASP760  ASP761  ALA762  ILE779  LEU786  VAL792 
 PHE793  MET794  SER795  GLU796  ALA797  LYS798  CYS799  TRP800  GLU811  SER814 

> <Gold.Protein.RotatedAtoms>
  152.0440  134.9694  160.0573 H   0  0  0  0  0  0  0  0  0  0  0  0  # atno 6907 bound_to 6896
  152.1121  133.4302  159.4644 H   0  0  0  0  0  0  0  0  0  0  0  0  # atno 6908 bound_to 6896
  150.6844  134.2555  159.4571 H   0  0  0  0  0  0  0  0  0  0  0  0  # atno 6909 bound_to 6896
  146.1695  140.4434  142.8538 H   0  0  0  0  0  0  0  0  0  0  0  0  # atno 7974 bound_to 7965
  154.5737  140.0686  156.9002 H   0  0  0  0  0  0  0  0  0  0  0  0  # atno 8008 bound_to 7997
  155.2588  140.3357  155.4257 H   0  0  0  0  0  0  0  0  0  0  0  0  # atno 8009 bound_to 7997
  156.2137  140.1770  156.7622 H   0  0  0  0  0  0  0  0  0  0  0  0  # atno 8010 bound_to 7997
  140.4198  143.2589  151.8905 H   0  0  0  0  0  0  0  0  0  0  0  0  # atno 10167 bound_to 10162
  156.8362  130.9670  151.3103 H   0  0  0  0  0  0  0  0  0  0  0  0  # atno 10718 bound_to 10713
  154.5202  135.2793  155.1269 H   0  0  0  0  0  0  0  0  0  0  0  0  # atno 10763 bound_to 10752
  154.2829  135.6282  153.5358 H   0  0  0  0  0  0  0  0  0  0  0  0  # atno 10764 bound_to 10752
  152.9935  135.5655  154.5689 H   0  0  0  0  0  0  0  0  0  0  0  0  # atno 10765 bound_to 10752
  140.2962  134.7633  157.3879 H   0  0  0  0  0  0  0  0  0  0  0  0  # atno 11005 bound_to 11000
  144.8141  140.6437  143.6396 LP  0  0  0  0  0  0  0  0  0  0  0  0  # atno 17320 bound_to 7965
  145.4379  139.1539  143.3986 LP  0  0  0  0  0  0  0  0  0  0  0  0  # atno 17321 bound_to 7965
  139.4782  144.5449  151.8472 LP  0  0  0  0  0  0  0  0  0  0  0  0  # atno 17342 bound_to 10162
  140.4546  144.1807  150.5900 LP  0  0  0  0  0  0  0  0  0  0  0  0  # atno 17343 bound_to 10162
  157.6380  130.8782  149.9395 LP  0  0  0  0  0  0  0  0  0  0  0  0  # atno 17370 bound_to 10713
  156.0906  130.3664  150.0402 LP  0  0  0  0  0  0  0  0  0  0  0  0  # atno 17371 bound_to 10713
  140.1151  134.5294  155.8232 LP  0  0  0  0  0  0  0  0  0  0  0  0  # atno 17394 bound_to 11000
  141.2137  133.6737  156.6761 LP  0  0  0  0  0  0  0  0  0  0  0  0  # atno 17395 bound_to 11000

$$$$
