AV-unprocessed.smi:373|AV-procd|sdf|2450|dock2
  -GOLD-   2262022393D 1   1.00000     0.00000
 Structure written by MMmdl.
 40 41  0  0  0  0  0  0  0  0  1 V2000
  152.4845  144.9496  158.4368 C   0  0  0  0  0  0  0  0  0  0  0  0
  152.0059  143.8675  159.4121 C   0  0  0  0  0  0  0  0  0  0  0  0
  152.7832  142.5521  159.2766 C   0  0  0  0  0  0  0  0  0  0  0  0
  151.9295  141.5615  158.7214 O   0  0  0  0  0  0  0  0  0  0  0  0
  152.5793  140.3441  158.3807 C   0  0  1  0  0  0  0  0  0  0  0  0
  153.3107  139.8439  159.6385 C   0  0  0  0  0  0  0  0  0  0  0  0
  153.9612  138.4771  159.3746 C   0  0  0  0  0  0  0  0  0  0  0  0
  152.9236  137.4667  158.8590 C   0  0  0  0  0  0  0  0  0  0  0  0
  152.2247  137.9940  157.6895 N   0  0  0  0  0  0  0  0  0  0  0  0
  151.4860  137.0151  156.9999 C   0  0  0  0  0  0  0  0  0  0  0  0
  151.1149  135.9064  157.6852 N   0  0  0  0  0  0  0  0  0  0  0  0
  150.4281  134.9414  157.0385 C   0  0  0  0  0  0  0  0  0  0  0  0
  150.0775  135.0168  155.6721 C   0  0  0  0  0  0  0  0  0  0  0  0
  149.2926  133.9306  154.9955 C   0  0  0  0  0  0  0  0  0  0  0  0
  148.8722  134.1910  153.7537 N   0  0  0  0  0  0  0  0  0  0  0  0
  149.0108  132.8869  155.5812 O   0  0  0  0  0  0  0  0  0  0  0  0
  150.4500  136.1795  154.9650 C   0  0  0  0  0  0  0  0  0  0  0  0
  151.1676  137.1926  155.6305 C   0  0  0  0  0  0  0  0  0  0  0  0
  151.6121  138.6235  154.7661 Cl  0  0  0  0  0  0  0  0  0  0  0  0
  151.5668  139.2841  157.8962 C   0  0  0  0  0  0  0  0  0  0  0  0
  151.9180  145.8711  158.5725 H   0  0  0  0  0  0  0  0  0  0  0  0
  152.3584  144.6325  157.4013 H   0  0  0  0  0  0  0  0  0  0  0  0
  153.5387  145.1810  158.5908 H   0  0  0  0  0  0  0  0  0  0  0  0
  152.1104  144.2397  160.4317 H   0  0  0  0  0  0  0  0  0  0  0  0
  150.9419  143.6815  159.2616 H   0  0  0  0  0  0  0  0  0  0  0  0
  153.6660  142.7029  158.6549 H   0  0  0  0  0  0  0  0  0  0  0  0
  153.1278  142.2327  160.2612 H   0  0  0  0  0  0  0  0  0  0  0  0
  153.3226  140.5272  157.6024 H   0  0  0  0  0  0  0  0  0  0  0  0
  154.0673  140.5663  159.9466 H   0  0  0  0  0  0  0  0  0  0  0  0
  152.6049  139.7580  160.4660 H   0  0  0  0  0  0  0  0  0  0  0  0
  154.7590  138.5873  158.6389 H   0  0  0  0  0  0  0  0  0  0  0  0
  154.4279  138.1014  160.2853 H   0  0  0  0  0  0  0  0  0  0  0  0
  153.4155  136.5229  158.6219 H   0  0  0  0  0  0  0  0  0  0  0  0
  152.1926  137.2526  159.6398 H   0  0  0  0  0  0  0  0  0  0  0  0
  150.1531  134.0869  157.6398 H   0  0  0  0  0  0  0  0  0  0  0  0
  148.3439  133.4994  153.2419 H   0  0  0  0  0  0  0  0  0  0  0  0
  149.0907  135.0806  153.3287 H   0  0  0  0  0  0  0  0  0  0  0  0
  150.1932  136.2988  153.9221 H   0  0  0  0  0  0  0  0  0  0  0  0
  150.7700  139.1718  158.6330 H   0  0  0  0  0  0  0  0  0  0  0  0
  151.1013  139.6001  156.9624 H   0  0  0  0  0  0  0  0  0  0  0  0
  1  2  1  0  0  0  0
  1 21  1  0  0  0  0
  1 22  1  0  0  0  0
  1 23  1  0  0  0  0
  2  3  1  0  0  0  0
  2 24  1  0  0  0  0
  2 25  1  0  0  0  0
  3  4  1  0  0  0  0
  3 26  1  0  0  0  0
  3 27  1  0  0  0  0
  4  5  1  0  0  0  0
  5 20  1  0  0  0  0
  5  6  1  0  0  0  0
  5 28  1  0  0  0  0
  6  7  1  0  0  0  0
  6 29  1  0  0  0  0
  6 30  1  0  0  0  0
  7  8  1  0  0  0  0
  7 31  1  0  0  0  0
  7 32  1  0  0  0  0
  8  9  1  0  0  0  0
  8 33  1  0  0  0  0
  8 34  1  0  0  0  0
  9 10  1  0  0  0  0
  9 20  1  0  0  0  0
 10 18  1  0  0  0  0
 10 11  2  0  0  0  0
 11 12  1  0  0  0  0
 12 13  2  0  0  0  0
 12 35  1  0  0  0  0
 13 14  1  0  0  0  0
 13 17  1  0  0  0  0
 14 15  1  0  0  0  0
 14 16  2  0  0  0  0
 15 36  1  0  0  0  0
 15 37  1  0  0  0  0
 17 18  2  0  0  0  0
 17 38  1  0  0  0  0
 18 19  1  0  0  0  0
 20 39  1  0  0  0  0
 20 40  1  0  0  0  0
M  END
> <s_m_source_file>
AV-unprocessed.smi

> <i_m_source_file_index>
373

> <i_lp_mmshare_version>
43012

> <i_f3d_flags>
0

> <s_epik_input>
W0NIM11bQ0gyXVtDSDJdT1tDQEBIXTFbQ0gyXVtDSDJdW0NIMl1OKFtDSDJdMSljMm5bY0hdYyhDKD1PKVtOSDJdKVtjSF1jMkNs

> <s_epik_cmdline>
J2VwaWtfcHl0aG9uJywgJy1waCcsICc3LjAnLCAnLXRuJywgJzgnLCAnLW1hJywgJzIwMCcsICctbWV0YWxfYmluZGluZycsICctaW1hZScsICc8aW5maWxlLm1hZT4nLCAnLW9tYWUnLCAnPG91dGZpbGUubWFlPic=

> <r_lp_tautomer_probability>
1

> <r_epik_Ionization_Penalty>
3.23666e-05

> <r_epik_Ionization_Penalty_Charging>
0

> <r_epik_Ionization_Penalty_Neutral>
3.23666e-05

> <r_epik_State_Penalty>
-0

> <r_epik_Charging_Adjusted_Penalty>
0

> <i_epik_Tot_Q>
0

> <i_epik_Tot_abs_Q>
0

> <r_epik_Metal_State_Penalty>
-0

> <b_epik_Metal_Only>
0

> <s_lp_Force_Field>
OPLS_2005

> <r_lp_Energy>
19.6268

> <b_lp_Chiralities_Consistent>
1

> <s_lp_Variant>
AV-unprocessed.smi:373-2

> <Gold.Version>
5.8.1

> <Gold.Id.Protein>
6NUR|6NUR_protein|mol2

> <Gold.PLP.Fitness>
34.8727

> <Gold.PLP.PLP>
-32.8298

> <Gold.PLP.part.hbond>
-2.0000

> <Gold.PLP.part.metal>
0.0000

> <Gold.PLP.part.buried>
-3.6795

> <Gold.PLP.part.nonpolar>
-27.3188

> <Gold.PLP.part.repulsive>
0.0000

> <Gold.PLP.ligand.clash>
0.0000

> <Gold.PLP.ligand.torsion>
0.7671

> <Gold.PLP.Chemscore.Hbond>
1.0983

> <Gold.PLP.Chemscore.CHOScore>
0.0000

> <Gold.PLP.Chemscore.Metal>
0.0000

> <Gold.Chemscore.Hbonds>
donor molecule, donor type, donor heavy atom, donor atom, acceptor molecule, acceptor atom, score
      L1  H    15    37       P1  7948  0.93
      P1  H  6896  6907       L1    11  0.12

> <Gold.PLP.Chemscore.Internal.Correction>
0.2823

> <Gold.Rescore>
     Score         DG    S(hbond)    S(metal)    S(lipo)     H(rot)  DE(clash)    DE(int)     intcor
     13.82     -14.69       0.69        0.00      93.18       1.57       0.06       0.81       ----

> <Gold.Chemscore.Fitness>
13.8209

> <Gold.Chemscore.DG>
-14.6865

> <Gold.Chemscore.ZeroCoef>
-5.4800

> <Gold.Chemscore.Hbond>
0.6948

> <Gold.Chemscore.Metal>
0.0000

> <Gold.Chemscore.Lipo>
93.1771

> <Gold.Chemscore.Internal_Hbond>
0.0000

> <Gold.Chemscore.DEClash>
0.0569

> <Gold.Chemscore.DEInternal>
0.8087

> <Gold.Chemscore.Rot>
1.5687

> <Gold.Chemscore.Internal.Correction>
   9.000000E+99

> <Gold.Chemscore.Hbonds>
donor molecule, donor type, donor heavy atom, donor atom, acceptor molecule, acceptor atom, score
      L1  H    15    37       P1  7948  0.20
      P1  H  6896  6907       L1    11  0.01

> <Gold.Chemscore.Hbond.Weighted>
-2.3206

> <Gold.Chemscore.Metal.Weighted>
-0.0000

> <Gold.Chemscore.Lipo.Weighted>
-10.9017

> <Gold.Chemscore.Internal_Hbond.Weighted>
0.0000

> <Gold.Chemscore.DEClash.Weighted>
0.0569

> <Gold.Chemscore.DEInternal.Weighted>
0.8087

> <Gold.Chemscore.Rot.Weighted>
4.0158

> <Gold.Chemscore.Internal.Correction.Weighted>
   9.000000E+99

> <Gold.Protein.RotatedTorsions>
[ 6907 6896 6895 6894 ] final  -44.71 input  -60.11 | X-H torsion
[ 7974 7965 7964 7962 ] final -139.50 input  175.53 | X-H torsion
[ 8008 7997 7996 7995 ] final   83.87 input   59.86 | X-H torsion
[ 10167 10162 10161 10158 ] final -143.89 input  -65.29 | X-H torsion
[ 10718 10713 10712 10709 ] final  -98.66 input   66.30 | X-H torsion
[ 10763 10752 10751 10750 ] final   -1.52 input  -60.55 | X-H torsion
[ 11005 11000 10999 10996 ] final   74.16 input  -57.11 | X-H torsion

> <Gold.Protein.ActiveResidues>
 VAL166  LYS551  ARG553  GLY616  TRP617  ASP618  TYR619  PRO620  LYS621  CYS622 
 ASP623  PHE694  ASN695  SER759  ASP760  ASP761  ALA762  ILE779  LEU786  VAL792 
 PHE793  MET794  SER795  GLU796  ALA797  LYS798  CYS799  TRP800  GLU811  SER814 

> <Gold.Protein.RotatedAtoms>
  150.9298  134.8714  159.7543 H   0  0  0  0  0  0  0  0  0  0  0  0  # atno 6907 bound_to 6896
  152.5032  134.4095  159.9454 H   0  0  0  0  0  0  0  0  0  0  0  0  # atno 6908 bound_to 6896
  151.4123  133.3683  159.2780 H   0  0  0  0  0  0  0  0  0  0  0  0  # atno 6909 bound_to 6896
  144.8671  140.6311  143.5290 H   0  0  0  0  0  0  0  0  0  0  0  0  # atno 7974 bound_to 7965
  155.9296  140.3416  155.6238 H   0  0  0  0  0  0  0  0  0  0  0  0  # atno 8008 bound_to 7997
  155.7174  140.0779  157.2364 H   0  0  0  0  0  0  0  0  0  0  0  0  # atno 8009 bound_to 7997
  154.4083  140.1611  156.2351 H   0  0  0  0  0  0  0  0  0  0  0  0  # atno 8010 bound_to 7997
  139.7951  143.7912  152.2653 H   0  0  0  0  0  0  0  0  0  0  0  0  # atno 10167 bound_to 10162
  156.0113  130.5248  150.6556 H   0  0  0  0  0  0  0  0  0  0  0  0  # atno 10718 bound_to 10713
  153.3459  135.6983  153.6828 H   0  0  0  0  0  0  0  0  0  0  0  0  # atno 10763 bound_to 10752
  153.5574  135.3541  155.2785 H   0  0  0  0  0  0  0  0  0  0  0  0  # atno 10764 bound_to 10752
  154.8645  135.4241  154.2683 H   0  0  0  0  0  0  0  0  0  0  0  0  # atno 10765 bound_to 10752
  139.9405  134.7409  156.1113 H   0  0  0  0  0  0  0  0  0  0  0  0  # atno 11005 bound_to 11000
  145.4200  139.1565  143.4079 LP  0  0  0  0  0  0  0  0  0  0  0  0  # atno 17320 bound_to 7965
  146.2904  140.4310  142.8742 LP  0  0  0  0  0  0  0  0  0  0  0  0  # atno 17321 bound_to 7965
  139.8015  144.7372  150.9819 LP  0  0  0  0  0  0  0  0  0  0  0  0  # atno 17342 bound_to 10162
  140.7820  143.4340  151.0651 LP  0  0  0  0  0  0  0  0  0  0  0  0  # atno 17343 bound_to 10162
  157.4308  131.0849  151.1040 LP  0  0  0  0  0  0  0  0  0  0  0  0  # atno 17370 bound_to 10713
  157.1613  130.6227  149.5612 LP  0  0  0  0  0  0  0  0  0  0  0  0  # atno 17371 bound_to 10713
  141.1037  133.6668  156.2813 LP  0  0  0  0  0  0  0  0  0  0  0  0  # atno 17394 bound_to 11000
  140.5965  134.5598  157.5509 LP  0  0  0  0  0  0  0  0  0  0  0  0  # atno 17395 bound_to 11000

$$$$
