AV-unprocessed.smi:276|AV-procd|sdf|2082|dock4
  -GOLD-   2262021353D 1   1.00000     0.00000
 Structure written by MMmdl.
 57 61  0  0  0  0  0  0  0  0  1 V2000
  153.2653  142.9890  162.9664 C   0  0  0  0  0  0  0  0  0  0  0  0
  152.7169  143.5288  161.7769 O   0  0  0  0  0  0  0  0  0  0  0  0
  152.3581  142.5254  160.8405 C   0  0  2  0  0  0  0  0  0  0  0  0
  153.5111  141.6059  160.4197 C   0  0  0  0  0  0  0  0  0  0  0  0
  152.9832  141.6781  158.9731 C   0  0  1  0  0  0  0  0  0  0  0  0
  152.0651  140.5684  158.6812 N   0  0  0  0  0  0  0  0  0  0  0  0
  152.4031  139.2749  159.2691 C   0  0  0  0  0  0  0  0  0  0  0  0
  151.6802  140.4181  157.3937 C   0  0  0  0  0  0  0  0  0  0  0  0
  152.5271  139.7437  156.5767 N   0  0  0  0  0  0  0  0  0  0  0  0
  152.2074  139.5500  155.2943 C   0  0  0  0  0  0  0  0  0  0  0  0
  151.1160  139.9470  154.6372 N   0  0  0  0  0  0  0  0  0  0  0  0
  150.2711  140.6431  155.4505 C   0  0  0  0  0  0  0  0  0  0  0  0
  150.4727  140.9244  156.8314 C   0  0  0  0  0  0  0  0  0  0  0  0
  149.3966  141.6518  157.3259 N   0  0  0  0  0  0  0  0  0  0  0  0
  148.5995  141.7809  156.3013 C   0  0  0  0  0  0  0  0  0  0  0  0
  149.0574  141.2256  155.1279 N   0  0  0  0  0  0  0  0  0  0  0  0
  148.3740  141.2238  153.8456 C   0  0  0  0  0  0  0  0  0  0  0  0
  147.4459  140.0064  153.6192 C   0  0  1  0  0  0  0  0  0  0  0  0
  148.3025  138.9406  153.2614 O   0  0  0  0  0  0  0  0  0  0  0  0
  146.6314  139.5424  154.8493 C   0  0  1  0  0  0  0  0  0  0  0  0
  145.5915  140.5303  155.3855 C   0  0  0  0  0  0  0  0  0  0  0  0
  144.5668  139.6470  156.0771 C   0  0  0  0  0  0  0  0  0  0  0  0
  144.8442  138.2538  155.5129 C   0  0  0  0  0  0  0  0  0  0  0  0
  145.7891  138.4618  154.4734 O   0  0  0  0  0  0  0  0  0  0  0  0
  152.3104  143.0168  159.3825 C   0  0  0  0  0  0  0  0  0  0  0  0
  152.9841  144.3466  158.9976 C   0  0  0  0  0  0  0  0  0  0  0  0
  151.5966  144.9935  159.0128 C   0  0  0  0  0  0  0  0  0  0  0  0
  151.0137  143.5968  158.7849 C   0  0  0  0  0  0  0  0  0  0  0  0
  153.5250  143.7976  163.6495 H   0  0  0  0  0  0  0  0  0  0  0  0
  154.1709  142.4164  162.7625 H   0  0  0  0  0  0  0  0  0  0  0  0
  152.5473  142.3405  163.4703 H   0  0  0  0  0  0  0  0  0  0  0  0
  151.4535  141.9769  161.1120 H   0  0  0  0  0  0  0  0  0  0  0  0
  154.4871  142.0820  160.5285 H   0  0  0  0  0  0  0  0  0  0  0  0
  153.4997  140.6251  160.8954 H   0  0  0  0  0  0  0  0  0  0  0  0
  153.7892  141.7934  158.2486 H   0  0  0  0  0  0  0  0  0  0  0  0
  152.0677  138.4319  158.6619 H   0  0  0  0  0  0  0  0  0  0  0  0
  151.9320  139.1795  160.2473 H   0  0  0  0  0  0  0  0  0  0  0  0
  153.4814  139.1816  159.4015 H   0  0  0  0  0  0  0  0  0  0  0  0
  152.9293  138.9975  154.7112 H   0  0  0  0  0  0  0  0  0  0  0  0
  147.6556  142.3016  156.3717 H   0  0  0  0  0  0  0  0  0  0  0  0
  147.7935  142.1463  153.7939 H   0  0  0  0  0  0  0  0  0  0  0  0
  149.1184  141.2834  153.0503 H   0  0  0  0  0  0  0  0  0  0  0  0
  146.7765  140.1955  152.7802 H   0  0  0  0  0  0  0  0  0  0  0  0
  149.0093  139.2852  152.7376 H   0  0  0  0  0  0  0  0  0  0  0  0
  147.2926  139.2284  155.6596 H   0  0  0  0  0  0  0  0  0  0  0  0
  146.0186  141.2691  156.0628 H   0  0  0  0  0  0  0  0  0  0  0  0
  145.1123  141.0589  154.5604 H   0  0  0  0  0  0  0  0  0  0  0  0
  144.7007  139.6545  157.1592 H   0  0  0  0  0  0  0  0  0  0  0  0
  143.5516  139.9807  155.8606 H   0  0  0  0  0  0  0  0  0  0  0  0
  145.2827  137.6098  156.2761 H   0  0  0  0  0  0  0  0  0  0  0  0
  143.9451  137.7693  155.1318 H   0  0  0  0  0  0  0  0  0  0  0  0
  153.6866  144.7490  159.7278 H   0  0  0  0  0  0  0  0  0  0  0  0
  153.4214  144.3198  157.9980 H   0  0  0  0  0  0  0  0  0  0  0  0
  151.3339  145.4084  159.9874 H   0  0  0  0  0  0  0  0  0  0  0  0
  151.4141  145.7034  158.2056 H   0  0  0  0  0  0  0  0  0  0  0  0
  150.8802  143.3968  157.7225 H   0  0  0  0  0  0  0  0  0  0  0  0
  150.1083  143.3808  159.3524 H   0  0  0  0  0  0  0  0  0  0  0  0
  1  2  1  0  0  0  0
  1 29  1  0  0  0  0
  1 30  1  0  0  0  0
  1 31  1  0  0  0  0
  2  3  1  0  0  0  0
  3 25  1  0  0  0  0
  3  4  1  0  0  0  0
  3 32  1  0  0  0  0
  4  5  1  0  0  0  0
  4 33  1  0  0  0  0
  4 34  1  0  0  0  0
  5  6  1  0  0  0  0
  5 25  1  0  0  0  0
  5 35  1  0  0  0  0
  6  7  1  0  0  0  0
  6  8  1  0  0  0  0
  7 36  1  0  0  0  0
  7 37  1  0  0  0  0
  7 38  1  0  0  0  0
  8 13  1  0  0  0  0
  8  9  2  0  0  0  0
  9 10  1  0  0  0  0
 10 11  2  0  0  0  0
 10 39  1  0  0  0  0
 11 12  1  0  0  0  0
 12 16  1  0  0  0  0
 12 13  2  0  0  0  0
 13 14  1  0  0  0  0
 14 15  2  0  0  0  0
 15 16  1  0  0  0  0
 15 40  1  0  0  0  0
 16 17  1  0  0  0  0
 17 18  1  0  0  0  0
 17 41  1  0  0  0  0
 17 42  1  0  0  0  0
 18 19  1  0  0  0  0
 18 20  1  0  0  0  0
 18 43  1  0  0  0  0
 19 44  1  0  0  0  0
 20 24  1  0  0  0  0
 20 21  1  0  0  0  0
 20 45  1  0  0  0  0
 21 22  1  0  0  0  0
 21 46  1  0  0  0  0
 21 47  1  0  0  0  0
 22 23  1  0  0  0  0
 22 48  1  0  0  0  0
 22 49  1  0  0  0  0
 23 24  1  0  0  0  0
 23 50  1  0  0  0  0
 23 51  1  0  0  0  0
 25 28  1  0  0  0  0
 25 26  1  0  0  0  0
 26 27  1  0  0  0  0
 26 52  1  0  0  0  0
 26 53  1  0  0  0  0
 27 28  1  0  0  0  0
 27 54  1  0  0  0  0
 27 55  1  0  0  0  0
 28 56  1  0  0  0  0
 28 57  1  0  0  0  0
M  END
> <s_m_source_file>
AV-unprocessed.smi

> <i_m_source_file_index>
276

> <i_lp_mmshare_version>
43012

> <i_f3d_flags>
0

> <s_epik_input>
W0NIMl0xW0NIMl1bQ0gyXUMxMltDQEhdKE9bQ0gzXSlbQ0gyXVtDQEhdMk4oW0NIM10pYyhuW2NIXW4zKWMoYzM0KW5bY0hdbjRbQ0gyXVtDQEhdKFtPSF0pW0NAQEhdNVtDSDJdW0NIMl1bQ0gyXU81

> <s_epik_cmdline>
J2VwaWtfcHl0aG9uJywgJy1waCcsICc3LjAnLCAnLXRuJywgJzgnLCAnLW1hJywgJzIwMCcsICctbWV0YWxfYmluZGluZycsICctaW1hZScsICc8aW5maWxlLm1hZT4nLCAnLW9tYWUnLCAnPG91dGZpbGUubWFlPic=

> <r_lp_tautomer_probability>
1

> <r_epik_Ionization_Penalty>
0.00204117

> <r_epik_Ionization_Penalty_Charging>
0

> <r_epik_Ionization_Penalty_Neutral>
0.00204117

> <r_epik_State_Penalty>
0.00127401

> <r_epik_Charging_Adjusted_Penalty>
0.00127401

> <i_epik_Tot_Q>
0

> <i_epik_Tot_abs_Q>
0

> <r_epik_Metal_State_Penalty>
-0

> <b_epik_Metal_Only>
0

> <s_lp_Force_Field>
OPLS_2005

> <r_lp_Energy>
59.2093

> <b_lp_Chiralities_Consistent>
1

> <s_lp_Variant>
AV-unprocessed.smi:276-13

> <Gold.Version>
5.8.1

> <Gold.Id.Protein>
6NUR|6NUR_protein|mol2

> <Gold.PLP.Fitness>
59.2604

> <Gold.PLP.PLP>
-52.7554

> <Gold.PLP.part.hbond>
-4.0000

> <Gold.PLP.part.metal>
0.0000

> <Gold.PLP.part.buried>
-3.5547

> <Gold.PLP.part.nonpolar>
-44.2441

> <Gold.PLP.part.repulsive>
0.4155

> <Gold.PLP.ligand.clash>
0.0000

> <Gold.PLP.ligand.torsion>
1.7519

> <Gold.PLP.Chemscore.Hbond>
3.0000

> <Gold.PLP.Chemscore.CHOScore>
0.0186

> <Gold.PLP.Chemscore.Metal>
0.0000

> <Gold.Chemscore.Hbonds>
donor molecule, donor type, donor heavy atom, donor atom, acceptor molecule, acceptor atom, score
      L1  H    19    44       P1  7957  0.99
      P1  H  7989  7998       L1    11  1.00
      P1  H  7997  8009       L1     9  1.00
      L1  C    15    40       P1  8028  0.09

> <Gold.PLP.Chemscore.Internal.Correction>
0.9530

> <Gold.Rescore>
     Score         DG    S(hbond)    S(metal)    S(lipo)     H(rot)  DE(clash)    DE(int)     intcor
     16.36     -18.30       1.71        0.00     120.08       2.72       0.26       1.67       ----

> <Gold.Chemscore.Fitness>
16.3624

> <Gold.Chemscore.DG>
-18.2989

> <Gold.Chemscore.ZeroCoef>
-5.4800

> <Gold.Chemscore.Hbond>
1.7142

> <Gold.Chemscore.Metal>
0.0000

> <Gold.Chemscore.Lipo>
120.0823

> <Gold.Chemscore.Internal_Hbond>
0.0000

> <Gold.Chemscore.DEClash>
0.2631

> <Gold.Chemscore.DEInternal>
1.6734

> <Gold.Chemscore.Rot>
2.7172

> <Gold.Chemscore.Internal.Correction>
   9.000000E+99

> <Gold.Chemscore.Hbonds>
donor molecule, donor type, donor heavy atom, donor atom, acceptor molecule, acceptor atom, score
      L1  H    19    44       P1  7957  0.93
      P1  H  7989  7998       L1    11  0.35
      P1  H  7997  8009       L1     9  0.30

> <Gold.Chemscore.Hbond.Weighted>
-5.7253

> <Gold.Chemscore.Metal.Weighted>
-0.0000

> <Gold.Chemscore.Lipo.Weighted>
-14.0496

> <Gold.Chemscore.Internal_Hbond.Weighted>
0.0000

> <Gold.Chemscore.DEClash.Weighted>
0.2631

> <Gold.Chemscore.DEInternal.Weighted>
1.6734

> <Gold.Chemscore.Rot.Weighted>
6.9560

> <Gold.Chemscore.Internal.Correction.Weighted>
   9.000000E+99

> <Gold.Protein.RotatedTorsions>
[ 6907 6896 6895 6894 ] final   49.96 input  -60.11 | X-H torsion
[ 7974 7965 7964 7962 ] final  -48.20 input  175.53 | X-H torsion
[ 8008 7997 7996 7995 ] final -168.64 input   59.86 | X-H torsion
[ 10167 10162 10161 10158 ] final   60.47 input  -65.29 | X-H torsion
[ 10718 10713 10712 10709 ] final  121.83 input   66.30 | X-H torsion
[ 10763 10752 10751 10750 ] final -142.30 input  -60.55 | X-H torsion
[ 11005 11000 10999 10996 ] final   94.96 input  -57.11 | X-H torsion

> <Gold.Protein.ActiveResidues>
 VAL166  LYS551  ARG553  GLY616  TRP617  ASP618  TYR619  PRO620  LYS621  CYS622 
 ASP623  PHE694  ASN695  SER759  ASP760  ASP761  ALA762  ILE779  LEU786  VAL792 
 PHE793  MET794  SER795  GLU796  ALA797  LYS798  CYS799  TRP800  GLU811  SER814 

> <Gold.Protein.RotatedAtoms>
  152.2966  134.7660  160.0366 H   0  0  0  0  0  0  0  0  0  0  0  0  # atno 6907 bound_to 6896
  151.8188  133.3386  159.3586 H   0  0  0  0  0  0  0  0  0  0  0  0  # atno 6908 bound_to 6896
  150.7254  134.5523  159.5845 H   0  0  0  0  0  0  0  0  0  0  0  0  # atno 6909 bound_to 6896
  145.9536  140.7548  142.9492 H   0  0  0  0  0  0  0  0  0  0  0  0  # atno 7974 bound_to 7965
  155.8941  140.1030  157.1397 H   0  0  0  0  0  0  0  0  0  0  0  0  # atno 8008 bound_to 7997
  154.4018  140.1305  156.4417 H   0  0  0  0  0  0  0  0  0  0  0  0  # atno 8009 bound_to 7997
  155.7499  140.3465  155.5147 H   0  0  0  0  0  0  0  0  0  0  0  0  # atno 8010 bound_to 7997
  140.1652  144.4331  150.6689 H   0  0  0  0  0  0  0  0  0  0  0  0  # atno 10167 bound_to 10162
  157.5788  131.1077  150.8227 H   0  0  0  0  0  0  0  0  0  0  0  0  # atno 10718 bound_to 10713
  154.8514  135.3499  154.6007 H   0  0  0  0  0  0  0  0  0  0  0  0  # atno 10763 bound_to 10752
  153.6615  135.6989  153.5180 H   0  0  0  0  0  0  0  0  0  0  0  0  # atno 10764 bound_to 10752
  153.2813  135.4262  155.1039 H   0  0  0  0  0  0  0  0  0  0  0  0  # atno 10765 bound_to 10752
  139.8793  134.8873  156.3941 H   0  0  0  0  0  0  0  0  0  0  0  0  # atno 11005 bound_to 11000
  144.6800  140.2476  143.7336 LP  0  0  0  0  0  0  0  0  0  0  0  0  # atno 17320 bound_to 7965
  145.8137  139.2014  143.1978 LP  0  0  0  0  0  0  0  0  0  0  0  0  # atno 17321 bound_to 7965
  140.6617  143.2254  151.5839 LP  0  0  0  0  0  0  0  0  0  0  0  0  # atno 17342 bound_to 10162
  139.5363  144.2773  152.1257 LP  0  0  0  0  0  0  0  0  0  0  0  0  # atno 17343 bound_to 10162
  156.8679  130.5135  149.5299 LP  0  0  0  0  0  0  0  0  0  0  0  0  # atno 17370 bound_to 10713
  156.0833  130.5838  150.9603 LP  0  0  0  0  0  0  0  0  0  0  0  0  # atno 17371 bound_to 10713
  140.9312  133.7578  156.0027 LP  0  0  0  0  0  0  0  0  0  0  0  0  # atno 17394 bound_to 11000
  140.8328  134.3158  157.5342 LP  0  0  0  0  0  0  0  0  0  0  0  0  # atno 17395 bound_to 11000

$$$$
