AV-unprocessed.smi:21|AV-procd|sdf|154|dock3
  -GOLD-   2262015383D 1   1.00000     0.00000
 Structure written by MMmdl.
 61 64  0  0  0  0  0  0  0  0  1 V2000
  154.7853  139.8458  160.1445 C   0  0  0  0  0  0  0  0  0  0  0  0
  154.5004  141.1797  159.7545 O   0  0  0  0  0  0  0  0  0  0  0  0
  153.1515  141.5587  159.9871 C   0  0  2  0  0  0  0  0  0  0  0  0
  152.1824  141.0272  158.9146 C   0  0  0  0  0  0  0  0  0  0  0  0
  151.5567  142.2880  158.2959 C   0  0  1  0  0  0  0  0  0  0  0  0
  150.1128  142.0760  157.7889 C   0  0  0  0  0  0  0  0  0  0  0  0
  150.0485  141.3313  156.5313 N   0  0  0  0  0  0  0  0  0  0  0  0
  151.3095  140.9617  155.8901 C   0  0  0  0  0  0  0  0  0  0  0  0
  148.9018  141.3171  155.7885 C   0  0  0  0  0  0  0  0  0  0  0  0
  149.0097  141.1665  154.4397 N   0  0  0  0  0  0  0  0  0  0  0  0
  147.9279  141.1564  153.6577 C   0  0  0  0  0  0  0  0  0  0  0  0
  146.6480  141.2763  154.0068 N   0  0  0  0  0  0  0  0  0  0  0  0
  146.5190  141.4196  155.3556 C   0  0  0  0  0  0  0  0  0  0  0  0
  147.5769  141.4489  156.3124 C   0  0  0  0  0  0  0  0  0  0  0  0
  147.0347  141.5994  157.5859 N   0  0  0  0  0  0  0  0  0  0  0  0
  145.7467  141.6606  157.3939 C   0  0  0  0  0  0  0  0  0  0  0  0
  145.3496  141.5554  156.0828 N   0  0  0  0  0  0  0  0  0  0  0  0
  143.9848  141.5847  155.5880 C   0  0  0  0  0  0  0  0  0  0  0  0
  143.0302  142.4752  156.4265 C   0  0  2  0  0  0  0  0  0  0  0  0
  141.5369  142.2133  156.1012 C   0  0  0  0  0  0  0  0  0  0  0  0
  141.3607  141.7424  154.7804 O   0  0  0  0  0  0  0  0  0  0  0  0
  143.3834  143.9736  156.2384 C   0  0  2  0  0  0  0  0  0  0  0  0
  142.5817  144.9372  157.0981 C   0  0  0  0  0  0  0  0  0  0  0  0
  142.7897  146.2603  156.3739 C   0  0  0  0  0  0  0  0  0  0  0  0
  142.8156  145.9232  154.9941 O   0  0  0  0  0  0  0  0  0  0  0  0
  143.0904  144.5334  154.8384 C   0  0  0  0  0  0  0  0  0  0  0  0
  151.6934  143.3139  159.3170 N   0  0  0  0  0  0  0  0  0  0  0  0
  151.5451  144.6712  158.8083 C   0  0  0  0  0  0  0  0  0  0  0  0
  153.0130  143.0783  159.8680 C   0  0  0  0  0  0  0  0  0  0  0  0
  152.8241  141.2471  160.9806 H   0  0  0  0  0  0  0  0  0  0  0  0
  152.1859  142.5738  157.4512 H   0  0  0  0  0  0  0  0  0  0  0  0
  155.8329  139.6233  159.9437 H   0  0  0  0  0  0  0  0  0  0  0  0
  154.1794  139.1257  159.5936 H   0  0  0  0  0  0  0  0  0  0  0  0
  154.6112  139.7034  161.2117 H   0  0  0  0  0  0  0  0  0  0  0  0
  152.6806  140.4272  158.1523 H   0  0  0  0  0  0  0  0  0  0  0  0
  151.4245  140.4007  159.3864 H   0  0  0  0  0  0  0  0  0  0  0  0
  149.5467  141.5380  158.5501 H   0  0  0  0  0  0  0  0  0  0  0  0
  149.5845  143.0203  157.6773 H   0  0  0  0  0  0  0  0  0  0  0  0
  151.2393  139.9684  155.4451 H   0  0  0  0  0  0  0  0  0  0  0  0
  152.1281  140.9400  156.6095 H   0  0  0  0  0  0  0  0  0  0  0  0
  151.5703  141.6758  155.1082 H   0  0  0  0  0  0  0  0  0  0  0  0
  148.1157  141.0368  152.6010 H   0  0  0  0  0  0  0  0  0  0  0  0
  145.0461  141.7763  158.2080 H   0  0  0  0  0  0  0  0  0  0  0  0
  144.0268  141.9324  154.5559 H   0  0  0  0  0  0  0  0  0  0  0  0
  143.6068  140.5625  155.5507 H   0  0  0  0  0  0  0  0  0  0  0  0
  143.1902  142.2380  157.4798 H   0  0  0  0  0  0  0  0  0  0  0  0
  141.1149  141.4515  156.7551 H   0  0  0  0  0  0  0  0  0  0  0  0
  140.9431  143.1154  156.2516 H   0  0  0  0  0  0  0  0  0  0  0  0
  141.9293  142.2334  154.2069 H   0  0  0  0  0  0  0  0  0  0  0  0
  144.4420  144.1244  156.4570 H   0  0  0  0  0  0  0  0  0  0  0  0
  141.5242  144.6692  157.0918 H   0  0  0  0  0  0  0  0  0  0  0  0
  142.9199  144.9768  158.1339 H   0  0  0  0  0  0  0  0  0  0  0  0
  142.0094  146.9889  156.5953 H   0  0  0  0  0  0  0  0  0  0  0  0
  143.7512  146.6971  156.6467 H   0  0  0  0  0  0  0  0  0  0  0  0
  143.9234  144.3832  154.1515 H   0  0  0  0  0  0  0  0  0  0  0  0
  142.2083  144.0610  154.4044 H   0  0  0  0  0  0  0  0  0  0  0  0
  151.7158  145.3987  159.6025 H   0  0  0  0  0  0  0  0  0  0  0  0
  150.5399  144.8371  158.4218 H   0  0  0  0  0  0  0  0  0  0  0  0
  152.2555  144.8733  158.0055 H   0  0  0  0  0  0  0  0  0  0  0  0
  153.1477  143.5840  160.8246 H   0  0  0  0  0  0  0  0  0  0  0  0
  153.7723  143.4590  159.1823 H   0  0  0  0  0  0  0  0  0  0  0  0
  1  2  1  0  0  0  0
  1 32  1  0  0  0  0
  1 33  1  0  0  0  0
  1 34  1  0  0  0  0
  2  3  1  0  0  0  0
  3 30  1  0  0  0  0
  3 29  1  0  0  0  0
  3  4  1  0  0  0  0
  4  5  1  0  0  0  0
  4 35  1  0  0  0  0
  4 36  1  0  0  0  0
  5 31  1  0  0  0  0
  5  6  1  0  0  0  0
  5 27  1  0  0  0  0
  6  7  1  0  0  0  0
  6 37  1  0  0  0  0
  6 38  1  0  0  0  0
  7  8  1  0  0  0  0
  7  9  1  0  0  0  0
  8 39  1  0  0  0  0
  8 40  1  0  0  0  0
  8 41  1  0  0  0  0
  9 14  1  0  0  0  0
  9 10  2  0  0  0  0
 10 11  1  0  0  0  0
 11 12  2  0  0  0  0
 11 42  1  0  0  0  0
 12 13  1  0  0  0  0
 13 17  1  0  0  0  0
 13 14  2  0  0  0  0
 14 15  1  0  0  0  0
 15 16  2  0  0  0  0
 16 17  1  0  0  0  0
 16 43  1  0  0  0  0
 17 18  1  0  0  0  0
 18 19  1  0  0  0  0
 18 44  1  0  0  0  0
 18 45  1  0  0  0  0
 19 20  1  0  0  0  0
 19 22  1  0  0  0  0
 19 46  1  0  0  0  0
 20 21  1  0  0  0  0
 20 47  1  0  0  0  0
 20 48  1  0  0  0  0
 21 49  1  0  0  0  0
 22 26  1  0  0  0  0
 22 23  1  0  0  0  0
 22 50  1  0  0  0  0
 23 24  1  0  0  0  0
 23 51  1  0  0  0  0
 23 52  1  0  0  0  0
 24 25  1  0  0  0  0
 24 53  1  0  0  0  0
 24 54  1  0  0  0  0
 25 26  1  0  0  0  0
 26 55  1  0  0  0  0
 26 56  1  0  0  0  0
 27 28  1  0  0  0  0
 27 29  1  0  0  0  0
 28 57  1  0  0  0  0
 28 58  1  0  0  0  0
 28 59  1  0  0  0  0
 29 60  1  0  0  0  0
 29 61  1  0  0  0  0
M  END
> <s_m_source_file>
AV-unprocessed.smi

> <i_m_source_file_index>
21

> <i_lp_mmshare_version>
43012

> <i_f3d_flags>
0

> <s_epik_input>
W0NIM11PW0NASF0xW0NIMl1bQ0BIXShOKFtDSDNdKVtDSDJdMSlbQ0gyXU4oW0NIM10pYyhuW2NIXW4yKWMoYzIzKW5bY0hdbjNbQ0gyXVtDQEhdKFtDSDJdW09IXSlbQ0BASF00W0NIMl1bQ0gyXU9bQ0gyXTQ=

> <s_epik_cmdline>
J2VwaWtfcHl0aG9uJywgJy1waCcsICc3LjAnLCAnLXRuJywgJzgnLCAnLW1hJywgJzIwMCcsICctbWV0YWxfYmluZGluZycsICctaW1hZScsICc8aW5maWxlLm1hZT4nLCAnLW9tYWUnLCAnPG91dGZpbGUubWFlPic=

> <r_lp_tautomer_probability>
1

> <r_epik_Ionization_Penalty>
2.17574

> <r_epik_Ionization_Penalty_Charging>
0

> <r_epik_Ionization_Penalty_Neutral>
2.17574

> <r_epik_State_Penalty>
2.31336

> <r_epik_Charging_Adjusted_Penalty>
2.31336

> <i_epik_Tot_Q>
0

> <i_epik_Tot_abs_Q>
0

> <r_epik_Metal_State_Penalty>
2.31025

> <b_epik_Metal_Only>
0

> <s_lp_Force_Field>
OPLS_2005

> <r_lp_Energy>
69.0307

> <b_lp_Chiralities_Consistent>
1

> <s_lp_Variant>
AV-unprocessed.smi:21-34

> <Gold.Version>
5.8.1

> <Gold.Id.Protein>
6NUR|6NUR_protein|mol2

> <Gold.PLP.Fitness>
50.8032

> <Gold.PLP.PLP>
-48.5478

> <Gold.PLP.part.hbond>
-2.0000

> <Gold.PLP.part.metal>
0.0000

> <Gold.PLP.part.buried>
-7.7133

> <Gold.PLP.part.nonpolar>
-40.6708

> <Gold.PLP.part.repulsive>
0.4826

> <Gold.PLP.ligand.clash>
0.0000

> <Gold.PLP.ligand.torsion>
1.4874

> <Gold.PLP.Chemscore.Hbond>
0.6240

> <Gold.PLP.Chemscore.CHOScore>
1.0000

> <Gold.PLP.Chemscore.Metal>
0.0000

> <Gold.Chemscore.Hbonds>
donor molecule, donor type, donor heavy atom, donor atom, acceptor molecule, acceptor atom, score
      L1  H    21    49       P1 10174  0.52
      L1  C    11    42       P1  7957  1.00

> <Gold.PLP.Chemscore.Internal.Correction>
0.3583

> <Gold.Rescore>
     Score         DG    S(hbond)    S(metal)    S(lipo)     H(rot)  DE(clash)    DE(int)     intcor
     11.42     -12.86       0.84        0.00     104.71       3.00       0.05       1.39       ----

> <Gold.Chemscore.Fitness>
11.4219

> <Gold.Chemscore.DG>
-12.8576

> <Gold.Chemscore.ZeroCoef>
-5.4800

> <Gold.Chemscore.Hbond>
0.8427

> <Gold.Chemscore.Metal>
0.0000

> <Gold.Chemscore.Lipo>
104.7083

> <Gold.Chemscore.Internal_Hbond>
0.0000

> <Gold.Chemscore.DEClash>
0.0453

> <Gold.Chemscore.DEInternal>
1.3904

> <Gold.Chemscore.Rot>
3.0031

> <Gold.Chemscore.Internal.Correction>
   9.000000E+99

> <Gold.Chemscore.Hbonds>
donor molecule, donor type, donor heavy atom, donor atom, acceptor molecule, acceptor atom, score
      L1  H    21    49       P1 10174  0.40

> <Gold.Chemscore.Hbond.Weighted>
-2.8147

> <Gold.Chemscore.Metal.Weighted>
-0.0000

> <Gold.Chemscore.Lipo.Weighted>
-12.2509

> <Gold.Chemscore.Internal_Hbond.Weighted>
0.0000

> <Gold.Chemscore.DEClash.Weighted>
0.0453

> <Gold.Chemscore.DEInternal.Weighted>
1.3904

> <Gold.Chemscore.Rot.Weighted>
7.6880

> <Gold.Chemscore.Internal.Correction.Weighted>
   9.000000E+99

> <Gold.Protein.RotatedTorsions>
[ 6907 6896 6895 6894 ] final -131.99 input  -60.11 | X-H torsion
[ 7974 7965 7964 7962 ] final  103.49 input  175.53 | X-H torsion
[ 8008 7997 7996 7995 ] final   91.91 input   59.86 | X-H torsion
[ 10167 10162 10161 10158 ] final   -0.65 input  -65.29 | X-H torsion
[ 10718 10713 10712 10709 ] final  177.96 input   66.30 | X-H torsion
[ 10763 10752 10751 10750 ] final  127.61 input  -60.55 | X-H torsion
[ 11005 11000 10999 10996 ] final  -79.99 input  -57.11 | X-H torsion

> <Gold.Protein.ActiveResidues>
 VAL166  LYS551  ARG553  GLY616  TRP617  ASP618  TYR619  PRO620  LYS621  CYS622 
 ASP623  PHE694  ASN695  SER759  ASP760  ASP761  ALA762  ILE779  LEU786  VAL792 
 PHE793  MET794  SER795  GLU796  ALA797  LYS798  CYS799  TRP800  GLU811  SER814 

> <Gold.Protein.RotatedAtoms>
  150.9573  133.6484  159.2760 H   0  0  0  0  0  0  0  0  0  0  0  0  # atno 6907 bound_to 6896
  151.3819  135.0940  159.9508 H   0  0  0  0  0  0  0  0  0  0  0  0  # atno 6908 bound_to 6896
  152.5134  133.9106  159.7540 H   0  0  0  0  0  0  0  0  0  0  0  0  # atno 6909 bound_to 6896
  145.3453  139.2452  143.3587 H   0  0  0  0  0  0  0  0  0  0  0  0  # atno 7974 bound_to 7965
  156.0293  140.3332  155.7122 H   0  0  0  0  0  0  0  0  0  0  0  0  # atno 8008 bound_to 7997
  155.5908  140.0646  157.2776 H   0  0  0  0  0  0  0  0  0  0  0  0  # atno 8009 bound_to 7997
  154.4347  140.1827  156.1061 H   0  0  0  0  0  0  0  0  0  0  0  0  # atno 8010 bound_to 7997
  140.6776  143.6869  150.8059 H   0  0  0  0  0  0  0  0  0  0  0  0  # atno 10167 bound_to 10162
  156.8976  130.9868  151.3040 H   0  0  0  0  0  0  0  0  0  0  0  0  # atno 10718 bound_to 10713
  153.7123  135.3266  155.3249 H   0  0  0  0  0  0  0  0  0  0  0  0  # atno 10763 bound_to 10752
  154.8381  135.4479  154.1302 H   0  0  0  0  0  0  0  0  0  0  0  0  # atno 10764 bound_to 10752
  153.2399  135.6969  153.7874 H   0  0  0  0  0  0  0  0  0  0  0  0  # atno 10765 bound_to 10752
  141.1668  133.7130  156.8205 H   0  0  0  0  0  0  0  0  0  0  0  0  # atno 11005 bound_to 11000
  146.2990  140.4058  142.8711 LP  0  0  0  0  0  0  0  0  0  0  0  0  # atno 17320 bound_to 7965
  144.8759  140.7335  143.6017 LP  0  0  0  0  0  0  0  0  0  0  0  0  # atno 17321 bound_to 7965
  140.0565  143.5198  152.2649 LP  0  0  0  0  0  0  0  0  0  0  0  0  # atno 17342 bound_to 10162
  139.6078  144.7601  151.3021 LP  0  0  0  0  0  0  0  0  0  0  0  0  # atno 17343 bound_to 10162
  157.6046  130.8537  149.8855 LP  0  0  0  0  0  0  0  0  0  0  0  0  # atno 17370 bound_to 10713
  156.0598  130.3702  150.1008 LP  0  0  0  0  0  0  0  0  0  0  0  0  # atno 17371 bound_to 10713
  140.2122  134.8819  157.3287 LP  0  0  0  0  0  0  0  0  0  0  0  0  # atno 17394 bound_to 11000
  140.2074  134.4180  155.7630 LP  0  0  0  0  0  0  0  0  0  0  0  0  # atno 17395 bound_to 11000

$$$$
