AV-unprocessed.smi:955|AV-procd|sdf|4261|dock8
  -GOLD-   22720 2173D 1   1.00000     0.00000
 Structure written by MMmdl.
 29 29  0  0  0  0  0  0  0  0  1 V2000
  149.3174  140.0667  157.7541 C   0  0  0  0  0  0  0  0  0  0  0  0
  150.6747  140.3286  157.0807 C   0  0  2  0  0  0  0  0  0  0  0  0
  151.3404  141.4039  157.8130 N   0  0  0  0  0  0  0  0  0  0  0  0
  152.5396  141.3113  158.4112 C   0  0  0  0  0  0  0  0  0  0  0  0
  153.1935  140.2678  158.4469 O   0  0  0  0  0  0  0  0  0  0  0  0
  153.0735  142.5994  159.0573 C   0  0  1  0  0  0  0  0  0  0  0  0
  152.2187  143.8391  158.7219 C   0  0  0  0  0  0  0  0  0  0  0  0
  153.2336  142.4105  160.4950 N   0  0  0  0  0  0  0  0  0  0  0  0
  152.6387  143.1251  161.5151 C   0  0  0  0  0  0  0  0  0  0  0  0
  153.1157  142.6322  162.6956 C   0  0  0  0  0  0  0  0  0  0  0  0
  154.0214  141.6120  162.2938 C   0  0  0  0  0  0  0  0  0  0  0  0
  154.0959  141.4865  160.9792 N   0  0  0  0  0  0  0  0  0  0  0  0
  150.4093  140.7568  155.6278 C   0  0  0  0  0  0  0  0  0  0  0  0
  149.7383  141.8970  155.4492 N   0  0  0  0  0  0  0  0  0  0  0  0
  150.8145  140.0822  154.6817 O   0  0  0  0  0  0  0  0  0  0  0  0
  148.7721  139.2682  157.2493 H   0  0  0  0  0  0  0  0  0  0  0  0
  148.6836  140.9551  157.7525 H   0  0  0  0  0  0  0  0  0  0  0  0
  149.4513  139.7603  158.7919 H   0  0  0  0  0  0  0  0  0  0  0  0
  151.2808  139.4208  157.1066 H   0  0  0  0  0  0  0  0  0  0  0  0
  150.8737  142.2989  157.8257 H   0  0  0  0  0  0  0  0  0  0  0  0
  154.0683  142.7761  158.6451 H   0  0  0  0  0  0  0  0  0  0  0  0
  152.1630  143.9981  157.6445 H   0  0  0  0  0  0  0  0  0  0  0  0
  152.6505  144.7382  159.1621 H   0  0  0  0  0  0  0  0  0  0  0  0
  151.1976  143.7477  159.0947 H   0  0  0  0  0  0  0  0  0  0  0  0
  151.9333  143.9187  161.3181 H   0  0  0  0  0  0  0  0  0  0  0  0
  152.8613  142.9557  163.6939 H   0  0  0  0  0  0  0  0  0  0  0  0
  154.6261  140.9664  162.9134 H   0  0  0  0  0  0  0  0  0  0  0  0
  149.5464  142.2288  154.5150 H   0  0  0  0  0  0  0  0  0  0  0  0
  149.4338  142.4291  156.2514 H   0  0  0  0  0  0  0  0  0  0  0  0
  1  2  1  0  0  0  0
  1 16  1  0  0  0  0
  1 17  1  0  0  0  0
  1 18  1  0  0  0  0
  2  3  1  0  0  0  0
  2 13  1  0  0  0  0
  2 19  1  0  0  0  0
  3  4  1  0  0  0  0
  3 20  1  0  0  0  0
  4  5  2  0  0  0  0
  4  6  1  0  0  0  0
  6  7  1  0  0  0  0
  6  8  1  0  0  0  0
  6 21  1  0  0  0  0
  7 22  1  0  0  0  0
  7 23  1  0  0  0  0
  7 24  1  0  0  0  0
  8 12  1  0  0  0  0
  8  9  1  0  0  0  0
  9 10  2  0  0  0  0
  9 25  1  0  0  0  0
 10 11  1  0  0  0  0
 10 26  1  0  0  0  0
 11 12  2  0  0  0  0
 11 27  1  0  0  0  0
 13 14  1  0  0  0  0
 13 15  2  0  0  0  0
 14 28  1  0  0  0  0
 14 29  1  0  0  0  0
M  END
> <s_m_source_file>
AV-unprocessed.smi

> <i_m_source_file_index>
955

> <i_lp_mmshare_version>
43012

> <i_f3d_flags>
0

> <s_epik_input>
W05IMl1DKD1PKVtDQEhdKFtDSDNdKVtOSF1DKD1PKVtDQEhdKFtDSDNdKW4xW2NIXVtjSF1bY0hdbjE=

> <s_epik_cmdline>
J2VwaWtfcHl0aG9uJywgJy1waCcsICc3LjAnLCAnLXRuJywgJzgnLCAnLW1hJywgJzIwMCcsICctbWV0YWxfYmluZGluZycsICctaW1hZScsICc8aW5maWxlLm1hZT4nLCAnLW9tYWUnLCAnPG91dGZpbGUubWFlPic=

> <r_lp_tautomer_probability>
1

> <r_epik_Ionization_Penalty>
2.8146e-05

> <r_epik_Ionization_Penalty_Charging>
0

> <r_epik_Ionization_Penalty_Neutral>
2.8146e-05

> <r_epik_State_Penalty>
-0

> <r_epik_Charging_Adjusted_Penalty>
0

> <i_epik_Tot_Q>
0

> <i_epik_Tot_abs_Q>
0

> <r_epik_Metal_State_Penalty>
-0

> <b_epik_Metal_Only>
0

> <s_lp_Force_Field>
OPLS_2005

> <r_lp_Energy>
4.42999

> <b_lp_Chiralities_Consistent>
1

> <s_lp_Variant>
AV-unprocessed.smi:955-3

> <Gold.Version>
5.8.1

> <Gold.Id.Protein>
6NUR|6NUR_protein|mol2

> <Gold.PLP.Fitness>
40.4017

> <Gold.PLP.PLP>
-34.8868

> <Gold.PLP.part.hbond>
-3.0000

> <Gold.PLP.part.metal>
0.0000

> <Gold.PLP.part.buried>
-4.1992

> <Gold.PLP.part.nonpolar>
-26.1625

> <Gold.PLP.part.repulsive>
0.3204

> <Gold.PLP.ligand.clash>
0.2269

> <Gold.PLP.ligand.torsion>
0.1726

> <Gold.PLP.Chemscore.Hbond>
1.9921

> <Gold.PLP.Chemscore.CHOScore>
0.0000

> <Gold.PLP.Chemscore.Metal>
0.0000

> <Gold.Chemscore.Hbonds>
donor molecule, donor type, donor heavy atom, donor atom, acceptor molecule, acceptor atom, score
      P1  H  7989  7998       L1    15  1.00
      P1  H  7997  8010       L1     5  0.93

> <Gold.PLP.Chemscore.Internal.Correction>
0.1107

> <Gold.Rescore>
     Score         DG    S(hbond)    S(metal)    S(lipo)     H(rot)  DE(clash)    DE(int)     intcor
     13.01     -13.62       1.88        0.00      66.22       2.30       0.03       0.58       ----

> <Gold.Chemscore.Fitness>
13.0104

> <Gold.Chemscore.DG>
-13.6176

> <Gold.Chemscore.ZeroCoef>
-5.4800

> <Gold.Chemscore.Hbond>
1.8776

> <Gold.Chemscore.Metal>
0.0000

> <Gold.Chemscore.Lipo>
66.2163

> <Gold.Chemscore.Internal_Hbond>
0.0000

> <Gold.Chemscore.DEClash>
0.0272

> <Gold.Chemscore.DEInternal>
0.5800

> <Gold.Chemscore.Rot>
2.2972

> <Gold.Chemscore.Internal.Correction>
   9.000000E+99

> <Gold.Chemscore.Hbonds>
donor molecule, donor type, donor heavy atom, donor atom, acceptor molecule, acceptor atom, score
      L1  H    14    29       P1  8028  0.02
      P1  H  7989  7998       L1    15  0.94
      P1  H  7997  8010       L1     5  0.81

> <Gold.Chemscore.Hbond.Weighted>
-6.2712

> <Gold.Chemscore.Metal.Weighted>
-0.0000

> <Gold.Chemscore.Lipo.Weighted>
-7.7473

> <Gold.Chemscore.Internal_Hbond.Weighted>
0.0000

> <Gold.Chemscore.DEClash.Weighted>
0.0272

> <Gold.Chemscore.DEInternal.Weighted>
0.5800

> <Gold.Chemscore.Rot.Weighted>
5.8809

> <Gold.Chemscore.Internal.Correction.Weighted>
   9.000000E+99

> <Gold.Protein.RotatedTorsions>
[ 6907 6896 6895 6894 ] final    4.16 input  -60.11 | X-H torsion
[ 7974 7965 7964 7962 ] final -144.15 input  175.53 | X-H torsion
[ 8008 7997 7996 7995 ] final   31.17 input   59.86 | X-H torsion
[ 10167 10162 10161 10158 ] final -102.18 input  -65.29 | X-H torsion
[ 10718 10713 10712 10709 ] final  -93.45 input   66.30 | X-H torsion
[ 10763 10752 10751 10750 ] final   65.88 input  -60.55 | X-H torsion
[ 11005 11000 10999 10996 ] final   21.99 input  -57.11 | X-H torsion

> <Gold.Protein.ActiveResidues>
 VAL166  LYS551  ARG553  GLY616  TRP617  ASP618  TYR619  PRO620  LYS621  CYS622 
 ASP623  PHE694  ASN695  SER759  ASP760  ASP761  ALA762  ILE779  LEU786  VAL792 
 PHE793  MET794  SER795  GLU796  ALA797  LYS798  CYS799  TRP800  GLU811  SER814 

> <Gold.Protein.RotatedAtoms>
  151.6367  135.1017  160.0132 H   0  0  0  0  0  0  0  0  0  0  0  0  # atno 6907 bound_to 6896
  152.4076  133.6909  159.6378 H   0  0  0  0  0  0  0  0  0  0  0  0  # atno 6908 bound_to 6896
  150.7969  133.8598  159.3269 H   0  0  0  0  0  0  0  0  0  0  0  0  # atno 6909 bound_to 6896
  144.8318  140.5746  143.5510 H   0  0  0  0  0  0  0  0  0  0  0  0  # atno 7974 bound_to 7965
  155.1022  140.3230  155.4544 H   0  0  0  0  0  0  0  0  0  0  0  0  # atno 8008 bound_to 7997
  156.2714  140.2059  156.6094 H   0  0  0  0  0  0  0  0  0  0  0  0  # atno 8009 bound_to 7997
  154.6821  140.0525  157.0263 H   0  0  0  0  0  0  0  0  0  0  0  0  # atno 8010 bound_to 7997
  140.2334  143.3590  152.0866 H   0  0  0  0  0  0  0  0  0  0  0  0  # atno 10167 bound_to 10162
  156.0013  130.5027  150.5777 H   0  0  0  0  0  0  0  0  0  0  0  0  # atno 10718 bound_to 10713
  153.0115  135.5341  154.6736 H   0  0  0  0  0  0  0  0  0  0  0  0  # atno 10763 bound_to 10752
  154.5914  135.2859  155.0633 H   0  0  0  0  0  0  0  0  0  0  0  0  # atno 10764 bound_to 10752
  154.1725  135.6529  153.5065 H   0  0  0  0  0  0  0  0  0  0  0  0  # atno 10765 bound_to 10752
  140.3855  134.1875  155.7663 H   0  0  0  0  0  0  0  0  0  0  0  0  # atno 11005 bound_to 11000
  145.4879  139.1490  143.3726 LP  0  0  0  0  0  0  0  0  0  0  0  0  # atno 17320 bound_to 7965
  146.2620  140.5017  142.8849 LP  0  0  0  0  0  0  0  0  0  0  0  0  # atno 17321 bound_to 7965
  139.5102  144.6880  151.5836 LP  0  0  0  0  0  0  0  0  0  0  0  0  # atno 17342 bound_to 10162
  140.6168  143.9334  150.6494 LP  0  0  0  0  0  0  0  0  0  0  0  0  # atno 17343 bound_to 10162
  157.3662  131.0758  151.1595 LP  0  0  0  0  0  0  0  0  0  0  0  0  # atno 17370 bound_to 10713
  157.2364  130.6549  149.5871 LP  0  0  0  0  0  0  0  0  0  0  0  0  # atno 17371 bound_to 10713
  141.1909  133.8207  157.0900 LP  0  0  0  0  0  0  0  0  0  0  0  0  # atno 17394 bound_to 11000
  140.0446  134.9837  157.1025 LP  0  0  0  0  0  0  0  0  0  0  0  0  # atno 17395 bound_to 11000

$$$$
