#       Name:                AV-unprocessed.smi:1749
#       Creating user name   scv26
#       Creation time:       Fri Mar 27 08:26:17 2020


#       File generated by GOLD software.
#

@<TRIPOS>MOLECULE
AV-unprocessed.smi:1749
    36    37     1
SMALL
NO_CHARGES


@<TRIPOS>ATOM
      1 ****        -2.0071  -1.3159  -2.3573 C.3            1 S1                 0.0000
      2 ****        -1.4046  -0.7914  -1.0465 C.3            1 S1                 0.0000
      3 ****        -1.9478  -1.5630   0.1716 C.3            1 S1                 0.0000
      4 ****        -1.3504  -1.0385   1.4869 C.3            1 S1                 0.0000
      5 ****        -1.5882   0.4733   1.6469 C.3            1 S1                 0.0000
      6 ****        -1.0651   1.2739   0.4389 C.3            1 S1                 0.0000
      7 ****         0.3952   1.2469   0.4143 N.am           1 S1                 0.0000
      8 ****         1.1941   2.1589  -0.1631 C.2            1 S1                 0.0000
      9 ****         0.7639   3.1781  -0.7000 O.2            1 S1                 0.0000
     10 ****         2.5180   1.8996  -0.1174 N.am           1 S1                 0.0000
     11 ****         3.6353   2.6305  -0.6166 C.2            1 S1                 0.0000
     12 ****         3.5670   3.8799  -1.1063 N.2            1 S1                 0.0000
     13 ****         4.8100   4.3567  -1.4988 N.2            1 S1                 0.0000
     14 ****         5.7714   3.4562  -1.2779 C.2            1 S1                 0.0000
     15 ****         5.2505   1.9373  -0.5694 S.3            1 S1                 0.0000
     16 ****        -1.6512   0.7230  -0.8791 C.3            1 S1                 0.0000
     17 ****        -3.0890  -1.1824  -2.3782 H              1 S1                 0.0000
     18 ****        -1.7998  -2.3784  -2.4870 H              1 S1                 0.0000
     19 ****        -1.5898  -0.7922  -3.2177 H              1 S1                 0.0000
     20 ****        -0.3275  -0.9582  -1.0967 H              1 S1                 0.0000
     21 ****        -3.0347  -1.4771   0.2077 H              1 S1                 0.0000
     22 ****        -1.7259  -2.6258   0.0690 H              1 S1                 0.0000
     23 ****        -1.7885  -1.5724   2.3304 H              1 S1                 0.0000
     24 ****        -0.2808  -1.2502   1.5129 H              1 S1                 0.0000
     25 ****        -2.6579   0.6543   1.7585 H              1 S1                 0.0000
     26 ****        -1.1231   0.8296   2.5670 H              1 S1                 0.0000
     27 ****        -1.3859   2.3101   0.5596 H              1 S1                 0.0000
     28 ****         0.8360   0.4431   0.8384 H              1 S1                 0.0000
     29 ****         2.7648   1.0817   0.4206 H              1 S1                 0.0000
     30 ****         6.7952   3.6890  -1.5308 H              1 S1                 0.0000
     31 ****        -1.2368   1.2664  -1.7294 H              1 S1                 0.0000
     32 ****        -2.7248   0.9158  -0.8959 H              1 S1                 0.0000
     33 ****        -0.2200   3.3559  -0.7192 LP             1 S1                 0.0000
     34 ****         1.3979   3.8291  -1.1174 LP             1 S1                 0.0000
     35 ****         2.7192   4.4051  -1.1795 LP             1 S1                 0.0000
     36 ****         4.9661   5.2607  -1.8969 LP             1 S1                 0.0000
@<TRIPOS>BOND
    1    1    2 1     
    2    1   17 1     
    3    1   18 1     
    4    1   19 1     
    5    2   16 1     
    6    2    3 1     
    7    2   20 1     
    8    3    4 1     
    9    3   21 1     
   10    3   22 1     
   11    4    5 1     
   12    4   23 1     
   13    4   24 1     
   14    5    6 1     
   15    5   25 1     
   16    5   26 1     
   17    6    7 1     
   18    6   16 1     
   19    6   27 1     
   20    7    8 am    
   21    7   28 1     
   22    8    9 2     
   23    8   10 am    
   24   10   11 1     
   25   10   29 1     
   26   11   15 1     
   27   11   12 2     
   28   12   13 1     
   29   13   14 2     
   30   14   15 1     
   31   14   30 1     
   32   16   31 1     
   33   16   32 1     
   34    9   33 1     
   35    9   34 1     
   36   12   35 1     
   37   13   36 1     
@<TRIPOS>SUBSTRUCTURE
      1 S1             1
@<TRIPOS>SET
LONE_PAIRS      STATIC     ATOMS    <user>   **** ""
4 33 34 35 36
DONOR_HYDROGENS      STATIC     ATOMS    <user>   **** ""
2 28 29
ATOM$BLUE        STATIC     ATOMS    COLORGROUP SYSTEM
4 33 34 35 36
ATOM$RED        STATIC     ATOMS    COLORGROUP SYSTEM
2 28 29
