#       Name:                AV-unprocessed.smi:3348
#       Creating user name   scv26
#       Creation time:       Fri Mar 27 19:33:06 2020


#       File generated by GOLD software.
#

@<TRIPOS>MOLECULE
AV-unprocessed.smi:3348
    50    51     1
SMALL
NO_CHARGES


@<TRIPOS>ATOM
      1 ****        -2.3405   3.1688   0.9745 C.3            1 S1                 0.0000
      2 ****        -1.5264   2.8937  -0.2971 C.3            1 S1                 0.0000
      3 ****        -2.3861   3.1505  -1.5544 C.3            1 S1                 0.0000
      4 ****        -1.6402   3.0533  -2.7961 N.pl3          1 S1                 0.0000
      5 ****        -1.7860   2.1336  -3.8134 C.2            1 S1                 0.0000
      6 ****        -0.8727   2.4472  -4.7786 C.2            1 S1                 0.0000
      7 ****        -0.2128   3.5961  -4.2595 C.2            1 S1                 0.0000
      8 ****        -0.6766   3.9579  -3.0739 N.2            1 S1                 0.0000
      9 ****        -1.0251   1.5006  -0.2596 N.4            1 S1                 1.0000
     10 ****         0.3663   1.3146  -0.7233 C.3            1 S1                 0.0000
     11 ****         0.7723  -0.1598  -0.6492 C.3            1 S1                 0.0000
     12 ****         0.8270  -0.5451   0.7163 O.3            1 S1                 0.0000
     13 ****         1.1611  -1.9111   0.9315 C.3            1 S1                 0.0000
     14 ****        -0.1094  -2.7779   0.7965 C.3            1 S1                 0.0000
     15 ****         0.1656  -4.2447   1.1576 C.3            1 S1                 0.0000
     16 ****         0.7564  -4.3622   2.5691 C.3            1 S1                 0.0000
     17 ****         2.0275  -3.5112   2.7064 C.3            1 S1                 0.0000
     18 ****         1.7694  -2.0336   2.3476 C.3            1 S1                 0.0000
     19 ****         3.0608  -1.2110   2.4867 C.3            1 S1                 0.0000
     20 ****        -2.6994   4.1983   0.9961 H              1 S1                 0.0000
     21 ****        -1.7366   3.0147   1.8694 H              1 S1                 0.0000
     22 ****        -3.2093   2.5128   1.0415 H              1 S1                 0.0000
     23 ****        -0.6791   3.5814  -0.2887 H              1 S1                 0.0000
     24 ****        -3.2217   2.4503  -1.5936 H              1 S1                 0.0000
     25 ****        -2.8237   4.1490  -1.5096 H              1 S1                 0.0000
     26 ****        -2.5178   1.3404  -3.7671 H              1 S1                 0.0000
     27 ****        -0.7051   1.9373  -5.7158 H              1 S1                 0.0000
     28 ****         0.5825   4.1744  -4.7065 H              1 S1                 0.0000
     29 ****        -1.0551   1.1908   0.7015 H              1 S1                 0.0000
     30 ****         0.4597   1.6606  -1.7518 H              1 S1                 0.0000
     31 ****         1.0425   1.9203  -0.1187 H              1 S1                 0.0000
     32 ****         0.0672  -0.7717  -1.2120 H              1 S1                 0.0000
     33 ****         1.7552  -0.2922  -1.1036 H              1 S1                 0.0000
     34 ****         1.9083  -2.2366   0.2047 H              1 S1                 0.0000
     35 ****        -0.8905  -2.3853   1.4490 H              1 S1                 0.0000
     36 ****        -0.5039  -2.7294  -0.2179 H              1 S1                 0.0000
     37 ****        -0.7557  -4.8240   1.0905 H              1 S1                 0.0000
     38 ****         0.8570  -4.6768   0.4331 H              1 S1                 0.0000
     39 ****         0.0180  -4.0407   3.3049 H              1 S1                 0.0000
     40 ****         0.9818  -5.4054   2.7920 H              1 S1                 0.0000
     41 ****         2.4060  -3.5869   3.7264 H              1 S1                 0.0000
     42 ****         2.8061  -3.9177   2.0592 H              1 S1                 0.0000
     43 ****         1.0462  -1.6385   3.0627 H              1 S1                 0.0000
     44 ****         3.8267  -1.5550   1.7908 H              1 S1                 0.0000
     45 ****         3.4689  -1.2900   3.4947 H              1 S1                 0.0000
     46 ****         2.8837  -0.1534   2.2899 H              1 S1                 0.0000
     47 ****        -1.6438   0.9147  -0.8017 H              1 S1                 0.0000
     48 ****        -0.3799   4.7286  -2.5100 LP             1 S1                 0.0000
     49 ****        -0.0697  -0.3749   1.1249 LP             1 S1                 0.0000
     50 ****         1.5141   0.0200   1.1729 LP             1 S1                 0.0000
@<TRIPOS>BOND
    1    1    2 1     
    2    1   20 1     
    3    1   21 1     
    4    1   22 1     
    5    2    3 1     
    6    2    9 1     
    7    2   23 1     
    8    3    4 1     
    9    3   24 1     
   10    3   25 1     
   11    4    8 1     
   12    4    5 1     
   13    5    6 2     
   14    5   26 1     
   15    6    7 1     
   16    6   27 1     
   17    7    8 2     
   18    7   28 1     
   19    9   10 1     
   20    9   29 1     
   21    9   47 1     
   22   10   11 1     
   23   10   30 1     
   24   10   31 1     
   25   11   12 1     
   26   11   32 1     
   27   11   33 1     
   28   12   13 1     
   29   13   18 1     
   30   13   14 1     
   31   13   34 1     
   32   14   15 1     
   33   14   35 1     
   34   14   36 1     
   35   15   16 1     
   36   15   37 1     
   37   15   38 1     
   38   16   17 1     
   39   16   39 1     
   40   16   40 1     
   41   17   18 1     
   42   17   41 1     
   43   17   42 1     
   44   18   19 1     
   45   18   43 1     
   46   19   44 1     
   47   19   45 1     
   48   19   46 1     
   49    8   48 1     
   50   12   49 1     
   51   12   50 1     
@<TRIPOS>SUBSTRUCTURE
      1 S1             1
@<TRIPOS>SET
LONE_PAIRS      STATIC     ATOMS    <user>   **** ""
3 48 49 50
DONOR_HYDROGENS      STATIC     ATOMS    <user>   **** ""
2 29 47
ATOM$BLUE        STATIC     ATOMS    COLORGROUP SYSTEM
3 48 49 50
ATOM$RED        STATIC     ATOMS    COLORGROUP SYSTEM
2 29 47
