#       Name:                AV-unprocessed.smi:1789
#       Creating user name   scv26
#       Creation time:       Fri Mar 27 08:45:43 2020


#       File generated by GOLD software.
#

@<TRIPOS>MOLECULE
AV-unprocessed.smi:1789
    41    42     1
SMALL
NO_CHARGES


@<TRIPOS>ATOM
      1 ****        -6.5155  -2.2314  -0.7970 C.3            1 S1                 0.0000
      2 ****        -5.2211  -1.5215  -0.5943 C.2            1 S1                 0.0000
      3 ****        -3.9590  -1.9539  -0.2989 C.2            1 S1                 0.0000
      4 ****        -3.2101  -0.7482  -0.2539 C.2            1 S1                 0.0000
      5 ****        -1.8200  -0.7653   0.0262 N.am           1 S1                 0.0000
      6 ****        -0.9819   0.2839   0.0772 C.2            1 S1                 0.0000
      7 ****        -1.3030   1.4582  -0.1081 O.2            1 S1                 0.0000
      8 ****         0.2704  -0.1074   0.3544 N.am           1 S1                 0.0000
      9 ****         1.4253   0.7783   0.4657 C.3            1 S1                 0.0000
     10 ****         2.0244   1.0628  -0.9263 C.3            1 S1                 0.0000
     11 ****         3.2860   1.9382  -0.8309 C.3            1 S1                 0.0000
     12 ****         4.3412   1.3424   0.1200 C.3            1 S1                 0.0000
     13 ****         4.9082   0.1801  -0.4521 O.3            1 S1                 0.0000
     14 ****         3.7395   1.0139   1.4995 C.3            1 S1                 0.0000
     15 ****         2.4771   0.1405   1.3915 C.3            1 S1                 0.0000
     16 ****        -3.9489   0.3237  -0.4964 N.2            1 S1                 0.0000
     17 ****        -5.2416  -0.1665  -0.7150 O.3            1 S1                 0.0000
     18 ****        -6.3586  -3.3048  -0.9044 H              1 S1                 0.0000
     19 ****        -7.0176  -1.8722  -1.6956 H              1 S1                 0.0000
     20 ****        -7.1811  -2.0693   0.0508 H              1 S1                 0.0000
     21 ****        -3.6279  -2.9698  -0.1430 H              1 S1                 0.0000
     22 ****        -1.4189  -1.6753   0.1975 H              1 S1                 0.0000
     23 ****         0.4419  -1.0931   0.4897 H              1 S1                 0.0000
     24 ****         1.1088   1.7226   0.9136 H              1 S1                 0.0000
     25 ****         2.2706   0.1228  -1.4223 H              1 S1                 0.0000
     26 ****         1.2872   1.5583  -1.5592 H              1 S1                 0.0000
     27 ****         3.7127   2.0895  -1.8232 H              1 S1                 0.0000
     28 ****         3.0010   2.9270  -0.4696 H              1 S1                 0.0000
     29 ****         5.1517   2.0608   0.2462 H              1 S1                 0.0000
     30 ****         5.5936  -0.1322   0.1187 H              1 S1                 0.0000
     31 ****         4.4820   0.5238   2.1304 H              1 S1                 0.0000
     32 ****         3.4808   1.9454   2.0045 H              1 S1                 0.0000
     33 ****         2.0548  -0.0133   2.3853 H              1 S1                 0.0000
     34 ****         2.7496  -0.8475   1.0176 H              1 S1                 0.0000
     35 ****        -2.2535   1.6899  -0.3154 LP             1 S1                 0.0000
     36 ****        -0.6134   2.1801  -0.0512 LP             1 S1                 0.0000
     37 ****         5.2905   0.3984  -1.3499 LP             1 S1                 0.0000
     38 ****         4.2052  -0.5241  -0.5514 LP             1 S1                 0.0000
     39 ****        -3.6483   1.2772  -0.5185 LP             1 S1                 0.0000
     40 ****        -5.8676   0.2220  -0.0388 LP             1 S1                 0.0000
     41 ****        -5.5458   0.0848  -1.6338 LP             1 S1                 0.0000
@<TRIPOS>BOND
    1    1    2 1     
    2    1   18 1     
    3    1   19 1     
    4    1   20 1     
    5    2   17 1     
    6    2    3 2     
    7    3    4 1     
    8    3   21 1     
    9    4    5 1     
   10    4   16 2     
   11    5    6 am    
   12    5   22 1     
   13    6    7 2     
   14    6    8 am    
   15    8    9 1     
   16    8   23 1     
   17    9   15 1     
   18    9   10 1     
   19    9   24 1     
   20   10   11 1     
   21   10   25 1     
   22   10   26 1     
   23   11   12 1     
   24   11   27 1     
   25   11   28 1     
   26   12   13 1     
   27   12   14 1     
   28   12   29 1     
   29   13   30 1     
   30   14   15 1     
   31   14   31 1     
   32   14   32 1     
   33   15   33 1     
   34   15   34 1     
   35   16   17 1     
   36    7   35 1     
   37    7   36 1     
   38   13   37 1     
   39   13   38 1     
   40   16   39 1     
   41   17   40 1     
   42   17   41 1     
@<TRIPOS>SUBSTRUCTURE
      1 S1             1
@<TRIPOS>SET
LONE_PAIRS      STATIC     ATOMS    <user>   **** ""
7 35 36 37 38 39 40 41
DONOR_HYDROGENS      STATIC     ATOMS    <user>   **** ""
3 22 23 30
ATOM$BLUE        STATIC     ATOMS    COLORGROUP SYSTEM
7 35 36 37 38 39 40 41
ATOM$RED        STATIC     ATOMS    COLORGROUP SYSTEM
3 22 23 30
