AV-unprocessed.smi:1993|AV-procd|sdf|8070|dock9
  -GOLD-   2272010283D 1   1.00000     0.00000
 Structure written by MMmdl.
 50 51  0  0  0  0  0  0  0  0  1 V2000
  143.6581  137.1777  160.2238 C   0  0  0  0  0  0  0  0  0  0  0  0
  145.1113  137.4137  160.6218 C   0  0  0  0  0  0  0  0  0  0  0  0
  145.3820  138.2399  161.4925 O   0  0  0  0  0  0  0  0  0  0  0  0
  146.0371  136.6852  159.9776 N   0  0  0  0  0  0  0  0  0  0  0  0
  147.4822  136.7635  160.1981 C   0  0  2  0  0  0  0  0  0  0  0  0
  148.1927  136.1770  158.9641 C   0  0  0  0  0  0  0  0  0  0  0  0
  148.9430  135.2060  159.0772 O   0  0  0  0  0  0  0  0  0  0  0  0
  147.9580  136.7928  157.7959 N   0  0  0  0  0  0  0  0  0  0  0  0
  148.5720  136.4362  156.5233 C   0  0  0  0  0  0  0  0  0  0  0  0
  148.2194  137.4136  155.4095 C   0  0  0  0  0  0  0  0  0  0  0  0
  147.0089  137.2542  154.7025 C   0  0  0  0  0  0  0  0  0  0  0  0
  146.6911  138.1589  153.6733 C   0  0  0  0  0  0  0  0  0  0  0  0
  147.6018  139.1932  153.3899 C   0  0  0  0  0  0  0  0  0  0  0  0
  148.7641  139.3573  154.0549 N   0  0  0  0  0  0  0  0  0  0  0  0
  149.0733  138.4875  155.0472 C   0  0  0  0  0  0  0  0  0  0  0  0
  150.2991  138.6705  155.7084 N   0  0  0  0  0  0  0  0  0  0  0  0
  150.3825  139.8548  156.5546 C   0  0  0  0  0  0  0  0  0  0  0  0
  151.7055  139.8404  157.3396 C   0  0  0  0  0  0  0  0  0  0  0  0
  152.7992  139.7466  156.4304 O   0  0  0  0  0  0  0  0  0  0  0  0
  152.7475  138.5561  155.6486 C   0  0  0  0  0  0  0  0  0  0  0  0
  151.4490  138.5357  154.8247 C   0  0  0  0  0  0  0  0  0  0  0  0
  147.8442  135.9362  161.4673 C   0  0  0  0  0  0  0  0  0  0  0  0
  147.3399  134.4829  161.3693 C   0  0  0  0  0  0  0  0  0  0  0  0
  147.3112  136.5655  162.7713 C   0  0  0  0  0  0  0  0  0  0  0  0
  143.2712  138.0436  159.6864 H   0  0  0  0  0  0  0  0  0  0  0  0
  143.0443  137.0222  161.1114 H   0  0  0  0  0  0  0  0  0  0  0  0
  143.5554  136.3017  159.5823 H   0  0  0  0  0  0  0  0  0  0  0  0
  145.7219  136.0369  159.2705 H   0  0  0  0  0  0  0  0  0  0  0  0
  147.7803  137.8040  160.3456 H   0  0  0  0  0  0  0  0  0  0  0  0
  147.3225  137.5774  157.7918 H   0  0  0  0  0  0  0  0  0  0  0  0
  149.6558  136.3681  156.6332 H   0  0  0  0  0  0  0  0  0  0  0  0
  148.2389  135.4356  156.2463 H   0  0  0  0  0  0  0  0  0  0  0  0
  146.3323  136.4471  154.9426 H   0  0  0  0  0  0  0  0  0  0  0  0
  145.7720  138.0618  153.1147 H   0  0  0  0  0  0  0  0  0  0  0  0
  147.3925  139.9072  152.6073 H   0  0  0  0  0  0  0  0  0  0  0  0
  150.3287  140.7556  155.9415 H   0  0  0  0  0  0  0  0  0  0  0  0
  149.5363  139.8781  157.2422 H   0  0  0  0  0  0  0  0  0  0  0  0
  151.8062  140.7547  157.9245 H   0  0  0  0  0  0  0  0  0  0  0  0
  151.7317  139.0066  158.0430 H   0  0  0  0  0  0  0  0  0  0  0  0
  153.6131  138.5260  154.9868 H   0  0  0  0  0  0  0  0  0  0  0  0
  152.8098  137.6800  156.2961 H   0  0  0  0  0  0  0  0  0  0  0  0
  151.3795  137.6069  154.2603 H   0  0  0  0  0  0  0  0  0  0  0  0
  151.4512  139.3525  154.1014 H   0  0  0  0  0  0  0  0  0  0  0  0
  148.9315  135.8897  161.5531 H   0  0  0  0  0  0  0  0  0  0  0  0
  146.2569  134.4487  161.2457 H   0  0  0  0  0  0  0  0  0  0  0  0
  147.5881  133.9201  162.2698 H   0  0  0  0  0  0  0  0  0  0  0  0
  147.7875  133.9501  160.5303 H   0  0  0  0  0  0  0  0  0  0  0  0
  146.2252  136.6565  162.7475 H   0  0  0  0  0  0  0  0  0  0  0  0
  147.7272  137.5564  162.9547 H   0  0  0  0  0  0  0  0  0  0  0  0
  147.5698  135.9522  163.6349 H   0  0  0  0  0  0  0  0  0  0  0  0
  1  2  1  0  0  0  0
  1 25  1  0  0  0  0
  1 26  1  0  0  0  0
  1 27  1  0  0  0  0
  2  3  2  0  0  0  0
  2  4  1  0  0  0  0
  4  5  1  0  0  0  0
  4 28  1  0  0  0  0
  5  6  1  0  0  0  0
  5 22  1  0  0  0  0
  5 29  1  0  0  0  0
  6  7  2  0  0  0  0
  6  8  1  0  0  0  0
  8  9  1  0  0  0  0
  8 30  1  0  0  0  0
  9 10  1  0  0  0  0
  9 31  1  0  0  0  0
  9 32  1  0  0  0  0
 10 15  1  0  0  0  0
 10 11  2  0  0  0  0
 11 12  1  0  0  0  0
 11 33  1  0  0  0  0
 12 13  2  0  0  0  0
 12 34  1  0  0  0  0
 13 14  1  0  0  0  0
 13 35  1  0  0  0  0
 14 15  2  0  0  0  0
 15 16  1  0  0  0  0
 16 21  1  0  0  0  0
 16 17  1  0  0  0  0
 17 18  1  0  0  0  0
 17 36  1  0  0  0  0
 17 37  1  0  0  0  0
 18 19  1  0  0  0  0
 18 38  1  0  0  0  0
 18 39  1  0  0  0  0
 19 20  1  0  0  0  0
 20 21  1  0  0  0  0
 20 40  1  0  0  0  0
 20 41  1  0  0  0  0
 21 42  1  0  0  0  0
 21 43  1  0  0  0  0
 22 23  1  0  0  0  0
 22 24  1  0  0  0  0
 22 44  1  0  0  0  0
 23 45  1  0  0  0  0
 23 46  1  0  0  0  0
 23 47  1  0  0  0  0
 24 48  1  0  0  0  0
 24 49  1  0  0  0  0
 24 50  1  0  0  0  0
M  END
> <s_m_source_file>
AV-unprocessed.smi

> <i_m_source_file_index>
1993

> <i_lp_mmshare_version>
43012

> <i_f3d_flags>
0

> <s_epik_input>
W0NIM11DKD1PKVtOSF1bQ0BASF0oW0NIXShbQ0gzXSlbQ0gzXSlDKD1PKVtOSF1bQ0gyXWMxW2NIXVtjSF1bY0hdbmMxTjJbQ0gyXVtDSDJdT1tDSDJdW0NIMl0y

> <s_epik_cmdline>
J2VwaWtfcHl0aG9uJywgJy1waCcsICc3LjAnLCAnLXRuJywgJzgnLCAnLW1hJywgJzIwMCcsICctbWV0YWxfYmluZGluZycsICctaW1hZScsICc8aW5maWxlLm1hZT4nLCAnLW9tYWUnLCAnPG91dGZpbGUubWFlPic=

> <r_lp_tautomer_probability>
1

> <r_epik_Ionization_Penalty>
0.00485175

> <r_epik_Ionization_Penalty_Charging>
0

> <r_epik_Ionization_Penalty_Neutral>
0.00485175

> <r_epik_State_Penalty>
0.00351951

> <r_epik_Charging_Adjusted_Penalty>
0.00351951

> <i_epik_Tot_Q>
0

> <i_epik_Tot_abs_Q>
0

> <r_epik_Metal_State_Penalty>
-0

> <b_epik_Metal_Only>
0

> <s_lp_Force_Field>
OPLS_2005

> <r_lp_Energy>
19.1581

> <b_lp_Chiralities_Consistent>
1

> <s_lp_Variant>
AV-unprocessed.smi:1993-1

> <Gold.Version>
5.8.1

> <Gold.Id.Protein>
6NUR|6NUR_protein|mol2

> <Gold.PLP.Fitness>
37.1548

> <Gold.PLP.PLP>
-29.6048

> <Gold.PLP.part.hbond>
-3.0000

> <Gold.PLP.part.metal>
0.0000

> <Gold.PLP.part.buried>
-4.7623

> <Gold.PLP.part.nonpolar>
-22.7071

> <Gold.PLP.part.repulsive>
0.9411

> <Gold.PLP.ligand.clash>
0.0000

> <Gold.PLP.ligand.torsion>
0.7661

> <Gold.PLP.Chemscore.Hbond>
2.5920

> <Gold.PLP.Chemscore.CHOScore>
0.3754

> <Gold.PLP.Chemscore.Metal>
0.0000

> <Gold.Chemscore.Hbonds>
donor molecule, donor type, donor heavy atom, donor atom, acceptor molecule, acceptor atom, score
      P1  H  6896  6908       L1     7  1.00
      P1  H  6934  6947       L1     3  0.58
      P1  H  7997  8010       L1    19  0.75
      L1  C    13    35       P1  7957  0.39

> <Gold.PLP.Chemscore.Internal.Correction>
0.1800

> <Gold.Rescore>
     Score         DG    S(hbond)    S(metal)    S(lipo)     H(rot)  DE(clash)    DE(int)     intcor
     15.61     -17.58       2.82        0.00      70.51       2.18       0.10       1.87       ----

> <Gold.Chemscore.Fitness>
15.6102

> <Gold.Chemscore.DG>
-17.5771

> <Gold.Chemscore.ZeroCoef>
-5.4800

> <Gold.Chemscore.Hbond>
2.8238

> <Gold.Chemscore.Metal>
0.0000

> <Gold.Chemscore.Lipo>
70.5109

> <Gold.Chemscore.Internal_Hbond>
0.0000

> <Gold.Chemscore.DEClash>
0.0982

> <Gold.Chemscore.DEInternal>
1.8687

> <Gold.Chemscore.Rot>
2.1813

> <Gold.Chemscore.Internal.Correction>
   9.000000E+99

> <Gold.Chemscore.Hbonds>
donor molecule, donor type, donor heavy atom, donor atom, acceptor molecule, acceptor atom, score
      P1  H  6896  6908       L1     7  0.99
      P1  H  6934  6947       L1     3  0.31
      P1  H  7997  8010       L1    19  0.13

> <Gold.Chemscore.Hbond.Weighted>
-9.4315

> <Gold.Chemscore.Metal.Weighted>
-0.0000

> <Gold.Chemscore.Lipo.Weighted>
-8.2498

> <Gold.Chemscore.Internal_Hbond.Weighted>
0.0000

> <Gold.Chemscore.DEClash.Weighted>
0.0982

> <Gold.Chemscore.DEInternal.Weighted>
1.8687

> <Gold.Chemscore.Rot.Weighted>
5.5842

> <Gold.Chemscore.Internal.Correction.Weighted>
   9.000000E+99

> <Gold.Protein.RotatedTorsions>
[ 6907 6896 6895 6894 ] final  155.82 input  -60.11 | X-H torsion
[ 7974 7965 7964 7962 ] final  -56.51 input  175.53 | X-H torsion
[ 8008 7997 7996 7995 ] final   97.09 input   59.86 | X-H torsion
[ 10167 10162 10161 10158 ] final  -88.04 input  -65.29 | X-H torsion
[ 10718 10713 10712 10709 ] final  142.82 input   66.30 | X-H torsion
[ 10763 10752 10751 10750 ] final -156.53 input  -60.55 | X-H torsion
[ 11005 11000 10999 10996 ] final   22.57 input  -57.11 | X-H torsion

> <Gold.Protein.ActiveResidues>
 VAL166  LYS551  ARG553  GLY616  TRP617  ASP618  TYR619  PRO620  LYS621  CYS622 
 ASP623  PHE694  ASN695  SER759  ASP760  ASP761  ALA762  ILE779  LEU786  VAL792 
 PHE793  MET794  SER795  GLU796  ALA797  LYS798  CYS799  TRP800  GLU811  SER814 

> <Gold.Protein.RotatedAtoms>
  152.0386  133.3967  159.4326 H   0  0  0  0  0  0  0  0  0  0  0  0  # atno 6907 bound_to 6896
  150.6877  134.3441  159.4889 H   0  0  0  0  0  0  0  0  0  0  0  0  # atno 6908 bound_to 6896
  152.1236  134.9187  160.0612 H   0  0  0  0  0  0  0  0  0  0  0  0  # atno 6909 bound_to 6896
  145.8618  140.8280  142.9933 H   0  0  0  0  0  0  0  0  0  0  0  0  # atno 7974 bound_to 7965
  156.0865  140.3263  155.7760 H   0  0  0  0  0  0  0  0  0  0  0  0  # atno 8008 bound_to 7997
  155.5067  140.0573  157.2947 H   0  0  0  0  0  0  0  0  0  0  0  0  # atno 8009 bound_to 7997
  154.4612  140.1967  156.0256 H   0  0  0  0  0  0  0  0  0  0  0  0  # atno 8010 bound_to 7997
  140.3786  143.2759  151.9412 H   0  0  0  0  0  0  0  0  0  0  0  0  # atno 10167 bound_to 10162
  157.3761  131.0985  151.0783 H   0  0  0  0  0  0  0  0  0  0  0  0  # atno 10718 bound_to 10713
  154.7705  135.3144  154.8198 H   0  0  0  0  0  0  0  0  0  0  0  0  # atno 10763 bound_to 10752
  153.8935  135.6823  153.4763 H   0  0  0  0  0  0  0  0  0  0  0  0  # atno 10764 bound_to 10752
  153.1318  135.4777  154.9296 H   0  0  0  0  0  0  0  0  0  0  0  0  # atno 10765 bound_to 10752
  140.3791  134.1940  155.7664 H   0  0  0  0  0  0  0  0  0  0  0  0  # atno 11005 bound_to 11000
  144.6726  140.1107  143.7455 LP  0  0  0  0  0  0  0  0  0  0  0  0  # atno 17320 bound_to 7965
  145.9239  139.2563  143.1365 LP  0  0  0  0  0  0  0  0  0  0  0  0  # atno 17321 bound_to 7965
  139.4797  144.5840  151.7885 LP  0  0  0  0  0  0  0  0  0  0  0  0  # atno 17342 bound_to 10162
  140.4961  144.1239  150.5960 LP  0  0  0  0  0  0  0  0  0  0  0  0  # atno 17343 bound_to 10162
  157.1869  130.6334  149.5691 LP  0  0  0  0  0  0  0  0  0  0  0  0  # atno 17370 bound_to 10713
  155.9765  130.4735  150.6535 LP  0  0  0  0  0  0  0  0  0  0  0  0  # atno 17371 bound_to 10713
  141.1929  133.8162  157.0819 LP  0  0  0  0  0  0  0  0  0  0  0  0  # atno 17394 bound_to 11000
  140.0492  134.9814  157.1105 LP  0  0  0  0  0  0  0  0  0  0  0  0  # atno 17395 bound_to 11000

$$$$
