#       Name:                AV-unprocessed.smi:3106
#       Creating user name   scv26
#       Creation time:       Fri Mar 27 17:19:54 2020


#       File generated by GOLD software.
#

@<TRIPOS>MOLECULE
AV-unprocessed.smi:3106
    34    35     1
SMALL
NO_CHARGES


@<TRIPOS>ATOM
      1 ****        -5.5682   0.1527   0.4540 C.3            1 S1                 0.0000
      2 ****        -4.0636  -0.0176   0.4410 C.ar           1 S1                 0.0000
      3 ****        -3.4334  -0.9191   1.3189 C.ar           1 S1                 0.0000
      4 ****        -2.0313  -1.0420   1.2750 C.ar           1 S1                 0.0000
      5 ****        -1.2931  -0.2627   0.3561 C.ar           1 S1                 0.0000
      6 ****         0.1129  -0.4595   0.3948 N.am           1 S1                 0.0000
      7 ****         1.0600   0.1279  -0.3601 C.2            1 S1                 0.0000
      8 ****         0.8380   0.9658  -1.2351 O.2            1 S1                 0.0000
      9 ****         2.5024  -0.2973  -0.0605 C.3            1 S1                 0.0000
     10 ****         3.3747  -0.4919  -1.3152 C.3            1 S1                 0.0000
     11 ****         4.3406   0.6757  -1.2657 C.3            1 S1                 0.0000
     12 ****         4.4560   0.9198   0.2319 C.3            1 S1                 0.0000
     13 ****         3.1241   0.7454   0.6891 O.3            1 S1                 0.0000
     14 ****        -1.9096   0.6028  -0.4871 N.ar           1 S1                 0.0000
     15 ****        -3.2534   0.7208  -0.4438 C.ar           1 S1                 0.0000
     16 ****        -6.0615  -0.8196   0.4496 H              1 S1                 0.0000
     17 ****        -5.9100   0.7108  -0.4182 H              1 S1                 0.0000
     18 ****        -5.8780   0.6922   1.3494 H              1 S1                 0.0000
     19 ****        -4.0124  -1.5075   2.0158 H              1 S1                 0.0000
     20 ****        -1.5321  -1.7289   1.9431 H              1 S1                 0.0000
     21 ****         0.4398  -1.1251   1.0796 H              1 S1                 0.0000
     22 ****         2.5094  -1.2130   0.5334 H              1 S1                 0.0000
     23 ****         3.9233  -1.4315  -1.2375 H              1 S1                 0.0000
     24 ****         2.8139  -0.5208  -2.2505 H              1 S1                 0.0000
     25 ****         5.2986   0.4609  -1.7398 H              1 S1                 0.0000
     26 ****         3.9019   1.5471  -1.7539 H              1 S1                 0.0000
     27 ****         5.1036   0.1769   0.7000 H              1 S1                 0.0000
     28 ****         4.8371   1.9128   0.4711 H              1 S1                 0.0000
     29 ****        -3.6906   1.4260  -1.1352 H              1 S1                 0.0000
     30 ****        -0.1006   1.2536  -1.4251 LP             1 S1                 0.0000
     31 ****         1.5964   1.3582  -1.7555 LP             1 S1                 0.0000
     32 ****         3.1329   0.5006   1.6586 LP             1 S1                 0.0000
     33 ****         2.6139   1.5964   0.5648 LP             1 S1                 0.0000
     34 ****        -1.3746   1.1471  -1.1333 LP             1 S1                 0.0000
@<TRIPOS>BOND
    1    1    2 1     
    2    1   16 1     
    3    1   17 1     
    4    1   18 1     
    5    2   15 ar    
    6    2    3 ar    
    7    3    4 ar    
    8    3   19 1     
    9    4    5 ar    
   10    4   20 1     
   11    5    6 1     
   12    5   14 ar    
   13    6    7 am    
   14    6   21 1     
   15    7    8 2     
   16    7    9 1     
   17    9   13 1     
   18    9   10 1     
   19    9   22 1     
   20   10   11 1     
   21   10   23 1     
   22   10   24 1     
   23   11   12 1     
   24   11   25 1     
   25   11   26 1     
   26   12   13 1     
   27   12   27 1     
   28   12   28 1     
   29   14   15 ar    
   30   15   29 1     
   31    8   30 1     
   32    8   31 1     
   33   13   32 1     
   34   13   33 1     
   35   14   34 1     
@<TRIPOS>SUBSTRUCTURE
      1 S1             1
@<TRIPOS>SET
LONE_PAIRS      STATIC     ATOMS    <user>   **** ""
5 30 31 32 33 34
DONOR_HYDROGENS      STATIC     ATOMS    <user>   **** ""
1 21
ATOM$BLUE        STATIC     ATOMS    COLORGROUP SYSTEM
5 30 31 32 33 34
ATOM$RED        STATIC     ATOMS    COLORGROUP SYSTEM
1 21
