AV-unprocessed.smi:2965|AV-procd|sdf|11322|dock2
  -GOLD-   2272016223D 1   1.00000     0.00000
 Structure written by MMmdl.
 36 37  0  0  0  0  0  0  0  0  1 V2000
  149.8738  136.7217  156.9518 O   0  0  0  0  0  0  0  0  0  0  0  0
  150.3086  137.4002  157.8837 C   0  0  0  0  0  0  0  0  0  0  0  0
  151.6607  138.1196  157.7735 C   0  0  0  0  0  0  0  0  0  0  0  0
  151.5390  139.5832  157.6647 N   0  0  0  0  0  0  0  0  0  0  0  0
  152.1862  140.3554  158.6495 C   0  0  0  0  0  0  0  0  0  0  0  0
  152.1440  141.7015  158.6704 C   0  0  0  0  0  0  0  0  0  0  0  0
  152.9020  142.5126  159.7100 C   0  0  0  0  0  0  0  0  0  0  0  0
  152.3628  142.3615  160.9198 F   0  0  0  0  0  0  0  0  0  0  0  0
  154.1687  142.1039  159.7670 F   0  0  0  0  0  0  0  0  0  0  0  0
  152.8977  143.8119  159.4087 F   0  0  0  0  0  0  0  0  0  0  0  0
  151.4144  142.3406  157.5929 C   0  0  0  0  0  0  0  0  0  0  0  0
  150.8009  141.6174  156.6359 C   0  0  0  0  0  0  0  0  0  0  0  0
  150.8403  140.1534  156.6378 C   0  0  0  0  0  0  0  0  0  0  0  0
  150.2811  139.4817  155.7705 O   0  0  0  0  0  0  0  0  0  0  0  0
  149.6608  137.5465  159.0490 N   0  0  0  0  0  0  0  0  0  0  0  0
  148.3747  136.9420  159.3761 C   0  0  0  0  0  0  0  0  0  0  0  0
  148.3835  136.3136  160.7794 C   0  0  2  0  0  0  0  0  0  0  0  0
  147.5509  135.0378  160.8861 C   0  0  0  0  0  0  0  0  0  0  0  0
  147.2453  134.9997  162.3657 C   0  0  0  0  0  0  0  0  0  0  0  0
  147.0236  136.4771  162.6777 C   0  0  0  0  0  0  0  0  0  0  0  0
  147.8078  137.2028  161.7336 O   0  0  0  0  0  0  0  0  0  0  0  0
  152.2794  137.8579  158.6342 H   0  0  0  0  0  0  0  0  0  0  0  0
  152.1904  137.7154  156.9097 H   0  0  0  0  0  0  0  0  0  0  0  0
  152.7301  139.7802  159.3848 H   0  0  0  0  0  0  0  0  0  0  0  0
  151.3560  143.4184  157.5539 H   0  0  0  0  0  0  0  0  0  0  0  0
  150.2650  142.1276  155.8488 H   0  0  0  0  0  0  0  0  0  0  0  0
  150.0926  138.1120  159.7654 H   0  0  0  0  0  0  0  0  0  0  0  0
  147.6075  137.7143  159.3164 H   0  0  0  0  0  0  0  0  0  0  0  0
  148.1176  136.1910  158.6272 H   0  0  0  0  0  0  0  0  0  0  0  0
  149.4047  136.0945  161.0960 H   0  0  0  0  0  0  0  0  0  0  0  0
  146.6251  135.1314  160.3167 H   0  0  0  0  0  0  0  0  0  0  0  0
  148.0820  134.1524  160.5351 H   0  0  0  0  0  0  0  0  0  0  0  0
  146.3846  134.3772  162.6121 H   0  0  0  0  0  0  0  0  0  0  0  0
  148.1091  134.6243  162.9161 H   0  0  0  0  0  0  0  0  0  0  0  0
  145.9763  136.7448  162.5332 H   0  0  0  0  0  0  0  0  0  0  0  0
  147.2989  136.7296  163.7018 H   0  0  0  0  0  0  0  0  0  0  0  0
  1  2  2  0  0  0  0
  2  3  1  0  0  0  0
  2 15  1  0  0  0  0
  3  4  1  0  0  0  0
  3 22  1  0  0  0  0
  3 23  1  0  0  0  0
  4 13  1  0  0  0  0
  4  5  1  0  0  0  0
  5  6  2  0  0  0  0
  5 24  1  0  0  0  0
  6  7  1  0  0  0  0
  6 11  1  0  0  0  0
  7  8  1  0  0  0  0
  7  9  1  0  0  0  0
  7 10  1  0  0  0  0
 11 12  2  0  0  0  0
 11 25  1  0  0  0  0
 12 13  1  0  0  0  0
 12 26  1  0  0  0  0
 13 14  2  0  0  0  0
 15 16  1  0  0  0  0
 15 27  1  0  0  0  0
 16 17  1  0  0  0  0
 16 28  1  0  0  0  0
 16 29  1  0  0  0  0
 17 21  1  0  0  0  0
 17 18  1  0  0  0  0
 17 30  1  0  0  0  0
 18 19  1  0  0  0  0
 18 31  1  0  0  0  0
 18 32  1  0  0  0  0
 19 20  1  0  0  0  0
 19 33  1  0  0  0  0
 19 34  1  0  0  0  0
 20 21  1  0  0  0  0
 20 35  1  0  0  0  0
 20 36  1  0  0  0  0
M  END
> <s_m_source_file>
AV-unprocessed.smi

> <i_m_source_file_index>
2965

> <i_lp_mmshare_version>
43012

> <i_f3d_flags>
0

> <s_epik_input>
TzFbQ0gyXVtDSDJdW0NIMl1bQ0BIXTFbQ0gyXVtOSF1DKD1PKVtDSDJdbjJbY0hdYyhDKEYpKEYpRilbY0hdW2NIXWMyPU8=

> <s_epik_cmdline>
J2VwaWtfcHl0aG9uJywgJy1waCcsICc3LjAnLCAnLXRuJywgJzgnLCAnLW1hJywgJzIwMCcsICctbWV0YWxfYmluZGluZycsICctaW1hZScsICc8aW5maWxlLm1hZT4nLCAnLW9tYWUnLCAnPG91dGZpbGUubWFlPic=

> <r_lp_tautomer_probability>
1

> <r_epik_Ionization_Penalty>
4.53327e-08

> <r_epik_Ionization_Penalty_Charging>
1.84737e-08

> <r_epik_Ionization_Penalty_Neutral>
2.6859e-08

> <r_epik_State_Penalty>
-0

> <r_epik_Charging_Adjusted_Penalty>
1.84737e-08

> <i_epik_Tot_Q>
0

> <i_epik_Tot_abs_Q>
0

> <r_epik_Metal_State_Penalty>
-0

> <b_epik_Metal_Only>
0

> <s_lp_Force_Field>
OPLS_2005

> <r_lp_Energy>
28.8202

> <b_lp_Chiralities_Consistent>
1

> <s_lp_Variant>
AV-unprocessed.smi:2965-1

> <Gold.Version>
5.8.1

> <Gold.Id.Protein>
6NUR|6NUR_protein|mol2

> <Gold.PLP.Fitness>
45.5788

> <Gold.PLP.PLP>
-42.7904

> <Gold.PLP.part.hbond>
-2.0000

> <Gold.PLP.part.metal>
0.0000

> <Gold.PLP.part.buried>
-4.9254

> <Gold.PLP.part.nonpolar>
-34.7092

> <Gold.PLP.part.repulsive>
0.2291

> <Gold.PLP.ligand.clash>
0.0000

> <Gold.PLP.ligand.torsion>
0.8989

> <Gold.PLP.Chemscore.Hbond>
1.5096

> <Gold.PLP.Chemscore.CHOScore>
0.0000

> <Gold.PLP.Chemscore.Metal>
0.0000

> <Gold.Chemscore.Hbonds>
donor molecule, donor type, donor heavy atom, donor atom, acceptor molecule, acceptor atom, score
      P1  H  6931  6943       L1    21  1.00
      P1  H  6934  6947       L1    21  0.59

> <Gold.PLP.Chemscore.Internal.Correction>
0.0574

> <Gold.Rescore>
     Score         DG    S(hbond)    S(metal)    S(lipo)     H(rot)  DE(clash)    DE(int)     intcor
     14.92     -15.98       1.88        0.00      77.10       1.87       0.28       0.78       ----

> <Gold.Chemscore.Fitness>
14.9223

> <Gold.Chemscore.DG>
-15.9816

> <Gold.Chemscore.ZeroCoef>
-5.4800

> <Gold.Chemscore.Hbond>
1.8753

> <Gold.Chemscore.Metal>
0.0000

> <Gold.Chemscore.Lipo>
77.0976

> <Gold.Chemscore.Internal_Hbond>
0.0000

> <Gold.Chemscore.DEClash>
0.2797

> <Gold.Chemscore.DEInternal>
0.7797

> <Gold.Chemscore.Rot>
1.8681

> <Gold.Chemscore.Internal.Correction>
   9.000000E+99

> <Gold.Chemscore.Hbonds>
donor molecule, donor type, donor heavy atom, donor atom, acceptor molecule, acceptor atom, score
      P1  H  6931  6943       L1    21  0.25
      P1  H  6934  6947       L1    21  0.51

> <Gold.Chemscore.Hbond.Weighted>
-6.2634

> <Gold.Chemscore.Metal.Weighted>
-0.0000

> <Gold.Chemscore.Lipo.Weighted>
-9.0204

> <Gold.Chemscore.Internal_Hbond.Weighted>
0.0000

> <Gold.Chemscore.DEClash.Weighted>
0.2797

> <Gold.Chemscore.DEInternal.Weighted>
0.7797

> <Gold.Chemscore.Rot.Weighted>
4.7822

> <Gold.Chemscore.Internal.Correction.Weighted>
   9.000000E+99

> <Gold.Protein.RotatedTorsions>
[ 6907 6896 6895 6894 ] final  -83.81 input  -60.11 | X-H torsion
[ 7974 7965 7964 7962 ] final   79.74 input  175.53 | X-H torsion
[ 8008 7997 7996 7995 ] final  -91.72 input   59.86 | X-H torsion
[ 10167 10162 10161 10158 ] final   10.76 input  -65.29 | X-H torsion
[ 10718 10713 10712 10709 ] final   -1.69 input   66.30 | X-H torsion
[ 10763 10752 10751 10750 ] final   28.69 input  -60.55 | X-H torsion
[ 11005 11000 10999 10996 ] final -152.76 input  -57.11 | X-H torsion

> <Gold.Protein.ActiveResidues>
 VAL166  LYS551  ARG553  GLY616  TRP617  ASP618  TYR619  PRO620  LYS621  CYS622 
 ASP623  PHE694  ASN695  SER759  ASP760  ASP761  ALA762  ILE779  LEU786  VAL792 
 PHE793  MET794  SER795  GLU796  ALA797  LYS798  CYS799  TRP800  GLU811  SER814 

> <Gold.Protein.RotatedAtoms>
  150.6882  134.3455  159.4886 H   0  0  0  0  0  0  0  0  0  0  0  0  # atno 6907 bound_to 6896
  152.1303  134.9137  160.0568 H   0  0  0  0  0  0  0  0  0  0  0  0  # atno 6908 bound_to 6896
  152.0309  133.3902  159.4334 H   0  0  0  0  0  0  0  0  0  0  0  0  # atno 6909 bound_to 6896
  145.6602  139.2469  143.1927 H   0  0  0  0  0  0  0  0  0  0  0  0  # atno 7974 bound_to 7965
  154.7142  140.0516  157.0579 H   0  0  0  0  0  0  0  0  0  0  0  0  # atno 8008 bound_to 7997
  155.0514  140.3179  155.4672 H   0  0  0  0  0  0  0  0  0  0  0  0  # atno 8009 bound_to 7997
  156.2798  140.2115  156.5639 H   0  0  0  0  0  0  0  0  0  0  0  0  # atno 8010 bound_to 7997
  140.6174  143.8278  150.7134 H   0  0  0  0  0  0  0  0  0  0  0  0  # atno 10167 bound_to 10162
  156.8018  130.5395  149.5720 H   0  0  0  0  0  0  0  0  0  0  0  0  # atno 10718 bound_to 10713
  153.0476  135.6507  154.0776 H   0  0  0  0  0  0  0  0  0  0  0  0  # atno 10763 bound_to 10752
  154.0471  135.2898  155.3348 H   0  0  0  0  0  0  0  0  0  0  0  0  # atno 10764 bound_to 10752
  154.6744  135.5344  153.8246 H   0  0  0  0  0  0  0  0  0  0  0  0  # atno 10765 bound_to 10752
  140.7154  134.3786  157.5191 H   0  0  0  0  0  0  0  0  0  0  0  0  # atno 11005 bound_to 11000
  146.1131  140.7403  142.9493 LP  0  0  0  0  0  0  0  0  0  0  0  0  # atno 17320 bound_to 7965
  144.7091  140.3971  143.7094 LP  0  0  0  0  0  0  0  0  0  0  0  0  # atno 17321 bound_to 7965
  140.1861  143.4075  152.1898 LP  0  0  0  0  0  0  0  0  0  0  0  0  # atno 17342 bound_to 10162
  139.5410  144.7256  151.4735 LP  0  0  0  0  0  0  0  0  0  0  0  0  # atno 17343 bound_to 10162
  156.1097  130.6031  151.0027 LP  0  0  0  0  0  0  0  0  0  0  0  0  # atno 17370 bound_to 10713
  157.6550  131.0891  150.7968 LP  0  0  0  0  0  0  0  0  0  0  0  0  # atno 17371 bound_to 10713
  139.8861  134.8919  156.2604 LP  0  0  0  0  0  0  0  0  0  0  0  0  # atno 17394 bound_to 11000
  141.0049  133.7129  156.1019 LP  0  0  0  0  0  0  0  0  0  0  0  0  # atno 17395 bound_to 11000

$$$$
