#       Name:                AV-unprocessed.smi:2089
#       Creating user name   scv26
#       Creation time:       Fri Mar 27 11:24:56 2020


#       File generated by GOLD software.
#

@<TRIPOS>MOLECULE
AV-unprocessed.smi:2089
    43    44     1
SMALL
NO_CHARGES


@<TRIPOS>ATOM
      1 ****        -2.4724   3.9816  -0.9105 C.3            1 S1                 0.0000
      2 ****        -2.5872   2.1477  -0.9903 S.o2           1 S1                 0.0000
      3 ****        -3.9190   1.7668  -1.4849 O.2            1 S1                 0.0000
      4 ****        -1.3827   1.6431  -1.6673 O.2            1 S1                 0.0000
      5 ****        -2.4912   1.6823   0.6758 N.3            1 S1                 0.0000
      6 ****        -3.5693   2.1076   1.5794 C.3            1 S1                 0.0000
      7 ****        -4.1223   0.8250   2.1918 C.3            1 S1                 0.0000
      8 ****        -2.9007  -0.0785   2.2518 C.3            1 S1                 0.0000
      9 ****        -2.1179   0.2893   0.9800 C.3            1 S1                 0.0000
     10 ****        -0.6055   0.0786   1.1244 C.2            1 S1                 0.0000
     11 ****         0.0035   0.5647   2.0781 O.2            1 S1                 0.0000
     12 ****        -0.0062  -0.6305   0.1573 N.am           1 S1                 0.0000
     13 ****         1.4220  -0.9084   0.1078 C.3            1 S1                 0.0000
     14 ****         1.7562  -1.8329  -1.0708 C.3            1 S1                 0.0000
     15 ****         3.2395  -2.1396  -1.1534 C.ar           1 S1                 0.0000
     16 ****         4.0684  -1.4516  -2.0650 C.ar           1 S1                 0.0000
     17 ****         5.4412  -1.7651  -2.0916 C.ar           1 S1                 0.0000
     18 ****         5.9298  -2.7482  -1.2096 C.ar           1 S1                 0.0000
     19 ****         5.0197  -3.3777  -0.3373 C.ar           1 S1                 0.0000
     20 ****         3.7016  -3.0849  -0.3041 N.ar           1 S1                 0.0000
     21 ****        -2.4834   4.3882  -1.9216 H              1 S1                 0.0000
     22 ****        -1.5438   4.2665  -0.4163 H              1 S1                 0.0000
     23 ****        -3.3185   4.3821  -0.3529 H              1 S1                 0.0000
     24 ****        -3.1435   2.7495   2.3512 H              1 S1                 0.0000
     25 ****        -4.3403   2.6733   1.0559 H              1 S1                 0.0000
     26 ****        -4.5815   0.9847   3.1676 H              1 S1                 0.0000
     27 ****        -4.8732   0.3916   1.5300 H              1 S1                 0.0000
     28 ****        -2.3314   0.1398   3.1568 H              1 S1                 0.0000
     29 ****        -3.1754  -1.1335   2.2792 H              1 S1                 0.0000
     30 ****        -2.4922  -0.3381   0.1684 H              1 S1                 0.0000
     31 ****        -0.5726  -0.9828  -0.6008 H              1 S1                 0.0000
     32 ****         1.9671   0.0320   0.0116 H              1 S1                 0.0000
     33 ****         1.7351  -1.3697   1.0460 H              1 S1                 0.0000
     34 ****         1.2062  -2.7707  -0.9792 H              1 S1                 0.0000
     35 ****         1.4313  -1.3767  -2.0070 H              1 S1                 0.0000
     36 ****         3.6645  -0.6989  -2.7261 H              1 S1                 0.0000
     37 ****         6.1076  -1.2597  -2.7747 H              1 S1                 0.0000
     38 ****         6.9767  -3.0130  -1.2008 H              1 S1                 0.0000
     39 ****         5.3594  -4.1357   0.3529 H              1 S1                 0.0000
     40 ****        -1.6983   2.2552   0.8835 LP             1 S1                 0.0000
     41 ****        -0.4880   1.1007   2.7644 LP             1 S1                 0.0000
     42 ****         0.9896   0.4235   2.1661 LP             1 S1                 0.0000
     43 ****         3.0859  -3.5531   0.3296 LP             1 S1                 0.0000
@<TRIPOS>BOND
    1    1    2 1     
    2    1   21 1     
    3    1   22 1     
    4    1   23 1     
    5    2    3 2     
    6    2    4 2     
    7    2    5 1     
    8    5    9 1     
    9    5    6 1     
   10    6    7 1     
   11    6   24 1     
   12    6   25 1     
   13    7    8 1     
   14    7   26 1     
   15    7   27 1     
   16    8    9 1     
   17    8   28 1     
   18    8   29 1     
   19    9   10 1     
   20    9   30 1     
   21   10   11 2     
   22   10   12 am    
   23   12   13 1     
   24   12   31 1     
   25   13   14 1     
   26   13   32 1     
   27   13   33 1     
   28   14   15 1     
   29   14   34 1     
   30   14   35 1     
   31   15   20 ar    
   32   15   16 ar    
   33   16   17 ar    
   34   16   36 1     
   35   17   18 ar    
   36   17   37 1     
   37   18   19 ar    
   38   18   38 1     
   39   19   20 ar    
   40   19   39 1     
   41    5   40 1     
   42   11   41 1     
   43   11   42 1     
   44   20   43 1     
@<TRIPOS>SUBSTRUCTURE
      1 S1             1
@<TRIPOS>SET
LONE_PAIRS      STATIC     ATOMS    <user>   **** ""
6 3 4 40 41 42 43
DONOR_HYDROGENS      STATIC     ATOMS    <user>   **** ""
1 31
ATOM$BLUE        STATIC     ATOMS    COLORGROUP SYSTEM
6 3 4 40 41 42 43
ATOM$RED        STATIC     ATOMS    COLORGROUP SYSTEM
1 31
