#       Name:                AV-unprocessed.smi:2507
#       Creating user name   scv26
#       Creation time:       Fri Mar 27 13:49:14 2020


#       File generated by GOLD software.
#

@<TRIPOS>MOLECULE
AV-unprocessed.smi:2507
    49    50     1
SMALL
NO_CHARGES


@<TRIPOS>ATOM
      1 ****        -3.8308  -3.8059   2.0495 C.3            1 S1                 0.0000
      2 ****        -3.8697  -3.2851   0.6084 C.3            1 S1                 0.0000
      3 ****        -4.2887  -1.8419   0.5404 C.2            1 S1                 0.0000
      4 ****        -5.5699  -1.5196   0.6590 N.2            1 S1                 0.0000
      5 ****        -5.6082  -0.1695   0.5589 N.pl3          1 S1                 0.0000
      6 ****        -6.8817   0.5119   0.6476 C.3            1 S1                 0.0000
      7 ****        -4.3548   0.3771   0.3757 C.2            1 S1                 0.0000
      8 ****        -3.4893  -0.6801   0.3604 C.2            1 S1                 0.0000
      9 ****        -2.0794  -0.6793   0.2014 N.am           1 S1                 0.0000
     10 ****        -1.2812   0.3818  -0.0003 C.2            1 S1                 0.0000
     11 ****        -1.6580   1.5527  -0.0541 O.2            1 S1                 0.0000
     12 ****        -0.0019   0.0101  -0.1396 N.am           1 S1                 0.0000
     13 ****         1.1010   0.9318  -0.3750 C.3            1 S1                 0.0000
     14 ****         2.3944   0.1623  -0.6811 C.3            1 S1                 0.0000
     15 ****         3.5902   1.0896  -0.9514 C.3            1 S1                 0.0000
     16 ****         4.8373   0.3067  -1.4068 C.3            1 S1                 0.0000
     17 ****         6.0298   1.2522  -1.5913 C.3            1 S1                 0.0000
     18 ****         6.2372   2.0778  -0.3173 C.3            1 S1                 0.0000
     19 ****         4.9254   2.7649   0.0943 C.3            1 S1                 0.0000
     20 ****         3.8964   1.7928   0.2514 O.3            1 S1                 0.0000
     21 ****        -3.5180  -4.8498   2.0765 H              1 S1                 0.0000
     22 ****        -4.8133  -3.7416   2.5182 H              1 S1                 0.0000
     23 ****        -3.1303  -3.2317   2.6568 H              1 S1                 0.0000
     24 ****        -2.8868  -3.4108   0.1538 H              1 S1                 0.0000
     25 ****        -4.5523  -3.8994   0.0202 H              1 S1                 0.0000
     26 ****        -6.7311   1.5913   0.6171 H              1 S1                 0.0000
     27 ****        -7.3775   0.2504   1.5830 H              1 S1                 0.0000
     28 ****        -7.5155   0.2179  -0.1896 H              1 S1                 0.0000
     29 ****        -4.2025   1.4416   0.2758 H              1 S1                 0.0000
     30 ****        -1.6339  -1.5847   0.2294 H              1 S1                 0.0000
     31 ****         0.2237  -0.9720  -0.0797 H              1 S1                 0.0000
     32 ****         0.8552   1.5913  -1.2091 H              1 S1                 0.0000
     33 ****         1.2327   1.5609   0.5065 H              1 S1                 0.0000
     34 ****         2.6318  -0.5078   0.1464 H              1 S1                 0.0000
     35 ****         2.2296  -0.4724  -1.5529 H              1 S1                 0.0000
     36 ****         3.3119   1.8062  -1.7264 H              1 S1                 0.0000
     37 ****         5.0863  -0.4536  -0.6654 H              1 S1                 0.0000
     38 ****         4.6342  -0.2209  -2.3393 H              1 S1                 0.0000
     39 ****         6.9310   0.6871  -1.8303 H              1 S1                 0.0000
     40 ****         5.8433   1.9184  -2.4346 H              1 S1                 0.0000
     41 ****         6.5759   1.4272   0.4897 H              1 S1                 0.0000
     42 ****         7.0206   2.8203  -0.4713 H              1 S1                 0.0000
     43 ****         5.0589   3.2911   1.0395 H              1 S1                 0.0000
     44 ****         4.6263   3.5096  -0.6447 H              1 S1                 0.0000
     45 ****        -6.3421  -2.1405   0.7935 LP             1 S1                 0.0000
     46 ****        -2.6274   1.7716   0.0565 LP             1 S1                 0.0000
     47 ****        -0.9945   2.2849  -0.2084 LP             1 S1                 0.0000
     48 ****         4.1898   1.1296   0.9400 LP             1 S1                 0.0000
     49 ****         3.0684   2.2564   0.5667 LP             1 S1                 0.0000
@<TRIPOS>BOND
    1    1    2 1     
    2    1   21 1     
    3    1   22 1     
    4    1   23 1     
    5    2    3 1     
    6    2   24 1     
    7    2   25 1     
    8    3    8 1     
    9    3    4 2     
   10    4    5 1     
   11    5    6 1     
   12    5    7 1     
   13    6   26 1     
   14    6   27 1     
   15    6   28 1     
   16    7    8 2     
   17    7   29 1     
   18    8    9 1     
   19    9   10 am    
   20    9   30 1     
   21   10   11 2     
   22   10   12 am    
   23   12   13 1     
   24   12   31 1     
   25   13   14 1     
   26   13   32 1     
   27   13   33 1     
   28   14   15 1     
   29   14   34 1     
   30   14   35 1     
   31   15   20 1     
   32   15   16 1     
   33   15   36 1     
   34   16   17 1     
   35   16   37 1     
   36   16   38 1     
   37   17   18 1     
   38   17   39 1     
   39   17   40 1     
   40   18   19 1     
   41   18   41 1     
   42   18   42 1     
   43   19   20 1     
   44   19   43 1     
   45   19   44 1     
   46    4   45 1     
   47   11   46 1     
   48   11   47 1     
   49   20   48 1     
   50   20   49 1     
@<TRIPOS>SUBSTRUCTURE
      1 S1             1
@<TRIPOS>SET
LONE_PAIRS      STATIC     ATOMS    <user>   **** ""
5 45 46 47 48 49
DONOR_HYDROGENS      STATIC     ATOMS    <user>   **** ""
2 30 31
ATOM$BLUE        STATIC     ATOMS    COLORGROUP SYSTEM
5 45 46 47 48 49
ATOM$RED        STATIC     ATOMS    COLORGROUP SYSTEM
2 30 31
