AV-unprocessed.smi:170|AV-procd|sdf|1413|dock9
  -GOLD-   2262019173D 1   1.00000     0.00000
 Structure written by MMmdl.
 57 61  0  0  0  0  0  0  0  0  1 V2000
  147.3753  138.3787  151.1081 O   0  0  0  0  0  0  0  0  0  0  0  0
  146.7654  137.6257  152.1399 C   0  0  1  0  0  0  0  0  0  0  0  0
  146.4619  138.5545  153.3327 C   0  0  0  0  0  0  0  0  0  0  0  0
  147.5575  138.6085  154.2845 N   0  0  0  0  0  0  0  0  0  0  0  0
  148.0421  137.5707  155.0490 C   0  0  0  0  0  0  0  0  0  0  0  0
  149.0352  137.8778  155.8389 N   0  0  0  0  0  0  0  0  0  0  0  0
  149.2500  139.2288  155.5976 C   0  0  0  0  0  0  0  0  0  0  0  0
  150.1569  140.1907  156.1147 C   0  0  0  0  0  0  0  0  0  0  0  0
  151.0853  139.8673  157.0461 N   0  0  0  0  0  0  0  0  0  0  0  0
  151.8966  138.7509  156.5725 C   0  0  0  0  0  0  0  0  0  0  0  0
  152.8364  138.2621  157.6813 C   0  0  0  0  0  0  0  0  0  0  0  0
  153.6378  139.3520  158.1141 O   0  0  0  0  0  0  0  0  0  0  0  0
  152.8513  140.3945  158.6783 C   0  0  0  0  0  0  0  0  0  0  0  0
  151.8646  140.9674  157.6325 C   0  0  2  0  0  0  0  0  0  0  0  0
  150.9546  142.0553  158.2628 C   0  0  0  0  0  0  0  0  0  0  0  0
  151.7153  143.2013  158.9271 C   0  0  0  0  0  0  0  0  0  0  0  0
  150.9462  144.2484  159.7469 C   0  0  0  0  0  0  0  0  0  0  0  0
  151.9418  145.3006  159.2510 C   0  0  0  0  0  0  0  0  0  0  0  0
  152.2410  144.3665  158.0752 C   0  0  0  0  0  0  0  0  0  0  0  0
  150.0868  141.4572  155.6242 N   0  0  0  0  0  0  0  0  0  0  0  0
  149.1727  141.7657  154.6993 C   0  0  0  0  0  0  0  0  0  0  0  0
  148.2560  140.9762  154.1346 N   0  0  0  0  0  0  0  0  0  0  0  0
  148.3337  139.7033  154.6187 C   0  0  0  0  0  0  0  0  0  0  0  0
  145.4967  136.9532  151.5832 C   0  0  1  0  0  0  0  0  0  0  0  0
  145.7664  135.7471  150.6809 C   0  0  0  0  0  0  0  0  0  0  0  0
  144.4739  134.9744  150.8062 C   0  0  0  0  0  0  0  0  0  0  0  0
  144.1379  135.1733  152.2803 C   0  0  0  0  0  0  0  0  0  0  0  0
  144.6988  136.4323  152.6449 O   0  0  0  0  0  0  0  0  0  0  0  0
  147.9533  139.0140  151.5016 H   0  0  0  0  0  0  0  0  0  0  0  0
  147.4705  136.8551  152.4545 H   0  0  0  0  0  0  0  0  0  0  0  0
  146.2498  139.5667  152.9853 H   0  0  0  0  0  0  0  0  0  0  0  0
  145.5717  138.2143  153.8628 H   0  0  0  0  0  0  0  0  0  0  0  0
  147.6293  136.5732  155.0067 H   0  0  0  0  0  0  0  0  0  0  0  0
  151.2560  137.9293  156.2481 H   0  0  0  0  0  0  0  0  0  0  0  0
  152.4794  139.0662  155.7055 H   0  0  0  0  0  0  0  0  0  0  0  0
  152.2738  137.8460  158.5187 H   0  0  0  0  0  0  0  0  0  0  0  0
  153.4842  137.4708  157.3043 H   0  0  0  0  0  0  0  0  0  0  0  0
  152.3181  140.0215  159.5545 H   0  0  0  0  0  0  0  0  0  0  0  0
  153.5347  141.1674  159.0282 H   0  0  0  0  0  0  0  0  0  0  0  0
  152.4535  141.4214  156.8341 H   0  0  0  0  0  0  0  0  0  0  0  0
  150.2968  142.4793  157.5048 H   0  0  0  0  0  0  0  0  0  0  0  0
  150.2905  141.5883  158.9909 H   0  0  0  0  0  0  0  0  0  0  0  0
  152.5319  142.8231  159.5449 H   0  0  0  0  0  0  0  0  0  0  0  0
  149.9342  144.4212  159.3768 H   0  0  0  0  0  0  0  0  0  0  0  0
  150.9559  144.0814  160.8244 H   0  0  0  0  0  0  0  0  0  0  0  0
  151.4972  146.2568  158.9741 H   0  0  0  0  0  0  0  0  0  0  0  0
  152.7946  145.4259  159.9201 H   0  0  0  0  0  0  0  0  0  0  0  0
  153.2945  144.2938  157.8036 H   0  0  0  0  0  0  0  0  0  0  0  0
  151.6147  144.5710  157.2052 H   0  0  0  0  0  0  0  0  0  0  0  0
  149.1760  142.7925  154.3643 H   0  0  0  0  0  0  0  0  0  0  0  0
  144.8896  137.6792  151.0396 H   0  0  0  0  0  0  0  0  0  0  0  0
  145.9976  136.0273  149.6529 H   0  0  0  0  0  0  0  0  0  0  0  0
  146.5949  135.1519  151.0682 H   0  0  0  0  0  0  0  0  0  0  0  0
  143.7051  135.4275  150.1788 H   0  0  0  0  0  0  0  0  0  0  0  0
  144.5700  133.9245  150.5280 H   0  0  0  0  0  0  0  0  0  0  0  0
  143.0641  135.1453  152.4681 H   0  0  0  0  0  0  0  0  0  0  0  0
  144.6083  134.3980  152.8867 H   0  0  0  0  0  0  0  0  0  0  0  0
  1  2  1  0  0  0  0
  1 29  1  0  0  0  0
  2  3  1  0  0  0  0
  2 24  1  0  0  0  0
  2 30  1  0  0  0  0
  3  4  1  0  0  0  0
  3 31  1  0  0  0  0
  3 32  1  0  0  0  0
  4 23  1  0  0  0  0
  4  5  1  0  0  0  0
  5  6  2  0  0  0  0
  5 33  1  0  0  0  0
  6  7  1  0  0  0  0
  7 23  2  0  0  0  0
  7  8  1  0  0  0  0
  8  9  1  0  0  0  0
  8 20  2  0  0  0  0
  9 14  1  0  0  0  0
  9 10  1  0  0  0  0
 10 11  1  0  0  0  0
 10 34  1  0  0  0  0
 10 35  1  0  0  0  0
 11 12  1  0  0  0  0
 11 36  1  0  0  0  0
 11 37  1  0  0  0  0
 12 13  1  0  0  0  0
 13 14  1  0  0  0  0
 13 38  1  0  0  0  0
 13 39  1  0  0  0  0
 14 15  1  0  0  0  0
 14 40  1  0  0  0  0
 15 16  1  0  0  0  0
 15 41  1  0  0  0  0
 15 42  1  0  0  0  0
 16 19  1  0  0  0  0
 16 17  1  0  0  0  0
 16 43  1  0  0  0  0
 17 18  1  0  0  0  0
 17 44  1  0  0  0  0
 17 45  1  0  0  0  0
 18 19  1  0  0  0  0
 18 46  1  0  0  0  0
 18 47  1  0  0  0  0
 19 48  1  0  0  0  0
 19 49  1  0  0  0  0
 20 21  1  0  0  0  0
 21 22  2  0  0  0  0
 21 50  1  0  0  0  0
 22 23  1  0  0  0  0
 24 28  1  0  0  0  0
 24 25  1  0  0  0  0
 24 51  1  0  0  0  0
 25 26  1  0  0  0  0
 25 52  1  0  0  0  0
 25 53  1  0  0  0  0
 26 27  1  0  0  0  0
 26 54  1  0  0  0  0
 26 55  1  0  0  0  0
 27 28  1  0  0  0  0
 27 56  1  0  0  0  0
 27 57  1  0  0  0  0
M  END
> <s_m_source_file>
AV-unprocessed.smi

> <i_m_source_file_index>
170

> <i_lp_mmshare_version>
43012

> <i_f3d_flags>
0

> <s_epik_input>
TzFbQ0gyXVtDSDJdW0NIMl1bQ0BIXTFbQ0BIXShbT0hdKVtDSDJdbihbY0hdbjIpYyhjMjMpbltjSF1uYzNONFtDSDJdW0NIMl1PW0NIMl1bQ0BIXTRbQ0gyXVtDSF01W0NIMl1bQ0gyXVtDSDJdNQ==

> <s_epik_cmdline>
J2VwaWtfcHl0aG9uJywgJy1waCcsICc3LjAnLCAnLXRuJywgJzgnLCAnLW1hJywgJzIwMCcsICctbWV0YWxfYmluZGluZycsICctaW1hZScsICc8aW5maWxlLm1hZT4nLCAnLW9tYWUnLCAnPG91dGZpbGUubWFlPic=

> <r_lp_tautomer_probability>
1

> <r_epik_Ionization_Penalty>
4.98275e-05

> <r_epik_Ionization_Penalty_Charging>
0

> <r_epik_Ionization_Penalty_Neutral>
4.98275e-05

> <r_epik_State_Penalty>
-0

> <r_epik_Charging_Adjusted_Penalty>
0

> <i_epik_Tot_Q>
0

> <i_epik_Tot_abs_Q>
0

> <r_epik_Metal_State_Penalty>
-0

> <b_epik_Metal_Only>
0

> <s_lp_Force_Field>
OPLS_2005

> <r_lp_Energy>
50.2735

> <b_lp_Chiralities_Consistent>
1

> <s_lp_Variant>
AV-unprocessed.smi:170-8

> <Gold.Version>
5.8.1

> <Gold.Id.Protein>
6NUR|6NUR_protein|mol2

> <Gold.PLP.Fitness>
52.8323

> <Gold.PLP.PLP>
-42.9432

> <Gold.PLP.part.hbond>
-4.0000

> <Gold.PLP.part.metal>
0.0000

> <Gold.PLP.part.buried>
-0.5028

> <Gold.PLP.part.nonpolar>
-39.0918

> <Gold.PLP.part.repulsive>
0.4110

> <Gold.PLP.ligand.clash>
0.0000

> <Gold.PLP.ligand.torsion>
0.8356

> <Gold.PLP.Chemscore.Hbond>
2.8160

> <Gold.PLP.Chemscore.CHOScore>
0.9486

> <Gold.PLP.Chemscore.Metal>
0.0000

> <Gold.Chemscore.Hbonds>
donor molecule, donor type, donor heavy atom, donor atom, acceptor molecule, acceptor atom, score
      L1  H     1    29       P1  7957  0.80
      P1  H  7954  7966       L1     1  1.00
      P1  H  7997  8009       L1    12  1.00
      L1  C    21    50       P1  8028  0.98

> <Gold.PLP.Chemscore.Internal.Correction>
0.2665

> <Gold.Rescore>
     Score         DG    S(hbond)    S(metal)    S(lipo)     H(rot)  DE(clash)    DE(int)     intcor
     14.81     -20.05       2.27        0.00     117.10       2.61       3.03       2.22       ----

> <Gold.Chemscore.Fitness>
14.8056

> <Gold.Chemscore.DG>
-20.0546

> <Gold.Chemscore.ZeroCoef>
-5.4800

> <Gold.Chemscore.Hbond>
2.2657

> <Gold.Chemscore.Metal>
0.0000

> <Gold.Chemscore.Lipo>
117.0954

> <Gold.Chemscore.Internal_Hbond>
0.0000

> <Gold.Chemscore.DEClash>
3.0266

> <Gold.Chemscore.DEInternal>
2.2224

> <Gold.Chemscore.Rot>
2.6144

> <Gold.Chemscore.Internal.Correction>
   9.000000E+99

> <Gold.Chemscore.Hbonds>
donor molecule, donor type, donor heavy atom, donor atom, acceptor molecule, acceptor atom, score
      L1  H     1    29       P1  7957  0.65
      P1  H  7954  7966       L1     1  0.37
      P1  H  7997  8009       L1    12  0.64

> <Gold.Chemscore.Hbond.Weighted>
-7.5673

> <Gold.Chemscore.Metal.Weighted>
-0.0000

> <Gold.Chemscore.Lipo.Weighted>
-13.7002

> <Gold.Chemscore.Internal_Hbond.Weighted>
0.0000

> <Gold.Chemscore.DEClash.Weighted>
3.0266

> <Gold.Chemscore.DEInternal.Weighted>
2.2224

> <Gold.Chemscore.Rot.Weighted>
6.6929

> <Gold.Chemscore.Internal.Correction.Weighted>
   9.000000E+99

> <Gold.Protein.RotatedTorsions>
[ 6907 6896 6895 6894 ] final   20.56 input  -60.11 | X-H torsion
[ 7974 7965 7964 7962 ] final  111.39 input  175.53 | X-H torsion
[ 8008 7997 7996 7995 ] final  142.13 input   59.86 | X-H torsion
[ 10167 10162 10161 10158 ] final  108.07 input  -65.29 | X-H torsion
[ 10718 10713 10712 10709 ] final  -66.68 input   66.30 | X-H torsion
[ 10763 10752 10751 10750 ] final -115.32 input  -60.55 | X-H torsion
[ 11005 11000 10999 10996 ] final -113.59 input  -57.11 | X-H torsion

> <Gold.Protein.ActiveResidues>
 VAL166  LYS551  ARG553  GLY616  TRP617  ASP618  TYR619  PRO620  LYS621  CYS622 
 ASP623  PHE694  ASN695  SER759  ASP760  ASP761  ALA762  ILE779  LEU786  VAL792 
 PHE793  MET794  SER795  GLU796  ALA797  LYS798  CYS799  TRP800  GLU811  SER814 

> <Gold.Protein.RotatedAtoms>
  151.8983  135.0388  160.0503 H   0  0  0  0  0  0  0  0  0  0  0  0  # atno 6907 bound_to 6896
  152.2379  133.5107  159.5261 H   0  0  0  0  0  0  0  0  0  0  0  0  # atno 6908 bound_to 6896
  150.7044  134.1045  159.4020 H   0  0  0  0  0  0  0  0  0  0  0  0  # atno 6909 bound_to 6896
  145.2428  139.2772  143.4109 H   0  0  0  0  0  0  0  0  0  0  0  0  # atno 7974 bound_to 7965
  156.2954  140.2297  156.4677 H   0  0  0  0  0  0  0  0  0  0  0  0  # atno 8008 bound_to 7997
  154.7962  140.0451  157.1259 H   0  0  0  0  0  0  0  0  0  0  0  0  # atno 8009 bound_to 7997
  154.9586  140.3051  155.5044 H   0  0  0  0  0  0  0  0  0  0  0  0  # atno 8010 bound_to 7997
  139.6876  144.7111  151.1405 H   0  0  0  0  0  0  0  0  0  0  0  0  # atno 10167 bound_to 10162
  156.0599  130.4266  150.1744 H   0  0  0  0  0  0  0  0  0  0  0  0  # atno 10718 bound_to 10713
  154.8476  135.4386  154.1645 H   0  0  0  0  0  0  0  0  0  0  0  0  # atno 10763 bound_to 10752
  153.2773  135.6950  153.7426 H   0  0  0  0  0  0  0  0  0  0  0  0  # atno 10764 bound_to 10752
  153.6643  135.3429  155.3111 H   0  0  0  0  0  0  0  0  0  0  0  0  # atno 10765 bound_to 10752
  141.0605  133.9544  157.2676 H   0  0  0  0  0  0  0  0  0  0  0  0  # atno 11005 bound_to 11000
  146.3324  140.2796  142.8609 LP  0  0  0  0  0  0  0  0  0  0  0  0  # atno 17320 bound_to 7965
  144.9574  140.8240  143.5535 LP  0  0  0  0  0  0  0  0  0  0  0  0  # atno 17321 bound_to 7965
  140.7672  143.5607  150.9102 LP  0  0  0  0  0  0  0  0  0  0  0  0  # atno 17342 bound_to 10162
  139.9282  143.6524  152.3082 LP  0  0  0  0  0  0  0  0  0  0  0  0  # atno 17343 bound_to 10162
  156.9814  130.9865  151.3436 LP  0  0  0  0  0  0  0  0  0  0  0  0  # atno 17370 bound_to 10713
  157.5599  130.8239  149.8252 LP  0  0  0  0  0  0  0  0  0  0  0  0  # atno 17371 bound_to 10713
  139.9428  135.0188  156.8760 LP  0  0  0  0  0  0  0  0  0  0  0  0  # atno 17394 bound_to 11000
  140.5879  134.0290  155.7488 LP  0  0  0  0  0  0  0  0  0  0  0  0  # atno 17395 bound_to 11000

$$$$
