#       Name:                AV-unprocessed.smi:3271
#       Creating user name   scv26
#       Creation time:       Fri Mar 27 18:42:54 2020


#       File generated by GOLD software.
#

@<TRIPOS>MOLECULE
AV-unprocessed.smi:3271
    46    46     1
SMALL
NO_CHARGES


@<TRIPOS>ATOM
      1 ****        -2.1980   0.1565  -1.7293 C.3            1 S1                 0.0000
      2 ****        -2.7366   1.2271  -0.7668 C.3            1 S1                 0.0000
      3 ****        -1.9921   1.3068   0.5862 C.3            1 S1                 0.0000
      4 ****        -2.6801   2.3221   1.5272 C.3            1 S1                 0.0000
      5 ****        -2.1250   2.3370   2.9605 C.3            1 S1                 0.0000
      6 ****        -0.5049   1.6469   0.3891 C.2            1 S1                 0.0000
      7 ****        -0.1745   2.6958  -0.1647 O.2            1 S1                 0.0000
      8 ****         0.3770   0.7433   0.8411 N.am           1 S1                 0.0000
      9 ****         1.8275   0.8380   0.6995 C.3            1 S1                 0.0000
     10 ****         2.3691   0.1315  -0.5709 C.3            1 S1                 0.0000
     11 ****         3.8798  -0.1241  -0.4317 C.3            1 S1                 0.0000
     12 ****         2.2534   1.0535  -1.6382 O.3            1 S1                 0.0000
     13 ****         1.6492  -1.1684  -0.8691 C.2            1 S1                 0.0000
     14 ****         0.9731  -1.5535  -2.0643 C.2            1 S1                 0.0000
     15 ****         0.4321  -2.7584  -1.9896 N.2            1 S1                 0.0000
     16 ****         0.7496  -3.1910  -0.7531 N.pl3          1 S1                 0.0000
     17 ****         0.3080  -4.4990  -0.3193 C.3            1 S1                 0.0000
     18 ****         1.4859  -2.2573  -0.0575 C.2            1 S1                 0.0000
     19 ****        -2.8270   0.0837  -2.6165 H              1 S1                 0.0000
     20 ****        -2.1756  -0.8259  -1.2566 H              1 S1                 0.0000
     21 ****        -1.1885   0.3918  -2.0659 H              1 S1                 0.0000
     22 ****        -2.7182   2.1989  -1.2626 H              1 S1                 0.0000
     23 ****        -3.7886   1.0113  -0.5772 H              1 S1                 0.0000
     24 ****        -2.0609   0.3230   1.0542 H              1 S1                 0.0000
     25 ****        -2.6165   3.3261   1.1050 H              1 S1                 0.0000
     26 ****        -3.7444   2.0908   1.5802 H              1 S1                 0.0000
     27 ****        -2.6922   3.0274   3.5851 H              1 S1                 0.0000
     28 ****        -1.0823   2.6541   2.9886 H              1 S1                 0.0000
     29 ****        -2.1885   1.3490   3.4171 H              1 S1                 0.0000
     30 ****         0.0159  -0.0903   1.2812 H              1 S1                 0.0000
     31 ****         2.1769   1.8700   0.7697 H              1 S1                 0.0000
     32 ****         2.2292   0.3335   1.5789 H              1 S1                 0.0000
     33 ****         4.0915  -0.8148   0.3853 H              1 S1                 0.0000
     34 ****         4.4247   0.7988  -0.2282 H              1 S1                 0.0000
     35 ****         4.2948  -0.5587  -1.3422 H              1 S1                 0.0000
     36 ****         2.6967   1.8522  -1.3963 H              1 S1                 0.0000
     37 ****         0.8516  -0.9903  -2.9779 H              1 S1                 0.0000
     38 ****         0.7840  -4.7596   0.6266 H              1 S1                 0.0000
     39 ****         0.5733  -5.2478  -1.0667 H              1 S1                 0.0000
     40 ****        -0.7739  -4.4949  -0.1837 H              1 S1                 0.0000
     41 ****         1.8244  -2.4371   0.9522 H              1 S1                 0.0000
     42 ****        -0.8745   3.3320  -0.4891 LP             1 S1                 0.0000
     43 ****         0.7939   2.9116  -0.2900 LP             1 S1                 0.0000
     44 ****         1.2879   1.2445  -1.8152 LP             1 S1                 0.0000
     45 ****         2.6737   0.6709  -2.4609 LP             1 S1                 0.0000
     46 ****        -0.0934  -3.2393  -2.6915 LP             1 S1                 0.0000
@<TRIPOS>BOND
    1    1    2 1     
    2    1   19 1     
    3    1   20 1     
    4    1   21 1     
    5    2    3 1     
    6    2   22 1     
    7    2   23 1     
    8    3    4 1     
    9    3    6 1     
   10    3   24 1     
   11    4    5 1     
   12    4   25 1     
   13    4   26 1     
   14    5   27 1     
   15    5   28 1     
   16    5   29 1     
   17    6    7 2     
   18    6    8 am    
   19    8    9 1     
   20    8   30 1     
   21    9   10 1     
   22    9   31 1     
   23    9   32 1     
   24   10   11 1     
   25   10   12 1     
   26   10   13 1     
   27   11   33 1     
   28   11   34 1     
   29   11   35 1     
   30   12   36 1     
   31   13   18 2     
   32   13   14 1     
   33   14   15 2     
   34   14   37 1     
   35   15   16 1     
   36   16   17 1     
   37   16   18 1     
   38   17   38 1     
   39   17   39 1     
   40   17   40 1     
   41   18   41 1     
   42    7   42 1     
   43    7   43 1     
   44   12   44 1     
   45   12   45 1     
   46   15   46 1     
@<TRIPOS>SUBSTRUCTURE
      1 S1             1
@<TRIPOS>SET
LONE_PAIRS      STATIC     ATOMS    <user>   **** ""
5 42 43 44 45 46
DONOR_HYDROGENS      STATIC     ATOMS    <user>   **** ""
2 30 36
ATOM$BLUE        STATIC     ATOMS    COLORGROUP SYSTEM
5 42 43 44 45 46
ATOM$RED        STATIC     ATOMS    COLORGROUP SYSTEM
2 30 36
