#       Name:                AV-unprocessed.smi:59
#       Creating user name   scv26
#       Creation time:       Thu Mar 26 16:48:37 2020


#       File generated by GOLD software.
#

@<TRIPOS>MOLECULE
AV-unprocessed.smi:59
    38    39     1
SMALL
NO_CHARGES


@<TRIPOS>ATOM
      1 ****        -1.0179   2.0003   1.2158 C.3            1 S1                 0.0000
      2 ****        -1.4018   0.9254   0.3044 N.am           1 S1                 0.0000
      3 ****        -2.3634   1.0226  -0.6225 C.2            1 S1                 0.0000
      4 ****        -2.9891   2.0427  -0.9138 O.2            1 S1                 0.0000
      5 ****        -2.6307  -0.3325  -1.2656 C.3            1 S1                 0.0000
      6 ****        -2.8771  -0.1970  -2.6562 O.3            1 S1                 0.0000
      7 ****        -1.3953  -1.1695  -0.8407 C.3            1 S1                 0.0000
      8 ****        -0.3295  -1.2683  -1.9611 C.2            1 S1                 0.0000
      9 ****         0.1570  -0.2064  -2.4121 O.co2          1 S1                 0.0000
     10 ****        -0.0134  -2.4189  -2.3357 O.co2          1 S1                -1.0000
     11 ****        -0.8987  -0.4421   0.4472 C.3            1 S1                 0.0000
     12 ****         0.5924  -0.5501   0.7222 C.2            1 S1                 0.0000
     13 ****         1.2655  -1.6310   1.3608 C.2            1 S1                 0.0000
     14 ****         2.5724  -1.4472   1.4552 N.2            1 S1                 0.0000
     15 ****         2.7843  -0.2523   0.8682 N.pl3          1 S1                 0.0000
     16 ****         4.1304   0.2707   0.7782 C.3            1 S1                 0.0000
     17 ****         1.6112   0.3119   0.4181 C.2            1 S1                 0.0000
     18 ****        -3.5272  -0.7495  -0.8057 H              1 S1                 0.0000
     19 ****        -1.6975  -2.1873  -0.5890 H              1 S1                 0.0000
     20 ****        -1.4421  -0.8675   1.2926 H              1 S1                 0.0000
     21 ****        -0.3353   2.6899   0.7190 H              1 S1                 0.0000
     22 ****        -0.5227   1.6080   2.1043 H              1 S1                 0.0000
     23 ****        -1.8901   2.5641   1.5497 H              1 S1                 0.0000
     24 ****        -3.6432   0.3437  -2.7713 H              1 S1                 0.0000
     25 ****         0.8411  -2.5406   1.7593 H              1 S1                 0.0000
     26 ****         4.1301   1.2094   0.2235 H              1 S1                 0.0000
     27 ****         4.7713  -0.4446   0.2619 H              1 S1                 0.0000
     28 ****         4.5236   0.4495   1.7793 H              1 S1                 0.0000
     29 ****         1.5964   1.2673  -0.0852 H              1 S1                 0.0000
     30 ****        -2.7942   2.9013  -0.4397 LP             1 S1                 0.0000
     31 ****        -3.6920   2.0123  -1.6244 LP             1 S1                 0.0000
     32 ****        -3.0354  -1.0978  -3.0607 LP             1 S1                 0.0000
     33 ****        -2.0902   0.2333  -3.0985 LP             1 S1                 0.0000
     34 ****         0.8546  -0.2404  -3.1278 LP             1 S1                 0.0000
     35 ****        -0.1521   0.6757  -2.0566 LP             1 S1                 0.0000
     36 ****         0.6774  -2.5406  -3.0484 LP             1 S1                 0.0000
     37 ****        -0.4515  -3.2173  -1.9226 LP             1 S1                 0.0000
     38 ****         3.2493  -2.0564   1.8682 LP             1 S1                 0.0000
@<TRIPOS>BOND
    1    1    2 1     
    2    1   21 1     
    3    1   22 1     
    4    1   23 1     
    5    2   11 1     
    6    2    3 am    
    7    3    4 2     
    8    3    5 1     
    9    5   18 1     
   10    5    6 1     
   11    5    7 1     
   12    6   24 1     
   13    7   19 1     
   14    7    8 1     
   15    7   11 1     
   16    8    9 ar    
   17    8   10 ar    
   18   11   20 1     
   19   11   12 1     
   20   12   17 2     
   21   12   13 1     
   22   13   14 2     
   23   13   25 1     
   24   14   15 1     
   25   15   16 1     
   26   15   17 1     
   27   16   26 1     
   28   16   27 1     
   29   16   28 1     
   30   17   29 1     
   31    4   30 1     
   32    4   31 1     
   33    6   32 1     
   34    6   33 1     
   35    9   34 1     
   36    9   35 1     
   37   10   36 1     
   38   10   37 1     
   39   14   38 1     
@<TRIPOS>SUBSTRUCTURE
      1 S1             1
@<TRIPOS>SET
LONE_PAIRS      STATIC     ATOMS    <user>   **** ""
9 30 31 32 33 34 35 36 37 38
DONOR_HYDROGENS      STATIC     ATOMS    <user>   **** ""
1 24
ATOM$BLUE        STATIC     ATOMS    COLORGROUP SYSTEM
9 30 31 32 33 34 35 36 37 38
ATOM$RED        STATIC     ATOMS    COLORGROUP SYSTEM
1 24
