AV-unprocessed.smi:3216|AV-procd|sdf|12288|dock8
  -GOLD-   2272018133D 1   1.00000     0.00000
 Structure written by MMmdl.
 36 36  0  0  0  0  0  0  0  0  1 V2000
  146.0562  142.9075  155.4779 C   0  0  0  0  0  0  0  0  0  0  0  0
  146.6155  141.6781  154.7403 C   0  0  0  0  0  0  0  0  0  0  0  0
  146.6633  140.4615  155.6763 C   0  0  0  0  0  0  0  0  0  0  0  0
  148.0012  141.9460  154.1224 C   0  0  0  0  0  0  0  0  0  0  0  0
  148.9945  142.2526  155.1437 N   0  0  0  0  0  0  0  0  0  0  0  0
  150.0407  141.4705  155.4442 C   0  0  0  0  0  0  0  0  0  0  0  0
  150.2706  140.4014  154.8787 O   0  0  0  0  0  0  0  0  0  0  0  0
  150.9791  141.9752  156.5468 C   0  0  0  0  0  0  0  0  0  0  0  0
  150.5713  143.2509  157.1568 N   0  0  0  0  0  0  0  0  0  0  0  0
  151.6891  144.1403  157.4571 C   0  0  0  0  0  0  0  0  0  0  0  0
  151.4987  144.7911  158.8373 C   0  0  0  0  0  0  0  0  0  0  0  0
  152.0789  143.9982  159.9072 N   0  0  0  0  0  0  0  0  0  0  0  0
  152.0492  144.2401  161.2646 C   0  0  0  0  0  0  0  0  0  0  0  0
  152.7284  143.2242  161.8737 C   0  0  0  0  0  0  0  0  0  0  0  0
  153.1398  142.3969  160.7914 C   0  0  0  0  0  0  0  0  0  0  0  0
  152.7467  142.8607  159.6161 N   0  0  0  0  0  0  0  0  0  0  0  0
  146.7166  143.2154  156.2891 H   0  0  0  0  0  0  0  0  0  0  0  0
  145.0781  142.6934  155.9098 H   0  0  0  0  0  0  0  0  0  0  0  0
  145.9333  143.7586  154.8077 H   0  0  0  0  0  0  0  0  0  0  0  0
  145.9274  141.4364  153.9289 H   0  0  0  0  0  0  0  0  0  0  0  0
  147.3364  140.6343  156.5167 H   0  0  0  0  0  0  0  0  0  0  0  0
  147.0106  139.5725  155.1491 H   0  0  0  0  0  0  0  0  0  0  0  0
  145.6761  140.2371  156.0811 H   0  0  0  0  0  0  0  0  0  0  0  0
  148.3265  141.0791  153.5444 H   0  0  0  0  0  0  0  0  0  0  0  0
  147.9448  142.7871  153.4295 H   0  0  0  0  0  0  0  0  0  0  0  0
  148.8794  143.1162  155.6539 H   0  0  0  0  0  0  0  0  0  0  0  0
  151.0839  141.2212  157.3288 H   0  0  0  0  0  0  0  0  0  0  0  0
  151.9702  142.1028  156.1107 H   0  0  0  0  0  0  0  0  0  0  0  0
  149.9011  143.7386  156.5798 H   0  0  0  0  0  0  0  0  0  0  0  0
  152.6393  143.6053  157.4326 H   0  0  0  0  0  0  0  0  0  0  0  0
  151.7386  144.9192  156.6953 H   0  0  0  0  0  0  0  0  0  0  0  0
  151.9778  145.7707  158.8505 H   0  0  0  0  0  0  0  0  0  0  0  0
  150.4400  144.9611  159.0417 H   0  0  0  0  0  0  0  0  0  0  0  0
  151.5558  145.1072  161.6783 H   0  0  0  0  0  0  0  0  0  0  0  0
  152.9056  143.0927  162.9307 H   0  0  0  0  0  0  0  0  0  0  0  0
  153.7075  141.4787  160.8246 H   0  0  0  0  0  0  0  0  0  0  0  0
  1  2  1  0  0  0  0
  1 17  1  0  0  0  0
  1 18  1  0  0  0  0
  1 19  1  0  0  0  0
  2  3  1  0  0  0  0
  2  4  1  0  0  0  0
  2 20  1  0  0  0  0
  3 21  1  0  0  0  0
  3 22  1  0  0  0  0
  3 23  1  0  0  0  0
  4  5  1  0  0  0  0
  4 24  1  0  0  0  0
  4 25  1  0  0  0  0
  5  6  1  0  0  0  0
  5 26  1  0  0  0  0
  6  7  2  0  0  0  0
  6  8  1  0  0  0  0
  8  9  1  0  0  0  0
  8 27  1  0  0  0  0
  8 28  1  0  0  0  0
  9 10  1  0  0  0  0
  9 29  1  0  0  0  0
 10 11  1  0  0  0  0
 10 30  1  0  0  0  0
 10 31  1  0  0  0  0
 11 12  1  0  0  0  0
 11 32  1  0  0  0  0
 11 33  1  0  0  0  0
 12 16  1  0  0  0  0
 12 13  1  0  0  0  0
 13 14  2  0  0  0  0
 13 34  1  0  0  0  0
 14 15  1  0  0  0  0
 14 35  1  0  0  0  0
 15 16  2  0  0  0  0
 15 36  1  0  0  0  0
M  END
> <s_m_source_file>
AV-unprocessed.smi

> <i_m_source_file_index>
3216

> <i_lp_mmshare_version>
43012

> <i_f3d_flags>
0

> <s_epik_input>
W0NIM11bQ0hdKFtDSDNdKVtDSDJdW05IXUMoPU8pW0NIMl1bTkhdW0NIMl1bQ0gyXW4xW2NIXVtjSF1bY0hdbjE=

> <s_epik_cmdline>
J2VwaWtfcHl0aG9uJywgJy1waCcsICc3LjAnLCAnLXRuJywgJzgnLCAnLW1hJywgJzIwMCcsICctbWV0YWxfYmluZGluZycsICctaW1hZScsICc8aW5maWxlLm1hZT4nLCAnLW9tYWUnLCAnPG91dGZpbGUubWFlPic=

> <r_lp_tautomer_probability>
1

> <r_epik_Ionization_Penalty>
0.724936

> <r_epik_Ionization_Penalty_Charging>
0

> <r_epik_Ionization_Penalty_Neutral>
0.724936

> <r_epik_State_Penalty>
0.747957

> <r_epik_Charging_Adjusted_Penalty>
0.747957

> <i_epik_Tot_Q>
0

> <i_epik_Tot_abs_Q>
0

> <r_epik_Metal_State_Penalty>
0.746186

> <b_epik_Metal_Only>
0

> <s_lp_Force_Field>
OPLS_2005

> <r_lp_Energy>
6.66152

> <b_lp_Chiralities_Consistent>
1

> <s_lp_Variant>
AV-unprocessed.smi:3216-2

> <Gold.Version>
5.8.1

> <Gold.Id.Protein>
6NUR|6NUR_protein|mol2

> <Gold.PLP.Fitness>
50.8412

> <Gold.PLP.PLP>
-43.3775

> <Gold.PLP.part.hbond>
-2.9655

> <Gold.PLP.part.metal>
0.0000

> <Gold.PLP.part.buried>
-5.8278

> <Gold.PLP.part.nonpolar>
-33.2395

> <Gold.PLP.part.repulsive>
0.2869

> <Gold.PLP.ligand.clash>
0.0000

> <Gold.PLP.ligand.torsion>
0.7883

> <Gold.PLP.Chemscore.Hbond>
2.9600

> <Gold.PLP.Chemscore.CHOScore>
0.0000

> <Gold.PLP.Chemscore.Metal>
0.0000

> <Gold.Chemscore.Hbonds>
donor molecule, donor type, donor heavy atom, donor atom, acceptor molecule, acceptor atom, score
      L1  H     5    26       P1  8028  0.98
      L1  H     9    29       P1  8028  1.00
      P1  H  7989  7998       L1     7  1.00

> <Gold.PLP.Chemscore.Internal.Correction>
0.1602

> <Gold.Rescore>
     Score         DG    S(hbond)    S(metal)    S(lipo)     H(rot)  DE(clash)    DE(int)     intcor
     17.84     -18.63       2.59        0.00      87.16       2.22       0.01       0.78       ----

> <Gold.Chemscore.Fitness>
17.8362

> <Gold.Chemscore.DG>
-18.6274

> <Gold.Chemscore.ZeroCoef>
-5.4800

> <Gold.Chemscore.Hbond>
2.5868

> <Gold.Chemscore.Metal>
0.0000

> <Gold.Chemscore.Lipo>
87.1591

> <Gold.Chemscore.Internal_Hbond>
0.0000

> <Gold.Chemscore.DEClash>
0.0147

> <Gold.Chemscore.DEInternal>
0.7765

> <Gold.Chemscore.Rot>
2.2227

> <Gold.Chemscore.Internal.Correction>
   9.000000E+99

> <Gold.Chemscore.Hbonds>
donor molecule, donor type, donor heavy atom, donor atom, acceptor molecule, acceptor atom, score
      L1  H     5    26       P1  8028  0.92
      L1  H     9    29       P1  8028  1.00
      P1  H  7989  7998       L1     7  0.41

> <Gold.Chemscore.Hbond.Weighted>
-8.6400

> <Gold.Chemscore.Metal.Weighted>
-0.0000

> <Gold.Chemscore.Lipo.Weighted>
-10.1976

> <Gold.Chemscore.Internal_Hbond.Weighted>
0.0000

> <Gold.Chemscore.DEClash.Weighted>
0.0147

> <Gold.Chemscore.DEInternal.Weighted>
0.7765

> <Gold.Chemscore.Rot.Weighted>
5.6902

> <Gold.Chemscore.Internal.Correction.Weighted>
   9.000000E+99

> <Gold.Protein.RotatedTorsions>
[ 6907 6896 6895 6894 ] final  128.75 input  -60.11 | X-H torsion
[ 7974 7965 7964 7962 ] final  -46.62 input  175.53 | X-H torsion
[ 8008 7997 7996 7995 ] final   18.31 input   59.86 | X-H torsion
[ 10167 10162 10161 10158 ] final -146.80 input  -65.29 | X-H torsion
[ 10718 10713 10712 10709 ] final   54.02 input   66.30 | X-H torsion
[ 10763 10752 10751 10750 ] final  -11.59 input  -60.55 | X-H torsion
[ 11005 11000 10999 10996 ] final  123.42 input  -57.11 | X-H torsion

> <Gold.Protein.ActiveResidues>
 VAL166  LYS551  ARG553  GLY616  TRP617  ASP618  TYR619  PRO620  LYS621  CYS622 
 ASP623  PHE694  ASN695  SER759  ASP760  ASP761  ALA762  ILE779  LEU786  VAL792 
 PHE793  MET794  SER795  GLU796  ALA797  LYS798  CYS799  TRP800  GLU811  SER814 

> <Gold.Protein.RotatedAtoms>
  152.3689  133.6393  159.6071 H   0  0  0  0  0  0  0  0  0  0  0  0  # atno 6907 bound_to 6896
  150.7654  133.9302  159.3433 H   0  0  0  0  0  0  0  0  0  0  0  0  # atno 6908 bound_to 6896
  151.7128  135.0910  160.0322 H   0  0  0  0  0  0  0  0  0  0  0  0  # atno 6909 bound_to 6896
  145.9700  140.7393  142.9415 H   0  0  0  0  0  0  0  0  0  0  0  0  # atno 7974 bound_to 7965
  154.9042  140.3005  155.5301 H   0  0  0  0  0  0  0  0  0  0  0  0  # atno 8008 bound_to 7997
  156.3017  140.2401  156.4008 H   0  0  0  0  0  0  0  0  0  0  0  0  # atno 8009 bound_to 7997
  154.8491  140.0410  157.1581 H   0  0  0  0  0  0  0  0  0  0  0  0  # atno 8010 bound_to 7997
  139.7680  143.8279  152.2619 H   0  0  0  0  0  0  0  0  0  0  0  0  # atno 10167 bound_to 10162
  157.5220  130.8571  149.8571 H   0  0  0  0  0  0  0  0  0  0  0  0  # atno 10718 bound_to 10713
  153.4860  135.7017  153.5911 H   0  0  0  0  0  0  0  0  0  0  0  0  # atno 10763 bound_to 10752
  153.4104  135.3850  155.2046 H   0  0  0  0  0  0  0  0  0  0  0  0  # atno 10764 bound_to 10752
  154.8719  135.3903  154.4315 H   0  0  0  0  0  0  0  0  0  0  0  0  # atno 10765 bound_to 10752
  139.9312  134.9641  156.8256 H   0  0  0  0  0  0  0  0  0  0  0  0  # atno 11005 bound_to 11000
  144.6834  140.2733  143.7303 LP  0  0  0  0  0  0  0  0  0  0  0  0  # atno 17320 bound_to 7965
  145.7920  139.1930  143.2097 LP  0  0  0  0  0  0  0  0  0  0  0  0  # atno 17321 bound_to 7965
  139.8305  144.7256  150.9457 LP  0  0  0  0  0  0  0  0  0  0  0  0  # atno 17342 bound_to 10162
  140.7812  143.4074  151.1048 LP  0  0  0  0  0  0  0  0  0  0  0  0  # atno 17343 bound_to 10162
  156.0360  130.3751  150.1559 LP  0  0  0  0  0  0  0  0  0  0  0  0  # atno 17370 bound_to 10713
  156.9747  130.9845  151.3451 LP  0  0  0  0  0  0  0  0  0  0  0  0  # atno 17371 bound_to 10713
  140.6198  134.0005  155.7613 LP  0  0  0  0  0  0  0  0  0  0  0  0  # atno 17394 bound_to 11000
  141.0901  133.9930  157.3251 LP  0  0  0  0  0  0  0  0  0  0  0  0  # atno 17395 bound_to 11000

$$$$
