AV-unprocessed.smi:1796|AV-procd|sdf|7254|dock1
  -GOLD-   22720 8503D 1   1.00000     0.00000
 Structure written by MMmdl.
 42 43  0  0  0  0  0  0  0  0  1 V2000
  150.8434  137.4968  154.3543 C   0  0  0  0  0  0  0  0  0  0  0  0
  150.5641  138.9784  154.6172 C   0  0  0  0  0  0  0  0  0  0  0  0
  151.5262  139.7421  154.7002 O   0  0  0  0  0  0  0  0  0  0  0  0
  149.2826  139.3972  154.7521 N   0  0  0  0  0  0  0  0  0  0  0  0
  148.8588  140.7922  154.9309 C   0  0  0  0  0  0  0  0  0  0  0  0
  148.1675  141.2667  153.6404 C   0  0  0  0  0  0  0  0  0  0  0  0
  146.9872  140.3452  153.2783 C   0  0  0  0  0  0  0  0  0  0  0  0
  147.4055  138.8555  153.2684 C   0  0  2  0  0  0  0  0  0  0  0  0
  146.2000  137.9311  153.0599 C   0  0  0  0  0  0  0  0  0  0  0  0
  145.1680  138.1016  153.7102 O   0  0  0  0  0  0  0  0  0  0  0  0
  146.3568  136.9367  152.1711 N   0  0  0  0  0  0  0  0  0  0  0  0
  145.3891  135.8736  151.9029 C   0  0  1  0  0  0  0  0  0  0  0  0
  145.0287  135.8875  150.4113 C   0  0  0  0  0  0  0  0  0  0  0  0
  145.9511  134.5013  152.3335 C   0  0  0  0  0  0  0  0  0  0  0  0
  145.3830  133.3996  151.5751 N   0  0  0  0  0  0  0  0  0  0  0  0
  146.0433  132.4033  150.8874 C   0  0  0  0  0  0  0  0  0  0  0  0
  145.0939  131.6092  150.3112 C   0  0  0  0  0  0  0  0  0  0  0  0
  143.8657  132.2058  150.7118 C   0  0  0  0  0  0  0  0  0  0  0  0
  144.0415  133.2737  151.4727 N   0  0  0  0  0  0  0  0  0  0  0  0
  148.1337  138.4987  154.5842 C   0  0  0  0  0  0  0  0  0  0  0  0
  150.4401  136.8780  155.1563 H   0  0  0  0  0  0  0  0  0  0  0  0
  151.9168  137.3116  154.2993 H   0  0  0  0  0  0  0  0  0  0  0  0
  150.4026  137.1834  153.4077 H   0  0  0  0  0  0  0  0  0  0  0  0
  148.1616  140.8493  155.7681 H   0  0  0  0  0  0  0  0  0  0  0  0
  149.6731  141.4685  155.1862 H   0  0  0  0  0  0  0  0  0  0  0  0
  147.8171  142.2923  153.7577 H   0  0  0  0  0  0  0  0  0  0  0  0
  148.8895  141.2766  152.8226 H   0  0  0  0  0  0  0  0  0  0  0  0
  146.1889  140.5041  154.0052 H   0  0  0  0  0  0  0  0  0  0  0  0
  146.5799  140.6306  152.3076 H   0  0  0  0  0  0  0  0  0  0  0  0
  148.1026  138.7051  152.4415 H   0  0  0  0  0  0  0  0  0  0  0  0
  147.2399  136.8770  151.6849 H   0  0  0  0  0  0  0  0  0  0  0  0
  144.4678  136.0621  152.4569 H   0  0  0  0  0  0  0  0  0  0  0  0
  144.2890  135.1204  150.1802 H   0  0  0  0  0  0  0  0  0  0  0  0
  145.9041  135.7020  149.7879 H   0  0  0  0  0  0  0  0  0  0  0  0
  144.6068  136.8492  150.1175 H   0  0  0  0  0  0  0  0  0  0  0  0
  147.0320  134.4793  152.1895 H   0  0  0  0  0  0  0  0  0  0  0  0
  145.7770  134.3319  153.3977 H   0  0  0  0  0  0  0  0  0  0  0  0
  147.1217  132.3492  150.8592 H   0  0  0  0  0  0  0  0  0  0  0  0
  145.2526  130.7370  149.6948 H   0  0  0  0  0  0  0  0  0  0  0  0
  142.8587  131.8966  150.4739 H   0  0  0  0  0  0  0  0  0  0  0  0
  148.4251  137.4469  154.5799 H   0  0  0  0  0  0  0  0  0  0  0  0
  147.4641  138.6128  155.4385 H   0  0  0  0  0  0  0  0  0  0  0  0
  1  2  1  0  0  0  0
  1 21  1  0  0  0  0
  1 22  1  0  0  0  0
  1 23  1  0  0  0  0
  2  3  2  0  0  0  0
  2  4  1  0  0  0  0
  4 20  1  0  0  0  0
  4  5  1  0  0  0  0
  5  6  1  0  0  0  0
  5 24  1  0  0  0  0
  5 25  1  0  0  0  0
  6  7  1  0  0  0  0
  6 26  1  0  0  0  0
  6 27  1  0  0  0  0
  7  8  1  0  0  0  0
  7 28  1  0  0  0  0
  7 29  1  0  0  0  0
  8  9  1  0  0  0  0
  8 20  1  0  0  0  0
  8 30  1  0  0  0  0
  9 10  2  0  0  0  0
  9 11  1  0  0  0  0
 11 12  1  0  0  0  0
 11 31  1  0  0  0  0
 12 13  1  0  0  0  0
 12 14  1  0  0  0  0
 12 32  1  0  0  0  0
 13 33  1  0  0  0  0
 13 34  1  0  0  0  0
 13 35  1  0  0  0  0
 14 15  1  0  0  0  0
 14 36  1  0  0  0  0
 14 37  1  0  0  0  0
 15 19  1  0  0  0  0
 15 16  1  0  0  0  0
 16 17  2  0  0  0  0
 16 38  1  0  0  0  0
 17 18  1  0  0  0  0
 17 39  1  0  0  0  0
 18 19  2  0  0  0  0
 18 40  1  0  0  0  0
 20 41  1  0  0  0  0
 20 42  1  0  0  0  0
M  END
> <s_m_source_file>
AV-unprocessed.smi

> <i_m_source_file_index>
1796

> <i_lp_mmshare_version>
43012

> <i_f3d_flags>
0

> <s_epik_input>
W0NIM11DKD1PKU4xW0NIMl1bQ0gyXVtDSDJdW0NASF0oW0NIMl0xKUMoPU8pW05IXVtDQEhdKFtDSDNdKVtDSDJdbjJbY0hdW2NIXVtjSF1uMg==

> <s_epik_cmdline>
J2VwaWtfcHl0aG9uJywgJy1waCcsICc3LjAnLCAnLXRuJywgJzgnLCAnLW1hJywgJzIwMCcsICctbWV0YWxfYmluZGluZycsICctaW1hZScsICc8aW5maWxlLm1hZT4nLCAnLW9tYWUnLCAnPG91dGZpbGUubWFlPic=

> <r_lp_tautomer_probability>
1

> <r_epik_Ionization_Penalty>
0.000315051

> <r_epik_Ionization_Penalty_Charging>
0

> <r_epik_Ionization_Penalty_Neutral>
0.000315051

> <r_epik_State_Penalty>
-0

> <r_epik_Charging_Adjusted_Penalty>
0

> <i_epik_Tot_Q>
0

> <i_epik_Tot_abs_Q>
0

> <r_epik_Metal_State_Penalty>
-0

> <b_epik_Metal_Only>
0

> <s_lp_Force_Field>
OPLS_2005

> <r_lp_Energy>
22.8322

> <b_lp_Chiralities_Consistent>
1

> <s_lp_Variant>
AV-unprocessed.smi:1796-4

> <Gold.Version>
5.8.1

> <Gold.Id.Protein>
6NUR|6NUR_protein|mol2

> <Gold.PLP.Fitness>
45.0377

> <Gold.PLP.PLP>
-36.2749

> <Gold.PLP.part.hbond>
-2.0000

> <Gold.PLP.part.metal>
0.0000

> <Gold.PLP.part.buried>
-3.6851

> <Gold.PLP.part.nonpolar>
-32.5920

> <Gold.PLP.part.repulsive>
0.7412

> <Gold.PLP.ligand.clash>
0.0000

> <Gold.PLP.ligand.torsion>
0.7995

> <Gold.PLP.Chemscore.Hbond>
1.9280

> <Gold.PLP.Chemscore.CHOScore>
1.5105

> <Gold.PLP.Chemscore.Metal>
0.0000

> <Gold.Chemscore.Hbonds>
donor molecule, donor type, donor heavy atom, donor atom, acceptor molecule, acceptor atom, score
      L1  H    11    31       P1  7948  0.88
      P1  H  7989  7998       L1     3  1.00
      L1  C    16    38       P1 10747  1.00
      L1  C    18    40       P1 10952  0.55

> <Gold.PLP.Chemscore.Internal.Correction>
0.0463

> <Gold.Rescore>
     Score         DG    S(hbond)    S(metal)    S(lipo)     H(rot)  DE(clash)    DE(int)     intcor
     16.43     -17.25       1.84        0.00      83.95       1.63       0.25       0.57       ----

> <Gold.Chemscore.Fitness>
16.4269

> <Gold.Chemscore.DG>
-17.2538

> <Gold.Chemscore.ZeroCoef>
-5.4800

> <Gold.Chemscore.Hbond>
1.8365

> <Gold.Chemscore.Metal>
0.0000

> <Gold.Chemscore.Lipo>
83.9491

> <Gold.Chemscore.Internal_Hbond>
0.0000

> <Gold.Chemscore.DEClash>
0.2537

> <Gold.Chemscore.DEInternal>
0.5732

> <Gold.Chemscore.Rot>
1.6336

> <Gold.Chemscore.Internal.Correction>
   9.000000E+99

> <Gold.Chemscore.Hbonds>
donor molecule, donor type, donor heavy atom, donor atom, acceptor molecule, acceptor atom, score
      L1  H    11    31       P1  7948  0.87
      P1  H  7989  7998       L1     3  0.92

> <Gold.Chemscore.Hbond.Weighted>
-6.1339

> <Gold.Chemscore.Metal.Weighted>
-0.0000

> <Gold.Chemscore.Lipo.Weighted>
-9.8220

> <Gold.Chemscore.Internal_Hbond.Weighted>
0.0000

> <Gold.Chemscore.DEClash.Weighted>
0.2537

> <Gold.Chemscore.DEInternal.Weighted>
0.5732

> <Gold.Chemscore.Rot.Weighted>
4.1821

> <Gold.Chemscore.Internal.Correction.Weighted>
   9.000000E+99

> <Gold.Protein.RotatedTorsions>
[ 6907 6896 6895 6894 ] final  107.18 input  -60.11 | X-H torsion
[ 7974 7965 7964 7962 ] final  -31.62 input  175.53 | X-H torsion
[ 8008 7997 7996 7995 ] final  112.69 input   59.86 | X-H torsion
[ 10167 10162 10161 10158 ] final  -24.32 input  -65.29 | X-H torsion
[ 10718 10713 10712 10709 ] final   78.57 input   66.30 | X-H torsion
[ 10763 10752 10751 10750 ] final -165.78 input  -60.55 | X-H torsion
[ 11005 11000 10999 10996 ] final -155.74 input  -57.11 | X-H torsion

> <Gold.Protein.ActiveResidues>
 VAL166  LYS551  ARG553  GLY616  TRP617  ASP618  TYR619  PRO620  LYS621  CYS622 
 ASP623  PHE694  ASN695  SER759  ASP760  ASP761  ALA762  ILE779  LEU786  VAL792 
 PHE793  MET794  SER795  GLU796  ALA797  LYS798  CYS799  TRP800  GLU811  SER814 

> <Gold.Protein.RotatedAtoms>
  152.5164  133.9272  159.7562 H   0  0  0  0  0  0  0  0  0  0  0  0  # atno 6907 bound_to 6896
  150.9631  133.6416  159.2758 H   0  0  0  0  0  0  0  0  0  0  0  0  # atno 6908 bound_to 6896
  151.3654  135.0917  159.9501 H   0  0  0  0  0  0  0  0  0  0  0  0  # atno 6909 bound_to 6896
  146.1053  140.5690  142.8802 H   0  0  0  0  0  0  0  0  0  0  0  0  # atno 7974 bound_to 7965
  156.2209  140.2994  155.9950 H   0  0  0  0  0  0  0  0  0  0  0  0  # atno 8008 bound_to 7997
  155.2484  140.0425  157.3001 H   0  0  0  0  0  0  0  0  0  0  0  0  # atno 8009 bound_to 7997
  154.5839  140.2383  155.8023 H   0  0  0  0  0  0  0  0  0  0  0  0  # atno 8010 bound_to 7997
  140.7288  143.4364  151.0724 H   0  0  0  0  0  0  0  0  0  0  0  0  # atno 10167 bound_to 10162
  157.6749  130.9874  150.1806 H   0  0  0  0  0  0  0  0  0  0  0  0  # atno 10718 bound_to 10713
  154.6898  135.2968  154.9496 H   0  0  0  0  0  0  0  0  0  0  0  0  # atno 10763 bound_to 10752
  154.0463  135.6650  153.4799 H   0  0  0  0  0  0  0  0  0  0  0  0  # atno 10764 bound_to 10752
  153.0604  135.5119  154.7984 H   0  0  0  0  0  0  0  0  0  0  0  0  # atno 10765 bound_to 10752
  140.6832  134.4122  157.5225 H   0  0  0  0  0  0  0  0  0  0  0  0  # atno 11005 bound_to 11000
  144.7466  140.5083  143.6831 LP  0  0  0  0  0  0  0  0  0  0  0  0  # atno 17320 bound_to 7965
  145.5773  139.1487  143.3255 LP  0  0  0  0  0  0  0  0  0  0  0  0  # atno 17321 bound_to 7965
  139.8026  143.8062  152.3164 LP  0  0  0  0  0  0  0  0  0  0  0  0  # atno 17342 bound_to 10162
  139.8084  144.7346  150.9730 LP  0  0  0  0  0  0  0  0  0  0  0  0  # atno 17343 bound_to 10162
  156.2539  130.3703  149.8202 LP  0  0  0  0  0  0  0  0  0  0  0  0  # atno 17370 bound_to 10713
  156.5967  130.8529  151.3422 LP  0  0  0  0  0  0  0  0  0  0  0  0  # atno 17371 bound_to 10713
  139.8945  134.8704  156.2173 LP  0  0  0  0  0  0  0  0  0  0  0  0  # atno 17394 bound_to 11000
  141.0301  133.6993  156.1415 LP  0  0  0  0  0  0  0  0  0  0  0  0  # atno 17395 bound_to 11000

$$$$
