AV-unprocessed.smi:1230|AV-procd|sdf|5156|dock10
  -GOLD-   22720 4233D 1   1.00000     0.00000
 Structure written by MMmdl.
 39 40  0  0  0  0  0  0  0  0  1 V2000
  153.0117  141.6341  160.1994 C   0  0  0  0  0  0  0  0  0  0  0  0
  152.6213  143.0413  159.7179 C   0  0  2  0  0  0  0  0  0  0  0  0
  152.2716  143.9470  160.9163 C   0  0  0  0  0  0  0  0  0  0  0  0
  151.8680  145.3587  160.4658 C   0  0  0  0  0  0  0  0  0  0  0  0
  150.7005  145.3059  159.4713 C   0  0  0  0  0  0  0  0  0  0  0  0
  151.0432  144.4177  158.2665 C   0  0  0  0  0  0  0  0  0  0  0  0
  151.4529  142.9958  158.7069 C   0  0  1  0  0  0  0  0  0  0  0  0
  151.8858  142.2511  157.5747 O   0  0  0  0  0  0  0  0  0  0  0  0
  150.9166  142.1276  156.5453 C   0  0  0  0  0  0  0  0  0  0  0  0
  151.0691  140.7422  155.8996 C   0  0  0  0  0  0  0  0  0  0  0  0
  149.9266  140.3653  155.1055 N   0  0  0  0  0  0  0  0  0  0  0  0
  148.8227  141.1901  154.9530 C   0  0  0  0  0  0  0  0  0  0  0  0
  147.7533  140.8507  154.1949 C   0  0  0  0  0  0  0  0  0  0  0  0
  146.6255  141.7099  154.0467 C   0  0  0  0  0  0  0  0  0  0  0  0
  145.7198  142.4230  153.9442 N   0  0  0  0  0  0  0  0  0  0  0  0
  147.7154  139.5728  153.4858 C   0  0  0  0  0  0  0  0  0  0  0  0
  146.7934  139.1728  152.7774 O   0  0  0  0  0  0  0  0  0  0  0  0
  148.8544  138.7809  153.6643 N   0  0  0  0  0  0  0  0  0  0  0  0
  149.9659  139.1175  154.4398 C   0  0  0  0  0  0  0  0  0  0  0  0
  150.9189  138.3418  154.5150 O   0  0  0  0  0  0  0  0  0  0  0  0
  148.8761  137.8902  153.1893 H   0  0  0  0  0  0  0  0  0  0  0  0
  152.1762  141.1394  160.6954 H   0  0  0  0  0  0  0  0  0  0  0  0
  153.8403  141.6776  160.9066 H   0  0  0  0  0  0  0  0  0  0  0  0
  153.3262  141.0021  159.3685 H   0  0  0  0  0  0  0  0  0  0  0  0
  153.4887  143.4722  159.2153 H   0  0  0  0  0  0  0  0  0  0  0  0
  151.4555  143.5028  161.4878 H   0  0  0  0  0  0  0  0  0  0  0  0
  153.1223  144.0119  161.5955 H   0  0  0  0  0  0  0  0  0  0  0  0
  151.5920  145.9607  161.3319 H   0  0  0  0  0  0  0  0  0  0  0  0
  152.7223  145.8545  160.0031 H   0  0  0  0  0  0  0  0  0  0  0  0
  149.8107  144.9196  159.9700 H   0  0  0  0  0  0  0  0  0  0  0  0
  150.4539  146.3127  159.1333 H   0  0  0  0  0  0  0  0  0  0  0  0
  150.1856  144.3807  157.5955 H   0  0  0  0  0  0  0  0  0  0  0  0
  151.8570  144.8730  157.7004 H   0  0  0  0  0  0  0  0  0  0  0  0
  150.6043  142.5009  159.1836 H   0  0  0  0  0  0  0  0  0  0  0  0
  149.9146  142.2332  156.9642 H   0  0  0  0  0  0  0  0  0  0  0  0
  151.0462  142.9119  155.8001 H   0  0  0  0  0  0  0  0  0  0  0  0
  151.9552  140.6695  155.2652 H   0  0  0  0  0  0  0  0  0  0  0  0
  151.1766  139.9716  156.6644 H   0  0  0  0  0  0  0  0  0  0  0  0
  148.8105  142.1468  155.4563 H   0  0  0  0  0  0  0  0  0  0  0  0
  1  2  1  0  0  0  0
  1 22  1  0  0  0  0
  1 23  1  0  0  0  0
  1 24  1  0  0  0  0
  2  7  1  0  0  0  0
  2  3  1  0  0  0  0
  2 25  1  0  0  0  0
  3  4  1  0  0  0  0
  3 26  1  0  0  0  0
  3 27  1  0  0  0  0
  4  5  1  0  0  0  0
  4 28  1  0  0  0  0
  4 29  1  0  0  0  0
  5  6  1  0  0  0  0
  5 30  1  0  0  0  0
  5 31  1  0  0  0  0
  6  7  1  0  0  0  0
  6 32  1  0  0  0  0
  6 33  1  0  0  0  0
  7  8  1  0  0  0  0
  7 34  1  0  0  0  0
  8  9  1  0  0  0  0
  9 10  1  0  0  0  0
  9 35  1  0  0  0  0
  9 36  1  0  0  0  0
 10 11  1  0  0  0  0
 10 37  1  0  0  0  0
 10 38  1  0  0  0  0
 11 19  1  0  0  0  0
 11 12  1  0  0  0  0
 12 13  2  0  0  0  0
 12 39  1  0  0  0  0
 13 14  1  0  0  0  0
 13 16  1  0  0  0  0
 14 15  3  0  0  0  0
 16 17  2  0  0  0  0
 16 18  1  0  0  0  0
 18 21  1  0  0  0  0
 18 19  1  0  0  0  0
 19 20  2  0  0  0  0
M  END
> <s_m_source_file>
AV-unprocessed.smi

> <i_m_source_file_index>
1230

> <i_lp_mmshare_version>
43012

> <i_f3d_flags>
0

> <s_epik_input>
W0NIM11bQ0BASF0xW0NIMl1bQ0gyXVtDSDJdW0NIMl1bQ0BIXTFPW0NIMl1bQ0gyXW4yW2NIXWMoQyNOKWMoPU8pW25IXWMyPU8=

> <s_epik_cmdline>
J2VwaWtfcHl0aG9uJywgJy1waCcsICc3LjAnLCAnLXRuJywgJzgnLCAnLW1hJywgJzIwMCcsICctbWV0YWxfYmluZGluZycsICctaW1hZScsICc8aW5maWxlLm1hZT4nLCAnLW9tYWUnLCAnPG91dGZpbGUubWFlPic=

> <r_epik_Ionization_Penalty>
0.421541

> <r_epik_Ionization_Penalty_Charging>
0.421541

> <r_epik_Ionization_Penalty_Neutral>
2.29267e-11

> <r_epik_State_Penalty>
0.422277

> <r_epik_Charging_Adjusted_Penalty>
0.843818

> <i_epik_Tot_Q>
0

> <i_epik_Tot_abs_Q>
0

> <r_epik_Metal_State_Penalty>
4.11629

> <b_epik_Metal_Only>
0

> <s_lp_Force_Field>
OPLS_2005

> <r_lp_Energy>
13.3679

> <b_lp_Chiralities_Consistent>
1

> <s_lp_Variant>
AV-unprocessed.smi:1230-5

> <Gold.Version>
5.8.1

> <Gold.Id.Protein>
6NUR|6NUR_protein|mol2

> <Gold.PLP.Fitness>
51.1543

> <Gold.PLP.PLP>
-46.1585

> <Gold.PLP.part.hbond>
-1.7950

> <Gold.PLP.part.metal>
0.0000

> <Gold.PLP.part.buried>
-2.8997

> <Gold.PLP.part.nonpolar>
-42.2694

> <Gold.PLP.part.repulsive>
0.9505

> <Gold.PLP.ligand.clash>
0.0000

> <Gold.PLP.ligand.torsion>
0.3009

> <Gold.PLP.Chemscore.Hbond>
0.8613

> <Gold.PLP.Chemscore.CHOScore>
1.0000

> <Gold.PLP.Chemscore.Metal>
0.0000

> <Gold.Chemscore.Hbonds>
donor molecule, donor type, donor heavy atom, donor atom, acceptor molecule, acceptor atom, score
      L1  H    18    21       P1  7948  0.81
      L1  C    12    39       P1  8028  0.89

> <Gold.PLP.Chemscore.Internal.Correction>
0.0138

> <Gold.Rescore>
     Score         DG    S(hbond)    S(metal)    S(lipo)     H(rot)  DE(clash)    DE(int)     intcor
     14.34     -16.10       0.88        0.00     108.08       1.94       1.44       0.32       ----

> <Gold.Chemscore.Fitness>
14.3370

> <Gold.Chemscore.DG>
-16.0958

> <Gold.Chemscore.ZeroCoef>
-5.4800

> <Gold.Chemscore.Hbond>
0.8781

> <Gold.Chemscore.Metal>
0.0000

> <Gold.Chemscore.Lipo>
108.0806

> <Gold.Chemscore.Internal_Hbond>
0.0000

> <Gold.Chemscore.DEClash>
1.4373

> <Gold.Chemscore.DEInternal>
0.3216

> <Gold.Chemscore.Rot>
1.9385

> <Gold.Chemscore.Internal.Correction>
   9.000000E+99

> <Gold.Chemscore.Hbonds>
donor molecule, donor type, donor heavy atom, donor atom, acceptor molecule, acceptor atom, score
      L1  H    18    21       P1  7948  0.80

> <Gold.Chemscore.Hbond.Weighted>
-2.9329

> <Gold.Chemscore.Metal.Weighted>
-0.0000

> <Gold.Chemscore.Lipo.Weighted>
-12.6454

> <Gold.Chemscore.Internal_Hbond.Weighted>
0.0000

> <Gold.Chemscore.DEClash.Weighted>
1.4373

> <Gold.Chemscore.DEInternal.Weighted>
0.3216

> <Gold.Chemscore.Rot.Weighted>
4.9625

> <Gold.Chemscore.Internal.Correction.Weighted>
   9.000000E+99

> <Gold.Protein.RotatedTorsions>
[ 6907 6896 6895 6894 ] final  118.63 input  -60.11 | X-H torsion
[ 7974 7965 7964 7962 ] final -142.15 input  175.53 | X-H torsion
[ 8008 7997 7996 7995 ] final   -3.49 input   59.86 | X-H torsion
[ 10167 10162 10161 10158 ] final  -37.58 input  -65.29 | X-H torsion
[ 10718 10713 10712 10709 ] final  158.08 input   66.30 | X-H torsion
[ 10763 10752 10751 10750 ] final -117.39 input  -60.55 | X-H torsion
[ 11005 11000 10999 10996 ] final    8.29 input  -57.11 | X-H torsion

> <Gold.Protein.ActiveResidues>
 VAL166  LYS551  ARG553  GLY616  TRP617  ASP618  TYR619  PRO620  LYS621  CYS622 
 ASP623  PHE694  ASN695  SER759  ASP760  ASP761  ALA762  ILE779  LEU786  VAL792 
 PHE793  MET794  SER795  GLU796  ALA797  LYS798  CYS799  TRP800  GLU811  SER814 

> <Gold.Protein.RotatedAtoms>
  152.4529  133.7666  159.6775 H   0  0  0  0  0  0  0  0  0  0  0  0  # atno 6907 bound_to 6896
  150.8447  133.7870  159.3054 H   0  0  0  0  0  0  0  0  0  0  0  0  # atno 6908 bound_to 6896
  151.5485  135.1070  159.9995 H   0  0  0  0  0  0  0  0  0  0  0  0  # atno 6909 bound_to 6896
  144.8465  140.5993  143.5418 H   0  0  0  0  0  0  0  0  0  0  0  0  # atno 7974 bound_to 7965
  154.6243  140.2508  155.7511 H   0  0  0  0  0  0  0  0  0  0  0  0  # atno 8008 bound_to 7997
  156.2444  140.2920  156.0485 H   0  0  0  0  0  0  0  0  0  0  0  0  # atno 8009 bound_to 7997
  155.1846  140.0390  157.2879 H   0  0  0  0  0  0  0  0  0  0  0  0  # atno 8010 bound_to 7997
  140.7114  143.3333  151.2520 H   0  0  0  0  0  0  0  0  0  0  0  0  # atno 10167 bound_to 10162
  157.1828  131.0636  151.2122 H   0  0  0  0  0  0  0  0  0  0  0  0  # atno 10718 bound_to 10713
  154.8553  135.4311  154.1973 H   0  0  0  0  0  0  0  0  0  0  0  0  # atno 10763 bound_to 10752
  153.3027  135.6970  153.7194 H   0  0  0  0  0  0  0  0  0  0  0  0  # atno 10764 bound_to 10752
  153.6317  135.3483  155.3018 H   0  0  0  0  0  0  0  0  0  0  0  0  # atno 10765 bound_to 10752
  140.5386  134.0396  155.7896 H   0  0  0  0  0  0  0  0  0  0  0  0  # atno 11005 bound_to 11000
  145.4586  139.1515  143.3879 LP  0  0  0  0  0  0  0  0  0  0  0  0  # atno 17320 bound_to 7965
  146.2748  140.4715  142.8799 LP  0  0  0  0  0  0  0  0  0  0  0  0  # atno 17321 bound_to 7965
  139.6821  143.9837  152.2814 LP  0  0  0  0  0  0  0  0  0  0  0  0  # atno 17342 bound_to 10162
  139.9470  144.6645  150.8209 LP  0  0  0  0  0  0  0  0  0  0  0  0  # atno 17343 bound_to 10162
  157.3936  130.7295  149.6715 LP  0  0  0  0  0  0  0  0  0  0  0  0  # atno 17370 bound_to 10713
  155.9722  130.4140  150.4109 LP  0  0  0  0  0  0  0  0  0  0  0  0  # atno 17371 bound_to 10713
  141.1240  133.9414  157.2673 LP  0  0  0  0  0  0  0  0  0  0  0  0  # atno 17394 bound_to 11000
  139.9516  135.0174  156.9009 LP  0  0  0  0  0  0  0  0  0  0  0  0  # atno 17395 bound_to 11000

$$$$
