AV-unprocessed.smi:53|AV-procd|sdf|527|dock6
  -GOLD-   2262016403D 1   1.00000     0.00000
 Structure written by MMmdl.
 30 31  0  0  0  0  0  0  0  0  1 V2000
  151.8239  140.7153  159.0820 N   0  0  0  0  0  0  0  0  0  0  0  0
  151.1653  140.7907  157.9170 C   0  0  0  0  0  0  0  0  0  0  0  0
  150.0296  141.6725  157.7761 C   0  0  0  0  0  0  0  0  0  0  0  0
  149.4141  141.6897  156.5732 C   0  0  0  0  0  0  0  0  0  0  0  0
  149.8271  140.8861  155.5159 N   0  0  0  0  0  0  0  0  0  0  0  0
  149.1583  140.9217  154.1510 C   0  0  2  0  0  0  0  0  0  0  0  0
  148.4647  142.1219  153.9896 O   0  0  0  0  0  0  0  0  0  0  0  0
  147.1094  141.9417  154.3791 C   0  0  1  0  0  0  0  0  0  0  0  0
  146.2419  143.0630  153.7887 C   0  0  0  0  0  0  0  0  0  0  0  0
  144.8839  142.8348  154.0995 O   0  0  0  0  0  0  0  0  0  0  0  0
  146.8005  140.5572  153.8078 C   0  0  2  0  0  0  0  0  0  0  0  0
  145.7502  139.9489  154.5327 O   0  0  0  0  0  0  0  0  0  0  0  0
  148.1085  139.7944  154.0065 C   0  0  1  0  0  0  0  0  0  0  0  0
  148.3711  138.9740  152.8861 O   0  0  0  0  0  0  0  0  0  0  0  0
  150.9675  140.0613  155.6779 C   0  0  0  0  0  0  0  0  0  0  0  0
  151.4053  139.3755  154.7544 O   0  0  0  0  0  0  0  0  0  0  0  0
  151.5754  140.0534  156.9040 N   0  0  0  0  0  0  0  0  0  0  0  0
  149.9820  140.8751  153.4355 H   0  0  0  0  0  0  0  0  0  0  0  0
  147.0319  141.9170  155.4681 H   0  0  0  0  0  0  0  0  0  0  0  0
  146.5442  140.6330  152.7495 H   0  0  0  0  0  0  0  0  0  0  0  0
  148.0781  139.1874  154.9130 H   0  0  0  0  0  0  0  0  0  0  0  0
  152.6204  140.1019  159.1758 H   0  0  0  0  0  0  0  0  0  0  0  0
  151.5211  141.2754  159.8659 H   0  0  0  0  0  0  0  0  0  0  0  0
  149.6642  142.3026  158.5744 H   0  0  0  0  0  0  0  0  0  0  0  0
  148.5759  142.3615  156.4669 H   0  0  0  0  0  0  0  0  0  0  0  0
  146.5570  144.0419  154.1507 H   0  0  0  0  0  0  0  0  0  0  0  0
  146.3319  143.0741  152.7020 H   0  0  0  0  0  0  0  0  0  0  0  0
  144.6372  141.9866  153.7638 H   0  0  0  0  0  0  0  0  0  0  0  0
  144.9552  140.0282  154.0279 H   0  0  0  0  0  0  0  0  0  0  0  0
  149.0901  139.3540  152.4035 H   0  0  0  0  0  0  0  0  0  0  0  0
  1  2  1  0  0  0  0
  1 22  1  0  0  0  0
  1 23  1  0  0  0  0
  2 17  2  0  0  0  0
  2  3  1  0  0  0  0
  3  4  2  0  0  0  0
  3 24  1  0  0  0  0
  4  5  1  0  0  0  0
  4 25  1  0  0  0  0
  5  6  1  0  0  0  0
  5 15  1  0  0  0  0
  6 18  1  0  0  0  0
  6 13  1  0  0  0  0
  6  7  1  0  0  0  0
  7  8  1  0  0  0  0
  8 19  1  0  0  0  0
  8  9  1  0  0  0  0
  8 11  1  0  0  0  0
  9 10  1  0  0  0  0
  9 26  1  0  0  0  0
  9 27  1  0  0  0  0
 10 28  1  0  0  0  0
 11 20  1  0  0  0  0
 11 12  1  0  0  0  0
 11 13  1  0  0  0  0
 12 29  1  0  0  0  0
 13 21  1  0  0  0  0
 13 14  1  0  0  0  0
 14 30  1  0  0  0  0
 15 16  2  0  0  0  0
 15 17  1  0  0  0  0
M  END
> <s_m_source_file>
AV-unprocessed.smi

> <i_m_source_file_index>
53

> <i_lp_mmshare_version>
43012

> <i_f3d_flags>
0

> <s_epik_input>
W05IMl1jMVtjSF1bY0hdbihjKD1PKW4xKVtDQEBIXTJPW0NASF0oW0NIMl1bT0hdKVtDQEBIXShbT0hdKVtDQEBIXTJbT0hd

> <s_epik_cmdline>
J2VwaWtfcHl0aG9uJywgJy1waCcsICc3LjAnLCAnLXRuJywgJzgnLCAnLW1hJywgJzIwMCcsICctbWV0YWxfYmluZGluZycsICctaW1hZScsICc8aW5maWxlLm1hZT4nLCAnLW9tYWUnLCAnPG91dGZpbGUubWFlPic=

> <r_lp_tautomer_probability>
0.99996

> <r_epik_Ionization_Penalty>
0.00069087

> <r_epik_Ionization_Penalty_Charging>
2.61959e-08

> <r_epik_Ionization_Penalty_Neutral>
0.000690844

> <r_epik_State_Penalty>
1.15523e-05

> <r_epik_Charging_Adjusted_Penalty>
1.15785e-05

> <i_epik_Tot_Q>
0

> <i_epik_Tot_abs_Q>
0

> <r_epik_Metal_State_Penalty>
-0

> <b_epik_Metal_Only>
0

> <s_epik_Chemistry_Notes>
This compound contains an acetal/aminal-like group ( X-CH(R)-Y where X, Y are N, S, or O) that may be acid/base labile, releasing an aldehyde.

> <s_lp_Force_Field>
OPLS_2005

> <r_lp_Energy>
26.1744

> <b_lp_Chiralities_Consistent>
1

> <s_lp_Variant>
AV-unprocessed.smi:53-15

> <Gold.Version>
5.8.1

> <Gold.Id.Protein>
6NUR|6NUR_protein|mol2

> <Gold.PLP.Fitness>
39.8191

> <Gold.PLP.PLP>
-29.8808

> <Gold.PLP.part.hbond>
-6.4665

> <Gold.PLP.part.metal>
0.0000

> <Gold.PLP.part.buried>
-2.9671

> <Gold.PLP.part.nonpolar>
-21.6337

> <Gold.PLP.part.repulsive>
0.6684

> <Gold.PLP.ligand.clash>
0.0000

> <Gold.PLP.ligand.torsion>
0.6747

> <Gold.PLP.Chemscore.Hbond>
2.9265

> <Gold.PLP.Chemscore.CHOScore>
0.8244

> <Gold.PLP.Chemscore.Metal>
0.0000

> <Gold.Chemscore.Hbonds>
donor molecule, donor type, donor heavy atom, donor atom, acceptor molecule, acceptor atom, score
      L1  H    10    28       P1 10175  0.20
      L1  H    12    29       P1 10175  0.94
      L1  H    14    30       P1  7957  0.90
      P1  H  7989  7998       L1    16  0.80
      P1  H  8011  8017       L1     7  0.07
      L1  C     4    25       P1  8028  0.84

> <Gold.PLP.Chemscore.Internal.Correction>
0.0350

> <Gold.Rescore>
     Score         DG    S(hbond)    S(metal)    S(lipo)     H(rot)  DE(clash)    DE(int)     intcor
      6.91      -7.75       2.32        0.00      34.36       3.71       0.13       0.71       ----

> <Gold.Chemscore.Fitness>
6.9051

> <Gold.Chemscore.DG>
-7.7495

> <Gold.Chemscore.ZeroCoef>
-5.4800

> <Gold.Chemscore.Hbond>
2.3192

> <Gold.Chemscore.Metal>
0.0000

> <Gold.Chemscore.Lipo>
34.3562

> <Gold.Chemscore.Internal_Hbond>
0.0000

> <Gold.Chemscore.DEClash>
0.1306

> <Gold.Chemscore.DEInternal>
0.7138

> <Gold.Chemscore.Rot>
3.7095

> <Gold.Chemscore.Internal.Correction>
   9.000000E+99

> <Gold.Chemscore.Hbonds>
donor molecule, donor type, donor heavy atom, donor atom, acceptor molecule, acceptor atom, score
      L1  H    12    29       P1 10175  0.90
      L1  H    14    30       P1  7957  0.83
      P1  H  7989  7998       L1    16  0.12

> <Gold.Chemscore.Hbond.Weighted>
-7.7462

> <Gold.Chemscore.Metal.Weighted>
-0.0000

> <Gold.Chemscore.Lipo.Weighted>
-4.0197

> <Gold.Chemscore.Internal_Hbond.Weighted>
0.0000

> <Gold.Chemscore.DEClash.Weighted>
0.1306

> <Gold.Chemscore.DEInternal.Weighted>
0.7138

> <Gold.Chemscore.Rot.Weighted>
9.4964

> <Gold.Chemscore.Internal.Correction.Weighted>
   9.000000E+99

> <Gold.Protein.RotatedTorsions>
[ 6907 6896 6895 6894 ] final -125.14 input  -60.11 | X-H torsion
[ 7974 7965 7964 7962 ] final  109.39 input  175.53 | X-H torsion
[ 8008 7997 7996 7995 ] final   66.08 input   59.86 | X-H torsion
[ 10167 10162 10161 10158 ] final   89.14 input  -65.29 | X-H torsion
[ 10718 10713 10712 10709 ] final  107.45 input   66.30 | X-H torsion
[ 10763 10752 10751 10750 ] final   99.17 input  -60.55 | X-H torsion
[ 11005 11000 10999 10996 ] final  -33.14 input  -57.11 | X-H torsion

> <Gold.Protein.ActiveResidues>
 VAL166  LYS551  ARG553  GLY616  TRP617  ASP618  TYR619  PRO620  LYS621  CYS622 
 ASP623  PHE694  ASN695  SER759  ASP760  ASP761  ALA762  ILE779  LEU786  VAL792 
 PHE793  MET794  SER795  GLU796  ALA797  LYS798  CYS799  TRP800  GLU811  SER814 

> <Gold.Protein.RotatedAtoms>
  150.8838  133.7335  159.2924 H   0  0  0  0  0  0  0  0  0  0  0  0  # atno 6907 bound_to 6896
  151.4908  135.1056  159.9812 H   0  0  0  0  0  0  0  0  0  0  0  0  # atno 6908 bound_to 6896
  152.4777  133.8131  159.7070 H   0  0  0  0  0  0  0  0  0  0  0  0  # atno 6909 bound_to 6896
  145.2684  139.2676  143.3979 H   0  0  0  0  0  0  0  0  0  0  0  0  # atno 7974 bound_to 7965
  155.6718  140.3497  155.4821 H   0  0  0  0  0  0  0  0  0  0  0  0  # atno 8008 bound_to 7997
  155.9681  140.1150  157.0859 H   0  0  0  0  0  0  0  0  0  0  0  0  # atno 8009 bound_to 7997
  154.4159  140.1162  156.5256 H   0  0  0  0  0  0  0  0  0  0  0  0  # atno 8010 bound_to 7997
  139.8603  144.6547  150.9066 H   0  0  0  0  0  0  0  0  0  0  0  0  # atno 10167 bound_to 10162
  157.6628  131.0873  150.6158 H   0  0  0  0  0  0  0  0  0  0  0  0  # atno 10718 bound_to 10713
  153.2980  135.4123  155.1227 H   0  0  0  0  0  0  0  0  0  0  0  0  # atno 10763 bound_to 10752
  154.8541  135.3534  154.5890 H   0  0  0  0  0  0  0  0  0  0  0  0  # atno 10764 bound_to 10752
  153.6314  135.7060  153.5332 H   0  0  0  0  0  0  0  0  0  0  0  0  # atno 10765 bound_to 10752
  140.9610  133.7164  156.1369 H   0  0  0  0  0  0  0  0  0  0  0  0  # atno 11005 bound_to 11000
  146.3254  140.3120  142.8627 LP  0  0  0  0  0  0  0  0  0  0  0  0  # atno 17320 bound_to 7965
  144.9356  140.8023  143.5662 LP  0  0  0  0  0  0  0  0  0  0  0  0  # atno 17321 bound_to 7965
  140.7776  143.3750  151.1579 LP  0  0  0  0  0  0  0  0  0  0  0  0  # atno 17342 bound_to 10162
  139.7380  143.8968  152.3041 LP  0  0  0  0  0  0  0  0  0  0  0  0  # atno 17343 bound_to 10162
  156.6460  130.4471  149.5736 LP  0  0  0  0  0  0  0  0  0  0  0  0  # atno 17370 bound_to 10713
  156.2173  130.6716  151.1332 LP  0  0  0  0  0  0  0  0  0  0  0  0  # atno 17371 bound_to 10713
  140.7467  134.4090  157.5547 LP  0  0  0  0  0  0  0  0  0  0  0  0  # atno 17394 bound_to 11000
  139.8878  134.8873  156.2509 LP  0  0  0  0  0  0  0  0  0  0  0  0  # atno 17395 bound_to 11000

$$$$
