AV-unprocessed.smi:99|AV-procd|sdf|876|dock2
  -GOLD-   2262017343D 1   1.00000     0.00000
 Structure written by MMmdl.
 53 56  0  0  0  0  0  0  0  0  1 V2000
  152.9219  139.7853  158.1729 O   0  0  0  0  0  0  0  0  0  0  0  0
  152.1368  140.6607  157.8025 C   0  0  0  0  0  0  0  0  0  0  0  0
  151.2357  140.4840  156.8161 O   0  0  0  0  0  0  0  0  0  0  0  0
  150.9876  139.1832  156.3095 C   0  0  0  0  0  0  0  0  0  0  0  0
  149.6757  138.6451  156.9019 C   0  0  1  0  0  0  0  0  0  0  0  0
  148.5918  139.0279  156.0640 O   0  0  0  0  0  0  0  0  0  0  0  0
  148.3742  138.0567  155.0893 C   0  0  2  0  0  0  0  0  0  0  0  0
  146.8742  137.9461  154.8978 N   0  0  0  0  0  0  0  0  0  0  0  0
  146.1614  136.8679  155.4102 C   0  0  0  0  0  0  0  0  0  0  0  0
  144.8132  136.7652  155.3425 C   0  0  0  0  0  0  0  0  0  0  0  0
  144.0209  137.8273  154.7339 C   0  0  0  0  0  0  0  0  0  0  0  0
  142.7978  137.8198  154.6119 O   0  0  0  0  0  0  0  0  0  0  0  0
  144.7681  138.9179  154.2816 N   0  0  0  0  0  0  0  0  0  0  0  0
  146.1567  139.0403  154.3594 C   0  0  0  0  0  0  0  0  0  0  0  0
  146.6974  140.0709  153.9600 O   0  0  0  0  0  0  0  0  0  0  0  0
  149.0345  136.7428  155.5535 C   0  0  1  0  0  0  0  0  0  0  0  0
  150.0746  136.3296  154.6892 O   0  0  0  0  0  0  0  0  0  0  0  0
  149.6262  137.1136  156.9127 C   0  0  2  0  0  0  0  0  0  0  0  0
  148.7846  136.6879  157.9773 O   0  0  0  0  0  0  0  0  0  0  0  0
  148.8674  135.4344  158.4719 C   0  0  0  0  0  0  0  0  0  0  0  0
  149.4351  134.5069  157.8923 O   0  0  0  0  0  0  0  0  0  0  0  0
  148.1882  135.2900  159.7912 C   0  0  0  0  0  0  0  0  0  0  0  0
  148.2290  136.3616  160.7135 C   0  0  0  0  0  0  0  0  0  0  0  0
  147.5991  136.2517  161.9684 C   0  0  0  0  0  0  0  0  0  0  0  0
  146.9217  135.0687  162.3169 C   0  0  0  0  0  0  0  0  0  0  0  0
  146.8754  133.9949  161.4089 C   0  0  0  0  0  0  0  0  0  0  0  0
  147.5043  134.1028  160.1533 C   0  0  0  0  0  0  0  0  0  0  0  0
  152.0852  142.0261  158.4002 C   0  0  0  0  0  0  0  0  0  0  0  0
  151.4321  143.0655  157.6974 C   0  0  0  0  0  0  0  0  0  0  0  0
  151.3672  144.3654  158.2359 C   0  0  0  0  0  0  0  0  0  0  0  0
  151.9552  144.6420  159.4838 C   0  0  0  0  0  0  0  0  0  0  0  0
  152.6073  143.6167  160.1933 C   0  0  0  0  0  0  0  0  0  0  0  0
  152.6729  142.3160  159.6564 C   0  0  0  0  0  0  0  0  0  0  0  0
  144.2587  139.6895  153.8755 H   0  0  0  0  0  0  0  0  0  0  0  0
  150.9464  139.1986  155.2196 H   0  0  0  0  0  0  0  0  0  0  0  0
  151.8152  138.5330  156.5965 H   0  0  0  0  0  0  0  0  0  0  0  0
  149.5424  139.0484  157.9069 H   0  0  0  0  0  0  0  0  0  0  0  0
  148.8032  138.3946  154.1448 H   0  0  0  0  0  0  0  0  0  0  0  0
  146.6867  136.0638  155.8995 H   0  0  0  0  0  0  0  0  0  0  0  0
  144.3173  135.8957  155.7497 H   0  0  0  0  0  0  0  0  0  0  0  0
  148.3188  135.9228  155.6103 H   0  0  0  0  0  0  0  0  0  0  0  0
  149.7560  136.3523  153.8000 H   0  0  0  0  0  0  0  0  0  0  0  0
  150.6254  136.6987  157.0577 H   0  0  0  0  0  0  0  0  0  0  0  0
  148.7430  137.2800  160.4682 H   0  0  0  0  0  0  0  0  0  0  0  0
  147.6358  137.0770  162.6643 H   0  0  0  0  0  0  0  0  0  0  0  0
  146.4384  134.9849  163.2793 H   0  0  0  0  0  0  0  0  0  0  0  0
  146.3567  133.0857  161.6757 H   0  0  0  0  0  0  0  0  0  0  0  0
  147.4507  133.2584  159.4812 H   0  0  0  0  0  0  0  0  0  0  0  0
  150.9738  142.8774  156.7371 H   0  0  0  0  0  0  0  0  0  0  0  0
  150.8659  145.1510  157.6899 H   0  0  0  0  0  0  0  0  0  0  0  0
  151.9062  145.6393  159.8958 H   0  0  0  0  0  0  0  0  0  0  0  0
  153.0588  143.8277  161.1515 H   0  0  0  0  0  0  0  0  0  0  0  0
  153.1813  141.5524  160.2269 H   0  0  0  0  0  0  0  0  0  0  0  0
  1  2  2  0  0  0  0
  2  3  1  0  0  0  0
  2 28  1  0  0  0  0
  3  4  1  0  0  0  0
  4  5  1  0  0  0  0
  4 35  1  0  0  0  0
  4 36  1  0  0  0  0
  5 18  1  0  0  0  0
  5  6  1  0  0  0  0
  5 37  1  0  0  0  0
  6  7  1  0  0  0  0
  7  8  1  0  0  0  0
  7 16  1  0  0  0  0
  7 38  1  0  0  0  0
  8 14  1  0  0  0  0
  8  9  1  0  0  0  0
  9 10  2  0  0  0  0
  9 39  1  0  0  0  0
 10 11  1  0  0  0  0
 10 40  1  0  0  0  0
 11 12  2  0  0  0  0
 11 13  1  0  0  0  0
 13 34  1  0  0  0  0
 13 14  1  0  0  0  0
 14 15  2  0  0  0  0
 16 17  1  0  0  0  0
 16 18  1  0  0  0  0
 16 41  1  0  0  0  0
 17 42  1  0  0  0  0
 18 19  1  0  0  0  0
 18 43  1  0  0  0  0
 19 20  1  0  0  0  0
 20 21  2  0  0  0  0
 20 22  1  0  0  0  0
 22 27  1  0  0  0  0
 22 23  2  0  0  0  0
 23 24  1  0  0  0  0
 23 44  1  0  0  0  0
 24 25  2  0  0  0  0
 24 45  1  0  0  0  0
 25 26  1  0  0  0  0
 25 46  1  0  0  0  0
 26 27  2  0  0  0  0
 26 47  1  0  0  0  0
 27 48  1  0  0  0  0
 28 33  1  0  0  0  0
 28 29  2  0  0  0  0
 29 30  1  0  0  0  0
 29 49  1  0  0  0  0
 30 31  2  0  0  0  0
 30 50  1  0  0  0  0
 31 32  1  0  0  0  0
 31 51  1  0  0  0  0
 32 33  2  0  0  0  0
 32 52  1  0  0  0  0
 33 53  1  0  0  0  0
M  END
> <s_m_source_file>
AV-unprocessed.smi

> <i_m_source_file_index>
99

> <i_lp_mmshare_version>
43012

> <i_f3d_flags>
0

> <s_epik_input>
W2NIXTFbY0hdW2NIXVtjSF1bY0hdYzFDKD1PKU9bQ0gyXVtDQEBIXTJPW0NAQEhdKG4zW2NIXVtjSF1jKD1PKVtuSF1jMz1PKVtDQEBIXShbT0hdKVtDQEhdMk9DKD1PKWM0W2NIXVtjSF1bY0hdW2NIXVtjSF00

> <s_epik_cmdline>
J2VwaWtfcHl0aG9uJywgJy1waCcsICc3LjAnLCAnLXRuJywgJzgnLCAnLW1hJywgJzIwMCcsICctbWV0YWxfYmluZGluZycsICctaW1hZScsICc8aW5maWxlLm1hZT4nLCAnLW9tYWUnLCAnPG91dGZpbGUubWFlPic=

> <r_lp_tautomer_probability>
1

> <r_epik_Ionization_Penalty>
0.00454555

> <r_epik_Ionization_Penalty_Charging>
0.0045191

> <r_epik_Ionization_Penalty_Neutral>
2.64449e-05

> <r_epik_State_Penalty>
-0

> <r_epik_Charging_Adjusted_Penalty>
0.0045191

> <i_epik_Tot_Q>
0

> <i_epik_Tot_abs_Q>
0

> <r_epik_Metal_State_Penalty>
1.27877

> <b_epik_Metal_Only>
0

> <s_epik_Chemistry_Notes>
This compound has an ester and may undergo hydrolysis at high or low pH. This compound contains an acetal/aminal-like group ( X-CH(R)-Y where X, Y are N, S, or O) that may be acid/base labile, releasing an aldehyde.

> <s_lp_Force_Field>
OPLS_2005

> <r_lp_Energy>
32.4523

> <b_lp_Chiralities_Consistent>
1

> <s_lp_Variant>
AV-unprocessed.smi:99-12

> <Gold.Version>
5.8.1

> <Gold.Id.Protein>
6NUR|6NUR_protein|mol2

> <Gold.PLP.Fitness>
54.4566

> <Gold.PLP.PLP>
-46.0748

> <Gold.PLP.part.hbond>
-4.0000

> <Gold.PLP.part.metal>
0.0000

> <Gold.PLP.part.buried>
-6.2782

> <Gold.PLP.part.nonpolar>
-36.9360

> <Gold.PLP.part.repulsive>
0.2150

> <Gold.PLP.ligand.clash>
0.0000

> <Gold.PLP.ligand.torsion>
2.0195

> <Gold.PLP.Chemscore.Hbond>
3.9833

> <Gold.PLP.Chemscore.CHOScore>
0.0000

> <Gold.PLP.Chemscore.Metal>
0.0000

> <Gold.Chemscore.Hbonds>
donor molecule, donor type, donor heavy atom, donor atom, acceptor molecule, acceptor atom, score
      L1  H    13    34       P1 10175  0.99
      L1  H    17    42       P1  7948  0.91
      P1  H  6896  6907       L1    21  1.00
      P1  H  7997  8010       L1     1  0.94

> <Gold.PLP.Chemscore.Internal.Correction>
0.4710

> <Gold.Rescore>
     Score         DG    S(hbond)    S(metal)    S(lipo)     H(rot)  DE(clash)    DE(int)     intcor
     19.72     -22.41       3.30        0.00     120.26       3.19       0.17       2.53       ----

> <Gold.Chemscore.Fitness>
19.7194

> <Gold.Chemscore.DG>
-22.4130

> <Gold.Chemscore.ZeroCoef>
-5.4800

> <Gold.Chemscore.Hbond>
3.3024

> <Gold.Chemscore.Metal>
0.0000

> <Gold.Chemscore.Lipo>
120.2566

> <Gold.Chemscore.Internal_Hbond>
0.0000

> <Gold.Chemscore.DEClash>
0.1685

> <Gold.Chemscore.DEInternal>
2.5251

> <Gold.Chemscore.Rot>
3.1903

> <Gold.Chemscore.Internal.Correction>
   9.000000E+99

> <Gold.Chemscore.Hbonds>
donor molecule, donor type, donor heavy atom, donor atom, acceptor molecule, acceptor atom, score
      L1  H    13    34       P1 10175  0.93
      L1  H    17    42       P1  7948  0.35
      P1  H  6896  6907       L1    21  0.28
      P1  H  7997  8010       L1     1  0.53

> <Gold.Chemscore.Hbond.Weighted>
-11.0301

> <Gold.Chemscore.Metal.Weighted>
-0.0000

> <Gold.Chemscore.Lipo.Weighted>
-14.0700

> <Gold.Chemscore.Internal_Hbond.Weighted>
0.0000

> <Gold.Chemscore.DEClash.Weighted>
0.1685

> <Gold.Chemscore.DEInternal.Weighted>
2.5251

> <Gold.Chemscore.Rot.Weighted>
8.1671

> <Gold.Chemscore.Internal.Correction.Weighted>
   9.000000E+99

> <Gold.Protein.RotatedTorsions>
[ 6907 6896 6895 6894 ] final -111.78 input  -60.11 | X-H torsion
[ 7974 7965 7964 7962 ] final  -23.10 input  175.53 | X-H torsion
[ 8008 7997 7996 7995 ] final   29.58 input   59.86 | X-H torsion
[ 10167 10162 10161 10158 ] final  172.47 input  -65.29 | X-H torsion
[ 10718 10713 10712 10709 ] final  -26.52 input   66.30 | X-H torsion
[ 10763 10752 10751 10750 ] final  151.44 input  -60.55 | X-H torsion
[ 11005 11000 10999 10996 ] final  -68.69 input  -57.11 | X-H torsion

> <Gold.Protein.ActiveResidues>
 VAL166  LYS551  ARG553  GLY616  TRP617  ASP618  TYR619  PRO620  LYS621  CYS622 
 ASP623  PHE694  ASN695  SER759  ASP760  ASP761  ALA762  ILE779  LEU786  VAL792 
 PHE793  MET794  SER795  GLU796  ALA797  LYS798  CYS799  TRP800  GLU811  SER814 

> <Gold.Protein.RotatedAtoms>
  150.7713  133.9185  159.3390 H   0  0  0  0  0  0  0  0  0  0  0  0  # atno 6907 bound_to 6896
  151.7071  135.0917  160.0270 H   0  0  0  0  0  0  0  0  0  0  0  0  # atno 6908 bound_to 6896
  152.3732  133.6408  159.6139 H   0  0  0  0  0  0  0  0  0  0  0  0  # atno 6909 bound_to 6896
  146.1636  140.4569  142.8561 H   0  0  0  0  0  0  0  0  0  0  0  0  # atno 7974 bound_to 7965
  155.0768  140.3206  155.4613 H   0  0  0  0  0  0  0  0  0  0  0  0  # atno 8008 bound_to 7997
  156.2777  140.2102  156.5841 H   0  0  0  0  0  0  0  0  0  0  0  0  # atno 8009 bound_to 7997
  154.7011  140.0507  157.0446 H   0  0  0  0  0  0  0  0  0  0  0  0  # atno 8010 bound_to 7997
  139.5077  144.3370  152.0055 H   0  0  0  0  0  0  0  0  0  0  0  0  # atno 10167 bound_to 10162
  156.4502  130.4482  149.6995 H   0  0  0  0  0  0  0  0  0  0  0  0  # atno 10718 bound_to 10713
  154.1038  135.2844  155.3245 H   0  0  0  0  0  0  0  0  0  0  0  0  # atno 10763 bound_to 10752
  154.6537  135.5360  153.7936 H   0  0  0  0  0  0  0  0  0  0  0  0  # atno 10764 bound_to 10752
  153.0369  135.6516  154.1201 H   0  0  0  0  0  0  0  0  0  0  0  0  # atno 10765 bound_to 10752
  141.1538  133.6747  156.6485 H   0  0  0  0  0  0  0  0  0  0  0  0  # atno 11005 bound_to 11000
  144.8061  140.6303  143.6446 LP  0  0  0  0  0  0  0  0  0  0  0  0  # atno 17320 bound_to 7965
  145.4524  139.1522  143.3911 LP  0  0  0  0  0  0  0  0  0  0  0  0  # atno 17321 bound_to 7965
  140.2809  144.3861  150.6119 LP  0  0  0  0  0  0  0  0  0  0  0  0  # atno 17342 bound_to 10162
  140.6019  143.2167  151.7056 LP  0  0  0  0  0  0  0  0  0  0  0  0  # atno 17343 bound_to 10162
  156.3824  130.7586  151.2580 LP  0  0  0  0  0  0  0  0  0  0  0  0  # atno 17370 bound_to 10713
  157.7503  131.0291  150.4080 LP  0  0  0  0  0  0  0  0  0  0  0  0  # atno 17371 bound_to 10713
  140.3338  134.7906  157.4346 LP  0  0  0  0  0  0  0  0  0  0  0  0  # atno 17394 bound_to 11000
  140.0994  134.5493  155.8367 LP  0  0  0  0  0  0  0  0  0  0  0  0  # atno 17395 bound_to 11000

$$$$
