AV-unprocessed.smi:2567|AV-procd|sdf|10077|dock2
  -GOLD-   2272014103D 1   1.00000     0.00000
 Structure written by MMmdl.
 34 35  0  0  0  0  0  0  0  0  2 V2000
  152.7704  144.9785  157.8671 C   0  0  0  0  0  0  0  0  0  0  0  0
  151.9502  143.9548  158.6762 C   0  0  0  0  0  0  0  0  0  0  0  0
  152.8724  143.3554  159.7616 C   0  0  0  0  0  0  0  0  0  0  0  0
  150.7782  144.6662  159.3790 C   0  0  0  0  0  0  0  0  0  0  0  0
  151.4127  142.8897  157.7499 C   0  0  0  0  0  0  0  0  0  0  0  0
  150.4694  143.1179  156.8292 N   0  0  0  0  0  0  0  0  0  0  0  0
  150.2150  141.9822  156.1464 N   0  0  0  0  0  0  0  0  0  0  0  0
  151.0406  141.1172  156.7314 C   0  0  0  0  0  0  0  0  0  0  0  0
  151.1334  139.7018  156.2537 C   0  0  1  0  0  0  0  0  0  0  0  0
  150.1471  139.4093  155.1070 C   0  0  0  0  0  0  0  0  0  0  0  0
  150.3521  138.0361  154.6070 N   0  3  0  0  0  0  0  0  0  0  0  0
  151.7560  137.8097  154.2103 C   0  0  0  0  0  0  0  0  0  0  0  0
  152.6998  138.1612  155.3743 C   0  0  0  0  0  0  0  0  0  0  0  0
  152.4688  139.5020  155.7944 O   0  0  0  0  0  0  0  0  0  0  0  0
  151.8315  141.6263  157.7243 N   0  0  0  0  0  0  0  0  0  0  0  0
  153.1803  145.7579  158.5105 H   0  0  0  0  0  0  0  0  0  0  0  0
  152.1609  145.4714  157.1090 H   0  0  0  0  0  0  0  0  0  0  0  0
  153.6070  144.5009  157.3558 H   0  0  0  0  0  0  0  0  0  0  0  0
  153.7296  142.8443  159.3215 H   0  0  0  0  0  0  0  0  0  0  0  0
  152.3419  142.6374  160.3881 H   0  0  0  0  0  0  0  0  0  0  0  0
  153.2629  144.1311  160.4215 H   0  0  0  0  0  0  0  0  0  0  0  0
  151.1331  145.4391  160.0616 H   0  0  0  0  0  0  0  0  0  0  0  0
  150.1800  143.9636  159.9604 H   0  0  0  0  0  0  0  0  0  0  0  0
  150.1131  145.1470  158.6606 H   0  0  0  0  0  0  0  0  0  0  0  0
  150.9403  139.0342  157.0959 H   0  0  0  0  0  0  0  0  0  0  0  0
  149.1166  139.5217  155.4450 H   0  0  0  0  0  0  0  0  0  0  0  0
  150.2965  140.1129  154.2865 H   0  0  0  0  0  0  0  0  0  0  0  0
  150.1149  137.3857  155.3426 H   0  0  0  0  0  0  0  0  0  0  0  0
  151.8846  136.7692  153.9117 H   0  0  0  0  0  0  0  0  0  0  0  0
  151.9865  138.4256  153.3402 H   0  0  0  0  0  0  0  0  0  0  0  0
  152.5564  137.4769  156.2120 H   0  0  0  0  0  0  0  0  0  0  0  0
  153.7387  138.0639  155.0588 H   0  0  0  0  0  0  0  0  0  0  0  0
  149.7473  137.8726  153.8146 H   0  0  0  0  0  0  0  0  0  0  0  0
  150.0005  143.9923  156.6385 H   0  0  0  0  0  0  0  0  0  0  0  0
  1  2  1  0  0  0  0
  1 16  1  0  0  0  0
  1 17  1  0  0  0  0
  1 18  1  0  0  0  0
  2  3  1  0  0  0  0
  2  4  1  0  0  0  0
  2  5  1  0  0  0  0
  3 19  1  0  0  0  0
  3 20  1  0  0  0  0
  3 21  1  0  0  0  0
  4 22  1  0  0  0  0
  4 23  1  0  0  0  0
  4 24  1  0  0  0  0
  5 15  2  0  0  0  0
  5  6  1  0  0  0  0
  6  7  1  0  0  0  0
  6 34  1  0  0  0  0
  7  8  2  0  0  0  0
  8  9  1  0  0  0  0
  8 15  1  0  0  0  0
  9 14  1  0  0  0  0
  9 10  1  0  0  0  0
  9 25  1  0  0  0  0
 10 11  1  0  0  0  0
 10 26  1  0  0  0  0
 10 27  1  0  0  0  0
 11 12  1  0  0  0  0
 11 28  1  0  0  0  0
 11 33  1  0  0  0  0
 12 13  1  0  0  0  0
 12 29  1  0  0  0  0
 12 30  1  0  0  0  0
 13 14  1  0  0  0  0
 13 31  1  0  0  0  0
 13 32  1  0  0  0  0
M  CHG  1  11   1
M  END
> <s_m_source_file>
AV-unprocessed.smi

> <i_m_source_file_index>
2567

> <i_lp_mmshare_version>
43012

> <i_f3d_flags>
0

> <s_epik_input>
W0NIM11DKFtDSDNdKShbQ0gzXSljMW5bbkhdYyhuMSlbQ0BASF0yW0NIMl1bTkhdW0NIMl1bQ0gyXU8y

> <s_epik_cmdline>
J2VwaWtfcHl0aG9uJywgJy1waCcsICc3LjAnLCAnLXRuJywgJzgnLCAnLW1hJywgJzIwMCcsICctbWV0YWxfYmluZGluZycsICctaW1hZScsICc8aW5maWxlLm1hZT4nLCAnLW9tYWUnLCAnPG91dGZpbGUubWFlPic=

> <r_lp_tautomer_probability>
0.948284

> <r_epik_Ionization_Penalty>
0.108767

> <r_epik_Ionization_Penalty_Charging>
0.100865

> <r_epik_Ionization_Penalty_Neutral>
0.00790271

> <r_epik_State_Penalty>
0.197684

> <r_epik_Charging_Adjusted_Penalty>
0.298549

> <i_epik_Tot_Q>
1

> <i_epik_Tot_abs_Q>
1

> <r_epik_Metal_State_Penalty>
0.508163

> <b_epik_Metal_Only>
0

> <s_lp_Force_Field>
OPLS_2005

> <r_lp_Energy>
13.5153

> <b_lp_Chiralities_Consistent>
1

> <s_lp_Variant>
AV-unprocessed.smi:2567-2

> <Gold.Version>
5.8.1

> <Gold.Id.Protein>
6NUR|6NUR_protein|mol2

> <Gold.PLP.Fitness>
37.6131

> <Gold.PLP.PLP>
-32.4009

> <Gold.PLP.part.hbond>
-2.0000

> <Gold.PLP.part.metal>
0.0000

> <Gold.PLP.part.buried>
-5.0161

> <Gold.PLP.part.nonpolar>
-25.5306

> <Gold.PLP.part.repulsive>
0.4781

> <Gold.PLP.ligand.clash>
0.0000

> <Gold.PLP.ligand.torsion>
0.2473

> <Gold.PLP.Chemscore.Hbond>
1.8960

> <Gold.PLP.Chemscore.CHOScore>
0.0000

> <Gold.PLP.Chemscore.Metal>
0.0000

> <Gold.Chemscore.Hbonds>
donor molecule, donor type, donor heavy atom, donor atom, acceptor molecule, acceptor atom, score
      L1  H     6    34       P1  8028  0.90
      P1  H  7997  8010       L1    14  0.98

> <Gold.PLP.Chemscore.Internal.Correction>
0.0188

> <Gold.Rescore>
     Score         DG    S(hbond)    S(metal)    S(lipo)     H(rot)  DE(clash)    DE(int)     intcor
     16.53     -17.05       1.65        0.00      79.52       1.26       0.18       0.35       ----

> <Gold.Chemscore.Fitness>
16.5312

> <Gold.Chemscore.DG>
-17.0547

> <Gold.Chemscore.ZeroCoef>
-5.4800

> <Gold.Chemscore.Hbond>
1.6493

> <Gold.Chemscore.Metal>
0.0000

> <Gold.Chemscore.Lipo>
79.5180

> <Gold.Chemscore.Internal_Hbond>
0.0000

> <Gold.Chemscore.DEClash>
0.1773

> <Gold.Chemscore.DEInternal>
0.3461

> <Gold.Chemscore.Rot>
1.2647

> <Gold.Chemscore.Internal.Correction>
   9.000000E+99

> <Gold.Chemscore.Hbonds>
donor molecule, donor type, donor heavy atom, donor atom, acceptor molecule, acceptor atom, score
      L1  H     6    34       P1  8028  0.87
      P1  H  7997  8010       L1    14  0.32

> <Gold.Chemscore.Hbond.Weighted>
-5.5086

> <Gold.Chemscore.Metal.Weighted>
-0.0000

> <Gold.Chemscore.Lipo.Weighted>
-9.3036

> <Gold.Chemscore.Internal_Hbond.Weighted>
0.0000

> <Gold.Chemscore.DEClash.Weighted>
0.1773

> <Gold.Chemscore.DEInternal.Weighted>
0.3461

> <Gold.Chemscore.Rot.Weighted>
3.2375

> <Gold.Chemscore.Internal.Correction.Weighted>
   9.000000E+99

> <Gold.Protein.RotatedTorsions>
[ 6907 6896 6895 6894 ] final  111.85 input  -60.11 | X-H torsion
[ 7974 7965 7964 7962 ] final -139.06 input  175.53 | X-H torsion
[ 8008 7997 7996 7995 ] final   76.91 input   59.86 | X-H torsion
[ 10167 10162 10161 10158 ] final   95.47 input  -65.29 | X-H torsion
[ 10718 10713 10712 10709 ] final  -41.09 input   66.30 | X-H torsion
[ 10763 10752 10751 10750 ] final -137.56 input  -60.55 | X-H torsion
[ 11005 11000 10999 10996 ] final  135.29 input  -57.11 | X-H torsion

> <Gold.Protein.ActiveResidues>
 VAL166  LYS551  ARG553  GLY616  TRP617  ASP618  TYR619  PRO620  LYS621  CYS622 
 ASP623  PHE694  ASN695  SER759  ASP760  ASP761  ALA762  ILE779  LEU786  VAL792 
 PHE793  MET794  SER795  GLU796  ALA797  LYS798  CYS799  TRP800  GLU811  SER814 

> <Gold.Protein.RotatedAtoms>
  152.4948  133.8600  159.7244 H   0  0  0  0  0  0  0  0  0  0  0  0  # atno 6907 bound_to 6896
  150.9114  133.6984  159.2860 H   0  0  0  0  0  0  0  0  0  0  0  0  # atno 6908 bound_to 6896
  151.4392  135.1022  159.9717 H   0  0  0  0  0  0  0  0  0  0  0  0  # atno 6909 bound_to 6896
  144.8707  140.6362  143.5269 H   0  0  0  0  0  0  0  0  0  0  0  0  # atno 7974 bound_to 7965
  155.8341  140.3465  155.5590 H   0  0  0  0  0  0  0  0  0  0  0  0  # atno 8008 bound_to 7997
  155.8211  140.0913  157.1868 H   0  0  0  0  0  0  0  0  0  0  0  0  # atno 8009 bound_to 7997
  154.4004  140.1430  156.3488 H   0  0  0  0  0  0  0  0  0  0  0  0  # atno 8010 bound_to 7997
  139.7985  144.6823  150.9796 H   0  0  0  0  0  0  0  0  0  0  0  0  # atno 10167 bound_to 10162
  156.2742  130.4210  149.8405 H   0  0  0  0  0  0  0  0  0  0  0  0  # atno 10718 bound_to 10713
  154.8659  135.3638  154.5243 H   0  0  0  0  0  0  0  0  0  0  0  0  # atno 10763 bound_to 10752
  153.5871  135.7016  153.5443 H   0  0  0  0  0  0  0  0  0  0  0  0  # atno 10764 bound_to 10752
  153.3405  135.4099  155.1530 H   0  0  0  0  0  0  0  0  0  0  0  0  # atno 10765 bound_to 10752
  139.9970  134.9493  156.9986 H   0  0  0  0  0  0  0  0  0  0  0  0  # atno 11005 bound_to 11000
  145.4136  139.1576  143.4112 LP  0  0  0  0  0  0  0  0  0  0  0  0  # atno 17320 bound_to 7965
  146.2928  140.4241  142.8733 LP  0  0  0  0  0  0  0  0  0  0  0  0  # atno 17321 bound_to 7965
  140.7820  143.4306  151.0701 LP  0  0  0  0  0  0  0  0  0  0  0  0  # atno 17342 bound_to 10162
  139.7979  143.8126  152.3159 LP  0  0  0  0  0  0  0  0  0  0  0  0  # atno 17343 bound_to 10162
  156.5876  130.8492  151.3399 LP  0  0  0  0  0  0  0  0  0  0  0  0  # atno 17370 bound_to 10713
  157.7294  130.9670  150.1784 LP  0  0  0  0  0  0  0  0  0  0  0  0  # atno 17371 bound_to 10713
  140.4800  134.1299  155.7215 LP  0  0  0  0  0  0  0  0  0  0  0  0  # atno 17394 bound_to 11000
  141.1612  133.8789  157.1843 LP  0  0  0  0  0  0  0  0  0  0  0  0  # atno 17395 bound_to 11000

$$$$
