AV-unprocessed.smi:2953|AV-procd|sdf|11293|dock1
  -GOLD-   2272016183D 1   1.00000     0.00000
 Structure written by MMmdl.
 45 47  0  0  0  0  0  0  0  0  1 V2000
  143.2000  134.6061  152.4639 C   0  0  0  0  0  0  0  0  0  0  0  0
  144.1015  133.6475  151.7095 C   0  0  0  0  0  0  0  0  0  0  0  0
  143.5969  132.9593  150.5862 C   0  0  0  0  0  0  0  0  0  0  0  0
  144.4195  132.0710  149.8700 C   0  0  0  0  0  0  0  0  0  0  0  0
  145.7505  131.8694  150.2755 C   0  0  0  0  0  0  0  0  0  0  0  0
  146.2591  132.5543  151.3954 C   0  0  0  0  0  0  0  0  0  0  0  0
  145.4392  133.4521  152.1269 C   0  0  0  0  0  0  0  0  0  0  0  0
  145.8709  134.1542  153.2340 O   0  0  0  0  0  0  0  0  0  0  0  0
  147.2120  133.9727  153.6693 C   0  0  0  0  0  0  0  0  0  0  0  0
  147.5413  134.9811  154.7786 C   0  0  0  0  0  0  0  0  0  0  0  0
  148.7912  134.6681  155.4579 N   0  0  0  0  0  0  0  0  0  0  0  0
  149.7592  135.5151  155.8988 C   0  0  0  0  0  0  0  0  0  0  0  0
  149.6510  137.0138  155.7490 C   0  0  2  0  0  0  0  0  0  0  0  0
  148.3420  137.6074  156.3055 C   0  0  0  0  0  0  0  0  0  0  0  0
  149.8862  137.3838  154.3530 N   0  0  0  0  0  0  0  0  0  0  0  0
  150.4220  138.5341  153.9211 C   0  0  0  0  0  0  0  0  0  0  0  0
  150.7851  139.4305  154.6786 O   0  0  0  0  0  0  0  0  0  0  0  0
  150.7759  134.9353  156.5426 N   0  0  0  0  0  0  0  0  0  0  0  0
  150.4611  133.5934  156.4753 C   0  0  0  0  0  0  0  0  0  0  0  0
  151.1544  132.4615  156.9606 C   0  0  0  0  0  0  0  0  0  0  0  0
  150.6266  131.1671  156.7734 C   0  0  0  0  0  0  0  0  0  0  0  0
  149.4001  130.9868  156.1017 C   0  0  0  0  0  0  0  0  0  0  0  0
  148.6924  132.1020  155.6133 C   0  0  0  0  0  0  0  0  0  0  0  0
  149.2251  133.3916  155.8009 C   0  0  0  0  0  0  0  0  0  0  0  0
  142.1638  134.5225  152.1349 H   0  0  0  0  0  0  0  0  0  0  0  0
  143.5277  135.6327  152.2992 H   0  0  0  0  0  0  0  0  0  0  0  0
  143.2297  134.4003  153.5343 H   0  0  0  0  0  0  0  0  0  0  0  0
  142.5758  133.1111  150.2682 H   0  0  0  0  0  0  0  0  0  0  0  0
  144.0299  131.5459  149.0103 H   0  0  0  0  0  0  0  0  0  0  0  0
  146.3840  131.1882  149.7265 H   0  0  0  0  0  0  0  0  0  0  0  0
  147.2857  132.3713  151.6724 H   0  0  0  0  0  0  0  0  0  0  0  0
  147.3517  132.9617  154.0545 H   0  0  0  0  0  0  0  0  0  0  0  0
  147.8980  134.1123  152.8322 H   0  0  0  0  0  0  0  0  0  0  0  0
  147.5784  135.9936  154.3789 H   0  0  0  0  0  0  0  0  0  0  0  0
  146.7417  134.9844  155.5201 H   0  0  0  0  0  0  0  0  0  0  0  0
  150.4521  137.4711  156.3286 H   0  0  0  0  0  0  0  0  0  0  0  0
  148.2195  137.3605  157.3598 H   0  0  0  0  0  0  0  0  0  0  0  0
  147.4643  137.2316  155.7791 H   0  0  0  0  0  0  0  0  0  0  0  0
  148.3388  138.6941  156.2195 H   0  0  0  0  0  0  0  0  0  0  0  0
  149.6134  136.7069  153.6553 H   0  0  0  0  0  0  0  0  0  0  0  0
  150.4934  138.5710  152.8232 H   0  0  0  0  0  0  0  0  0  0  0  0
  152.0938  132.5894  157.4778 H   0  0  0  0  0  0  0  0  0  0  0  0
  151.1650  130.3087  157.1477 H   0  0  0  0  0  0  0  0  0  0  0  0
  149.0024  129.9924  155.9627 H   0  0  0  0  0  0  0  0  0  0  0  0
  147.7521  131.9677  155.0996 H   0  0  0  0  0  0  0  0  0  0  0  0
  1  2  1  0  0  0  0
  1 25  1  0  0  0  0
  1 26  1  0  0  0  0
  1 27  1  0  0  0  0
  2  7  1  0  0  0  0
  2  3  2  0  0  0  0
  3  4  1  0  0  0  0
  3 28  1  0  0  0  0
  4  5  2  0  0  0  0
  4 29  1  0  0  0  0
  5  6  1  0  0  0  0
  5 30  1  0  0  0  0
  6  7  2  0  0  0  0
  6 31  1  0  0  0  0
  7  8  1  0  0  0  0
  8  9  1  0  0  0  0
  9 10  1  0  0  0  0
  9 32  1  0  0  0  0
  9 33  1  0  0  0  0
 10 11  1  0  0  0  0
 10 34  1  0  0  0  0
 10 35  1  0  0  0  0
 11 24  1  0  0  0  0
 11 12  1  0  0  0  0
 12 13  1  0  0  0  0
 12 18  2  0  0  0  0
 13 14  1  0  0  0  0
 13 15  1  0  0  0  0
 13 36  1  0  0  0  0
 14 37  1  0  0  0  0
 14 38  1  0  0  0  0
 14 39  1  0  0  0  0
 15 16  1  0  0  0  0
 15 40  1  0  0  0  0
 16 17  2  0  0  0  0
 16 41  1  0  0  0  0
 18 19  1  0  0  0  0
 19 24  2  0  0  0  0
 19 20  1  0  0  0  0
 20 21  2  0  0  0  0
 20 42  1  0  0  0  0
 21 22  1  0  0  0  0
 21 43  1  0  0  0  0
 22 23  2  0  0  0  0
 22 44  1  0  0  0  0
 23 24  1  0  0  0  0
 23 45  1  0  0  0  0
M  END
> <s_m_source_file>
AV-unprocessed.smi

> <i_m_source_file_index>
2953

> <i_lp_mmshare_version>
43012

> <i_f3d_flags>
0

> <s_epik_input>
W0NIM11jMVtjSF1bY0hdW2NIXVtjSF1jMU9bQ0gyXVtDSDJdbihjKG4yKVtDQEhdKFtDSDNdKVtOSF1bQ0hdPU8pYyhjMjMpW2NIXVtjSF1bY0hdW2NIXTM=

> <s_epik_cmdline>
J2VwaWtfcHl0aG9uJywgJy1waCcsICc3LjAnLCAnLXRuJywgJzgnLCAnLW1hJywgJzIwMCcsICctbWV0YWxfYmluZGluZycsICctaW1hZScsICc8aW5maWxlLm1hZT4nLCAnLW9tYWUnLCAnPG91dGZpbGUubWFlPic=

> <r_lp_tautomer_probability>
1

> <r_epik_Ionization_Penalty>
0.0924205

> <r_epik_Ionization_Penalty_Charging>
0

> <r_epik_Ionization_Penalty_Neutral>
0.0924205

> <r_epik_State_Penalty>
0.0827154

> <r_epik_Charging_Adjusted_Penalty>
0.0827154

> <i_epik_Tot_Q>
0

> <i_epik_Tot_abs_Q>
0

> <r_epik_Metal_State_Penalty>
0.071464

> <b_epik_Metal_Only>
0

> <s_lp_Force_Field>
OPLS_2005

> <r_lp_Energy>
13.673

> <b_lp_Chiralities_Consistent>
1

> <s_lp_Variant>
AV-unprocessed.smi:2953-1

> <Gold.Version>
5.8.1

> <Gold.Id.Protein>
6NUR|6NUR_protein|mol2

> <Gold.PLP.Fitness>
44.1795

> <Gold.PLP.PLP>
-38.2002

> <Gold.PLP.part.hbond>
-3.6012

> <Gold.PLP.part.metal>
0.0000

> <Gold.PLP.part.buried>
-1.7154

> <Gold.PLP.part.nonpolar>
-31.3209

> <Gold.PLP.part.repulsive>
0.2539

> <Gold.PLP.ligand.clash>
0.0000

> <Gold.PLP.ligand.torsion>
0.8540

> <Gold.PLP.Chemscore.Hbond>
2.5039

> <Gold.PLP.Chemscore.CHOScore>
0.0000

> <Gold.PLP.Chemscore.Metal>
0.0000

> <Gold.Chemscore.Hbonds>
donor molecule, donor type, donor heavy atom, donor atom, acceptor molecule, acceptor atom, score
      L1  H    15    40       P1  7948  1.00
      P1  H  7989  7998       L1    17  0.98

> <Gold.PLP.Chemscore.Internal.Correction>
0.1757

> <Gold.Rescore>
     Score         DG    S(hbond)    S(metal)    S(lipo)     H(rot)  DE(clash)    DE(int)     intcor
     15.31     -17.51       1.95        0.00      96.59       2.26       0.89       1.31       ----

> <Gold.Chemscore.Fitness>
15.3142

> <Gold.Chemscore.DG>
-17.5109

> <Gold.Chemscore.ZeroCoef>
-5.4800

> <Gold.Chemscore.Hbond>
1.9524

> <Gold.Chemscore.Metal>
0.0000

> <Gold.Chemscore.Lipo>
96.5853

> <Gold.Chemscore.Internal_Hbond>
0.0000

> <Gold.Chemscore.DEClash>
0.8853

> <Gold.Chemscore.DEInternal>
1.3114

> <Gold.Chemscore.Rot>
2.2619

> <Gold.Chemscore.Internal.Correction>
   9.000000E+99

> <Gold.Chemscore.Hbonds>
donor molecule, donor type, donor heavy atom, donor atom, acceptor molecule, acceptor atom, score
      L1  H    15    40       P1  7948  0.67
      P1  H  7989  7998       L1    17  0.50

> <Gold.Chemscore.Hbond.Weighted>
-6.5210

> <Gold.Chemscore.Metal.Weighted>
-0.0000

> <Gold.Chemscore.Lipo.Weighted>
-11.3005

> <Gold.Chemscore.Internal_Hbond.Weighted>
0.0000

> <Gold.Chemscore.DEClash.Weighted>
0.8853

> <Gold.Chemscore.DEInternal.Weighted>
1.3114

> <Gold.Chemscore.Rot.Weighted>
5.7906

> <Gold.Chemscore.Internal.Correction.Weighted>
   9.000000E+99

> <Gold.Protein.RotatedTorsions>
[ 6907 6896 6895 6894 ] final  167.65 input  -60.11 | X-H torsion
[ 7974 7965 7964 7962 ] final  -41.52 input  175.53 | X-H torsion
[ 8008 7997 7996 7995 ] final  155.06 input   59.86 | X-H torsion
[ 10167 10162 10161 10158 ] final   18.46 input  -65.29 | X-H torsion
[ 10718 10713 10712 10709 ] final  119.49 input   66.30 | X-H torsion
[ 10763 10752 10751 10750 ] final  -34.35 input  -60.55 | X-H torsion
[ 11005 11000 10999 10996 ] final -169.54 input  -57.11 | X-H torsion

> <Gold.Protein.ActiveResidues>
 VAL166  LYS551  ARG553  GLY616  TRP617  ASP618  TYR619  PRO620  LYS621  CYS622 
 ASP623  PHE694  ASN695  SER759  ASP760  ASP761  ALA762  ILE779  LEU786  VAL792 
 PHE793  MET794  SER795  GLU796  ALA797  LYS798  CYS799  TRP800  GLU811  SER814 

> <Gold.Protein.RotatedAtoms>
  151.8600  133.3455  159.3700 H   0  0  0  0  0  0  0  0  0  0  0  0  # atno 6907 bound_to 6896
  150.7182  134.5216  159.5666 H   0  0  0  0  0  0  0  0  0  0  0  0  # atno 6908 bound_to 6896
  152.2727  134.7915  160.0462 H   0  0  0  0  0  0  0  0  0  0  0  0  # atno 6909 bound_to 6896
  146.0203  140.6858  142.9181 H   0  0  0  0  0  0  0  0  0  0  0  0  # atno 7974 bound_to 7965
  156.2498  140.1950  156.6743 H   0  0  0  0  0  0  0  0  0  0  0  0  # atno 8008 bound_to 7997
  154.6369  140.0588  156.9826 H   0  0  0  0  0  0  0  0  0  0  0  0  # atno 8009 bound_to 7997
  155.1622  140.3261  155.4412 H   0  0  0  0  0  0  0  0  0  0  0  0  # atno 8010 bound_to 7997
  140.5651  143.9265  150.6671 H   0  0  0  0  0  0  0  0  0  0  0  0  # atno 10167 bound_to 10162
  157.5958  131.1058  150.7903 H   0  0  0  0  0  0  0  0  0  0  0  0  # atno 10718 bound_to 10713
  153.8453  135.6854  153.4798 H   0  0  0  0  0  0  0  0  0  0  0  0  # atno 10763 bound_to 10752
  153.1429  135.4650  154.9521 H   0  0  0  0  0  0  0  0  0  0  0  0  # atno 10764 bound_to 10752
  154.7827  135.3274  154.7902 H   0  0  0  0  0  0  0  0  0  0  0  0  # atno 10765 bound_to 10752
  140.5296  134.5630  157.5071 H   0  0  0  0  0  0  0  0  0  0  0  0  # atno 11005 bound_to 11000
  144.6987  140.3554  143.7174 LP  0  0  0  0  0  0  0  0  0  0  0  0  # atno 17320 bound_to 7965
  145.7204  139.1708  143.2488 LP  0  0  0  0  0  0  0  0  0  0  0  0  # atno 17321 bound_to 7965
  140.2726  143.3445  152.1224 LP  0  0  0  0  0  0  0  0  0  0  0  0  # atno 17342 bound_to 10162
  139.5089  144.6858  151.5891 LP  0  0  0  0  0  0  0  0  0  0  0  0  # atno 17343 bound_to 10162
  156.8314  130.5017  149.5331 LP  0  0  0  0  0  0  0  0  0  0  0  0  # atno 17370 bound_to 10713
  156.1020  130.5976  150.9910 LP  0  0  0  0  0  0  0  0  0  0  0  0  # atno 17371 bound_to 10713
  139.9562  134.7532  156.0338 LP  0  0  0  0  0  0  0  0  0  0  0  0  # atno 17394 bound_to 11000
  141.1289  133.6592  156.3411 LP  0  0  0  0  0  0  0  0  0  0  0  0  # atno 17395 bound_to 11000

$$$$
