AV-unprocessed.smi:2200|AV-procd|sdf|8925|dock6
  -GOLD-   2272012143D 1   1.00000     0.00000
 Structure written by MMmdl.
 31 31  0  0  0  0  0  0  0  0  1 V2000
  152.0978  145.3062  158.9040 C   0  0  0  0  0  0  0  0  0  0  0  0
  151.3845  144.2190  159.7203 C   0  0  0  0  0  0  0  0  0  0  0  0
  152.3305  143.0372  159.9977 C   0  0  0  0  0  0  0  0  0  0  0  0
  150.0791  143.7794  159.0220 C   0  0  0  0  0  0  0  0  0  0  0  0
  150.2947  143.3684  157.6387 N   0  0  0  0  0  0  0  0  0  0  0  0
  150.4225  142.1000  157.2214 C   0  0  0  0  0  0  0  0  0  0  0  0
  150.3254  141.1295  157.9737 O   0  0  0  0  0  0  0  0  0  0  0  0
  150.6854  141.9016  155.7222 C   0  0  0  0  0  0  0  0  0  0  0  0
  149.5986  141.1756  155.0495 N   0  0  0  0  0  0  0  0  0  0  0  0
  148.3077  141.6848  155.0497 C   0  0  0  0  0  0  0  0  0  0  0  0
  147.2600  141.0606  154.4608 C   0  0  0  0  0  0  0  0  0  0  0  0
  147.4483  139.7844  153.7794 C   0  0  0  0  0  0  0  0  0  0  0  0
  146.5635  139.1440  153.2160 O   0  0  0  0  0  0  0  0  0  0  0  0
  148.7603  139.3039  153.8030 N   0  0  0  0  0  0  0  0  0  0  0  0
  149.8444  139.9413  154.4086 C   0  0  0  0  0  0  0  0  0  0  0  0
  150.9622  139.4279  154.3741 O   0  0  0  0  0  0  0  0  0  0  0  0
  148.9386  138.4214  153.3461 H   0  0  0  0  0  0  0  0  0  0  0  0
  152.4017  144.9323  157.9256 H   0  0  0  0  0  0  0  0  0  0  0  0
  152.9917  145.6607  159.4181 H   0  0  0  0  0  0  0  0  0  0  0  0
  151.4484  146.1676  158.7448 H   0  0  0  0  0  0  0  0  0  0  0  0
  151.1231  144.6618  160.6822 H   0  0  0  0  0  0  0  0  0  0  0  0
  152.6137  142.5312  159.0740 H   0  0  0  0  0  0  0  0  0  0  0  0
  151.8705  142.2989  160.6553 H   0  0  0  0  0  0  0  0  0  0  0  0
  153.2454  143.3751  160.4848 H   0  0  0  0  0  0  0  0  0  0  0  0
  149.6068  142.9652  159.5745 H   0  0  0  0  0  0  0  0  0  0  0  0
  149.3636  144.6023  159.0203 H   0  0  0  0  0  0  0  0  0  0  0  0
  150.3791  144.1045  156.9525 H   0  0  0  0  0  0  0  0  0  0  0  0
  150.8247  142.8849  155.2709 H   0  0  0  0  0  0  0  0  0  0  0  0
  151.6321  141.3783  155.5712 H   0  0  0  0  0  0  0  0  0  0  0  0
  148.1196  142.6258  155.5470 H   0  0  0  0  0  0  0  0  0  0  0  0
  146.2767  141.5072  154.4954 H   0  0  0  0  0  0  0  0  0  0  0  0
  1  2  1  0  0  0  0
  1 18  1  0  0  0  0
  1 19  1  0  0  0  0
  1 20  1  0  0  0  0
  2  3  1  0  0  0  0
  2  4  1  0  0  0  0
  2 21  1  0  0  0  0
  3 22  1  0  0  0  0
  3 23  1  0  0  0  0
  3 24  1  0  0  0  0
  4  5  1  0  0  0  0
  4 25  1  0  0  0  0
  4 26  1  0  0  0  0
  5  6  1  0  0  0  0
  5 27  1  0  0  0  0
  6  7  2  0  0  0  0
  6  8  1  0  0  0  0
  8  9  1  0  0  0  0
  8 28  1  0  0  0  0
  8 29  1  0  0  0  0
  9 15  1  0  0  0  0
  9 10  1  0  0  0  0
 10 11  2  0  0  0  0
 10 30  1  0  0  0  0
 11 12  1  0  0  0  0
 11 31  1  0  0  0  0
 12 13  2  0  0  0  0
 12 14  1  0  0  0  0
 14 17  1  0  0  0  0
 14 15  1  0  0  0  0
 15 16  2  0  0  0  0
M  END
> <s_m_source_file>
AV-unprocessed.smi

> <i_m_source_file_index>
2200

> <i_lp_mmshare_version>
43012

> <i_f3d_flags>
0

> <s_epik_input>
W0NIM11bQ0hdKFtDSDNdKVtDSDJdW05IXUMoPU8pW0NIMl1uMVtjSF1bY0hdYyg9TylbbkhdYzE9Tw==

> <s_epik_cmdline>
J2VwaWtfcHl0aG9uJywgJy1waCcsICc3LjAnLCAnLXRuJywgJzgnLCAnLW1hJywgJzIwMCcsICctbWV0YWxfYmluZGluZycsICctaW1hZScsICc8aW5maWxlLm1hZT4nLCAnLW9tYWUnLCAnPG91dGZpbGUubWFlPic=

> <r_lp_tautomer_probability>
0.999537

> <r_epik_Ionization_Penalty>
0.00328917

> <r_epik_Ionization_Penalty_Charging>
0.00328916

> <r_epik_Ionization_Penalty_Neutral>
1.93017e-08

> <r_epik_State_Penalty>
0.00232387

> <r_epik_Charging_Adjusted_Penalty>
0.00561303

> <i_epik_Tot_Q>
0

> <i_epik_Tot_abs_Q>
0

> <r_epik_Metal_State_Penalty>
0.365274

> <b_epik_Metal_Only>
0

> <s_lp_Force_Field>
OPLS_2005

> <r_lp_Energy>
3.18145

> <b_lp_Chiralities_Consistent>
1

> <s_lp_Variant>
AV-unprocessed.smi:2200-1

> <Gold.Version>
5.8.1

> <Gold.Id.Protein>
6NUR|6NUR_protein|mol2

> <Gold.PLP.Fitness>
38.2654

> <Gold.PLP.PLP>
-32.1686

> <Gold.PLP.part.hbond>
-3.0000

> <Gold.PLP.part.metal>
0.0000

> <Gold.PLP.part.buried>
-3.0252

> <Gold.PLP.part.nonpolar>
-26.0298

> <Gold.PLP.part.repulsive>
0.4896

> <Gold.PLP.ligand.clash>
0.0000

> <Gold.PLP.ligand.torsion>
0.2028

> <Gold.PLP.Chemscore.Hbond>
1.1648

> <Gold.PLP.Chemscore.CHOScore>
1.0000

> <Gold.PLP.Chemscore.Metal>
0.0000

> <Gold.Chemscore.Hbonds>
donor molecule, donor type, donor heavy atom, donor atom, acceptor molecule, acceptor atom, score
      L1  H     5    27       P1  8028  0.51
      P1  H  7989  7998       L1    16  0.55
      L1  C    10    30       P1  8028  1.00

> <Gold.PLP.Chemscore.Internal.Correction>
0.0079

> <Gold.Rescore>
     Score         DG    S(hbond)    S(metal)    S(lipo)     H(rot)  DE(clash)    DE(int)     intcor
      9.28      -9.63       0.57        0.00      63.21       2.01       0.14       0.20       ----

> <Gold.Chemscore.Fitness>
9.2843

> <Gold.Chemscore.DG>
-9.6320

> <Gold.Chemscore.ZeroCoef>
-5.4800

> <Gold.Chemscore.Hbond>
0.5731

> <Gold.Chemscore.Metal>
0.0000

> <Gold.Chemscore.Lipo>
63.2138

> <Gold.Chemscore.Internal_Hbond>
0.0000

> <Gold.Chemscore.DEClash>
0.1438

> <Gold.Chemscore.DEInternal>
0.2039

> <Gold.Chemscore.Rot>
2.0150

> <Gold.Chemscore.Internal.Correction>
   9.000000E+99

> <Gold.Chemscore.Hbonds>
donor molecule, donor type, donor heavy atom, donor atom, acceptor molecule, acceptor atom, score
      L1  H     5    27       P1  8028  0.46
      P1  H  7989  7998       L1    16  0.03

> <Gold.Chemscore.Hbond.Weighted>
-1.9143

> <Gold.Chemscore.Metal.Weighted>
-0.0000

> <Gold.Chemscore.Lipo.Weighted>
-7.3960

> <Gold.Chemscore.Internal_Hbond.Weighted>
0.0000

> <Gold.Chemscore.DEClash.Weighted>
0.1438

> <Gold.Chemscore.DEInternal.Weighted>
0.2039

> <Gold.Chemscore.Rot.Weighted>
5.1583

> <Gold.Chemscore.Internal.Correction.Weighted>
   9.000000E+99

> <Gold.Protein.RotatedTorsions>
[ 6907 6896 6895 6894 ] final -167.30 input  -60.11 | X-H torsion
[ 7974 7965 7964 7962 ] final -149.52 input  175.53 | X-H torsion
[ 8008 7997 7996 7995 ] final  135.50 input   59.86 | X-H torsion
[ 10167 10162 10161 10158 ] final  138.20 input  -65.29 | X-H torsion
[ 10718 10713 10712 10709 ] final   29.22 input   66.30 | X-H torsion
[ 10763 10752 10751 10750 ] final   94.95 input  -60.55 | X-H torsion
[ 11005 11000 10999 10996 ] final  -87.35 input  -57.11 | X-H torsion

> <Gold.Protein.ActiveResidues>
 VAL166  LYS551  ARG553  GLY616  TRP617  ASP618  TYR619  PRO620  LYS621  CYS622 
 ASP623  PHE694  ASN695  SER759  ASP760  ASP761  ALA762  ILE779  LEU786  VAL792 
 PHE793  MET794  SER795  GLU796  ALA797  LYS798  CYS799  TRP800  GLU811  SER814 

> <Gold.Protein.RotatedAtoms>
  151.4574  133.3601  159.2803 H   0  0  0  0  0  0  0  0  0  0  0  0  # atno 6907 bound_to 6896
  150.9049  134.8465  159.7396 H   0  0  0  0  0  0  0  0  0  0  0  0  # atno 6908 bound_to 6896
  152.4900  134.4498  159.9623 H   0  0  0  0  0  0  0  0  0  0  0  0  # atno 6909 bound_to 6896
  144.7963  140.5054  143.5738 H   0  0  0  0  0  0  0  0  0  0  0  0  # atno 7974 bound_to 7965
  156.3003  140.2469  156.3592 H   0  0  0  0  0  0  0  0  0  0  0  0  # atno 8008 bound_to 7997
  154.8893  140.0410  157.1848 H   0  0  0  0  0  0  0  0  0  0  0  0  # atno 8009 bound_to 7997
  154.8614  140.2921  155.5540 H   0  0  0  0  0  0  0  0  0  0  0  0  # atno 8010 bound_to 7997
  139.5119  144.6367  151.5678 H   0  0  0  0  0  0  0  0  0  0  0  0  # atno 10167 bound_to 10162
  157.2437  130.7081  149.6371 H   0  0  0  0  0  0  0  0  0  0  0  0  # atno 10718 bound_to 10713
  153.2475  135.4271  155.0763 H   0  0  0  0  0  0  0  0  0  0  0  0  # atno 10763 bound_to 10752
  154.8367  135.3418  154.6560 H   0  0  0  0  0  0  0  0  0  0  0  0  # atno 10764 bound_to 10752
  153.6982  135.7030  153.5127 H   0  0  0  0  0  0  0  0  0  0  0  0  # atno 10765 bound_to 10752
  141.1618  133.7506  156.9295 H   0  0  0  0  0  0  0  0  0  0  0  0  # atno 11005 bound_to 11000
  145.5666  139.1481  143.3312 LP  0  0  0  0  0  0  0  0  0  0  0  0  # atno 17320 bound_to 7965
  146.2232  140.5800  142.9008 LP  0  0  0  0  0  0  0  0  0  0  0  0  # atno 17321 bound_to 7965
  140.6119  143.9421  150.6459 LP  0  0  0  0  0  0  0  0  0  0  0  0  # atno 17342 bound_to 10162
  140.2666  143.3485  152.1275 LP  0  0  0  0  0  0  0  0  0  0  0  0  # atno 17343 bound_to 10162
  155.9669  130.4450  150.5483 LP  0  0  0  0  0  0  0  0  0  0  0  0  # atno 17370 bound_to 10713
  157.3352  131.0707  151.1830 LP  0  0  0  0  0  0  0  0  0  0  0  0  # atno 17371 bound_to 10713
  140.1396  134.9302  157.2449 LP  0  0  0  0  0  0  0  0  0  0  0  0  # atno 17394 bound_to 11000
  140.2852  134.3303  155.7331 LP  0  0  0  0  0  0  0  0  0  0  0  0  # atno 17395 bound_to 11000

$$$$
