#       Name:                AV-unprocessed.smi:994
#       Creating user name   scv26
#       Creation time:       Fri Mar 27 02:23:57 2020


#       File generated by GOLD software.
#

@<TRIPOS>MOLECULE
AV-unprocessed.smi:994
    44    45     1
SMALL
NO_CHARGES


@<TRIPOS>ATOM
      1 ****         0.7610   1.7781  -1.0194 O.2            1 S1                 0.0000
      2 ****         0.2849   0.6486  -0.9023 C.2            1 S1                 0.0000
      3 ****         1.0285  -0.4450  -0.6739 N.am           1 S1                 0.0000
      4 ****         2.4888  -0.4786  -0.5870 C.3            1 S1                 0.0000
      5 ****         2.9074  -1.5102   0.4828 C.3            1 S1                 0.0000
      6 ****         2.5428  -1.1470   1.9040 C.2            1 S1                 0.0000
      7 ****         1.9730  -0.0065   2.4435 C.2            1 S1                 0.0000
      8 ****         1.8625  -0.2022   3.8101 N.pl3          1 S1                 0.0000
      9 ****         2.3563  -1.4118   4.0656 C.2            1 S1                 0.0000
     10 ****         2.7787  -2.0173   2.9572 N.pl3          1 S1                 1.0000
     11 ****         3.0640  -0.9208  -1.9395 C.2            1 S1                 0.0000
     12 ****         3.9318  -0.1826  -2.4536 O.co2          1 S1                 0.0000
     13 ****         2.6374  -1.9898  -2.4314 O.co2          1 S1                -1.0000
     14 ****        -1.2313   0.4341  -0.9975 C.3            1 S1                 0.0000
     15 ****        -1.7737   0.9032  -2.3648 C.3            1 S1                 0.0000
     16 ****        -3.2969   0.7140  -2.4590 C.3            1 S1                 0.0000
     17 ****        -4.0200   1.4330  -1.3090 C.3            1 S1                 0.0000
     18 ****        -3.4842   0.9747   0.0567 C.3            1 S1                 0.0000
     19 ****        -1.9613   1.1646   0.1500 C.3            1 S1                 0.0000
     20 ****         1.4836   0.4495   4.4826 H              1 S1                 0.0000
     21 ****         0.5539  -1.3339  -0.6123 H              1 S1                 0.0000
     22 ****         2.8934   0.5017  -0.3269 H              1 S1                 0.0000
     23 ****         2.4691  -2.4849   0.2611 H              1 S1                 0.0000
     24 ****         3.9895  -1.6479   0.4564 H              1 S1                 0.0000
     25 ****         1.6389   0.9135   1.9861 H              1 S1                 0.0000
     26 ****         2.4085  -1.8494   5.0519 H              1 S1                 0.0000
     27 ****        -1.4334  -0.6346  -0.9028 H              1 S1                 0.0000
     28 ****        -1.5336   1.9555  -2.5257 H              1 S1                 0.0000
     29 ****        -1.2884   0.3508  -3.1707 H              1 S1                 0.0000
     30 ****        -3.6589   1.0886  -3.4167 H              1 S1                 0.0000
     31 ****        -3.5355  -0.3499  -2.4329 H              1 S1                 0.0000
     32 ****        -3.8861   2.5108  -1.4108 H              1 S1                 0.0000
     33 ****        -5.0927   1.2473  -1.3694 H              1 S1                 0.0000
     34 ****        -3.9777   1.5301   0.8548 H              1 S1                 0.0000
     35 ****        -3.7315  -0.0764   0.2120 H              1 S1                 0.0000
     36 ****        -1.6075   0.7965   1.1139 H              1 S1                 0.0000
     37 ****        -1.7313   2.2311   0.1243 H              1 S1                 0.0000
     38 ****         3.1918  -2.9372   2.8935 H              1 S1                 0.0000
     39 ****         1.7488   1.9145  -0.9447 LP             1 S1                 0.0000
     40 ****         0.1598   2.5590  -1.1892 LP             1 S1                 0.0000
     41 ****         4.3442  -0.4312  -3.3300 LP             1 S1                 0.0000
     42 ****         4.2136   0.6566  -1.9885 LP             1 S1                 0.0000
     43 ****         2.9948  -2.3151  -3.3069 LP             1 S1                 0.0000
     44 ****         1.9391  -2.5186  -1.9490 LP             1 S1                 0.0000
@<TRIPOS>BOND
    1    1    2 2     
    2    2    3 am    
    3    2   14 1     
    4    3    4 1     
    5    3   21 1     
    6    4    5 1     
    7    4   11 1     
    8    4   22 1     
    9    5    6 1     
   10    5   23 1     
   11    5   24 1     
   12    6   10 1     
   13    6    7 2     
   14    7    8 1     
   15    7   25 1     
   16    8   20 1     
   17    8    9 1     
   18    9   10 2     
   19    9   26 1     
   20   10   38 1     
   21   11   12 ar    
   22   11   13 ar    
   23   14   19 1     
   24   14   15 1     
   25   14   27 1     
   26   15   16 1     
   27   15   28 1     
   28   15   29 1     
   29   16   17 1     
   30   16   30 1     
   31   16   31 1     
   32   17   18 1     
   33   17   32 1     
   34   17   33 1     
   35   18   19 1     
   36   18   34 1     
   37   18   35 1     
   38   19   36 1     
   39   19   37 1     
   40    1   39 1     
   41    1   40 1     
   42   12   41 1     
   43   12   42 1     
   44   13   43 1     
   45   13   44 1     
@<TRIPOS>SUBSTRUCTURE
      1 S1             1
@<TRIPOS>SET
LONE_PAIRS      STATIC     ATOMS    <user>   **** ""
6 39 40 41 42 43 44
DONOR_HYDROGENS      STATIC     ATOMS    <user>   **** ""
3 21 20 38
ATOM$BLUE        STATIC     ATOMS    COLORGROUP SYSTEM
6 39 40 41 42 43 44
ATOM$RED        STATIC     ATOMS    COLORGROUP SYSTEM
3 21 20 38
