AV-unprocessed.smi:1269|AV-procd|sdf|5330|dock8
  -GOLD-   22720 4463D 1   1.00000     0.00000
 Structure written by MMmdl.
 44 45  0  0  0  0  0  0  0  0  2 V2000
  153.2126  143.4206  162.4876 C   0  0  0  0  0  0  0  0  0  0  0  0
  152.5096  144.2017  161.5277 O   0  0  0  0  0  0  0  0  0  0  0  0
  152.0614  143.5811  160.3797 C   0  0  0  0  0  0  0  0  0  0  0  0
  152.5945  142.3216  160.0420 C   0  0  0  0  0  0  0  0  0  0  0  0
  152.1461  141.6822  158.8706 C   0  0  0  0  0  0  0  0  0  0  0  0
  151.1684  142.3232  158.0713 C   0  0  0  0  0  0  0  0  0  0  0  0
  150.6361  141.8010  156.8595 N   0  0  0  0  0  0  0  0  0  0  0  0
  150.5689  140.5267  156.4375 C   0  0  0  0  0  0  0  0  0  0  0  0
  150.9426  139.5413  157.0716 O   0  0  0  0  0  0  0  0  0  0  0  0
  150.0378  140.4521  155.2078 N   0  0  0  0  0  0  0  0  0  0  0  0
  149.8004  139.2248  154.4454 C   0  0  1  0  0  0  0  0  0  0  0  0
  151.0851  138.3851  154.4382 C   0  0  0  0  0  0  0  0  0  0  0  0
  148.6106  138.4226  155.0222 C   0  0  0  0  0  0  0  0  0  0  0  0
  147.7249  137.8574  153.9728 N   0  3  0  0  0  0  0  0  0  0  0  0
  146.6719  136.9597  154.5060 C   0  0  0  0  0  0  0  0  0  0  0  0
  145.8603  136.3522  153.3502 C   0  0  0  0  0  0  0  0  0  0  0  0
  145.2961  137.3964  152.5656 O   0  0  0  0  0  0  0  0  0  0  0  0
  146.2941  138.2274  151.9854 C   0  0  0  0  0  0  0  0  0  0  0  0
  147.1275  138.8905  153.0954 C   0  0  0  0  0  0  0  0  0  0  0  0
  150.7034  143.5855  158.4963 C   0  0  0  0  0  0  0  0  0  0  0  0
  151.1303  144.2044  159.6168 N   0  0  0  0  0  0  0  0  0  0  0  0
  153.4962  144.0529  163.3289 H   0  0  0  0  0  0  0  0  0  0  0  0
  154.1272  142.9997  162.0674 H   0  0  0  0  0  0  0  0  0  0  0  0
  152.5914  142.6125  162.8764 H   0  0  0  0  0  0  0  0  0  0  0  0
  153.3386  141.8545  160.6702 H   0  0  0  0  0  0  0  0  0  0  0  0
  152.5714  140.7254  158.6150 H   0  0  0  0  0  0  0  0  0  0  0  0
  150.2399  142.4911  156.2378 H   0  0  0  0  0  0  0  0  0  0  0  0
  149.7558  141.3153  154.7663 H   0  0  0  0  0  0  0  0  0  0  0  0
  149.5889  139.4841  153.4071 H   0  0  0  0  0  0  0  0  0  0  0  0
  150.9567  137.4771  153.8481 H   0  0  0  0  0  0  0  0  0  0  0  0
  151.3733  138.0875  155.4471 H   0  0  0  0  0  0  0  0  0  0  0  0
  151.9169  138.9418  154.0050 H   0  0  0  0  0  0  0  0  0  0  0  0
  148.9631  137.6210  155.6730 H   0  0  0  0  0  0  0  0  0  0  0  0
  148.0281  139.0924  155.6568 H   0  0  0  0  0  0  0  0  0  0  0  0
  147.1166  136.1594  155.0968 H   0  0  0  0  0  0  0  0  0  0  0  0
  146.0127  137.5193  155.1712 H   0  0  0  0  0  0  0  0  0  0  0  0
  146.4872  135.7100  152.7292 H   0  0  0  0  0  0  0  0  0  0  0  0
  145.0556  135.7298  153.7417 H   0  0  0  0  0  0  0  0  0  0  0  0
  146.9296  137.6407  151.3197 H   0  0  0  0  0  0  0  0  0  0  0  0
  145.8090  138.9884  151.3738 H   0  0  0  0  0  0  0  0  0  0  0  0
  146.5017  139.5593  153.6884 H   0  0  0  0  0  0  0  0  0  0  0  0
  147.9146  139.4979  152.6469 H   0  0  0  0  0  0  0  0  0  0  0  0
  149.9633  144.1195  157.9184 H   0  0  0  0  0  0  0  0  0  0  0  0
  148.3159  137.2926  153.3791 H   0  0  0  0  0  0  0  0  0  0  0  0
  1  2  1  0  0  0  0
  1 22  1  0  0  0  0
  1 23  1  0  0  0  0
  1 24  1  0  0  0  0
  2  3  1  0  0  0  0
  3 21  1  0  0  0  0
  3  4  2  0  0  0  0
  4  5  1  0  0  0  0
  4 25  1  0  0  0  0
  5  6  2  0  0  0  0
  5 26  1  0  0  0  0
  6  7  1  0  0  0  0
  6 20  1  0  0  0  0
  7  8  1  0  0  0  0
  7 27  1  0  0  0  0
  8  9  2  0  0  0  0
  8 10  1  0  0  0  0
 10 11  1  0  0  0  0
 10 28  1  0  0  0  0
 11 12  1  0  0  0  0
 11 13  1  0  0  0  0
 11 29  1  0  0  0  0
 12 30  1  0  0  0  0
 12 31  1  0  0  0  0
 12 32  1  0  0  0  0
 13 14  1  0  0  0  0
 13 33  1  0  0  0  0
 13 34  1  0  0  0  0
 14 19  1  0  0  0  0
 14 15  1  0  0  0  0
 14 44  1  0  0  0  0
 15 16  1  0  0  0  0
 15 35  1  0  0  0  0
 15 36  1  0  0  0  0
 16 17  1  0  0  0  0
 16 37  1  0  0  0  0
 16 38  1  0  0  0  0
 17 18  1  0  0  0  0
 18 19  1  0  0  0  0
 18 39  1  0  0  0  0
 18 40  1  0  0  0  0
 19 41  1  0  0  0  0
 19 42  1  0  0  0  0
 20 21  2  0  0  0  0
 20 43  1  0  0  0  0
M  CHG  1  14   1
M  END
> <s_m_source_file>
AV-unprocessed.smi

> <i_m_source_file_index>
1269

> <i_lp_mmshare_version>
43012

> <i_f3d_flags>
0

> <s_epik_input>
W0NIM11PYzFbY0hdW2NIXWMoW2NIXW4xKVtOSF1DKD1PKVtOSF1bQ0BIXShbQ0gzXSlbQ0gyXU4yW0NIMl1bQ0gyXU9bQ0gyXVtDSDJdMg==

> <s_epik_cmdline>
J2VwaWtfcHl0aG9uJywgJy1waCcsICc3LjAnLCAnLXRuJywgJzgnLCAnLW1hJywgJzIwMCcsICctbWV0YWxfYmluZGluZycsICctaW1hZScsICc8aW5maWxlLm1hZT4nLCAnLW9tYWUnLCAnPG91dGZpbGUubWFlPic=

> <r_lp_tautomer_probability>
1

> <r_epik_Ionization_Penalty>
0.602604

> <r_epik_Ionization_Penalty_Charging>
0.602531

> <r_epik_Ionization_Penalty_Neutral>
7.37831e-05

> <r_epik_State_Penalty>
0.617039

> <r_epik_Charging_Adjusted_Penalty>
1.21957

> <i_epik_Tot_Q>
1

> <i_epik_Tot_abs_Q>
1

> <r_epik_Metal_State_Penalty>
0.617045

> <b_epik_Metal_Only>
0

> <s_lp_Force_Field>
OPLS_2005

> <r_lp_Energy>
25.4329

> <b_lp_Chiralities_Consistent>
1

> <s_lp_Variant>
AV-unprocessed.smi:1269-4

> <Gold.Version>
5.8.1

> <Gold.Id.Protein>
6NUR|6NUR_protein|mol2

> <Gold.PLP.Fitness>
41.8184

> <Gold.PLP.PLP>
-34.4926

> <Gold.PLP.part.hbond>
-1.0000

> <Gold.PLP.part.metal>
0.0000

> <Gold.PLP.part.buried>
-4.0815

> <Gold.PLP.part.nonpolar>
-30.5457

> <Gold.PLP.part.repulsive>
0.9801

> <Gold.PLP.ligand.clash>
0.0000

> <Gold.PLP.ligand.torsion>
1.0201

> <Gold.PLP.Chemscore.Hbond>
2.0000

> <Gold.PLP.Chemscore.CHOScore>
1.1132

> <Gold.PLP.Chemscore.Metal>
0.0000

> <Gold.Chemscore.Hbonds>
donor molecule, donor type, donor heavy atom, donor atom, acceptor molecule, acceptor atom, score
      L1  H    14    44       P1  7948  2.00
      L1  C    20    43       P1  8028  0.97
      L1  C    20    43       P1  8029  0.10

> <Gold.PLP.Chemscore.Internal.Correction>
0.0265

> <Gold.Rescore>
     Score         DG    S(hbond)    S(metal)    S(lipo)     H(rot)  DE(clash)    DE(int)     intcor
     11.00     -14.45       1.00        0.00      87.03       1.78       0.46       2.99       ----

> <Gold.Chemscore.Fitness>
11.0009

> <Gold.Chemscore.DG>
-14.4451

> <Gold.Chemscore.ZeroCoef>
-5.4800

> <Gold.Chemscore.Hbond>
0.9999

> <Gold.Chemscore.Metal>
0.0000

> <Gold.Chemscore.Lipo>
87.0309

> <Gold.Chemscore.Internal_Hbond>
0.0000

> <Gold.Chemscore.DEClash>
0.4566

> <Gold.Chemscore.DEInternal>
2.9876

> <Gold.Chemscore.Rot>
1.7801

> <Gold.Chemscore.Internal.Correction>
   9.000000E+99

> <Gold.Chemscore.Hbonds>
donor molecule, donor type, donor heavy atom, donor atom, acceptor molecule, acceptor atom, score
      L1  H    14    44       P1  7948  0.99

> <Gold.Chemscore.Hbond.Weighted>
-3.3395

> <Gold.Chemscore.Metal.Weighted>
-0.0000

> <Gold.Chemscore.Lipo.Weighted>
-10.1826

> <Gold.Chemscore.Internal_Hbond.Weighted>
0.0000

> <Gold.Chemscore.DEClash.Weighted>
0.4566

> <Gold.Chemscore.DEInternal.Weighted>
2.9876

> <Gold.Chemscore.Rot.Weighted>
4.5570

> <Gold.Chemscore.Internal.Correction.Weighted>
   9.000000E+99

> <Gold.Protein.RotatedTorsions>
[ 6907 6896 6895 6894 ] final  175.95 input  -60.11 | X-H torsion
[ 7974 7965 7964 7962 ] final  -15.98 input  175.53 | X-H torsion
[ 8008 7997 7996 7995 ] final -119.13 input   59.86 | X-H torsion
[ 10167 10162 10161 10158 ] final -100.71 input  -65.29 | X-H torsion
[ 10718 10713 10712 10709 ] final  -54.52 input   66.30 | X-H torsion
[ 10763 10752 10751 10750 ] final  135.94 input  -60.55 | X-H torsion
[ 11005 11000 10999 10996 ] final -167.74 input  -57.11 | X-H torsion

> <Gold.Protein.ActiveResidues>
 VAL166  LYS551  ARG553  GLY616  TRP617  ASP618  TYR619  PRO620  LYS621  CYS622 
 ASP623  PHE694  ASN695  SER759  ASP760  ASP761  ALA762  ILE779  LEU786  VAL792 
 PHE793  MET794  SER795  GLU796  ALA797  LYS798  CYS799  TRP800  GLU811  SER814 

> <Gold.Protein.RotatedAtoms>
  151.7280  133.3316  159.3332 H   0  0  0  0  0  0  0  0  0  0  0  0  # atno 6907 bound_to 6896
  150.7625  134.6389  159.6236 H   0  0  0  0  0  0  0  0  0  0  0  0  # atno 6908 bound_to 6896
  152.3610  134.6874  160.0259 H   0  0  0  0  0  0  0  0  0  0  0  0  # atno 6909 bound_to 6896
  146.2008  140.3570  142.8424 H   0  0  0  0  0  0  0  0  0  0  0  0  # atno 7974 bound_to 7965
  155.1108  140.0397  157.2723 H   0  0  0  0  0  0  0  0  0  0  0  0  # atno 8008 bound_to 7997
  154.6686  140.2607  155.7005 H   0  0  0  0  0  0  0  0  0  0  0  0  # atno 8009 bound_to 7997
  156.2649  140.2802  156.1187 H   0  0  0  0  0  0  0  0  0  0  0  0  # atno 8010 bound_to 7997
  140.2490  143.3485  152.0732 H   0  0  0  0  0  0  0  0  0  0  0  0  # atno 10167 bound_to 10162
  156.1444  130.4153  150.0049 H   0  0  0  0  0  0  0  0  0  0  0  0  # atno 10718 bound_to 10713
  153.8483  135.3082  155.3431 H   0  0  0  0  0  0  0  0  0  0  0  0  # atno 10763 bound_to 10752
  154.7902  135.4787  154.0039 H   0  0  0  0  0  0  0  0  0  0  0  0  # atno 10764 bound_to 10752
  153.1533  135.6847  153.8942 H   0  0  0  0  0  0  0  0  0  0  0  0  # atno 10765 bound_to 10752
  140.5499  134.5439  157.5120 H   0  0  0  0  0  0  0  0  0  0  0  0  # atno 11005 bound_to 11000
  144.8680  140.7232  143.6065 LP  0  0  0  0  0  0  0  0  0  0  0  0  # atno 17320 bound_to 7965
  145.3490  139.1711  143.4445 LP  0  0  0  0  0  0  0  0  0  0  0  0  # atno 17321 bound_to 7965
  139.5052  144.6790  151.6055 LP  0  0  0  0  0  0  0  0  0  0  0  0  # atno 17342 bound_to 10162
  140.6055  143.9532  150.6415 LP  0  0  0  0  0  0  0  0  0  0  0  0  # atno 17343 bound_to 10162
  156.7925  130.9261  151.3646 LP  0  0  0  0  0  0  0  0  0  0  0  0  # atno 17370 bound_to 10713
  157.6603  130.8960  149.9817 LP  0  0  0  0  0  0  0  0  0  0  0  0  # atno 17371 bound_to 10713
  139.9460  134.7700  156.0560 LP  0  0  0  0  0  0  0  0  0  0  0  0  # atno 17394 bound_to 11000
  141.1178  133.6622  156.3137 LP  0  0  0  0  0  0  0  0  0  0  0  0  # atno 17395 bound_to 11000

$$$$
