AV-unprocessed.smi:2832|AV-procd|sdf|10913|dock7
  -GOLD-   2272015363D 1   1.00000     0.00000
 Structure written by MMmdl.
 33 33  0  0  0  0  0  0  0  0  2 V2000
  147.5721  141.3847  153.7769 C   0  0  0  0  0  0  0  0  0  0  0  0
  148.6905  140.6746  154.5474 C   0  0  0  0  0  0  0  0  0  0  0  0
  149.5932  141.6649  155.3171 C   0  0  0  0  0  0  0  0  0  0  0  0
  150.4342  141.0711  156.4853 C   0  0  2  0  0  0  0  0  0  0  0  0
  149.5120  140.2011  157.3765 C   0  0  0  0  0  0  0  0  0  0  0  0
  151.0937  142.1781  157.2001 N   0  0  0  0  0  0  0  0  0  0  0  0
  150.8684  142.7272  158.4081 C   0  0  0  0  0  0  0  0  0  0  0  0
  149.9196  142.4570  159.1428 O   0  0  0  0  0  0  0  0  0  0  0  0
  151.8976  143.7647  158.8588 C   0  0  0  0  0  0  0  0  0  0  0  0
  152.3888  143.4716  160.1954 N   0  0  0  0  0  0  0  0  0  0  0  0
  152.1991  144.1892  161.3600 C   0  0  0  0  0  0  0  0  0  0  0  0
  152.8420  143.5195  162.3610 C   0  0  0  0  0  0  0  0  0  0  0  0
  153.3987  142.3861  161.7056 C   0  0  0  0  0  0  0  0  0  0  0  0
  153.1215  142.3569  160.4121 N   0  0  0  0  0  0  0  0  0  0  0  0
  151.5574  140.1296  155.9837 C   0  0  0  0  0  0  0  0  0  0  0  0
  152.3608  139.6556  156.8177 O   0  0  0  0  0  0  0  0  0  0  0  0
  151.6111  139.9092  154.7522 O   0  5  0  0  0  0  0  0  0  0  0  0
  146.9561  140.6655  153.2368 H   0  0  0  0  0  0  0  0  0  0  0  0
  147.9797  142.0872  153.0496 H   0  0  0  0  0  0  0  0  0  0  0  0
  146.9206  141.9395  154.4527 H   0  0  0  0  0  0  0  0  0  0  0  0
  148.2414  139.9533  155.2294 H   0  0  0  0  0  0  0  0  0  0  0  0
  149.2864  140.0966  153.8407 H   0  0  0  0  0  0  0  0  0  0  0  0
  150.2754  142.1213  154.5985 H   0  0  0  0  0  0  0  0  0  0  0  0
  148.9830  142.4896  155.6888 H   0  0  0  0  0  0  0  0  0  0  0  0
  149.1400  139.3334  156.8297 H   0  0  0  0  0  0  0  0  0  0  0  0
  148.6345  140.7541  157.7123 H   0  0  0  0  0  0  0  0  0  0  0  0
  150.0302  139.8265  158.2606 H   0  0  0  0  0  0  0  0  0  0  0  0
  151.9118  142.5275  156.7230 H   0  0  0  0  0  0  0  0  0  0  0  0
  152.7441  143.7808  158.1708 H   0  0  0  0  0  0  0  0  0  0  0  0
  151.4511  144.7605  158.8404 H   0  0  0  0  0  0  0  0  0  0  0  0
  151.6334  145.1096  161.3780 H   0  0  0  0  0  0  0  0  0  0  0  0
  152.9054  143.7984  163.4023 H   0  0  0  0  0  0  0  0  0  0  0  0
  153.9906  141.5880  162.1292 H   0  0  0  0  0  0  0  0  0  0  0  0
  1  2  1  0  0  0  0
  1 18  1  0  0  0  0
  1 19  1  0  0  0  0
  1 20  1  0  0  0  0
  2  3  1  0  0  0  0
  2 21  1  0  0  0  0
  2 22  1  0  0  0  0
  3  4  1  0  0  0  0
  3 23  1  0  0  0  0
  3 24  1  0  0  0  0
  4  5  1  0  0  0  0
  4  6  1  0  0  0  0
  4 15  1  0  0  0  0
  5 25  1  0  0  0  0
  5 26  1  0  0  0  0
  5 27  1  0  0  0  0
  6  7  1  0  0  0  0
  6 28  1  0  0  0  0
  7  8  2  0  0  0  0
  7  9  1  0  0  0  0
  9 10  1  0  0  0  0
  9 29  1  0  0  0  0
  9 30  1  0  0  0  0
 10 14  1  0  0  0  0
 10 11  1  0  0  0  0
 11 12  2  0  0  0  0
 11 31  1  0  0  0  0
 12 13  1  0  0  0  0
 12 32  1  0  0  0  0
 13 14  2  0  0  0  0
 13 33  1  0  0  0  0
 15 16  2  0  0  0  0
 15 17  1  0  0  0  0
M  CHG  1  17  -1
M  END
> <s_m_source_file>
AV-unprocessed.smi

> <i_m_source_file_index>
2832

> <i_lp_mmshare_version>
43012

> <i_f3d_flags>
0

> <s_epik_input>
W0NIM11bQ0gyXVtDSDJdW0NAXShbQ0gzXSkoQyg9TylbT0hdKVtOSF1DKD1PKVtDSDJdbjFbY0hdW2NIXVtjSF1uMQ==

> <s_epik_cmdline>
J2VwaWtfcHl0aG9uJywgJy1waCcsICc3LjAnLCAnLXRuJywgJzgnLCAnLW1hJywgJzIwMCcsICctbWV0YWxfYmluZGluZycsICctaW1hZScsICc8aW5maWxlLm1hZT4nLCAnLW9tYWUnLCAnPG91dGZpbGUubWFlPic=

> <r_lp_tautomer_probability>
1

> <r_epik_Ionization_Penalty>
0.000287256

> <r_epik_Ionization_Penalty_Charging>
0.00026921

> <r_epik_Ionization_Penalty_Neutral>
1.80463e-05

> <r_epik_State_Penalty>
-0

> <r_epik_Charging_Adjusted_Penalty>
0.00026921

> <i_epik_Tot_Q>
-1

> <i_epik_Tot_abs_Q>
1

> <r_epik_Metal_State_Penalty>
-0

> <b_epik_Metal_Only>
0

> <s_lp_Force_Field>
OPLS_2005

> <r_lp_Energy>
2.74442

> <b_lp_Chiralities_Consistent>
1

> <s_lp_Variant>
AV-unprocessed.smi:2832-2

> <Gold.Version>
5.8.1

> <Gold.Id.Protein>
6NUR|6NUR_protein|mol2

> <Gold.PLP.Fitness>
48.5753

> <Gold.PLP.PLP>
-40.6070

> <Gold.PLP.part.hbond>
-3.0000

> <Gold.PLP.part.metal>
0.0000

> <Gold.PLP.part.buried>
-4.9042

> <Gold.PLP.part.nonpolar>
-31.8448

> <Gold.PLP.part.repulsive>
0.1880

> <Gold.PLP.ligand.clash>
0.0000

> <Gold.PLP.ligand.torsion>
0.5457

> <Gold.PLP.Chemscore.Hbond>
2.9920

> <Gold.PLP.Chemscore.CHOScore>
0.0000

> <Gold.PLP.Chemscore.Metal>
0.0000

> <Gold.Chemscore.Hbonds>
donor molecule, donor type, donor heavy atom, donor atom, acceptor molecule, acceptor atom, score
      P1  H  7989  7998       L1    17  1.00
      P1  H  7997  8010       L1    16  1.69

> <Gold.PLP.Chemscore.Internal.Correction>
0.0837

> <Gold.Rescore>
     Score         DG    S(hbond)    S(metal)    S(lipo)     H(rot)  DE(clash)    DE(int)     intcor
     12.67     -14.77       1.86        0.00      80.35       2.47       0.03       2.07       ----

> <Gold.Chemscore.Fitness>
12.6664

> <Gold.Chemscore.DG>
-14.7695

> <Gold.Chemscore.ZeroCoef>
-5.4800

> <Gold.Chemscore.Hbond>
1.8617

> <Gold.Chemscore.Metal>
0.0000

> <Gold.Chemscore.Lipo>
80.3514

> <Gold.Chemscore.Internal_Hbond>
0.0000

> <Gold.Chemscore.DEClash>
0.0308

> <Gold.Chemscore.DEInternal>
2.0724

> <Gold.Chemscore.Rot>
2.4726

> <Gold.Chemscore.Internal.Correction>
   9.000000E+99

> <Gold.Chemscore.Hbonds>
donor molecule, donor type, donor heavy atom, donor atom, acceptor molecule, acceptor atom, score
      P1  H  7989  7998       L1    17  0.96
      P1  H  7997  8010       L1    16  0.64

> <Gold.Chemscore.Hbond.Weighted>
-6.2181

> <Gold.Chemscore.Metal.Weighted>
-0.0000

> <Gold.Chemscore.Lipo.Weighted>
-9.4011

> <Gold.Chemscore.Internal_Hbond.Weighted>
0.0000

> <Gold.Chemscore.DEClash.Weighted>
0.0308

> <Gold.Chemscore.DEInternal.Weighted>
2.0724

> <Gold.Chemscore.Rot.Weighted>
6.3297

> <Gold.Chemscore.Internal.Correction.Weighted>
   9.000000E+99

> <Gold.Protein.RotatedTorsions>
[ 6907 6896 6895 6894 ] final   15.46 input  -60.11 | X-H torsion
[ 7974 7965 7964 7962 ] final  114.66 input  175.53 | X-H torsion
[ 8008 7997 7996 7995 ] final   80.19 input   59.86 | X-H torsion
[ 10167 10162 10161 10158 ] final  108.24 input  -65.29 | X-H torsion
[ 10718 10713 10712 10709 ] final   89.50 input   66.30 | X-H torsion
[ 10763 10752 10751 10750 ] final  113.99 input  -60.55 | X-H torsion
[ 11005 11000 10999 10996 ] final   89.44 input  -57.11 | X-H torsion

> <Gold.Protein.ActiveResidues>
 VAL166  LYS551  ARG553  GLY616  TRP617  ASP618  TYR619  PRO620  LYS621  CYS622 
 ASP623  PHE694  ASN695  SER759  ASP760  ASP761  ALA762  ILE779  LEU786  VAL792 
 PHE793  MET794  SER795  GLU796  ALA797  LYS798  CYS799  TRP800  GLU811  SER814 

> <Gold.Protein.RotatedAtoms>
  151.8185  135.0659  160.0421 H   0  0  0  0  0  0  0  0  0  0  0  0  # atno 6907 bound_to 6896
  152.2969  133.5611  159.5601 H   0  0  0  0  0  0  0  0  0  0  0  0  # atno 6908 bound_to 6896
  150.7255  134.0264  159.3761 H   0  0  0  0  0  0  0  0  0  0  0  0  # atno 6909 bound_to 6896
  145.2017  139.2949  143.4315 H   0  0  0  0  0  0  0  0  0  0  0  0  # atno 7974 bound_to 7965
  155.8800  140.3444  155.5881 H   0  0  0  0  0  0  0  0  0  0  0  0  # atno 8008 bound_to 7997
  155.7730  140.0848  157.2117 H   0  0  0  0  0  0  0  0  0  0  0  0  # atno 8009 bound_to 7997
  154.4024  140.1515  156.2951 H   0  0  0  0  0  0  0  0  0  0  0  0  # atno 8010 bound_to 7997
  139.6862  144.7113  151.1429 H   0  0  0  0  0  0  0  0  0  0  0  0  # atno 10167 bound_to 10162
  157.6955  131.0335  150.3436 H   0  0  0  0  0  0  0  0  0  0  0  0  # atno 10718 bound_to 10713
  153.5007  135.3639  155.2538 H   0  0  0  0  0  0  0  0  0  0  0  0  # atno 10763 bound_to 10752
  154.8748  135.3999  154.3482 H   0  0  0  0  0  0  0  0  0  0  0  0  # atno 10764 bound_to 10752
  153.4117  135.7078  153.6420 H   0  0  0  0  0  0  0  0  0  0  0  0  # atno 10765 bound_to 10752
  139.8875  134.8551  156.3142 H   0  0  0  0  0  0  0  0  0  0  0  0  # atno 11005 bound_to 11000
  146.3416  140.2264  142.8592 LP  0  0  0  0  0  0  0  0  0  0  0  0  # atno 17320 bound_to 7965
  144.9941  140.8574  143.5321 LP  0  0  0  0  0  0  0  0  0  0  0  0  # atno 17321 bound_to 7965
  140.7668  143.5626  150.9082 LP  0  0  0  0  0  0  0  0  0  0  0  0  # atno 17342 bound_to 10162
  139.9301  143.6503  152.3078 LP  0  0  0  0  0  0  0  0  0  0  0  0  # atno 17343 bound_to 10162
  156.3893  130.3895  149.7042 LP  0  0  0  0  0  0  0  0  0  0  0  0  # atno 17370 bound_to 10713
  156.4397  130.7855  151.2876 LP  0  0  0  0  0  0  0  0  0  0  0  0  # atno 17371 bound_to 10713
  140.9830  133.7255  156.0700 LP  0  0  0  0  0  0  0  0  0  0  0  0  # atno 17394 bound_to 11000
  140.7725  134.3817  157.5505 LP  0  0  0  0  0  0  0  0  0  0  0  0  # atno 17395 bound_to 11000

$$$$
