AV-unprocessed.smi:163|AV-procd|sdf|1380|dock9
  -GOLD-   2262019103D 1   1.00000     0.00000
 Structure written by MMmdl.
 48 51  0  0  0  0  0  0  0  0  1 V2000
  148.3394  144.5610  160.9518 N   0  0  0  0  0  0  0  0  0  0  0  0
  149.4390  144.7519  160.6452 C   0  0  0  0  0  0  0  0  0  0  0  0
  150.8381  144.9975  160.2567 C   0  0  0  0  0  0  0  0  0  0  0  0
  151.7298  143.7527  160.3544 C   0  0  0  0  0  0  0  0  0  0  0  0
  151.9736  143.2794  161.4650 O   0  0  0  0  0  0  0  0  0  0  0  0
  152.2217  143.2158  159.2134 N   0  0  0  0  0  0  0  0  0  0  0  0
  153.0277  141.9923  159.1316 C   0  0  0  0  0  0  0  0  0  0  0  0
  152.1990  140.8964  158.4367 C   0  0  0  0  0  0  0  0  0  0  0  0
  151.7006  141.3635  157.1406 N   0  0  0  0  0  0  0  0  0  0  0  0
  151.1873  140.3947  156.3396 C   0  0  0  0  0  0  0  0  0  0  0  0
  150.5054  140.7388  155.2139 N   0  0  0  0  0  0  0  0  0  0  0  0
  149.9890  139.7956  154.4210 C   0  0  0  0  0  0  0  0  0  0  0  0
  150.0375  138.4700  154.5609 N   0  0  0  0  0  0  0  0  0  0  0  0
  150.7243  138.1160  155.6844 C   0  0  0  0  0  0  0  0  0  0  0  0
  151.3291  139.0051  156.6178 C   0  0  0  0  0  0  0  0  0  0  0  0
  151.9597  138.2768  157.6202 N   0  0  0  0  0  0  0  0  0  0  0  0
  151.7319  137.0318  157.3036 C   0  0  0  0  0  0  0  0  0  0  0  0
  150.9876  136.8431  156.1609 N   0  0  0  0  0  0  0  0  0  0  0  0
  150.5886  135.5707  155.5775 C   0  0  0  0  0  0  0  0  0  0  0  0
  149.0548  135.3827  155.4784 C   0  0  1  0  0  0  0  0  0  0  0  0
  148.5237  136.3739  154.6182 O   0  0  0  0  0  0  0  0  0  0  0  0
  148.6705  134.0014  154.9430 C   0  0  0  0  0  0  0  0  0  0  0  0
  148.1021  133.2879  156.1636 C   0  0  0  0  0  0  0  0  0  0  0  0
  147.4564  134.3371  156.8619 O   0  0  0  0  0  0  0  0  0  0  0  0
  148.3336  135.4538  156.8396 C   0  0  0  0  0  0  0  0  0  0  0  0
  151.0294  142.6674  157.1495 C   0  0  0  0  0  0  0  0  0  0  0  0
  151.8845  143.7209  157.8775 C   0  0  0  0  0  0  0  0  0  0  0  0
  150.8297  145.3711  159.2324 H   0  0  0  0  0  0  0  0  0  0  0  0
  151.2215  145.7850  160.9065 H   0  0  0  0  0  0  0  0  0  0  0  0
  153.9287  142.1989  158.5521 H   0  0  0  0  0  0  0  0  0  0  0  0
  153.3779  141.6332  160.0978 H   0  0  0  0  0  0  0  0  0  0  0  0
  152.8094  140.0010  158.3306 H   0  0  0  0  0  0  0  0  0  0  0  0
  151.3474  140.6219  159.0611 H   0  0  0  0  0  0  0  0  0  0  0  0
  149.4614  140.1547  153.5497 H   0  0  0  0  0  0  0  0  0  0  0  0
  152.1050  136.2121  157.9002 H   0  0  0  0  0  0  0  0  0  0  0  0
  151.0425  135.4913  154.5888 H   0  0  0  0  0  0  0  0  0  0  0  0
  151.0256  134.7710  156.1770 H   0  0  0  0  0  0  0  0  0  0  0  0
  148.8703  136.2347  153.7500 H   0  0  0  0  0  0  0  0  0  0  0  0
  147.8905  134.0780  154.1835 H   0  0  0  0  0  0  0  0  0  0  0  0
  149.5053  133.4589  154.4979 H   0  0  0  0  0  0  0  0  0  0  0  0
  147.4080  132.4891  155.9015 H   0  0  0  0  0  0  0  0  0  0  0  0
  148.8990  132.8680  156.7797 H   0  0  0  0  0  0  0  0  0  0  0  0
  149.0359  135.3317  157.6647 H   0  0  0  0  0  0  0  0  0  0  0  0
  147.7948  136.3883  157.0015 H   0  0  0  0  0  0  0  0  0  0  0  0
  150.8409  142.9953  156.1263 H   0  0  0  0  0  0  0  0  0  0  0  0
  150.0611  142.5729  157.6436 H   0  0  0  0  0  0  0  0  0  0  0  0
  151.3536  144.6732  157.9038 H   0  0  0  0  0  0  0  0  0  0  0  0
  152.8044  143.9062  157.3212 H   0  0  0  0  0  0  0  0  0  0  0  0
  1  2  3  0  0  0  0
  2  3  1  0  0  0  0
  3  4  1  0  0  0  0
  3 28  1  0  0  0  0
  3 29  1  0  0  0  0
  4  5  2  0  0  0  0
  4  6  1  0  0  0  0
  6 27  1  0  0  0  0
  6  7  1  0  0  0  0
  7  8  1  0  0  0  0
  7 30  1  0  0  0  0
  7 31  1  0  0  0  0
  8  9  1  0  0  0  0
  8 32  1  0  0  0  0
  8 33  1  0  0  0  0
  9 10  1  0  0  0  0
  9 26  1  0  0  0  0
 10 15  1  0  0  0  0
 10 11  2  0  0  0  0
 11 12  1  0  0  0  0
 12 13  2  0  0  0  0
 12 34  1  0  0  0  0
 13 14  1  0  0  0  0
 14 18  1  0  0  0  0
 14 15  2  0  0  0  0
 15 16  1  0  0  0  0
 16 17  2  0  0  0  0
 17 18  1  0  0  0  0
 17 35  1  0  0  0  0
 18 19  1  0  0  0  0
 19 20  1  0  0  0  0
 19 36  1  0  0  0  0
 19 37  1  0  0  0  0
 20 25  1  0  0  0  0
 20 21  1  0  0  0  0
 20 22  1  0  0  0  0
 21 38  1  0  0  0  0
 22 23  1  0  0  0  0
 22 39  1  0  0  0  0
 22 40  1  0  0  0  0
 23 24  1  0  0  0  0
 23 41  1  0  0  0  0
 23 42  1  0  0  0  0
 24 25  1  0  0  0  0
 25 43  1  0  0  0  0
 25 44  1  0  0  0  0
 26 27  1  0  0  0  0
 26 45  1  0  0  0  0
 26 46  1  0  0  0  0
 27 47  1  0  0  0  0
 27 48  1  0  0  0  0
M  END
> <s_m_source_file>
AV-unprocessed.smi

> <i_m_source_file_index>
163

> <i_lp_mmshare_version>
43012

> <i_f3d_flags>
0

> <s_epik_input>
TiNDW0NIMl1DKD1PKU4xW0NIMl1bQ0gyXU4oW0NIMl1bQ0gyXTEpYyhuW2NIXW4yKWMoYzIzKW5bY0hdbjNbQ0gyXVtDQEBdNChbT0hdKVtDSDJdW0NIMl1PW0NIMl00

> <s_epik_cmdline>
J2VwaWtfcHl0aG9uJywgJy1waCcsICc3LjAnLCAnLXRuJywgJzgnLCAnLW1hJywgJzIwMCcsICctbWV0YWxfYmluZGluZycsICctaW1hZScsICc8aW5maWxlLm1hZT4nLCAnLW9tYWUnLCAnPG91dGZpbGUubWFlPic=

> <r_lp_tautomer_probability>
1

> <r_epik_Ionization_Penalty>
0.000981096

> <r_epik_Ionization_Penalty_Charging>
0

> <r_epik_Ionization_Penalty_Neutral>
0.000981096

> <r_epik_State_Penalty>
0.000482875

> <r_epik_Charging_Adjusted_Penalty>
0.000482875

> <i_epik_Tot_Q>
0

> <i_epik_Tot_abs_Q>
0

> <r_epik_Metal_State_Penalty>
-0

> <b_epik_Metal_Only>
0

> <s_lp_Force_Field>
OPLS_2005

> <r_lp_Energy>
52.1528

> <b_lp_Chiralities_Consistent>
1

> <s_lp_Variant>
AV-unprocessed.smi:163-1

> <Gold.Version>
5.8.1

> <Gold.Id.Protein>
6NUR|6NUR_protein|mol2

> <Gold.PLP.Fitness>
46.9361

> <Gold.PLP.PLP>
-38.9094

> <Gold.PLP.part.hbond>
-3.1826

> <Gold.PLP.part.metal>
0.0000

> <Gold.PLP.part.buried>
-4.4534

> <Gold.PLP.part.nonpolar>
-32.4598

> <Gold.PLP.part.repulsive>
0.5782

> <Gold.PLP.ligand.clash>
0.0000

> <Gold.PLP.ligand.torsion>
0.5371

> <Gold.PLP.Chemscore.Hbond>
1.8799

> <Gold.PLP.Chemscore.CHOScore>
1.0000

> <Gold.PLP.Chemscore.Metal>
0.0000

> <Gold.Chemscore.Hbonds>
donor molecule, donor type, donor heavy atom, donor atom, acceptor molecule, acceptor atom, score
      L1  H    21    38       P1  7948  1.00
      P1  H  6933  6944       L1     1  0.41
      L1  C    12    34       P1  7957  1.00

> <Gold.PLP.Chemscore.Internal.Correction>
0.4611

> <Gold.Rescore>
     Score         DG    S(hbond)    S(metal)    S(lipo)     H(rot)  DE(clash)    DE(int)     intcor
      9.14     -11.76       1.52        0.00      69.81       2.72       0.21       2.41       ----

> <Gold.Chemscore.Fitness>
9.1442

> <Gold.Chemscore.DG>
-11.7645

> <Gold.Chemscore.ZeroCoef>
-5.4800

> <Gold.Chemscore.Hbond>
1.5234

> <Gold.Chemscore.Metal>
0.0000

> <Gold.Chemscore.Lipo>
69.8072

> <Gold.Chemscore.Internal_Hbond>
0.0000

> <Gold.Chemscore.DEClash>
0.2105

> <Gold.Chemscore.DEInternal>
2.4098

> <Gold.Chemscore.Rot>
2.7230

> <Gold.Chemscore.Internal.Correction>
   9.000000E+99

> <Gold.Chemscore.Hbonds>
donor molecule, donor type, donor heavy atom, donor atom, acceptor molecule, acceptor atom, score
      L1  H    21    38       P1  7948  0.99
      P1  H  6933  6944       L1     1  0.08

> <Gold.Chemscore.Hbond.Weighted>
-5.0880

> <Gold.Chemscore.Metal.Weighted>
-0.0000

> <Gold.Chemscore.Lipo.Weighted>
-8.1674

> <Gold.Chemscore.Internal_Hbond.Weighted>
0.0000

> <Gold.Chemscore.DEClash.Weighted>
0.2105

> <Gold.Chemscore.DEInternal.Weighted>
2.4098

> <Gold.Chemscore.Rot.Weighted>
6.9709

> <Gold.Chemscore.Internal.Correction.Weighted>
   9.000000E+99

> <Gold.Protein.RotatedTorsions>
[ 6907 6896 6895 6894 ] final   75.42 input  -60.11 | X-H torsion
[ 7974 7965 7964 7962 ] final -163.05 input  175.53 | X-H torsion
[ 8008 7997 7996 7995 ] final   76.43 input   59.86 | X-H torsion
[ 10167 10162 10161 10158 ] final  -61.37 input  -65.29 | X-H torsion
[ 10718 10713 10712 10709 ] final  172.76 input   66.30 | X-H torsion
[ 10763 10752 10751 10750 ] final   99.17 input  -60.55 | X-H torsion
[ 11005 11000 10999 10996 ] final   12.34 input  -57.11 | X-H torsion

> <Gold.Protein.ActiveResidues>
 VAL166  LYS551  ARG553  GLY616  TRP617  ASP618  TYR619  PRO620  LYS621  CYS622 
 ASP623  PHE694  ASN695  SER759  ASP760  ASP761  ALA762  ILE779  LEU786  VAL792 
 PHE793  MET794  SER795  GLU796  ALA797  LYS798  CYS799  TRP800  GLU811  SER814 

> <Gold.Protein.RotatedAtoms>
  152.5025  134.4122  159.9452 H   0  0  0  0  0  0  0  0  0  0  0  0  # atno 6907 bound_to 6896
  151.4091  133.3727  159.2749 H   0  0  0  0  0  0  0  0  0  0  0  0  # atno 6908 bound_to 6896
  150.9305  134.8742  159.7607 H   0  0  0  0  0  0  0  0  0  0  0  0  # atno 6909 bound_to 6896
  144.7338  140.3164  143.6179 H   0  0  0  0  0  0  0  0  0  0  0  0  # atno 7974 bound_to 7965
  155.8272  140.3467  155.5550 H   0  0  0  0  0  0  0  0  0  0  0  0  # atno 8008 bound_to 7997
  155.8280  140.0923  157.1830 H   0  0  0  0  0  0  0  0  0  0  0  0  # atno 8009 bound_to 7997
  154.4004  140.1417  156.3567 H   0  0  0  0  0  0  0  0  0  0  0  0  # atno 8010 bound_to 7997
  140.6010  143.2361  151.5928 H   0  0  0  0  0  0  0  0  0  0  0  0  # atno 10167 bound_to 10162
  156.9743  131.0099  151.2897 H   0  0  0  0  0  0  0  0  0  0  0  0  # atno 10718 bound_to 10713
  153.2980  135.4123  155.1227 H   0  0  0  0  0  0  0  0  0  0  0  0  # atno 10763 bound_to 10752
  154.8541  135.3534  154.5890 H   0  0  0  0  0  0  0  0  0  0  0  0  # atno 10764 bound_to 10752
  153.6314  135.7060  153.5332 H   0  0  0  0  0  0  0  0  0  0  0  0  # atno 10765 bound_to 10752
  140.4931  134.0820  155.7776 H   0  0  0  0  0  0  0  0  0  0  0  0  # atno 11005 bound_to 11000
  145.7613  139.1826  143.2265 LP  0  0  0  0  0  0  0  0  0  0  0  0  # atno 17320 bound_to 7965
  146.0984  140.7573  142.9561 LP  0  0  0  0  0  0  0  0  0  0  0  0  # atno 17321 bound_to 7965
  139.5291  144.2969  152.1106 LP  0  0  0  0  0  0  0  0  0  0  0  0  # atno 17342 bound_to 10162
  140.2150  144.4524  150.6368 LP  0  0  0  0  0  0  0  0  0  0  0  0  # atno 17343 bound_to 10162
  157.5571  130.8221  149.8218 LP  0  0  0  0  0  0  0  0  0  0  0  0  # atno 17370 bound_to 10713
  156.0270  130.3776  150.1795 LP  0  0  0  0  0  0  0  0  0  0  0  0  # atno 17371 bound_to 10713
  141.1474  133.9031  157.2183 LP  0  0  0  0  0  0  0  0  0  0  0  0  # atno 17394 bound_to 11000
  139.9757  135.0114  156.9625 LP  0  0  0  0  0  0  0  0  0  0  0  0  # atno 17395 bound_to 11000

$$$$
