AV-unprocessed.smi:213|AV-procd|sdf|1637|dock1
  -GOLD-   2262020 03D 1   1.00000     0.00000
 Structure written by MMmdl.
 59 62  0  0  0  0  0  0  0  0  2 V2000
  146.1204  138.4648  152.3836 C   0  0  0  0  0  0  0  0  0  0  0  0
  146.5893  137.1303  152.9858 C   0  0  2  0  0  0  0  0  0  0  0  0
  145.8455  135.9321  152.3467 C   0  0  0  0  0  0  0  0  0  0  0  0
  146.7322  134.7706  152.0822 N   0  3  0  0  0  0  0  0  0  0  0  0
  147.2201  134.1172  153.3180 C   0  0  0  0  0  0  0  0  0  0  0  0
  148.2117  132.9962  152.9640 C   0  0  0  0  0  0  0  0  0  0  0  0
  147.5824  132.0576  152.0999 O   0  0  0  0  0  0  0  0  0  0  0  0
  147.1703  132.6519  150.8750 C   0  0  0  0  0  0  0  0  0  0  0  0
  146.1493  133.7661  151.1592 C   0  0  0  0  0  0  0  0  0  0  0  0
  146.4942  137.1393  154.4538 N   0  0  0  0  0  0  0  0  0  0  0  0
  145.6603  136.1447  155.1279 C   0  0  0  0  0  0  0  0  0  0  0  0
  147.5902  137.5780  155.1278 C   0  0  0  0  0  0  0  0  0  0  0  0
  148.4351  136.6711  155.6885 N   0  0  0  0  0  0  0  0  0  0  0  0
  149.5461  137.0760  156.3096 C   0  0  0  0  0  0  0  0  0  0  0  0
  150.0005  138.3183  156.4775 N   0  0  0  0  0  0  0  0  0  0  0  0
  149.1504  139.2358  155.9354 C   0  0  0  0  0  0  0  0  0  0  0  0
  147.9360  138.9541  155.2474 C   0  0  0  0  0  0  0  0  0  0  0  0
  147.3434  140.1402  154.8309 N   0  0  0  0  0  0  0  0  0  0  0  0
  148.1615  141.0686  155.2440 C   0  0  0  0  0  0  0  0  0  0  0  0
  149.2678  140.6149  155.9262 N   0  0  0  0  0  0  0  0  0  0  0  0
  150.3280  141.4334  156.4933 C   0  0  0  0  0  0  0  0  0  0  0  0
  150.3265  141.5005  158.0382 C   0  0  2  0  0  0  0  0  0  0  0  0
  149.0051  141.7033  158.4971 O   0  0  0  0  0  0  0  0  0  0  0  0
  151.2895  142.5552  158.6380 C   0  0  1  0  0  0  0  0  0  0  0  0
  151.0532  144.0372  158.3068 C   0  0  0  0  0  0  0  0  0  0  0  0
  151.6388  144.7700  159.5061 C   0  0  0  0  0  0  0  0  0  0  0  0
  151.9450  143.6650  160.5210 C   0  0  0  0  0  0  0  0  0  0  0  0
  151.2333  142.5281  160.0550 O   0  0  0  0  0  0  0  0  0  0  0  0
  146.3032  138.4903  151.3092 H   0  0  0  0  0  0  0  0  0  0  0  0
  146.6588  139.3035  152.8262 H   0  0  0  0  0  0  0  0  0  0  0  0
  145.0541  138.6317  152.5345 H   0  0  0  0  0  0  0  0  0  0  0  0
  147.6360  137.0446  152.7019 H   0  0  0  0  0  0  0  0  0  0  0  0
  145.0428  135.6237  153.0177 H   0  0  0  0  0  0  0  0  0  0  0  0
  145.3611  136.2346  151.4171 H   0  0  0  0  0  0  0  0  0  0  0  0
  147.7116  134.8512  153.9578 H   0  0  0  0  0  0  0  0  0  0  0  0
  146.3759  133.7128  153.8786 H   0  0  0  0  0  0  0  0  0  0  0  0
  149.1058  133.4037  152.4889 H   0  0  0  0  0  0  0  0  0  0  0  0
  148.5366  132.4819  153.8686 H   0  0  0  0  0  0  0  0  0  0  0  0
  148.0349  133.0431  150.3366 H   0  0  0  0  0  0  0  0  0  0  0  0
  146.7228  131.8851  150.2425 H   0  0  0  0  0  0  0  0  0  0  0  0
  145.2458  133.3421  151.6002 H   0  0  0  0  0  0  0  0  0  0  0  0
  145.8573  134.2314  150.2187 H   0  0  0  0  0  0  0  0  0  0  0  0
  145.5166  136.4057  156.1772 H   0  0  0  0  0  0  0  0  0  0  0  0
  146.1173  135.1558  155.0807 H   0  0  0  0  0  0  0  0  0  0  0  0
  144.6722  136.0841  154.6737 H   0  0  0  0  0  0  0  0  0  0  0  0
  150.1635  136.2929  156.7248 H   0  0  0  0  0  0  0  0  0  0  0  0
  147.9729  142.1183  155.0712 H   0  0  0  0  0  0  0  0  0  0  0  0
  151.2867  141.0634  156.1272 H   0  0  0  0  0  0  0  0  0  0  0  0
  150.2212  142.4414  156.0907 H   0  0  0  0  0  0  0  0  0  0  0  0
  150.6346  140.5177  158.3970 H   0  0  0  0  0  0  0  0  0  0  0  0
  148.6413  142.4450  158.0378 H   0  0  0  0  0  0  0  0  0  0  0  0
  152.3130  142.2883  158.3667 H   0  0  0  0  0  0  0  0  0  0  0  0
  151.5236  144.3389  157.3718 H   0  0  0  0  0  0  0  0  0  0  0  0
  149.9925  144.2755  158.2319 H   0  0  0  0  0  0  0  0  0  0  0  0
  152.5428  145.3212  159.2448 H   0  0  0  0  0  0  0  0  0  0  0  0
  150.9171  145.4830  159.9064 H   0  0  0  0  0  0  0  0  0  0  0  0
  153.0123  143.4386  160.5298 H   0  0  0  0  0  0  0  0  0  0  0  0
  151.6458  143.9313  161.5349 H   0  0  0  0  0  0  0  0  0  0  0  0
  147.5528  135.1445  151.6260 H   0  0  0  0  0  0  0  0  0  0  0  0
  1  2  1  0  0  0  0
  1 29  1  0  0  0  0
  1 30  1  0  0  0  0
  1 31  1  0  0  0  0
  2  3  1  0  0  0  0
  2 10  1  0  0  0  0
  2 32  1  0  0  0  0
  3  4  1  0  0  0  0
  3 33  1  0  0  0  0
  3 34  1  0  0  0  0
  4  9  1  0  0  0  0
  4  5  1  0  0  0  0
  4 59  1  0  0  0  0
  5  6  1  0  0  0  0
  5 35  1  0  0  0  0
  5 36  1  0  0  0  0
  6  7  1  0  0  0  0
  6 37  1  0  0  0  0
  6 38  1  0  0  0  0
  7  8  1  0  0  0  0
  8  9  1  0  0  0  0
  8 39  1  0  0  0  0
  8 40  1  0  0  0  0
  9 41  1  0  0  0  0
  9 42  1  0  0  0  0
 10 11  1  0  0  0  0
 10 12  1  0  0  0  0
 11 43  1  0  0  0  0
 11 44  1  0  0  0  0
 11 45  1  0  0  0  0
 12 17  1  0  0  0  0
 12 13  2  0  0  0  0
 13 14  1  0  0  0  0
 14 15  2  0  0  0  0
 14 46  1  0  0  0  0
 15 16  1  0  0  0  0
 16 20  1  0  0  0  0
 16 17  2  0  0  0  0
 17 18  1  0  0  0  0
 18 19  2  0  0  0  0
 19 20  1  0  0  0  0
 19 47  1  0  0  0  0
 20 21  1  0  0  0  0
 21 22  1  0  0  0  0
 21 48  1  0  0  0  0
 21 49  1  0  0  0  0
 22 23  1  0  0  0  0
 22 24  1  0  0  0  0
 22 50  1  0  0  0  0
 23 51  1  0  0  0  0
 24 28  1  0  0  0  0
 24 25  1  0  0  0  0
 24 52  1  0  0  0  0
 25 26  1  0  0  0  0
 25 53  1  0  0  0  0
 25 54  1  0  0  0  0
 26 27  1  0  0  0  0
 26 55  1  0  0  0  0
 26 56  1  0  0  0  0
 27 28  1  0  0  0  0
 27 57  1  0  0  0  0
 27 58  1  0  0  0  0
M  CHG  1   4   1
M  END
> <s_m_source_file>
AV-unprocessed.smi

> <i_m_source_file_index>
213

> <i_lp_mmshare_version>
43012

> <i_f3d_flags>
0

> <s_epik_input>
W0NIMl0xW0NIMl1PW0NIMl1bQ0gyXU4xW0NIMl1bQ0BASF0oW0NIM10pTihbQ0gzXSljKG5bY0hdbjIpYyhjMjMpbltjSF1uM1tDSDJdW0NASF0oW09IXSlbQ0BASF00W0NIMl1bQ0gyXVtDSDJdTzQ=

> <s_epik_cmdline>
J2VwaWtfcHl0aG9uJywgJy1waCcsICc3LjAnLCAnLXRuJywgJzgnLCAnLW1hJywgJzIwMCcsICctbWV0YWxfYmluZGluZycsICctaW1hZScsICc8aW5maWxlLm1hZT4nLCAnLW9tYWUnLCAnPG91dGZpbGUubWFlPic=

> <r_lp_tautomer_probability>
1

> <r_epik_Ionization_Penalty>
0.399679

> <r_epik_Ionization_Penalty_Charging>
0.399433

> <r_epik_Ionization_Penalty_Neutral>
0.000246213

> <r_epik_State_Penalty>
0.286032

> <r_epik_Charging_Adjusted_Penalty>
0.685465

> <i_epik_Tot_Q>
1

> <i_epik_Tot_abs_Q>
1

> <r_epik_Metal_State_Penalty>
0.286072

> <b_epik_Metal_Only>
0

> <s_lp_Force_Field>
OPLS_2005

> <r_lp_Energy>
48.2471

> <b_lp_Chiralities_Consistent>
1

> <s_lp_Variant>
AV-unprocessed.smi:213-5

> <Gold.Version>
5.8.1

> <Gold.Id.Protein>
6NUR|6NUR_protein|mol2

> <Gold.PLP.Fitness>
53.7822

> <Gold.PLP.PLP>
-45.1524

> <Gold.PLP.part.hbond>
-2.2749

> <Gold.PLP.part.metal>
0.0000

> <Gold.PLP.part.buried>
-0.0484

> <Gold.PLP.part.nonpolar>
-43.3204

> <Gold.PLP.part.repulsive>
0.3969

> <Gold.PLP.ligand.clash>
0.0000

> <Gold.PLP.ligand.torsion>
2.3143

> <Gold.PLP.Chemscore.Hbond>
2.9840

> <Gold.PLP.Chemscore.CHOScore>
0.8648

> <Gold.PLP.Chemscore.Metal>
0.0000

> <Gold.Chemscore.Hbonds>
donor molecule, donor type, donor heavy atom, donor atom, acceptor molecule, acceptor atom, score
      L1  H     4    59       P1  7948  1.82
      L1  C    19    47       P1  8028  0.33

> <Gold.PLP.Chemscore.Internal.Correction>
1.7120

> <Gold.Rescore>
     Score         DG    S(hbond)    S(metal)    S(lipo)     H(rot)  DE(clash)    DE(int)     intcor
     11.65     -14.36       1.00        0.00     109.15       2.83       0.18       2.53       ----

> <Gold.Chemscore.Fitness>
11.6521

> <Gold.Chemscore.DG>
-14.3569

> <Gold.Chemscore.ZeroCoef>
-5.4800

> <Gold.Chemscore.Hbond>
0.9997

> <Gold.Chemscore.Metal>
0.0000

> <Gold.Chemscore.Lipo>
109.1528

> <Gold.Chemscore.Internal_Hbond>
0.0000

> <Gold.Chemscore.DEClash>
0.1772

> <Gold.Chemscore.DEInternal>
2.5275

> <Gold.Chemscore.Rot>
2.8254

> <Gold.Chemscore.Internal.Correction>
   9.000000E+99

> <Gold.Chemscore.Hbonds>
donor molecule, donor type, donor heavy atom, donor atom, acceptor molecule, acceptor atom, score
      L1  H     4    59       P1  7948  0.66

> <Gold.Chemscore.Hbond.Weighted>
-3.3390

> <Gold.Chemscore.Metal.Weighted>
-0.0000

> <Gold.Chemscore.Lipo.Weighted>
-12.7709

> <Gold.Chemscore.Internal_Hbond.Weighted>
0.0000

> <Gold.Chemscore.DEClash.Weighted>
0.1772

> <Gold.Chemscore.DEInternal.Weighted>
2.5275

> <Gold.Chemscore.Rot.Weighted>
7.2330

> <Gold.Chemscore.Internal.Correction.Weighted>
   9.000000E+99

> <Gold.Protein.RotatedTorsions>
[ 6907 6896 6895 6894 ] final  142.79 input  -60.11 | X-H torsion
[ 7974 7965 7964 7962 ] final   17.36 input  175.53 | X-H torsion
[ 8008 7997 7996 7995 ] final  -56.96 input   59.86 | X-H torsion
[ 10167 10162 10161 10158 ] final  -93.43 input  -65.29 | X-H torsion
[ 10718 10713 10712 10709 ] final -126.89 input   66.30 | X-H torsion
[ 10763 10752 10751 10750 ] final  -71.32 input  -60.55 | X-H torsion
[ 11005 11000 10999 10996 ] final -113.11 input  -57.11 | X-H torsion

> <Gold.Protein.ActiveResidues>
 VAL166  LYS551  ARG553  GLY616  TRP617  ASP618  TYR619  PRO620  LYS621  CYS622 
 ASP623  PHE694  ASN695  SER759  ASP760  ASP761  ALA762  ILE779  LEU786  VAL792 
 PHE793  MET794  SER795  GLU796  ALA797  LYS798  CYS799  TRP800  GLU811  SER814 

> <Gold.Protein.RotatedAtoms>
  152.2143  133.4935  159.5126 H   0  0  0  0  0  0  0  0  0  0  0  0  # atno 6907 bound_to 6896
  150.6997  134.1426  159.4119 H   0  0  0  0  0  0  0  0  0  0  0  0  # atno 6908 bound_to 6896
  151.9346  135.0241  160.0582 H   0  0  0  0  0  0  0  0  0  0  0  0  # atno 6909 bound_to 6896
  146.2221  139.8613  142.8604 H   0  0  0  0  0  0  0  0  0  0  0  0  # atno 7974 bound_to 7965
  154.4249  140.1118  156.5720 H   0  0  0  0  0  0  0  0  0  0  0  0  # atno 8008 bound_to 7997
  155.6202  140.3495  155.4630 H   0  0  0  0  0  0  0  0  0  0  0  0  # atno 8009 bound_to 7997
  156.0030  140.1203  157.0518 H   0  0  0  0  0  0  0  0  0  0  0  0  # atno 8010 bound_to 7997
  140.3248  143.3028  152.0007 H   0  0  0  0  0  0  0  0  0  0  0  0  # atno 10167 bound_to 10162
  156.1806  130.6730  151.0300 H   0  0  0  0  0  0  0  0  0  0  0  0  # atno 10718 bound_to 10713
  154.4301  135.5966  153.6063 H   0  0  0  0  0  0  0  0  0  0  0  0  # atno 10763 bound_to 10752
  152.9798  135.5973  154.3850 H   0  0  0  0  0  0  0  0  0  0  0  0  # atno 10764 bound_to 10752
  154.3686  135.2841  155.2258 H   0  0  0  0  0  0  0  0  0  0  0  0  # atno 10765 bound_to 10752
  141.0635  133.9497  157.2623 H   0  0  0  0  0  0  0  0  0  0  0  0  # atno 11005 bound_to 11000
  145.2701  141.0106  143.3777 LP  0  0  0  0  0  0  0  0  0  0  0  0  # atno 17320 bound_to 7965
  144.9230  139.4389  143.6532 LP  0  0  0  0  0  0  0  0  0  0  0  0  # atno 17321 bound_to 7965
  139.4867  144.6282  151.7122 LP  0  0  0  0  0  0  0  0  0  0  0  0  # atno 17342 bound_to 10162
  140.5451  144.0516  150.6104 LP  0  0  0  0  0  0  0  0  0  0  0  0  # atno 17343 bound_to 10162
  157.6866  131.0823  150.7226 LP  0  0  0  0  0  0  0  0  0  0  0  0  # atno 17370 bound_to 10713
  156.7283  130.4702  149.5506 LP  0  0  0  0  0  0  0  0  0  0  0  0  # atno 17371 bound_to 10713
  139.9454  135.0185  156.8836 LP  0  0  0  0  0  0  0  0  0  0  0  0  # atno 17394 bound_to 11000
  140.5821  134.0342  155.7468 LP  0  0  0  0  0  0  0  0  0  0  0  0  # atno 17395 bound_to 11000

$$$$
