AV-unprocessed.smi:1112|AV-procd|sdf|4797|dock5
  -GOLD-   22720 3343D 1   1.00000     0.00000
 Structure written by MMmdl.
 50 52  0  0  0  0  0  0  0  0  2 V2000
  146.4673  138.2794  155.2133 O   0  0  0  0  0  0  0  0  0  0  0  0
  147.0723  137.8942  154.2134 C   0  0  0  0  0  0  0  0  0  0  0  0
  148.3585  138.1776  153.9644 N   0  0  0  0  0  0  0  0  0  0  0  0
  149.2504  138.9483  154.8299 C   0  0  0  0  0  0  0  0  0  0  0  0
  149.0757  140.4809  154.6593 C   0  0  0  0  0  0  0  0  0  0  0  0
  149.5019  140.7879  153.3448 O   0  0  0  0  0  0  0  0  0  0  0  0
  147.5859  140.8925  154.7352 C   0  0  0  0  0  0  0  0  0  0  0  0
  147.0255  140.8438  156.1693 C   0  0  0  0  0  0  0  0  0  0  0  0
  147.8789  141.6805  157.1352 C   0  0  0  0  0  0  0  0  0  0  0  0
  149.3562  141.2620  157.0830 C   0  0  0  0  0  0  0  0  0  0  0  0
  149.9031  141.3408  155.6474 C   0  0  0  0  0  0  0  0  0  0  0  0
  146.5421  137.1525  153.2265 N   0  0  0  0  0  0  0  0  0  0  0  0
  145.2114  136.6575  153.1036 C   0  0  0  0  0  0  0  0  0  0  0  0
  144.0781  137.4189  153.4904 C   0  0  0  0  0  0  0  0  0  0  0  0
  142.7868  136.8755  153.3475 C   0  0  0  0  0  0  0  0  0  0  0  0
  142.6460  135.5759  152.8297 C   0  0  0  0  0  0  0  0  0  0  0  0
  143.7438  134.8700  152.4885 N   0  3  0  0  0  0  0  0  0  0  0  0
  145.0103  135.3418  152.6030 C   0  0  0  0  0  0  0  0  0  0  0  0
  146.0861  134.5005  152.2485 N   0  0  0  0  0  0  0  0  0  0  0  0
  146.2384  133.3403  153.1238 C   0  0  0  0  0  0  0  0  0  0  0  0
  146.6243  132.1622  152.2258 C   0  0  0  0  0  0  0  0  0  0  0  0
  146.0468  132.5523  150.8707 C   0  0  0  0  0  0  0  0  0  0  0  0
  146.2342  134.0680  150.8599 C   0  0  0  0  0  0  0  0  0  0  0  0
  148.7679  137.8182  153.1147 H   0  0  0  0  0  0  0  0  0  0  0  0
  149.0510  138.6607  155.8629 H   0  0  0  0  0  0  0  0  0  0  0  0
  150.2862  138.6630  154.6459 H   0  0  0  0  0  0  0  0  0  0  0  0
  149.3076  140.0505  152.7865 H   0  0  0  0  0  0  0  0  0  0  0  0
  147.4702  141.9107  154.3599 H   0  0  0  0  0  0  0  0  0  0  0  0
  146.9827  140.2610  154.0812 H   0  0  0  0  0  0  0  0  0  0  0  0
  145.9989  141.2109  156.1746 H   0  0  0  0  0  0  0  0  0  0  0  0
  146.9775  139.8130  156.5206 H   0  0  0  0  0  0  0  0  0  0  0  0
  147.7909  142.7367  156.8774 H   0  0  0  0  0  0  0  0  0  0  0  0
  147.4981  141.5786  158.1518 H   0  0  0  0  0  0  0  0  0  0  0  0
  149.9450  141.9048  157.7379 H   0  0  0  0  0  0  0  0  0  0  0  0
  149.4648  140.2490  157.4705 H   0  0  0  0  0  0  0  0  0  0  0  0
  150.9567  141.0620  155.6319 H   0  0  0  0  0  0  0  0  0  0  0  0
  149.8738  142.3841  155.3288 H   0  0  0  0  0  0  0  0  0  0  0  0
  147.1396  136.9911  152.4291 H   0  0  0  0  0  0  0  0  0  0  0  0
  144.1744  138.4089  153.9086 H   0  0  0  0  0  0  0  0  0  0  0  0
  141.9171  137.4475  153.6366 H   0  0  0  0  0  0  0  0  0  0  0  0
  141.6973  135.0783  152.6893 H   0  0  0  0  0  0  0  0  0  0  0  0
  146.9964  133.5201  153.8866 H   0  0  0  0  0  0  0  0  0  0  0  0
  145.2972  133.1258  153.6334 H   0  0  0  0  0  0  0  0  0  0  0  0
  147.7108  132.0904  152.1552 H   0  0  0  0  0  0  0  0  0  0  0  0
  146.2466  131.2075  152.5930 H   0  0  0  0  0  0  0  0  0  0  0  0
  146.5415  132.0560  150.0354 H   0  0  0  0  0  0  0  0  0  0  0  0
  144.9846  132.3062  150.8332 H   0  0  0  0  0  0  0  0  0  0  0  0
  145.5588  134.5568  150.1575 H   0  0  0  0  0  0  0  0  0  0  0  0
  147.2484  134.3140  150.5436 H   0  0  0  0  0  0  0  0  0  0  0  0
  143.6129  133.9244  152.1287 H   0  0  0  0  0  0  0  0  0  0  0  0
  1  2  2  0  0  0  0
  2  3  1  0  0  0  0
  2 12  1  0  0  0  0
  3  4  1  0  0  0  0
  3 24  1  0  0  0  0
  4  5  1  0  0  0  0
  4 25  1  0  0  0  0
  4 26  1  0  0  0  0
  5 11  1  0  0  0  0
  5  6  1  0  0  0  0
  5  7  1  0  0  0  0
  6 27  1  0  0  0  0
  7  8  1  0  0  0  0
  7 28  1  0  0  0  0
  7 29  1  0  0  0  0
  8  9  1  0  0  0  0
  8 30  1  0  0  0  0
  8 31  1  0  0  0  0
  9 10  1  0  0  0  0
  9 32  1  0  0  0  0
  9 33  1  0  0  0  0
 10 11  1  0  0  0  0
 10 34  1  0  0  0  0
 10 35  1  0  0  0  0
 11 36  1  0  0  0  0
 11 37  1  0  0  0  0
 12 13  1  0  0  0  0
 12 38  1  0  0  0  0
 13 18  1  0  0  0  0
 13 14  2  0  0  0  0
 14 15  1  0  0  0  0
 14 39  1  0  0  0  0
 15 16  2  0  0  0  0
 15 40  1  0  0  0  0
 16 17  1  0  0  0  0
 16 41  1  0  0  0  0
 17 18  2  0  0  0  0
 17 50  1  0  0  0  0
 18 19  1  0  0  0  0
 19 23  1  0  0  0  0
 19 20  1  0  0  0  0
 20 21  1  0  0  0  0
 20 42  1  0  0  0  0
 20 43  1  0  0  0  0
 21 22  1  0  0  0  0
 21 44  1  0  0  0  0
 21 45  1  0  0  0  0
 22 23  1  0  0  0  0
 22 46  1  0  0  0  0
 22 47  1  0  0  0  0
 23 48  1  0  0  0  0
 23 49  1  0  0  0  0
M  CHG  1  17   1
M  END
> <s_m_source_file>
AV-unprocessed.smi

> <i_m_source_file_index>
1112

> <i_lp_mmshare_version>
43012

> <i_f3d_flags>
0

> <s_epik_input>
W0NIMl0xW0NIMl1bQ0gyXVtDSDJdW0NIMl1DMShbT0hdKVtDSDJdW05IXUMoPU8pW05IXWMyW2NIXVtjSF1bY0hdbmMyTjNbQ0gyXVtDSDJdW0NIMl1bQ0gyXTM=

> <s_epik_cmdline>
J2VwaWtfcHl0aG9uJywgJy1waCcsICc3LjAnLCAnLXRuJywgJzgnLCAnLW1hJywgJzIwMCcsICctbWV0YWxfYmluZGluZycsICctaW1hZScsICc8aW5maWxlLm1hZT4nLCAnLW9tYWUnLCAnPG91dGZpbGUubWFlPic=

> <r_lp_tautomer_probability>
0.999994

> <r_epik_Ionization_Penalty>
1.10443

> <r_epik_Ionization_Penalty_Charging>
1.1044

> <r_epik_Ionization_Penalty_Neutral>
2.27493e-05

> <r_epik_State_Penalty>
1.16183

> <r_epik_Charging_Adjusted_Penalty>
2.26623

> <i_epik_Tot_Q>
1

> <i_epik_Tot_abs_Q>
1

> <r_epik_Metal_State_Penalty>
1.24855

> <b_epik_Metal_Only>
0

> <s_lp_Force_Field>
OPLS_2005

> <r_lp_Energy>
50.1983

> <b_lp_Chiralities_Consistent>
1

> <s_lp_Variant>
AV-unprocessed.smi:1112-2

> <Gold.Version>
5.8.1

> <Gold.Id.Protein>
6NUR|6NUR_protein|mol2

> <Gold.PLP.Fitness>
40.7552

> <Gold.PLP.PLP>
-31.2578

> <Gold.PLP.part.hbond>
-3.6505

> <Gold.PLP.part.metal>
0.0000

> <Gold.PLP.part.buried>
-7.0408

> <Gold.PLP.part.nonpolar>
-22.1258

> <Gold.PLP.part.repulsive>
0.1747

> <Gold.PLP.ligand.clash>
0.0000

> <Gold.PLP.ligand.torsion>
0.5663

> <Gold.PLP.Chemscore.Hbond>
3.4933

> <Gold.PLP.Chemscore.CHOScore>
0.0000

> <Gold.PLP.Chemscore.Metal>
0.0000

> <Gold.Chemscore.Hbonds>
donor molecule, donor type, donor heavy atom, donor atom, acceptor molecule, acceptor atom, score
      L1  H     3    24       P1  7948  0.96
      L1  H     6    27       P1  7957  0.46
      L1  H    12    38       P1  7948  0.89
      P1  H  7989  7998       L1     6  0.24
      P1  H  8011  8017       L1     6  1.00

> <Gold.PLP.Chemscore.Internal.Correction>
0.1502

> <Gold.Rescore>
     Score         DG    S(hbond)    S(metal)    S(lipo)     H(rot)  DE(clash)    DE(int)     intcor
     15.50     -19.30       3.04        0.00      73.26       1.92       0.00       3.80       ----

> <Gold.Chemscore.Fitness>
15.4999

> <Gold.Chemscore.DG>
-19.2988

> <Gold.Chemscore.ZeroCoef>
-5.4800

> <Gold.Chemscore.Hbond>
3.0407

> <Gold.Chemscore.Metal>
0.0000

> <Gold.Chemscore.Lipo>
73.2574

> <Gold.Chemscore.Internal_Hbond>
0.0000

> <Gold.Chemscore.DEClash>
0.0000

> <Gold.Chemscore.DEInternal>
3.7990

> <Gold.Chemscore.Rot>
1.9173

> <Gold.Chemscore.Internal.Correction>
   9.000000E+99

> <Gold.Chemscore.Hbonds>
donor molecule, donor type, donor heavy atom, donor atom, acceptor molecule, acceptor atom, score
      L1  H     3    24       P1  7948  0.88
      L1  H     6    27       P1  7957  0.46
      L1  H    12    38       P1  7948  0.80
      P1  H  7989  7998       L1     6  0.07
      P1  H  8011  8017       L1     6  0.81

> <Gold.Chemscore.Hbond.Weighted>
-10.1561

> <Gold.Chemscore.Metal.Weighted>
-0.0000

> <Gold.Chemscore.Lipo.Weighted>
-8.5711

> <Gold.Chemscore.Internal_Hbond.Weighted>
0.0000

> <Gold.Chemscore.DEClash.Weighted>
0.0000

> <Gold.Chemscore.DEInternal.Weighted>
3.7990

> <Gold.Chemscore.Rot.Weighted>
4.9084

> <Gold.Chemscore.Internal.Correction.Weighted>
   9.000000E+99

> <Gold.Protein.RotatedTorsions>
[ 6907 6896 6895 6894 ] final    8.04 input  -60.11 | X-H torsion
[ 7974 7965 7964 7962 ] final  -46.52 input  175.53 | X-H torsion
[ 8008 7997 7996 7995 ] final   22.51 input   59.86 | X-H torsion
[ 10167 10162 10161 10158 ] final  112.07 input  -65.29 | X-H torsion
[ 10718 10713 10712 10709 ] final  175.12 input   66.30 | X-H torsion
[ 10763 10752 10751 10750 ] final -140.24 input  -60.55 | X-H torsion
[ 11005 11000 10999 10996 ] final  -32.51 input  -57.11 | X-H torsion

> <Gold.Protein.ActiveResidues>
 VAL166  LYS551  ARG553  GLY616  TRP617  ASP618  TYR619  PRO620  LYS621  CYS622 
 ASP623  PHE694  ASN695  SER759  ASP760  ASP761  ALA762  ILE779  LEU786  VAL792 
 PHE793  MET794  SER795  GLU796  ALA797  LYS798  CYS799  TRP800  GLU811  SER814 

> <Gold.Protein.RotatedAtoms>
  151.6996  135.0932  160.0248 H   0  0  0  0  0  0  0  0  0  0  0  0  # atno 6907 bound_to 6896
  152.3729  133.6438  159.6109 H   0  0  0  0  0  0  0  0  0  0  0  0  # atno 6908 bound_to 6896
  150.7687  133.9157  159.3424 H   0  0  0  0  0  0  0  0  0  0  0  0  # atno 6909 bound_to 6896
  145.9711  140.7382  142.9410 H   0  0  0  0  0  0  0  0  0  0  0  0  # atno 7974 bound_to 7965
  154.9668  140.3085  155.5006 H   0  0  0  0  0  0  0  0  0  0  0  0  # atno 8008 bound_to 7997
  156.2970  140.2291  156.4696 H   0  0  0  0  0  0  0  0  0  0  0  0  # atno 8009 bound_to 7997
  154.7914  140.0439  157.1192 H   0  0  0  0  0  0  0  0  0  0  0  0  # atno 8010 bound_to 7997
  139.6563  144.7129  151.1951 H   0  0  0  0  0  0  0  0  0  0  0  0  # atno 10167 bound_to 10162
  156.9395  130.9997  151.2971 H   0  0  0  0  0  0  0  0  0  0  0  0  # atno 10718 bound_to 10713
  154.8585  135.3559  154.5675 H   0  0  0  0  0  0  0  0  0  0  0  0  # atno 10763 bound_to 10752
  153.6289  135.7003  153.5287 H   0  0  0  0  0  0  0  0  0  0  0  0  # atno 10764 bound_to 10752
  153.3066  135.4191  155.1259 H   0  0  0  0  0  0  0  0  0  0  0  0  # atno 10765 bound_to 10752
  140.9558  133.7193  156.1291 H   0  0  0  0  0  0  0  0  0  0  0  0  # atno 11005 bound_to 11000
  144.6837  140.2750  143.7300 LP  0  0  0  0  0  0  0  0  0  0  0  0  # atno 17320 bound_to 7965
  145.7905  139.1925  143.2106 LP  0  0  0  0  0  0  0  0  0  0  0  0  # atno 17321 bound_to 7965
  140.7560  143.6067  150.8646 LP  0  0  0  0  0  0  0  0  0  0  0  0  # atno 17342 bound_to 10162
  139.9720  143.6046  152.2970 LP  0  0  0  0  0  0  0  0  0  0  0  0  # atno 17343 bound_to 10162
  157.5794  130.8366  149.8501 LP  0  0  0  0  0  0  0  0  0  0  0  0  # atno 17370 bound_to 10713
  156.0411  130.3739  150.1434 LP  0  0  0  0  0  0  0  0  0  0  0  0  # atno 17371 bound_to 10713
  140.7538  134.4016  157.5537 LP  0  0  0  0  0  0  0  0  0  0  0  0  # atno 17394 bound_to 11000
  139.8862  134.8917  156.2600 LP  0  0  0  0  0  0  0  0  0  0  0  0  # atno 17395 bound_to 11000

$$$$
