AV-unprocessed.smi:134|AV-procd|sdf|1167|dock8
  -GOLD-   2262018313D 1   1.00000     0.00000
 Structure written by MMmdl.
 51 54  0  0  0  0  0  0  0  0  1 V2000
  151.4677  137.2457  159.5731 O   0  0  0  0  0  0  0  0  0  0  0  0
  151.2757  137.6064  158.4109 C   0  0  0  0  0  0  0  0  0  0  0  0
  152.1784  138.6678  157.7624 C   0  0  0  0  0  0  0  0  0  0  0  0
  152.4711  139.8137  158.6515 N   0  0  0  0  0  0  0  0  0  0  0  0
  153.2235  139.5784  159.8289 C   0  0  0  0  0  0  0  0  0  0  0  0
  153.6075  138.4465  160.1262 O   0  0  0  0  0  0  0  0  0  0  0  0
  153.5109  140.7564  160.6381 C   0  0  0  0  0  0  0  0  0  0  0  0
  154.2328  140.6306  161.7647 F   0  0  0  0  0  0  0  0  0  0  0  0
  153.0661  141.9755  160.2711 C   0  0  0  0  0  0  0  0  0  0  0  0
  152.3145  142.1907  159.1323 N   0  0  0  0  0  0  0  0  0  0  0  0
  151.9057  143.6057  158.7836 C   0  0  2  0  0  0  0  0  0  0  0  0
  152.4845  144.6693  159.7287 C   0  0  0  0  0  0  0  0  0  0  0  0
  151.3539  145.6744  159.7652 C   0  0  0  0  0  0  0  0  0  0  0  0
  150.1265  144.7729  159.6832 C   0  0  0  0  0  0  0  0  0  0  0  0
  150.5113  143.7042  158.8222 O   0  0  0  0  0  0  0  0  0  0  0  0
  152.0252  141.1035  158.2740 C   0  0  0  0  0  0  0  0  0  0  0  0
  151.4104  141.2698  157.2199 O   0  0  0  0  0  0  0  0  0  0  0  0
  150.2917  137.1337  157.6260 N   0  0  0  0  0  0  0  0  0  0  0  0
  149.2897  136.1846  157.9657 C   0  0  0  0  0  0  0  0  0  0  0  0
  148.7544  136.0994  159.2737 C   0  0  0  0  0  0  0  0  0  0  0  0
  147.7779  135.1336  159.5834 C   0  0  0  0  0  0  0  0  0  0  0  0
  147.3334  134.2373  158.5943 C   0  0  0  0  0  0  0  0  0  0  0  0
  147.8713  134.3025  157.2958 C   0  0  0  0  0  0  0  0  0  0  0  0
  148.8492  135.2672  156.9803 C   0  0  0  0  0  0  0  0  0  0  0  0
  149.4910  135.3161  155.3327 S   0  0  0  0  0  0  0  0  0  0  0  0
  149.6943  133.5921  155.0287 C   0  0  0  0  0  0  0  0  0  0  0  0
  150.5157  132.8205  155.8742 C   0  0  0  0  0  0  0  0  0  0  0  0
  150.6665  131.4403  155.6363 C   0  0  0  0  0  0  0  0  0  0  0  0
  149.9983  130.8338  154.5540 C   0  0  0  0  0  0  0  0  0  0  0  0
  150.1809  129.1427  154.2649 Cl  0  0  0  0  0  0  0  0  0  0  0  0
  149.1810  131.6082  153.7071 C   0  0  0  0  0  0  0  0  0  0  0  0
  149.0300  132.9882  153.9430 C   0  0  0  0  0  0  0  0  0  0  0  0
  153.0949  138.1777  157.4308 H   0  0  0  0  0  0  0  0  0  0  0  0
  151.7149  139.0106  156.8356 H   0  0  0  0  0  0  0  0  0  0  0  0
  153.3117  142.8153  160.9046 H   0  0  0  0  0  0  0  0  0  0  0  0
  152.2246  143.7664  157.7530 H   0  0  0  0  0  0  0  0  0  0  0  0
  152.6711  144.2667  160.7231 H   0  0  0  0  0  0  0  0  0  0  0  0
  153.4168  145.0752  159.3357 H   0  0  0  0  0  0  0  0  0  0  0  0
  151.3650  146.3010  160.6573 H   0  0  0  0  0  0  0  0  0  0  0  0
  151.4011  146.3229  158.8894 H   0  0  0  0  0  0  0  0  0  0  0  0
  149.8774  144.3748  160.6671 H   0  0  0  0  0  0  0  0  0  0  0  0
  149.2491  145.2949  159.3010 H   0  0  0  0  0  0  0  0  0  0  0  0
  150.1771  137.5880  156.7314 H   0  0  0  0  0  0  0  0  0  0  0  0
  149.0920  136.7623  160.0563 H   0  0  0  0  0  0  0  0  0  0  0  0
  147.3735  135.0782  160.5833 H   0  0  0  0  0  0  0  0  0  0  0  0
  146.5845  133.4965  158.8328 H   0  0  0  0  0  0  0  0  0  0  0  0
  147.5304  133.6100  156.5401 H   0  0  0  0  0  0  0  0  0  0  0  0
  151.0255  133.2823  156.7070 H   0  0  0  0  0  0  0  0  0  0  0  0
  151.2939  130.8479  156.2860 H   0  0  0  0  0  0  0  0  0  0  0  0
  148.6690  131.1450  152.8767 H   0  0  0  0  0  0  0  0  0  0  0  0
  148.4036  133.5788  153.2916 H   0  0  0  0  0  0  0  0  0  0  0  0
  1  2  2  0  0  0  0
  2  3  1  0  0  0  0
  2 18  1  0  0  0  0
  3  4  1  0  0  0  0
  3 33  1  0  0  0  0
  3 34  1  0  0  0  0
  4 16  1  0  0  0  0
  4  5  1  0  0  0  0
  5  6  2  0  0  0  0
  5  7  1  0  0  0  0
  7  8  1  0  0  0  0
  7  9  2  0  0  0  0
  9 10  1  0  0  0  0
  9 35  1  0  0  0  0
 10 11  1  0  0  0  0
 10 16  1  0  0  0  0
 11 15  1  0  0  0  0
 11 12  1  0  0  0  0
 11 36  1  0  0  0  0
 12 13  1  0  0  0  0
 12 37  1  0  0  0  0
 12 38  1  0  0  0  0
 13 14  1  0  0  0  0
 13 39  1  0  0  0  0
 13 40  1  0  0  0  0
 14 15  1  0  0  0  0
 14 41  1  0  0  0  0
 14 42  1  0  0  0  0
 16 17  2  0  0  0  0
 18 19  1  0  0  0  0
 18 43  1  0  0  0  0
 19 24  1  0  0  0  0
 19 20  2  0  0  0  0
 20 21  1  0  0  0  0
 20 44  1  0  0  0  0
 21 22  2  0  0  0  0
 21 45  1  0  0  0  0
 22 23  1  0  0  0  0
 22 46  1  0  0  0  0
 23 24  2  0  0  0  0
 23 47  1  0  0  0  0
 24 25  1  0  0  0  0
 25 26  1  0  0  0  0
 26 32  1  0  0  0  0
 26 27  2  0  0  0  0
 27 28  1  0  0  0  0
 27 48  1  0  0  0  0
 28 29  2  0  0  0  0
 28 49  1  0  0  0  0
 29 30  1  0  0  0  0
 29 31  1  0  0  0  0
 31 32  2  0  0  0  0
 31 50  1  0  0  0  0
 32 51  1  0  0  0  0
M  END
> <s_m_source_file>
AV-unprocessed.smi

> <i_m_source_file_index>
134

> <i_lp_mmshare_version>
43012

> <i_f3d_flags>
0

> <s_epik_input>
TzFbQ0gyXVtDSDJdW0NIMl1bQ0BIXTFuKGMyPU8pW2NIXWMoRiljKD1PKW4yW0NIMl1DKD1PKVtOSF1jM1tjSF1bY0hdW2NIXVtjSF1jM1NjNFtjSF1bY0hdYyhDbClbY0hdW2NIXTQ=

> <s_epik_cmdline>
J2VwaWtfcHl0aG9uJywgJy1waCcsICc3LjAnLCAnLXRuJywgJzgnLCAnLW1hJywgJzIwMCcsICctbWV0YWxfYmluZGluZycsICctaW1hZScsICc8aW5maWxlLm1hZT4nLCAnLW9tYWUnLCAnPG91dGZpbGUubWFlPic=

> <r_lp_tautomer_probability>
1

> <r_epik_Ionization_Penalty>
2.01717e-06

> <r_epik_Ionization_Penalty_Charging>
3.88729e-08

> <r_epik_Ionization_Penalty_Neutral>
1.9783e-06

> <r_epik_State_Penalty>
-0

> <r_epik_Charging_Adjusted_Penalty>
3.88729e-08

> <i_epik_Tot_Q>
0

> <i_epik_Tot_abs_Q>
0

> <r_epik_Metal_State_Penalty>
-0

> <b_epik_Metal_Only>
0

> <s_epik_Chemistry_Notes>
This compound contains an acetal/aminal-like group ( X-CH(R)-Y where X, Y are N, S, or O) that may be acid/base labile, releasing an aldehyde.

> <s_lp_Force_Field>
OPLS_2005

> <r_lp_Energy>
29.8469

> <b_lp_Chiralities_Consistent>
1

> <s_lp_Variant>
AV-unprocessed.smi:134-1

> <Gold.Version>
5.8.1

> <Gold.Id.Protein>
6NUR|6NUR_protein|mol2

> <Gold.PLP.Fitness>
58.3348

> <Gold.PLP.PLP>
-57.1421

> <Gold.PLP.part.hbond>
-0.9480

> <Gold.PLP.part.metal>
0.0000

> <Gold.PLP.part.buried>
-7.8638

> <Gold.PLP.part.nonpolar>
-48.4195

> <Gold.PLP.part.repulsive>
0.2045

> <Gold.PLP.ligand.clash>
0.0000

> <Gold.PLP.ligand.torsion>
0.7833

> <Gold.PLP.Chemscore.Hbond>
0.9100

> <Gold.PLP.Chemscore.CHOScore>
0.0000

> <Gold.PLP.Chemscore.Metal>
0.0000

> <Gold.Chemscore.Hbonds>
donor molecule, donor type, donor heavy atom, donor atom, acceptor molecule, acceptor atom, score
      P1  H  6896  6909       L1     1  0.80

> <Gold.PLP.Chemscore.Internal.Correction>
0.0292

> <Gold.Rescore>
     Score         DG    S(hbond)    S(metal)    S(lipo)     H(rot)  DE(clash)    DE(int)     intcor
     12.78     -17.14       0.98        0.00     114.42       1.95       0.09       4.28       ----

> <Gold.Chemscore.Fitness>
12.7755

> <Gold.Chemscore.DG>
-17.1433

> <Gold.Chemscore.ZeroCoef>
-5.4800

> <Gold.Chemscore.Hbond>
0.9824

> <Gold.Chemscore.Metal>
0.0000

> <Gold.Chemscore.Lipo>
114.4170

> <Gold.Chemscore.Internal_Hbond>
0.0000

> <Gold.Chemscore.DEClash>
0.0857

> <Gold.Chemscore.DEInternal>
4.2820

> <Gold.Chemscore.Rot>
1.9549

> <Gold.Chemscore.Internal.Correction>
   9.000000E+99

> <Gold.Chemscore.Hbonds>
donor molecule, donor type, donor heavy atom, donor atom, acceptor molecule, acceptor atom, score
      P1  H  6896  6909       L1     1  0.74

> <Gold.Chemscore.Hbond.Weighted>
-3.2811

> <Gold.Chemscore.Metal.Weighted>
-0.0000

> <Gold.Chemscore.Lipo.Weighted>
-13.3868

> <Gold.Chemscore.Internal_Hbond.Weighted>
0.0000

> <Gold.Chemscore.DEClash.Weighted>
0.0857

> <Gold.Chemscore.DEInternal.Weighted>
4.2820

> <Gold.Chemscore.Rot.Weighted>
5.0046

> <Gold.Chemscore.Internal.Correction.Weighted>
   9.000000E+99

> <Gold.Protein.RotatedTorsions>
[ 6907 6896 6895 6894 ] final  109.07 input  -60.11 | X-H torsion
[ 7974 7965 7964 7962 ] final   36.14 input  175.53 | X-H torsion
[ 8008 7997 7996 7995 ] final   84.65 input   59.86 | X-H torsion
[ 10167 10162 10161 10158 ] final   31.75 input  -65.29 | X-H torsion
[ 10718 10713 10712 10709 ] final   18.21 input   66.30 | X-H torsion
[ 10763 10752 10751 10750 ] final   85.38 input  -60.55 | X-H torsion
[ 11005 11000 10999 10996 ] final  148.72 input  -57.11 | X-H torsion

> <Gold.Protein.ActiveResidues>
 VAL166  LYS551  ARG553  GLY616  TRP617  ASP618  TYR619  PRO620  LYS621  CYS622 
 ASP623  PHE694  ASN695  SER759  ASP760  ASP761  ALA762  ILE779  LEU786  VAL792 
 PHE793  MET794  SER795  GLU796  ALA797  LYS798  CYS799  TRP800  GLU811  SER814 

> <Gold.Protein.RotatedAtoms>
  152.5084  133.8998  159.7434 H   0  0  0  0  0  0  0  0  0  0  0  0  # atno 6907 bound_to 6896
  150.9416  133.6641  159.2796 H   0  0  0  0  0  0  0  0  0  0  0  0  # atno 6908 bound_to 6896
  151.3950  135.0967  159.9591 H   0  0  0  0  0  0  0  0  0  0  0  0  # atno 6909 bound_to 6896
  146.1233  139.6055  142.9275 H   0  0  0  0  0  0  0  0  0  0  0  0  # atno 7974 bound_to 7965
  155.9398  140.3409  155.6318 H   0  0  0  0  0  0  0  0  0  0  0  0  # atno 8008 bound_to 7997
  155.7054  140.0765  157.2412 H   0  0  0  0  0  0  0  0  0  0  0  0  # atno 8009 bound_to 7997
  154.4100  140.1632  156.2224 H   0  0  0  0  0  0  0  0  0  0  0  0  # atno 8010 bound_to 7997
  140.4561  144.0976  150.6202 H   0  0  0  0  0  0  0  0  0  0  0  0  # atno 10167 bound_to 10162
  157.0931  130.6436  149.5853 H   0  0  0  0  0  0  0  0  0  0  0  0  # atno 10718 bound_to 10713
  153.1469  135.4619  154.9580 H   0  0  0  0  0  0  0  0  0  0  0  0  # atno 10763 bound_to 10752
  154.7793  135.3183  154.8026 H   0  0  0  0  0  0  0  0  0  0  0  0  # atno 10764 bound_to 10752
  153.8538  135.6919  153.4844 H   0  0  0  0  0  0  0  0  0  0  0  0  # atno 10765 bound_to 10752
  140.0983  134.8999  157.1757 H   0  0  0  0  0  0  0  0  0  0  0  0  # atno 11005 bound_to 11000
  145.5420  141.0420  143.2325 LP  0  0  0  0  0  0  0  0  0  0  0  0  # atno 17320 bound_to 7965
  144.7618  139.6939  143.7231 LP  0  0  0  0  0  0  0  0  0  0  0  0  # atno 17321 bound_to 7965
  140.4150  143.2639  151.9786 LP  0  0  0  0  0  0  0  0  0  0  0  0  # atno 17342 bound_to 10162
  139.4801  144.5882  151.7817 LP  0  0  0  0  0  0  0  0  0  0  0  0  # atno 17343 bound_to 10162
  155.9893  130.4939  150.7207 LP  0  0  0  0  0  0  0  0  0  0  0  0  # atno 17370 bound_to 10713
  157.4704  131.0892  151.0648 LP  0  0  0  0  0  0  0  0  0  0  0  0  # atno 17371 bound_to 10713
  140.3255  134.2868  155.7238 LP  0  0  0  0  0  0  0  0  0  0  0  0  # atno 17394 bound_to 11000
  141.2098  133.7737  156.9971 LP  0  0  0  0  0  0  0  0  0  0  0  0  # atno 17395 bound_to 11000

$$$$
