#       Name:                AV-unprocessed.smi:2448
#       Creating user name   scv26
#       Creation time:       Fri Mar 27 13:30:01 2020


#       File generated by GOLD software.
#

@<TRIPOS>MOLECULE
AV-unprocessed.smi:2448
    41    42     1
SMALL
NO_CHARGES


@<TRIPOS>ATOM
      1 ****        -2.6441  -0.9796  -0.4127 O.3            1 S1                 0.0000
      2 ****        -2.0381   0.2188  -0.8636 C.3            1 S1                 0.0000
      3 ****        -0.5649   0.2009  -0.4075 C.3            1 S1                 0.0000
      4 ****         0.2255  -0.7893  -1.1418 N.3            1 S1                 0.0000
      5 ****         1.6730  -0.7943  -0.8823 C.3            1 S1                 0.0000
      6 ****         2.0345  -1.3845   0.5064 C.3            1 S1                 0.0000
      7 ****         1.8056  -0.4566   1.6889 C.ar           1 S1                 0.0000
      8 ****         0.9377  -0.8345   2.7386 C.ar           1 S1                 0.0000
      9 ****         0.7465   0.0431   3.8253 C.ar           1 S1                 0.0000
     10 ****         1.3969   1.2267   3.8566 N.pl3          1 S1                 1.0000
     11 ****         2.2422   1.6229   2.8800 C.ar           1 S1                 0.0000
     12 ****         2.4713   0.7873   1.7677 C.ar           1 S1                 0.0000
     13 ****         2.3931  -1.5609  -2.0121 C.3            1 S1                 0.0000
     14 ****         2.0749  -1.0305  -3.1935 F              1 S1                 0.0000
     15 ****         3.7146  -1.4714  -1.8615 F              1 S1                 0.0000
     16 ****         2.0418  -2.8474  -2.0082 F              1 S1                 0.0000
     17 ****        -2.2301   0.3618  -2.3846 C.3            1 S1                 0.0000
     18 ****        -3.6995   0.7115  -2.6406 C.3            1 S1                 0.0000
     19 ****        -4.2714   1.7285  -1.2568 S.3            1 S1                 0.0000
     20 ****        -2.8092   1.3943  -0.2384 C.3            1 S1                 0.0000
     21 ****        -2.1954  -1.7094  -0.8120 H              1 S1                 0.0000
     22 ****        -0.1323   1.1896  -0.5651 H              1 S1                 0.0000
     23 ****        -0.5316   0.0147   0.6634 H              1 S1                 0.0000
     24 ****         0.0664  -0.6733  -2.1381 H              1 S1                 0.0000
     25 ****         2.0440   0.2297  -0.9363 H              1 S1                 0.0000
     26 ****         1.5005  -2.3234   0.6601 H              1 S1                 0.0000
     27 ****         3.0928  -1.6445   0.5296 H              1 S1                 0.0000
     28 ****         0.4179  -1.7814   2.7106 H              1 S1                 0.0000
     29 ****         0.0985  -0.1651   4.6642 H              1 S1                 0.0000
     30 ****         2.7073   2.5882   3.0176 H              1 S1                 0.0000
     31 ****         3.1504   1.0997   0.9877 H              1 S1                 0.0000
     32 ****        -1.6045   1.1767  -2.7517 H              1 S1                 0.0000
     33 ****        -1.9355  -0.5355  -2.9302 H              1 S1                 0.0000
     34 ****        -3.8393   1.2271  -3.5909 H              1 S1                 0.0000
     35 ****        -4.3018  -0.1973  -2.6645 H              1 S1                 0.0000
     36 ****        -3.0861   1.2141   0.8013 H              1 S1                 0.0000
     37 ****        -2.1973   2.2968  -0.2568 H              1 S1                 0.0000
     38 ****         1.2453   1.8465   4.6530 H              1 S1                 0.0000
     39 ****        -3.6085  -0.9906  -0.6770 LP             1 S1                 0.0000
     40 ****        -2.5705  -1.0415   0.5826 LP             1 S1                 0.0000
     41 ****        -0.0975  -1.6724  -0.8017 LP             1 S1                 0.0000
@<TRIPOS>BOND
    1    1    2 1     
    2    1   21 1     
    3    2   20 1     
    4    2    3 1     
    5    2   17 1     
    6    3    4 1     
    7    3   22 1     
    8    3   23 1     
    9    4    5 1     
   10    4   24 1     
   11    5    6 1     
   12    5   13 1     
   13    5   25 1     
   14    6    7 1     
   15    6   26 1     
   16    6   27 1     
   17    7   12 ar    
   18    7    8 ar    
   19    8    9 ar    
   20    8   28 1     
   21    9   10 ar    
   22    9   29 1     
   23   10   11 ar    
   24   10   38 1     
   25   11   12 ar    
   26   11   30 1     
   27   12   31 1     
   28   13   14 1     
   29   13   15 1     
   30   13   16 1     
   31   17   18 1     
   32   17   32 1     
   33   17   33 1     
   34   18   19 1     
   35   18   34 1     
   36   18   35 1     
   37   19   20 1     
   38   20   36 1     
   39   20   37 1     
   40    1   39 1     
   41    1   40 1     
   42    4   41 1     
@<TRIPOS>SUBSTRUCTURE
      1 S1             1
@<TRIPOS>SET
LONE_PAIRS      STATIC     ATOMS    <user>   **** ""
3 39 40 41
DONOR_HYDROGENS      STATIC     ATOMS    <user>   **** ""
3 21 24 38
ATOM$BLUE        STATIC     ATOMS    COLORGROUP SYSTEM
3 39 40 41
ATOM$RED        STATIC     ATOMS    COLORGROUP SYSTEM
3 21 24 38
