AV-unprocessed.smi:104|AV-procd|sdf|996|dock5
  -GOLD-   2262017573D 1   1.00000     0.00000
 Structure written by MMmdl.
 47 49  0  0  0  0  0  0  0  0  1 V2000
  155.2996  140.3371  161.9900 C   0  0  0  0  0  0  0  0  0  0  0  0
  154.7253  140.9040  160.6977 C   0  0  0  0  0  0  0  0  0  0  0  0
  155.1191  140.5176  159.5974 O   0  0  0  0  0  0  0  0  0  0  0  0
  153.7844  141.8344  160.9178 O   0  0  0  0  0  0  0  0  0  0  0  0
  153.2069  142.5334  159.8244 C   0  0  0  0  0  0  0  0  0  0  0  0
  152.5538  141.5644  158.8235 C   0  0  1  0  0  0  0  0  0  0  0  0
  151.5632  140.7387  159.4322 O   0  0  0  0  0  0  0  0  0  0  0  0
  150.5764  140.4311  158.4919 C   0  0  2  0  0  0  0  0  0  0  0  0
  150.4067  138.9493  158.4088 N   0  0  0  0  0  0  0  0  0  0  0  0
  151.2231  137.9605  158.9081 C   0  0  0  0  0  0  0  0  0  0  0  0
  152.8176  138.3499  159.8743 Br  0  0  0  0  0  0  0  0  0  0  0  0
  150.8531  136.7261  158.7112 N   0  0  0  0  0  0  0  0  0  0  0  0
  149.6576  136.8721  158.0189 C   0  0  0  0  0  0  0  0  0  0  0  0
  148.7086  135.9612  157.4894 C   0  0  0  0  0  0  0  0  0  0  0  0
  148.8400  134.6308  157.5814 N   0  0  0  0  0  0  0  0  0  0  0  0
  147.6164  136.4569  156.8624 N   0  0  0  0  0  0  0  0  0  0  0  0
  147.4594  137.7803  156.7581 C   0  0  0  0  0  0  0  0  0  0  0  0
  148.2598  138.7541  157.1996 N   0  0  0  0  0  0  0  0  0  0  0  0
  149.3635  138.2548  157.8292 C   0  0  0  0  0  0  0  0  0  0  0  0
  151.0294  140.9885  157.1425 C   0  0  1  0  0  0  0  0  0  0  0  0
  149.9127  141.3502  156.3403 O   0  0  0  0  0  0  0  0  0  0  0  0
  149.7379  140.7854  155.1352 C   0  0  0  0  0  0  0  0  0  0  0  0
  148.5012  141.3143  154.4215 C   0  0  0  0  0  0  0  0  0  0  0  0
  150.4692  139.9421  154.6168 O   0  0  0  0  0  0  0  0  0  0  0  0
  151.8910  142.1653  157.5760 C   0  0  1  0  0  0  0  0  0  0  0  0
  151.0898  143.2938  157.9204 O   0  0  0  0  0  0  0  0  0  0  0  0
  151.6505  144.4922  158.1591 C   0  0  0  0  0  0  0  0  0  0  0  0
  150.7363  145.4125  158.9571 C   0  0  0  0  0  0  0  0  0  0  0  0
  152.7690  144.8569  157.7972 O   0  0  0  0  0  0  0  0  0  0  0  0
  155.1409  141.0262  162.8201 H   0  0  0  0  0  0  0  0  0  0  0  0
  156.3714  140.1678  161.8847 H   0  0  0  0  0  0  0  0  0  0  0  0
  154.8213  139.3875  162.2302 H   0  0  0  0  0  0  0  0  0  0  0  0
  152.4550  143.2408  160.1780 H   0  0  0  0  0  0  0  0  0  0  0  0
  153.9861  143.1125  159.3279 H   0  0  0  0  0  0  0  0  0  0  0  0
  153.3373  140.8921  158.4717 H   0  0  0  0  0  0  0  0  0  0  0  0
  149.6211  140.8288  158.8342 H   0  0  0  0  0  0  0  0  0  0  0  0
  149.6448  134.2347  158.0456 H   0  0  0  0  0  0  0  0  0  0  0  0
  148.1358  134.0264  157.1834 H   0  0  0  0  0  0  0  0  0  0  0  0
  146.5652  138.1051  156.2467 H   0  0  0  0  0  0  0  0  0  0  0  0
  151.6524  140.2368  156.6540 H   0  0  0  0  0  0  0  0  0  0  0  0
  147.6711  141.4178  155.1208 H   0  0  0  0  0  0  0  0  0  0  0  0
  148.1988  140.6337  153.6252 H   0  0  0  0  0  0  0  0  0  0  0  0
  148.7095  142.2902  153.9826 H   0  0  0  0  0  0  0  0  0  0  0  0
  152.6393  142.4183  156.8237 H   0  0  0  0  0  0  0  0  0  0  0  0
  149.7310  144.9964  159.0287 H   0  0  0  0  0  0  0  0  0  0  0  0
  150.6722  146.3894  158.4775 H   0  0  0  0  0  0  0  0  0  0  0  0
  151.1266  145.5468  159.9659 H   0  0  0  0  0  0  0  0  0  0  0  0
  1  2  1  0  0  0  0
  1 30  1  0  0  0  0
  1 31  1  0  0  0  0
  1 32  1  0  0  0  0
  2  3  2  0  0  0  0
  2  4  1  0  0  0  0
  4  5  1  0  0  0  0
  5  6  1  0  0  0  0
  5 33  1  0  0  0  0
  5 34  1  0  0  0  0
  6 25  1  0  0  0  0
  6  7  1  0  0  0  0
  6 35  1  0  0  0  0
  7  8  1  0  0  0  0
  8  9  1  0  0  0  0
  8 20  1  0  0  0  0
  8 36  1  0  0  0  0
  9 19  1  0  0  0  0
  9 10  1  0  0  0  0
 10 11  1  0  0  0  0
 10 12  2  0  0  0  0
 12 13  1  0  0  0  0
 13 19  2  0  0  0  0
 13 14  1  0  0  0  0
 14 15  1  0  0  0  0
 14 16  2  0  0  0  0
 15 37  1  0  0  0  0
 15 38  1  0  0  0  0
 16 17  1  0  0  0  0
 17 18  2  0  0  0  0
 17 39  1  0  0  0  0
 18 19  1  0  0  0  0
 20 21  1  0  0  0  0
 20 25  1  0  0  0  0
 20 40  1  0  0  0  0
 21 22  1  0  0  0  0
 22 23  1  0  0  0  0
 22 24  2  0  0  0  0
 23 41  1  0  0  0  0
 23 42  1  0  0  0  0
 23 43  1  0  0  0  0
 25 26  1  0  0  0  0
 25 44  1  0  0  0  0
 26 27  1  0  0  0  0
 27 28  1  0  0  0  0
 27 29  2  0  0  0  0
 28 45  1  0  0  0  0
 28 46  1  0  0  0  0
 28 47  1  0  0  0  0
M  END
> <s_m_source_file>
AV-unprocessed.smi

> <i_m_source_file_index>
104

> <i_lp_mmshare_version>
43012

> <i_f3d_flags>
0

> <s_epik_input>
W0NIM11DKD1PKU9bQ0gyXVtDQEBIXTFPW0NASF0oW0NAQEhdKE9DKD1PKVtDSDNdKVtDQEhdMU9DKD1PKVtDSDNdKW4oYyhCciluMiljKGMyMyluW2NIXW5jM1tOSDJd

> <s_epik_cmdline>
J2VwaWtfcHl0aG9uJywgJy1waCcsICc3LjAnLCAnLXRuJywgJzgnLCAnLW1hJywgJzIwMCcsICctbWV0YWxfYmluZGluZycsICctaW1hZScsICc8aW5maWxlLm1hZT4nLCAnLW9tYWUnLCAnPG91dGZpbGUubWFlPic=

> <r_lp_tautomer_probability>
1

> <r_epik_Ionization_Penalty>
7.36622e-05

> <r_epik_Ionization_Penalty_Charging>
0

> <r_epik_Ionization_Penalty_Neutral>
7.36622e-05

> <r_epik_State_Penalty>
-0

> <r_epik_Charging_Adjusted_Penalty>
0

> <i_epik_Tot_Q>
0

> <i_epik_Tot_abs_Q>
0

> <r_epik_Metal_State_Penalty>
-0

> <b_epik_Metal_Only>
0

> <s_epik_Chemistry_Notes>
This compound has an ester and may undergo hydrolysis at high or low pH. This compound contains an acetal/aminal-like group ( X-CH(R)-Y where X, Y are N, S, or O) that may be acid/base labile, releasing an aldehyde.

> <s_lp_Force_Field>
OPLS_2005

> <r_lp_Energy>
19.7206

> <b_lp_Chiralities_Consistent>
1

> <s_lp_Variant>
AV-unprocessed.smi:104-4

> <Gold.Version>
5.8.1

> <Gold.Id.Protein>
6NUR|6NUR_protein|mol2

> <Gold.PLP.Fitness>
43.0303

> <Gold.PLP.PLP>
-39.9866

> <Gold.PLP.part.hbond>
-2.4165

> <Gold.PLP.part.metal>
0.0000

> <Gold.PLP.part.buried>
-9.2196

> <Gold.PLP.part.nonpolar>
-29.1554

> <Gold.PLP.part.repulsive>
0.3575

> <Gold.PLP.ligand.clash>
0.0000

> <Gold.PLP.ligand.torsion>
1.5197

> <Gold.PLP.Chemscore.Hbond>
1.9280

> <Gold.PLP.Chemscore.CHOScore>
0.0000

> <Gold.PLP.Chemscore.Metal>
0.0000

> <Gold.Chemscore.Hbonds>
donor molecule, donor type, donor heavy atom, donor atom, acceptor molecule, acceptor atom, score
      P1  H  6896  6907       L1    12  0.98
      P1  H  7989  7998       L1    24  1.00

> <Gold.PLP.Chemscore.Internal.Correction>
0.2990

> <Gold.Rescore>
     Score         DG    S(hbond)    S(metal)    S(lipo)     H(rot)  DE(clash)    DE(int)     intcor
      5.71      -8.75       1.90        0.00      67.96       4.31       0.15       2.89       ----

> <Gold.Chemscore.Fitness>
5.7104

> <Gold.Chemscore.DG>
-8.7542

> <Gold.Chemscore.ZeroCoef>
-5.4800

> <Gold.Chemscore.Hbond>
1.9008

> <Gold.Chemscore.Metal>
0.0000

> <Gold.Chemscore.Lipo>
67.9611

> <Gold.Chemscore.Internal_Hbond>
0.0000

> <Gold.Chemscore.DEClash>
0.1514

> <Gold.Chemscore.DEInternal>
2.8925

> <Gold.Chemscore.Rot>
4.3070

> <Gold.Chemscore.Internal.Correction>
   9.000000E+99

> <Gold.Chemscore.Hbonds>
donor molecule, donor type, donor heavy atom, donor atom, acceptor molecule, acceptor atom, score
      P1  H  6896  6907       L1    12  0.85
      P1  H  7989  7998       L1    24  0.55

> <Gold.Chemscore.Hbond.Weighted>
-6.3487

> <Gold.Chemscore.Metal.Weighted>
-0.0000

> <Gold.Chemscore.Lipo.Weighted>
-7.9515

> <Gold.Chemscore.Internal_Hbond.Weighted>
0.0000

> <Gold.Chemscore.DEClash.Weighted>
0.1514

> <Gold.Chemscore.DEInternal.Weighted>
2.8925

> <Gold.Chemscore.Rot.Weighted>
11.0259

> <Gold.Chemscore.Internal.Correction.Weighted>
   9.000000E+99

> <Gold.Protein.RotatedTorsions>
[ 6907 6896 6895 6894 ] final  -30.28 input  -60.11 | X-H torsion
[ 7974 7965 7964 7962 ] final  170.26 input  175.53 | X-H torsion
[ 8008 7997 7996 7995 ] final  -84.92 input   59.86 | X-H torsion
[ 10167 10162 10161 10158 ] final  120.86 input  -65.29 | X-H torsion
[ 10718 10713 10712 10709 ] final  -71.79 input   66.30 | X-H torsion
[ 10763 10752 10751 10750 ] final -143.41 input  -60.55 | X-H torsion
[ 11005 11000 10999 10996 ] final -109.91 input  -57.11 | X-H torsion

> <Gold.Protein.ActiveResidues>
 VAL166  LYS551  ARG553  GLY616  TRP617  ASP618  TYR619  PRO620  LYS621  CYS622 
 ASP623  PHE694  ASN695  SER759  ASP760  ASP761  ALA762  ILE779  LEU786  VAL792 
 PHE793  MET794  SER795  GLU796  ALA797  LYS798  CYS799  TRP800  GLU811  SER814 

> <Gold.Protein.RotatedAtoms>
  151.1077  135.0009  159.8478 H   0  0  0  0  0  0  0  0  0  0  0  0  # atno 6907 bound_to 6896
  152.5441  134.1874  159.8670 H   0  0  0  0  0  0  0  0  0  0  0  0  # atno 6908 bound_to 6896
  151.1921  133.4616  159.2628 H   0  0  0  0  0  0  0  0  0  0  0  0  # atno 6909 bound_to 6896
  144.7329  139.9176  143.6418 H   0  0  0  0  0  0  0  0  0  0  0  0  # atno 7974 bound_to 7965
  154.6351  140.0598  156.9778 H   0  0  0  0  0  0  0  0  0  0  0  0  # atno 8008 bound_to 7997
  155.1605  140.3282  155.4394 H   0  0  0  0  0  0  0  0  0  0  0  0  # atno 8009 bound_to 7997
  156.2503  140.1931  156.6712 H   0  0  0  0  0  0  0  0  0  0  0  0  # atno 8010 bound_to 7997
  139.5955  144.7040  151.3186 H   0  0  0  0  0  0  0  0  0  0  0  0  # atno 10167 bound_to 10162
  156.0348  130.4358  150.2496 H   0  0  0  0  0  0  0  0  0  0  0  0  # atno 10718 bound_to 10713
  154.8471  135.3469  154.6182 H   0  0  0  0  0  0  0  0  0  0  0  0  # atno 10763 bound_to 10752
  153.6791  135.6981  153.5128 H   0  0  0  0  0  0  0  0  0  0  0  0  # atno 10764 bound_to 10752
  153.2682  135.4301  155.0918 H   0  0  0  0  0  0  0  0  0  0  0  0  # atno 10765 bound_to 10752
  141.0821  133.9202  157.2266 H   0  0  0  0  0  0  0  0  0  0  0  0  # atno 11005 bound_to 11000
  146.0953  139.3945  143.0380 LP  0  0  0  0  0  0  0  0  0  0  0  0  # atno 17320 bound_to 7965
  145.7654  140.9918  143.1178 LP  0  0  0  0  0  0  0  0  0  0  0  0  # atno 17321 bound_to 7965
  140.7208  143.7140  150.7747 LP  0  0  0  0  0  0  0  0  0  0  0  0  # atno 17342 bound_to 10162
  140.0705  143.5066  152.2582 LP  0  0  0  0  0  0  0  0  0  0  0  0  # atno 17343 bound_to 10162
  157.0596  131.0086  151.3227 LP  0  0  0  0  0  0  0  0  0  0  0  0  # atno 17370 bound_to 10713
  157.5080  130.7921  149.7675 LP  0  0  0  0  0  0  0  0  0  0  0  0  # atno 17371 bound_to 10713
  139.9636  135.0148  156.9327 LP  0  0  0  0  0  0  0  0  0  0  0  0  # atno 17394 bound_to 11000
  140.5445  134.0687  155.7351 LP  0  0  0  0  0  0  0  0  0  0  0  0  # atno 17395 bound_to 11000

$$$$
