AV-unprocessed.smi:110|AV-procd|sdf|1073|dock6
  -GOLD-   2262018163D 1   1.00000     0.00000
 Structure written by MMmdl.
 46 50  0  0  0  0  0  0  0  0  1 V2000
  143.6039  139.0521  154.5377 O   0  0  0  0  0  0  0  0  0  0  0  0
  144.6436  138.1498  154.8506 C   0  0  0  0  0  0  0  0  0  0  0  0
  146.0039  138.8651  154.7766 C   0  0  1  0  0  0  0  0  0  0  0  0
  146.9299  138.3119  155.7110 O   0  0  0  0  0  0  0  0  0  0  0  0
  148.2399  138.4466  155.2442 C   0  0  2  0  0  0  0  0  0  0  0  0
  149.0350  139.2885  156.1978 N   0  0  0  0  0  0  0  0  0  0  0  0
  148.5404  140.1951  157.1074 C   0  0  0  0  0  0  0  0  0  0  0  0
  149.4357  140.8058  157.8335 N   0  0  0  0  0  0  0  0  0  0  0  0
  150.6477  140.2952  157.3849 C   0  0  0  0  0  0  0  0  0  0  0  0
  152.0123  140.5128  157.7325 C   0  0  0  0  0  0  0  0  0  0  0  0
  152.4364  141.3786  158.6828 N   0  0  0  0  0  0  0  0  0  0  0  0
  153.1500  140.8656  159.8611 C   0  0  0  0  0  0  0  0  0  0  0  0
  153.1055  141.9602  160.9440 C   0  0  0  0  0  0  0  0  0  0  0  0
  152.4496  143.0755  160.1957 C   0  0  0  0  0  0  0  0  0  0  0  0
  152.2055  144.3812  160.6554 C   0  0  0  0  0  0  0  0  0  0  0  0
  151.5923  145.2939  159.7704 C   0  0  0  0  0  0  0  0  0  0  0  0
  151.2484  144.8951  158.4576 C   0  0  0  0  0  0  0  0  0  0  0  0
  151.5058  143.5782  158.0168 C   0  0  0  0  0  0  0  0  0  0  0  0
  152.0973  142.6647  158.9137 C   0  0  0  0  0  0  0  0  0  0  0  0
  152.9494  139.7612  157.1012 N   0  0  0  0  0  0  0  0  0  0  0  0
  152.5855  138.8856  156.1611 C   0  0  0  0  0  0  0  0  0  0  0  0
  151.3604  138.5998  155.7190 N   0  0  0  0  0  0  0  0  0  0  0  0
  150.4062  139.3278  156.3672 C   0  0  0  0  0  0  0  0  0  0  0  0
  148.1802  139.0283  153.8173 C   0  0  2  0  0  0  0  0  0  0  0  0
  148.4689  140.4138  153.7483 O   0  0  0  0  0  0  0  0  0  0  0  0
  146.7339  138.7630  153.4304 C   0  0  1  0  0  0  0  0  0  0  0  0
  146.5978  137.4691  152.8698 O   0  0  0  0  0  0  0  0  0  0  0  0
  145.8723  139.9252  154.9973 H   0  0  0  0  0  0  0  0  0  0  0  0
  148.7220  137.4689  155.2781 H   0  0  0  0  0  0  0  0  0  0  0  0
  148.8894  138.5036  153.1758 H   0  0  0  0  0  0  0  0  0  0  0  0
  146.3556  139.4848  152.7050 H   0  0  0  0  0  0  0  0  0  0  0  0
  143.7084  139.3327  153.6415 H   0  0  0  0  0  0  0  0  0  0  0  0
  144.4774  137.7085  155.8337 H   0  0  0  0  0  0  0  0  0  0  0  0
  144.6038  137.3419  154.1194 H   0  0  0  0  0  0  0  0  0  0  0  0
  147.4834  140.3885  157.2204 H   0  0  0  0  0  0  0  0  0  0  0  0
  152.6949  139.9415  160.2200 H   0  0  0  0  0  0  0  0  0  0  0  0
  154.1819  140.6445  159.5858 H   0  0  0  0  0  0  0  0  0  0  0  0
  152.4952  141.6657  161.7981 H   0  0  0  0  0  0  0  0  0  0  0  0
  154.1005  142.2435  161.2882 H   0  0  0  0  0  0  0  0  0  0  0  0
  152.4839  144.6796  161.6554 H   0  0  0  0  0  0  0  0  0  0  0  0
  151.3930  146.3047  160.0942 H   0  0  0  0  0  0  0  0  0  0  0  0
  150.7899  145.6043  157.7846 H   0  0  0  0  0  0  0  0  0  0  0  0
  151.2561  143.2869  157.0075 H   0  0  0  0  0  0  0  0  0  0  0  0
  153.3901  138.3342  155.6977 H   0  0  0  0  0  0  0  0  0  0  0  0
  148.7696  140.6138  152.8749 H   0  0  0  0  0  0  0  0  0  0  0  0
  147.3982  137.2525  152.4166 H   0  0  0  0  0  0  0  0  0  0  0  0
  1  2  1  0  0  0  0
  1 32  1  0  0  0  0
  2  3  1  0  0  0  0
  2 33  1  0  0  0  0
  2 34  1  0  0  0  0
  3 28  1  0  0  0  0
  3 26  1  0  0  0  0
  3  4  1  0  0  0  0
  4  5  1  0  0  0  0
  5 29  1  0  0  0  0
  5  6  1  0  0  0  0
  5 24  1  0  0  0  0
  6 23  1  0  0  0  0
  6  7  1  0  0  0  0
  7  8  2  0  0  0  0
  7 35  1  0  0  0  0
  8  9  1  0  0  0  0
  9 23  2  0  0  0  0
  9 10  1  0  0  0  0
 10 11  1  0  0  0  0
 10 20  2  0  0  0  0
 11 19  1  0  0  0  0
 11 12  1  0  0  0  0
 12 13  1  0  0  0  0
 12 36  1  0  0  0  0
 12 37  1  0  0  0  0
 13 14  1  0  0  0  0
 13 38  1  0  0  0  0
 13 39  1  0  0  0  0
 14 19  2  0  0  0  0
 14 15  1  0  0  0  0
 15 16  2  0  0  0  0
 15 40  1  0  0  0  0
 16 17  1  0  0  0  0
 16 41  1  0  0  0  0
 17 18  2  0  0  0  0
 17 42  1  0  0  0  0
 18 19  1  0  0  0  0
 18 43  1  0  0  0  0
 20 21  1  0  0  0  0
 21 22  2  0  0  0  0
 21 44  1  0  0  0  0
 22 23  1  0  0  0  0
 24 30  1  0  0  0  0
 24 25  1  0  0  0  0
 24 26  1  0  0  0  0
 25 45  1  0  0  0  0
 26 31  1  0  0  0  0
 26 27  1  0  0  0  0
 27 46  1  0  0  0  0
M  END
> <s_m_source_file>
AV-unprocessed.smi

> <i_m_source_file_index>
110

> <i_lp_mmshare_version>
43012

> <i_f3d_flags>
0

> <s_epik_input>
W09IXVtDSDJdW0NASF0xT1tDQEhdKFtDQEhdKFtPSF0pW0NAQEhdMVtPSF0pbihbY0hdbjIpYyhjMjMpbltjSF1uYzNOKFtDSDJdW0NIMl00KWMoYzQ1KVtjSF1bY0hdW2NIXVtjSF01

> <s_epik_cmdline>
J2VwaWtfcHl0aG9uJywgJy1waCcsICc3LjAnLCAnLXRuJywgJzgnLCAnLW1hJywgJzIwMCcsICctbWV0YWxfYmluZGluZycsICctaW1hZScsICc8aW5maWxlLm1hZT4nLCAnLW9tYWUnLCAnPG91dGZpbGUubWFlPic=

> <r_lp_tautomer_probability>
1

> <r_epik_Ionization_Penalty>
0.00068475

> <r_epik_Ionization_Penalty_Charging>
0

> <r_epik_Ionization_Penalty_Neutral>
0.00068475

> <r_epik_State_Penalty>
0.000417442

> <r_epik_Charging_Adjusted_Penalty>
0.000417442

> <i_epik_Tot_Q>
0

> <i_epik_Tot_abs_Q>
0

> <r_epik_Metal_State_Penalty>
-0

> <b_epik_Metal_Only>
0

> <s_epik_Chemistry_Notes>
This compound contains an acetal/aminal-like group ( X-CH(R)-Y where X, Y are N, S, or O) that may be acid/base labile, releasing an aldehyde.

> <s_lp_Force_Field>
OPLS_2005

> <r_lp_Energy>
62.4803

> <b_lp_Chiralities_Consistent>
1

> <s_lp_Variant>
AV-unprocessed.smi:110-11

> <Gold.Version>
5.8.1

> <Gold.Id.Protein>
6NUR|6NUR_protein|mol2

> <Gold.PLP.Fitness>
53.0077

> <Gold.PLP.PLP>
-44.9659

> <Gold.PLP.part.hbond>
-3.5656

> <Gold.PLP.part.metal>
0.0000

> <Gold.PLP.part.buried>
-5.2535

> <Gold.PLP.part.nonpolar>
-35.9437

> <Gold.PLP.part.repulsive>
0.0317

> <Gold.PLP.ligand.clash>
0.0000

> <Gold.PLP.ligand.torsion>
2.0108

> <Gold.PLP.Chemscore.Hbond>
4.0000

> <Gold.PLP.Chemscore.CHOScore>
0.0000

> <Gold.PLP.Chemscore.Metal>
0.0000

> <Gold.Chemscore.Hbonds>
donor molecule, donor type, donor heavy atom, donor atom, acceptor molecule, acceptor atom, score
      L1  H     1    32       P1 10175  1.00
      L1  H    25    45       P1  7957  1.00
      L1  H    27    46       P1  7948  1.00
      P1  H  7997  8008       L1    20  1.00

> <Gold.PLP.Chemscore.Internal.Correction>
0.0633

> <Gold.Rescore>
     Score         DG    S(hbond)    S(metal)    S(lipo)     H(rot)  DE(clash)    DE(int)     intcor
     20.25     -22.32       3.87        0.00     107.65       3.38       0.03       2.04       ----

> <Gold.Chemscore.Fitness>
20.2539

> <Gold.Chemscore.DG>
-22.3233

> <Gold.Chemscore.ZeroCoef>
-5.4800

> <Gold.Chemscore.Hbond>
3.8653

> <Gold.Chemscore.Metal>
0.0000

> <Gold.Chemscore.Lipo>
107.6541

> <Gold.Chemscore.Internal_Hbond>
0.0000

> <Gold.Chemscore.DEClash>
0.0276

> <Gold.Chemscore.DEInternal>
2.0418

> <Gold.Chemscore.Rot>
3.3837

> <Gold.Chemscore.Internal.Correction>
   9.000000E+99

> <Gold.Chemscore.Hbonds>
donor molecule, donor type, donor heavy atom, donor atom, acceptor molecule, acceptor atom, score
      L1  H     1    32       P1 10175  0.95
      L1  H    25    45       P1  7957  0.93
      L1  H    27    46       P1  7948  0.99
      P1  H  7997  8008       L1    20  0.61

> <Gold.Chemscore.Hbond.Weighted>
-12.9100

> <Gold.Chemscore.Metal.Weighted>
-0.0000

> <Gold.Chemscore.Lipo.Weighted>
-12.5955

> <Gold.Chemscore.Internal_Hbond.Weighted>
0.0000

> <Gold.Chemscore.DEClash.Weighted>
0.0276

> <Gold.Chemscore.DEInternal.Weighted>
2.0418

> <Gold.Chemscore.Rot.Weighted>
8.6622

> <Gold.Chemscore.Internal.Correction.Weighted>
   9.000000E+99

> <Gold.Protein.RotatedTorsions>
[ 6907 6896 6895 6894 ] final  157.89 input  -60.11 | X-H torsion
[ 7974 7965 7964 7962 ] final   -2.17 input  175.53 | X-H torsion
[ 8008 7997 7996 7995 ] final  -79.20 input   59.86 | X-H torsion
[ 10167 10162 10161 10158 ] final  -34.05 input  -65.29 | X-H torsion
[ 10718 10713 10712 10709 ] final  160.21 input   66.30 | X-H torsion
[ 10763 10752 10751 10750 ] final  132.70 input  -60.55 | X-H torsion
[ 11005 11000 10999 10996 ] final  127.44 input  -57.11 | X-H torsion

> <Gold.Protein.ActiveResidues>
 VAL166  LYS551  ARG553  GLY616  TRP617  ASP618  TYR619  PRO620  LYS621  CYS622 
 ASP623  PHE694  ASN695  SER759  ASP760  ASP761  ALA762  ILE779  LEU786  VAL792 
 PHE793  MET794  SER795  GLU796  ALA797  LYS798  CYS799  TRP800  GLU811  SER814 

> <Gold.Protein.RotatedAtoms>
  152.0085  133.3852  159.4209 H   0  0  0  0  0  0  0  0  0  0  0  0  # atno 6907 bound_to 6896
  150.6902  134.3756  159.5021 H   0  0  0  0  0  0  0  0  0  0  0  0  # atno 6908 bound_to 6896
  152.1514  134.8985  160.0598 H   0  0  0  0  0  0  0  0  0  0  0  0  # atno 6909 bound_to 6896
  146.2408  140.1531  142.8333 H   0  0  0  0  0  0  0  0  0  0  0  0  # atno 7974 bound_to 7965
  154.5762  140.0682  156.9037 H   0  0  0  0  0  0  0  0  0  0  0  0  # atno 8008 bound_to 7997
  155.2545  140.3354  155.4261 H   0  0  0  0  0  0  0  0  0  0  0  0  # atno 8009 bound_to 7997
  156.2155  140.1777  156.7582 H   0  0  0  0  0  0  0  0  0  0  0  0  # atno 8010 bound_to 7997
  140.7193  143.3576  151.2028 H   0  0  0  0  0  0  0  0  0  0  0  0  # atno 10167 bound_to 10162
  157.1535  131.0570  151.2268 H   0  0  0  0  0  0  0  0  0  0  0  0  # atno 10718 bound_to 10713
  153.7951  135.3149  155.3383 H   0  0  0  0  0  0  0  0  0  0  0  0  # atno 10763 bound_to 10752
  154.8111  135.4667  154.0521 H   0  0  0  0  0  0  0  0  0  0  0  0  # atno 10764 bound_to 10752
  153.1851  135.6900  153.8513 H   0  0  0  0  0  0  0  0  0  0  0  0  # atno 10765 bound_to 10752
  139.9508  134.9622  156.8855 H   0  0  0  0  0  0  0  0  0  0  0  0  # atno 11005 bound_to 11000
  145.0151  140.8747  143.5200 LP  0  0  0  0  0  0  0  0  0  0  0  0  # atno 17320 bound_to 7965
  145.1570  139.2480  143.5411 LP  0  0  0  0  0  0  0  0  0  0  0  0  # atno 17321 bound_to 7965
  139.7120  143.9360  152.2951 LP  0  0  0  0  0  0  0  0  0  0  0  0  # atno 17342 bound_to 10162
  139.9089  144.6868  150.8584 LP  0  0  0  0  0  0  0  0  0  0  0  0  # atno 17343 bound_to 10162
  157.4199  130.7431  149.6905 LP  0  0  0  0  0  0  0  0  0  0  0  0  # atno 17370 bound_to 10713
  155.9766  130.4073  150.3767 LP  0  0  0  0  0  0  0  0  0  0  0  0  # atno 17371 bound_to 10713
  140.5725  134.0430  155.7435 LP  0  0  0  0  0  0  0  0  0  0  0  0  # atno 17394 bound_to 11000
  141.1170  133.9524  157.2804 LP  0  0  0  0  0  0  0  0  0  0  0  0  # atno 17395 bound_to 11000

$$$$
