AV-unprocessed.smi:3124|AV-procd|sdf|11903|dock10
  -GOLD-   2272017283D 1   1.00000     0.00000
 Structure written by MMmdl.
 24 24  0  0  0  0  0  0  0  0  2 V2000
  151.0580  143.1166  158.1811 C   0  0  0  0  0  0  0  0  0  0  0  0
  150.9887  142.0795  157.1121 C   0  0  0  0  0  0  0  0  0  0  0  0
  151.5273  140.8262  157.0305 C   0  0  0  0  0  0  0  0  0  0  0  0
  151.1012  140.3411  155.7589 C   0  0  0  0  0  0  0  0  0  0  0  0
  151.3997  139.0074  155.1285 C   0  0  0  0  0  0  0  0  0  0  0  0
  150.1338  138.1633  154.8835 C   0  0  1  0  0  0  0  0  0  0  0  0
  149.0746  138.9443  154.0938 C   0  0  0  0  0  0  0  0  0  0  0  0
  150.4617  136.9055  154.1868 N   0  3  0  0  0  0  0  0  0  0  0  0
  150.3572  141.2219  155.1059 N   0  0  0  0  0  0  0  0  0  0  0  0
  150.2951  142.2763  155.9405 N   0  0  0  0  0  0  0  0  0  0  0  0
  149.7860  143.1151  155.6989 H   0  0  0  0  0  0  0  0  0  0  0  0
  151.7710  142.8317  158.9551 H   0  0  0  0  0  0  0  0  0  0  0  0
  150.0847  143.2521  158.6529 H   0  0  0  0  0  0  0  0  0  0  0  0
  151.3728  144.0767  157.7716 H   0  0  0  0  0  0  0  0  0  0  0  0
  152.1392  140.3298  157.7691 H   0  0  0  0  0  0  0  0  0  0  0  0
  152.0953  138.4508  155.7582 H   0  0  0  0  0  0  0  0  0  0  0  0
  151.9191  139.1638  154.1819 H   0  0  0  0  0  0  0  0  0  0  0  0
  149.7016  137.8934  155.8479 H   0  0  0  0  0  0  0  0  0  0  0  0
  148.7877  139.8564  154.6182 H   0  0  0  0  0  0  0  0  0  0  0  0
  148.1708  138.3505  153.9526 H   0  0  0  0  0  0  0  0  0  0  0  0
  149.4433  139.2310  153.1082 H   0  0  0  0  0  0  0  0  0  0  0  0
  150.3226  136.1254  154.8126 H   0  0  0  0  0  0  0  0  0  0  0  0
  151.4254  136.9280  153.8854 H   0  0  0  0  0  0  0  0  0  0  0  0
  149.8601  136.8023  153.3817 H   0  0  0  0  0  0  0  0  0  0  0  0
  1 12  1  0  0  0  0
  1 13  1  0  0  0  0
  1 14  1  0  0  0  0
  1  2  1  0  0  0  0
  2 10  1  0  0  0  0
  2  3  2  0  0  0  0
  3  4  1  0  0  0  0
  3 15  1  0  0  0  0
  4  5  1  0  0  0  0
  4  9  2  0  0  0  0
  5  6  1  0  0  0  0
  5 16  1  0  0  0  0
  5 17  1  0  0  0  0
  6  7  1  0  0  0  0
  6  8  1  0  0  0  0
  6 18  1  0  0  0  0
  7 19  1  0  0  0  0
  7 20  1  0  0  0  0
  7 21  1  0  0  0  0
  8 22  1  0  0  0  0
  8 23  1  0  0  0  0
  8 24  1  0  0  0  0
  9 10  1  0  0  0  0
 10 11  1  0  0  0  0
M  CHG  1   8   1
M  END
> <s_m_source_file>
AV-unprocessed.smi

> <i_m_source_file_index>
3124

> <i_lp_mmshare_version>
43012

> <i_f3d_flags>
0

> <s_epik_input>
W0NIM11jMVtjSF1jKFtuSF1uMSlbQ0gyXVtDQEhdKFtDSDNdKVtOSDJd

> <s_epik_cmdline>
J2VwaWtfcHl0aG9uJywgJy1waCcsICc3LjAnLCAnLXRuJywgJzgnLCAnLW1hJywgJzIwMCcsICctbWV0YWxfYmluZGluZycsICctaW1hZScsICc8aW5maWxlLm1hZT4nLCAnLW9tYWUnLCAnPG91dGZpbGUubWFlPic=

> <r_lp_tautomer_probability>
0.5

> <r_epik_Ionization_Penalty>
0.00151643

> <r_epik_Ionization_Penalty_Charging>
0.00146569

> <r_epik_Ionization_Penalty_Neutral>
5.07401e-05

> <r_epik_State_Penalty>
0.379573

> <r_epik_Charging_Adjusted_Penalty>
0.381038

> <i_epik_Tot_Q>
1

> <i_epik_Tot_abs_Q>
1

> <r_epik_Metal_State_Penalty>
0.378341

> <b_epik_Metal_Only>
0

> <s_lp_Force_Field>
OPLS_2005

> <r_lp_Energy>
2.04404

> <b_lp_Chiralities_Consistent>
1

> <s_lp_Variant>
AV-unprocessed.smi:3124-2

> <Gold.Version>
5.8.1

> <Gold.Id.Protein>
6NUR|6NUR_protein|mol2

> <Gold.PLP.Fitness>
29.4477

> <Gold.PLP.PLP>
-19.9840

> <Gold.PLP.part.hbond>
-4.0000

> <Gold.PLP.part.metal>
0.0000

> <Gold.PLP.part.buried>
-0.1991

> <Gold.PLP.part.nonpolar>
-15.3472

> <Gold.PLP.part.repulsive>
0.3078

> <Gold.PLP.ligand.clash>
0.0000

> <Gold.PLP.ligand.torsion>
0.0231

> <Gold.PLP.Chemscore.Hbond>
3.1689

> <Gold.PLP.Chemscore.CHOScore>
0.0000

> <Gold.PLP.Chemscore.Metal>
0.0000

> <Gold.Chemscore.Hbonds>
donor molecule, donor type, donor heavy atom, donor atom, acceptor molecule, acceptor atom, score
      L1  H     8    24       P1  7948  2.00
      L1  H    10    11       P1  8028  1.00
      P1  H  7989  7998       L1     9  0.19

> <Gold.PLP.Chemscore.Internal.Correction>
0.0031

> <Gold.Rescore>
     Score         DG    S(hbond)    S(metal)    S(lipo)     H(rot)  DE(clash)    DE(int)     intcor
     12.94     -14.34       1.91        0.00      49.63       1.30       0.10       1.30       ----

> <Gold.Chemscore.Fitness>
12.9366

> <Gold.Chemscore.DG>
-14.3360

> <Gold.Chemscore.ZeroCoef>
-5.4800

> <Gold.Chemscore.Hbond>
1.9082

> <Gold.Chemscore.Metal>
0.0000

> <Gold.Chemscore.Lipo>
49.6342

> <Gold.Chemscore.Internal_Hbond>
0.0000

> <Gold.Chemscore.DEClash>
0.1014

> <Gold.Chemscore.DEInternal>
1.2981

> <Gold.Chemscore.Rot>
1.2987

> <Gold.Chemscore.Internal.Correction>
   9.000000E+99

> <Gold.Chemscore.Hbonds>
donor molecule, donor type, donor heavy atom, donor atom, acceptor molecule, acceptor atom, score
      L1  H     8    24       P1  7948  0.30
      L1  H    10    11       P1  8028  1.00

> <Gold.Chemscore.Hbond.Weighted>
-6.3735

> <Gold.Chemscore.Metal.Weighted>
-0.0000

> <Gold.Chemscore.Lipo.Weighted>
-5.8072

> <Gold.Chemscore.Internal_Hbond.Weighted>
0.0000

> <Gold.Chemscore.DEClash.Weighted>
0.1014

> <Gold.Chemscore.DEInternal.Weighted>
1.2981

> <Gold.Chemscore.Rot.Weighted>
3.3246

> <Gold.Chemscore.Internal.Correction.Weighted>
   9.000000E+99

> <Gold.Protein.RotatedTorsions>
[ 6907 6896 6895 6894 ] final  -19.74 input  -60.11 | X-H torsion
[ 7974 7965 7964 7962 ] final   50.14 input  175.53 | X-H torsion
[ 8008 7997 7996 7995 ] final  -31.96 input   59.86 | X-H torsion
[ 10167 10162 10161 10158 ] final -157.12 input  -65.29 | X-H torsion
[ 10718 10713 10712 10709 ] final -130.46 input   66.30 | X-H torsion
[ 10763 10752 10751 10750 ] final  -23.84 input  -60.55 | X-H torsion
[ 11005 11000 10999 10996 ] final   96.12 input  -57.11 | X-H torsion

> <Gold.Protein.ActiveResidues>
 VAL166  LYS551  ARG553  GLY616  TRP617  ASP618  TYR619  PRO620  LYS621  CYS622 
 ASP623  PHE694  ASN695  SER759  ASP760  ASP761  ALA762  ILE779  LEU786  VAL792 
 PHE793  MET794  SER795  GLU796  ALA797  LYS798  CYS799  TRP800  GLU811  SER814 

> <Gold.Protein.RotatedAtoms>
  151.2585  135.0646  159.9089 H   0  0  0  0  0  0  0  0  0  0  0  0  # atno 6907 bound_to 6896
  152.5369  134.0256  159.8011 H   0  0  0  0  0  0  0  0  0  0  0  0  # atno 6908 bound_to 6896
  151.0475  133.5603  159.2676 H   0  0  0  0  0  0  0  0  0  0  0  0  # atno 6909 bound_to 6896
  146.0041  139.4471  142.9997 H   0  0  0  0  0  0  0  0  0  0  0  0  # atno 7974 bound_to 7965
  154.4196  140.1750  156.1651 H   0  0  0  0  0  0  0  0  0  0  0  0  # atno 8008 bound_to 7997
  155.9806  140.3378  155.6636 H   0  0  0  0  0  0  0  0  0  0  0  0  # atno 8009 bound_to 7997
  155.6504  140.0690  157.2579 H   0  0  0  0  0  0  0  0  0  0  0  0  # atno 8010 bound_to 7997
  139.6795  143.9605  152.2329 H   0  0  0  0  0  0  0  0  0  0  0  0  # atno 10167 bound_to 10162
  156.2146  130.6940  151.0688 H   0  0  0  0  0  0  0  0  0  0  0  0  # atno 10718 bound_to 10713
  153.6743  135.6970  153.5137 H   0  0  0  0  0  0  0  0  0  0  0  0  # atno 10763 bound_to 10752
  153.2534  135.4268  155.0820 H   0  0  0  0  0  0  0  0  0  0  0  0  # atno 10764 bound_to 10752
  154.8418  135.3537  154.6287 H   0  0  0  0  0  0  0  0  0  0  0  0  # atno 10765 bound_to 10752
  139.8784  134.8934  156.4111 H   0  0  0  0  0  0  0  0  0  0  0  0  # atno 11005 bound_to 11000
  145.7443  140.9996  143.1284 LP  0  0  0  0  0  0  0  0  0  0  0  0  # atno 17320 bound_to 7965
  144.6929  139.9137  143.7464 LP  0  0  0  0  0  0  0  0  0  0  0  0  # atno 17321 bound_to 7965
  139.9391  144.6693  150.8284 LP  0  0  0  0  0  0  0  0  0  0  0  0  # atno 17342 bound_to 10162
  140.7647  143.3256  151.2522 LP  0  0  0  0  0  0  0  0  0  0  0  0  # atno 17343 bound_to 10162
  157.7056  131.0757  150.6676 LP  0  0  0  0  0  0  0  0  0  0  0  0  # atno 17370 bound_to 10713
  156.6737  130.4547  149.5649 LP  0  0  0  0  0  0  0  0  0  0  0  0  # atno 17371 bound_to 10713
  140.9199  133.7652  155.9894 LP  0  0  0  0  0  0  0  0  0  0  0  0  # atno 17394 bound_to 11000
  140.8451  134.3021  157.5298 LP  0  0  0  0  0  0  0  0  0  0  0  0  # atno 17395 bound_to 11000

$$$$
