#       Name:                AV-unprocessed.smi:500
#       Creating user name   scv26
#       Creation time:       Thu Mar 26 23:19:30 2020


#       File generated by GOLD software.
#

@<TRIPOS>MOLECULE
AV-unprocessed.smi:500
    52    54     1
SMALL
NO_CHARGES


@<TRIPOS>ATOM
      1 ****        -5.5587   0.4824   0.4653 C.3            1 S1                 0.0000
      2 ****        -4.0548   0.3650   0.2080 C.3            1 S1                 0.0000
      3 ****        -3.3605   0.6832   1.4054 O.3            1 S1                 0.0000
      4 ****        -1.9472   0.6104   1.2857 C.3            1 S1                 0.0000
      5 ****        -1.4444  -0.8358   1.4378 C.3            1 S1                 0.0000
      6 ****         0.0128  -0.9163   1.3223 N.pl3          1 S1                 0.0000
      7 ****         0.8101  -1.0553   0.2173 C.2            1 S1                 0.0000
      8 ****         0.2900  -1.1591  -1.2085 C.3            1 S1                 0.0000
      9 ****         0.3525  -2.6073  -1.7136 C.3            1 S1                 0.0000
     10 ****         1.0169  -0.2962  -2.1438 N.pl3          1 S1                -1.0000
     11 ****         0.8786   1.0586  -2.2044 C.2            1 S1                 0.0000
     12 ****         0.1570   1.8076  -1.5371 O.2            1 S1                 0.0000
     13 ****         1.7487   1.6687  -3.2374 C.2            1 S1                 0.0000
     14 ****         1.9071   2.9831  -3.5895 C.2            1 S1                 0.0000
     15 ****         2.8670   3.0160  -4.6387 C.2            1 S1                 0.0000
     16 ****         3.2286   1.7180  -4.8568 C.2            1 S1                 0.0000
     17 ****         2.5592   0.8858  -4.0145 O.3            1 S1                 0.0000
     18 ****         2.1221  -1.1119   0.4731 N.2            1 S1                 0.0000
     19 ****         2.1869  -0.9752   1.8432 C.ar           1 S1                 0.0000
     20 ****         3.3028  -0.9470   2.7099 C.ar           1 S1                 0.0000
     21 ****         3.1232  -0.7945   4.1000 C.ar           1 S1                 0.0000
     22 ****         1.8275  -0.6689   4.6411 C.ar           1 S1                 0.0000
     23 ****         0.7029  -0.6961   3.7939 C.ar           1 S1                 0.0000
     24 ****         0.8873  -0.8490   2.4057 C.ar           1 S1                 0.0000
     25 ****        -6.1276   0.2481  -0.4347 H              1 S1                 0.0000
     26 ****        -5.8245   1.4930   0.7761 H              1 S1                 0.0000
     27 ****        -5.8755  -0.2047   1.2504 H              1 S1                 0.0000
     28 ****        -3.8181  -0.6456  -0.1248 H              1 S1                 0.0000
     29 ****        -3.7613   1.0498  -0.5890 H              1 S1                 0.0000
     30 ****        -1.6163   1.0545   0.3467 H              1 S1                 0.0000
     31 ****        -1.5173   1.2203   2.0806 H              1 S1                 0.0000
     32 ****        -1.7378  -1.2215   2.4143 H              1 S1                 0.0000
     33 ****        -1.9065  -1.5071   0.7153 H              1 S1                 0.0000
     34 ****        -0.7645  -0.8822  -1.1973 H              1 S1                 0.0000
     35 ****        -0.2202  -3.2697  -1.0640 H              1 S1                 0.0000
     36 ****         1.3785  -2.9765  -1.7414 H              1 S1                 0.0000
     37 ****        -0.0614  -2.6947  -2.7187 H              1 S1                 0.0000
     38 ****         1.3927   3.8210  -3.1426 H              1 S1                 0.0000
     39 ****         3.2446   3.8794  -5.1660 H              1 S1                 0.0000
     40 ****         3.9128   1.2325  -5.5367 H              1 S1                 0.0000
     41 ****         4.2981  -1.0413   2.3020 H              1 S1                 0.0000
     42 ****         3.9832  -0.7725   4.7529 H              1 S1                 0.0000
     43 ****         1.6973  -0.5510   5.7069 H              1 S1                 0.0000
     44 ****        -0.2898  -0.5990   4.2073 H              1 S1                 0.0000
     45 ****        -3.6500   0.0432   2.1171 LP             1 S1                 0.0000
     46 ****        -3.6065   1.6144   1.6744 LP             1 S1                 0.0000
     47 ****         1.6561  -0.7296  -2.7791 LP             1 S1                 0.0000
     48 ****        -0.4396   1.4279  -0.8301 LP             1 S1                 0.0000
     49 ****         0.1695   2.7935  -1.7042 LP             1 S1                 0.0000
     50 ****         2.0086   0.2365  -4.5392 LP             1 S1                 0.0000
     51 ****         3.2068   0.3856  -3.4398 LP             1 S1                 0.0000
     52 ****         2.8753  -1.2260  -0.1746 LP             1 S1                 0.0000
@<TRIPOS>BOND
    1    1    2 1     
    2    1   25 1     
    3    1   26 1     
    4    1   27 1     
    5    2    3 1     
    6    2   28 1     
    7    2   29 1     
    8    3    4 1     
    9    4    5 1     
   10    4   30 1     
   11    4   31 1     
   12    5    6 1     
   13    5   32 1     
   14    5   33 1     
   15    6   24 1     
   16    6    7 1     
   17    7    8 1     
   18    7   18 2     
   19    8    9 1     
   20    8   10 1     
   21    8   34 1     
   22    9   35 1     
   23    9   36 1     
   24    9   37 1     
   25   10   11 1     
   26   11   12 2     
   27   11   13 1     
   28   13   17 1     
   29   13   14 2     
   30   14   15 1     
   31   14   38 1     
   32   15   16 2     
   33   15   39 1     
   34   16   17 1     
   35   16   40 1     
   36   18   19 1     
   37   19   24 ar    
   38   19   20 ar    
   39   20   21 ar    
   40   20   41 1     
   41   21   22 ar    
   42   21   42 1     
   43   22   23 ar    
   44   22   43 1     
   45   23   24 ar    
   46   23   44 1     
   47    3   45 1     
   48    3   46 1     
   49   10   47 1     
   50   12   48 1     
   51   12   49 1     
   52   17   50 1     
   53   17   51 1     
   54   18   52 1     
@<TRIPOS>SUBSTRUCTURE
      1 S1             1
@<TRIPOS>SET
LONE_PAIRS      STATIC     ATOMS    <user>   **** ""
8 45 46 47 48 49 50 51 52
ATOM$BLUE        STATIC     ATOMS    COLORGROUP SYSTEM
8 45 46 47 48 49 50 51 52
