#       Name:                AV-unprocessed.smi:828
#       Creating user name   scv26
#       Creation time:       Fri Mar 27 01:31:21 2020


#       File generated by GOLD software.
#

@<TRIPOS>MOLECULE
AV-unprocessed.smi:828
    39    40     1
SMALL
NO_CHARGES


@<TRIPOS>ATOM
      1 ****        -6.8310   2.3387   1.0759 C.3            1 S1                 0.0000
      2 ****        -5.4067   1.8995   1.1018 C.2            1 S1                 0.0000
      3 ****        -4.3860   2.7526   1.2521 N.2            1 S1                 0.0000
      4 ****        -3.1563   2.1092   1.2417 N.2            1 S1                 0.0000
      5 ****        -3.2868   0.7845   1.0856 C.2            1 S1                 0.0000
      6 ****        -2.1895  -0.1155   1.0314 N.am           1 S1                 0.0000
      7 ****        -0.8769   0.1668   1.1063 C.2            1 S1                 0.0000
      8 ****        -0.3978   1.2870   1.2832 O.2            1 S1                 0.0000
      9 ****        -0.1321  -0.9383   0.9548 N.am           1 S1                 0.0000
     10 ****         1.3276  -0.9825   0.9603 C.3            1 S1                 0.0000
     11 ****         1.9131  -0.9392  -0.4664 C.3            1 S1                 0.0000
     12 ****         1.6000   0.3461  -1.2410 C.3            1 S1                 0.0000
     13 ****         2.7048   0.3951  -2.2857 C.3            1 S1                 0.0000
     14 ****         3.9185  -0.1690  -1.5449 C.3            1 S1                 0.0000
     15 ****         3.3937  -1.0293  -0.4568 N.4            1 S1                 1.0000
     16 ****         3.9190  -2.4120  -0.4864 C.3            1 S1                 0.0000
     17 ****        -4.9395   0.2111   0.9376 S.3            1 S1                 0.0000
     18 ****        -6.8988   3.4271   1.0664 H              1 S1                 0.0000
     19 ****        -7.3521   1.9630   1.9564 H              1 S1                 0.0000
     20 ****        -7.3244   1.9512   0.1845 H              1 S1                 0.0000
     21 ****        -2.4337  -1.0855   0.8970 H              1 S1                 0.0000
     22 ****        -0.6116  -1.8165   0.8188 H              1 S1                 0.0000
     23 ****         1.7385  -0.1745   1.5685 H              1 S1                 0.0000
     24 ****         1.6221  -1.9094   1.4529 H              1 S1                 0.0000
     25 ****         1.5204  -1.7786  -1.0439 H              1 S1                 0.0000
     26 ****         0.6027   0.3453  -1.6820 H              1 S1                 0.0000
     27 ****         1.6793   1.2154  -0.5863 H              1 S1                 0.0000
     28 ****         2.4468  -0.2538  -3.1239 H              1 S1                 0.0000
     29 ****         2.8759   1.3981  -2.6775 H              1 S1                 0.0000
     30 ****         4.5861  -0.7011  -2.2247 H              1 S1                 0.0000
     31 ****         4.4919   0.6394  -1.0895 H              1 S1                 0.0000
     32 ****         3.6346  -2.9208  -1.4085 H              1 S1                 0.0000
     33 ****         3.5368  -2.9890   0.3559 H              1 S1                 0.0000
     34 ****         5.0075  -2.4057  -0.4211 H              1 S1                 0.0000
     35 ****         3.7048  -0.6078   0.4070 H              1 S1                 0.0000
     36 ****        -4.4969   3.7406   1.3596 LP             1 S1                 0.0000
     37 ****        -2.2783   2.5778   1.3390 LP             1 S1                 0.0000
     38 ****        -1.0007   2.0784   1.3842 LP             1 S1                 0.0000
     39 ****         0.5942   1.4054   1.3259 LP             1 S1                 0.0000
@<TRIPOS>BOND
    1    1    2 1     
    2    1   18 1     
    3    1   19 1     
    4    1   20 1     
    5    2   17 1     
    6    2    3 2     
    7    3    4 1     
    8    4    5 2     
    9    5    6 1     
   10    5   17 1     
   11    6    7 am    
   12    6   21 1     
   13    7    8 2     
   14    7    9 am    
   15    9   10 1     
   16    9   22 1     
   17   10   11 1     
   18   10   23 1     
   19   10   24 1     
   20   11   15 1     
   21   11   12 1     
   22   11   25 1     
   23   12   13 1     
   24   12   26 1     
   25   12   27 1     
   26   13   14 1     
   27   13   28 1     
   28   13   29 1     
   29   14   15 1     
   30   14   30 1     
   31   14   31 1     
   32   15   16 1     
   33   15   35 1     
   34   16   32 1     
   35   16   33 1     
   36   16   34 1     
   37    3   36 1     
   38    4   37 1     
   39    8   38 1     
   40    8   39 1     
@<TRIPOS>SUBSTRUCTURE
      1 S1             1
@<TRIPOS>SET
LONE_PAIRS      STATIC     ATOMS    <user>   **** ""
4 36 37 38 39
DONOR_HYDROGENS      STATIC     ATOMS    <user>   **** ""
3 21 22 35
ATOM$BLUE        STATIC     ATOMS    COLORGROUP SYSTEM
4 36 37 38 39
ATOM$RED        STATIC     ATOMS    COLORGROUP SYSTEM
3 21 22 35
