AV-unprocessed.smi:160|AV-procd|sdf|1349|dock2
  -GOLD-   2262019 53D 1   1.00000     0.00000
 Structure written by MMmdl.
 29 30  0  0  0  0  0  0  0  0  1 V2000
  148.1294  135.5490  160.2744 N   0  0  0  0  0  0  0  0  0  0  0  0
  148.0274  136.7539  159.7033 C   0  0  0  0  0  0  0  0  0  0  0  0
  147.0169  137.4478  159.8053 O   0  0  0  0  0  0  0  0  0  0  0  0
  149.2221  137.2196  158.9179 C   0  0  0  0  0  0  0  0  0  0  0  0
  150.4307  136.5943  159.0325 N   0  0  0  0  0  0  0  0  0  0  0  0
  151.1321  137.3425  158.1908 C   0  0  0  0  0  0  0  0  0  0  0  0
  150.4295  138.3154  157.6012 N   0  0  0  0  0  0  0  0  0  0  0  0
  150.8946  139.3721  156.6403 C   0  0  2  0  0  0  0  0  0  0  0  0
  149.7777  140.0505  156.1623 O   0  0  0  0  0  0  0  0  0  0  0  0
  149.2656  139.3803  155.0175 C   0  0  1  0  0  0  0  0  0  0  0  0
  148.4582  140.3660  154.1588 C   0  0  0  0  0  0  0  0  0  0  0  0
  149.3182  141.3226  153.5770 O   0  0  0  0  0  0  0  0  0  0  0  0
  150.5295  138.8528  154.3145 C   0  0  2  0  0  0  0  0  0  0  0  0
  150.2789  137.5688  153.7786 O   0  0  0  0  0  0  0  0  0  0  0  0
  151.5967  138.7711  155.4118 C   0  0  1  0  0  0  0  0  0  0  0  0
  152.7362  139.5288  155.0577 O   0  0  0  0  0  0  0  0  0  0  0  0
  149.1610  138.2575  158.0825 N   0  0  0  0  0  0  0  0  0  0  0  0
  151.5299  140.0197  157.2463 H   0  0  0  0  0  0  0  0  0  0  0  0
  148.6346  138.5499  155.3391 H   0  0  0  0  0  0  0  0  0  0  0  0
  150.8405  139.5285  153.5159 H   0  0  0  0  0  0  0  0  0  0  0  0
  151.9284  137.7522  155.6181 H   0  0  0  0  0  0  0  0  0  0  0  0
  147.3598  135.1800  160.8132 H   0  0  0  0  0  0  0  0  0  0  0  0
  148.9783  135.0141  160.1602 H   0  0  0  0  0  0  0  0  0  0  0  0
  152.1829  137.1797  158.0009 H   0  0  0  0  0  0  0  0  0  0  0  0
  147.8886  139.8466  153.3874 H   0  0  0  0  0  0  0  0  0  0  0  0
  147.7440  140.9062  154.7810 H   0  0  0  0  0  0  0  0  0  0  0  0
  149.3102  141.2032  152.6396 H   0  0  0  0  0  0  0  0  0  0  0  0
  150.8925  137.4140  153.0766 H   0  0  0  0  0  0  0  0  0  0  0  0
  152.5117  140.0853  154.3278 H   0  0  0  0  0  0  0  0  0  0  0  0
  1  2  1  0  0  0  0
  1 22  1  0  0  0  0
  1 23  1  0  0  0  0
  2  3  2  0  0  0  0
  2  4  1  0  0  0  0
  4 17  2  0  0  0  0
  4  5  1  0  0  0  0
  5  6  2  0  0  0  0
  6  7  1  0  0  0  0
  6 24  1  0  0  0  0
  7  8  1  0  0  0  0
  7 17  1  0  0  0  0
  8 18  1  0  0  0  0
  8 15  1  0  0  0  0
  8  9  1  0  0  0  0
  9 10  1  0  0  0  0
 10 19  1  0  0  0  0
 10 11  1  0  0  0  0
 10 13  1  0  0  0  0
 11 12  1  0  0  0  0
 11 25  1  0  0  0  0
 11 26  1  0  0  0  0
 12 27  1  0  0  0  0
 13 20  1  0  0  0  0
 13 14  1  0  0  0  0
 13 15  1  0  0  0  0
 14 28  1  0  0  0  0
 15 21  1  0  0  0  0
 15 16  1  0  0  0  0
 16 29  1  0  0  0  0
M  END
> <s_m_source_file>
AV-unprocessed.smi

> <i_m_source_file_index>
160

> <i_lp_mmshare_version>
43012

> <i_f3d_flags>
0

> <s_epik_input>
W05IMl1DKD1PKWMxbltjSF1uKG4xKVtDQEBIXTJPW0NASF0oW0NIMl1bT0hdKVtDQEBIXShbT0hdKVtDQEhdMltPSF0=

> <s_epik_cmdline>
J2VwaWtfcHl0aG9uJywgJy1waCcsICc3LjAnLCAnLXRuJywgJzgnLCAnLW1hJywgJzIwMCcsICctbWV0YWxfYmluZGluZycsICctaW1hZScsICc8aW5maWxlLm1hZT4nLCAnLW9tYWUnLCAnPG91dGZpbGUubWFlPic=

> <r_lp_tautomer_probability>
1

> <r_epik_Ionization_Penalty>
1.06932e-05

> <r_epik_Ionization_Penalty_Charging>
0

> <r_epik_Ionization_Penalty_Neutral>
1.06932e-05

> <r_epik_State_Penalty>
-0

> <r_epik_Charging_Adjusted_Penalty>
0

> <i_epik_Tot_Q>
0

> <i_epik_Tot_abs_Q>
0

> <r_epik_Metal_State_Penalty>
0.0142097

> <b_epik_Metal_Only>
0

> <s_epik_Chemistry_Notes>
This compound contains an acetal/aminal-like group ( X-CH(R)-Y where X, Y are N, S, or O) that may be acid/base labile, releasing an aldehyde.

> <s_lp_Force_Field>
OPLS_2005

> <r_lp_Energy>
33.3091

> <b_lp_Chiralities_Consistent>
1

> <s_lp_Variant>
AV-unprocessed.smi:160-7

> <Gold.Version>
5.8.1

> <Gold.Id.Protein>
6NUR|6NUR_protein|mol2

> <Gold.PLP.Fitness>
39.2402

> <Gold.PLP.PLP>
-26.1292

> <Gold.PLP.part.hbond>
-9.0000

> <Gold.PLP.part.metal>
0.0000

> <Gold.PLP.part.buried>
-3.8502

> <Gold.PLP.part.nonpolar>
-13.8820

> <Gold.PLP.part.repulsive>
0.1632

> <Gold.PLP.ligand.clash>
0.0000

> <Gold.PLP.ligand.torsion>
0.2868

> <Gold.PLP.Chemscore.Hbond>
4.5499

> <Gold.PLP.Chemscore.CHOScore>
0.0000

> <Gold.PLP.Chemscore.Metal>
0.0000

> <Gold.Chemscore.Hbonds>
donor molecule, donor type, donor heavy atom, donor atom, acceptor molecule, acceptor atom, score
      L1  H    12    27       P1  7957  0.98
      L1  H    14    28       P1  7949  0.47
      P1  H  6896  6907       L1     5  1.00
      P1  H  6934  6947       L1     3  1.00
      P1  H  7989  7998       L1    12  0.01
      P1  H  7997  8010       L1    16  0.93

> <Gold.PLP.Chemscore.Internal.Correction>
0.0348

> <Gold.Rescore>
     Score         DG    S(hbond)    S(metal)    S(lipo)     H(rot)  DE(clash)    DE(int)     intcor
     11.44     -11.73       4.02        0.00      27.45       4.06       0.01       0.27       ----

> <Gold.Chemscore.Fitness>
11.4396

> <Gold.Chemscore.DG>
-11.7277

> <Gold.Chemscore.ZeroCoef>
-5.4800

> <Gold.Chemscore.Hbond>
4.0209

> <Gold.Chemscore.Metal>
0.0000

> <Gold.Chemscore.Lipo>
27.4477

> <Gold.Chemscore.Internal_Hbond>
0.0000

> <Gold.Chemscore.DEClash>
0.0144

> <Gold.Chemscore.DEInternal>
0.2738

> <Gold.Chemscore.Rot>
4.0600

> <Gold.Chemscore.Internal.Correction>
   9.000000E+99

> <Gold.Chemscore.Hbonds>
donor molecule, donor type, donor heavy atom, donor atom, acceptor molecule, acceptor atom, score
      L1  H    12    27       P1  7957  0.93
      L1  H    14    28       P1  7949  0.10
      P1  H  6896  6907       L1     5  0.99
      P1  H  6934  6947       L1     3  0.88
      P1  H  7997  8010       L1    16  0.44

> <Gold.Chemscore.Hbond.Weighted>
-13.4300

> <Gold.Chemscore.Metal.Weighted>
-0.0000

> <Gold.Chemscore.Lipo.Weighted>
-3.2114

> <Gold.Chemscore.Internal_Hbond.Weighted>
0.0000

> <Gold.Chemscore.DEClash.Weighted>
0.0144

> <Gold.Chemscore.DEInternal.Weighted>
0.2738

> <Gold.Chemscore.Rot.Weighted>
10.3936

> <Gold.Chemscore.Internal.Correction.Weighted>
   9.000000E+99

> <Gold.Protein.RotatedTorsions>
[ 6907 6896 6895 6894 ] final  -41.03 input  -60.11 | X-H torsion
[ 7974 7965 7964 7962 ] final -134.86 input  175.53 | X-H torsion
[ 8008 7997 7996 7995 ] final  115.74 input   59.86 | X-H torsion
[ 10167 10162 10161 10158 ] final -103.83 input  -65.29 | X-H torsion
[ 10718 10713 10712 10709 ] final  168.99 input   66.30 | X-H torsion
[ 10763 10752 10751 10750 ] final  -86.67 input  -60.55 | X-H torsion
[ 11005 11000 10999 10996 ] final   79.94 input  -57.11 | X-H torsion

> <Gold.Protein.ActiveResidues>
 VAL166  LYS551  ARG553  GLY616  TRP617  ASP618  TYR619  PRO620  LYS621  CYS622 
 ASP623  PHE694  ASN695  SER759  ASP760  ASP761  ALA762  ILE779  LEU786  VAL792 
 PHE793  MET794  SER795  GLU796  ALA797  LYS798  CYS799  TRP800  GLU811  SER814 

> <Gold.Protein.RotatedAtoms>
  150.9715  134.9087  159.7790 H   0  0  0  0  0  0  0  0  0  0  0  0  # atno 6907 bound_to 6896
  152.5191  134.3535  159.9269 H   0  0  0  0  0  0  0  0  0  0  0  0  # atno 6908 bound_to 6896
  151.3544  133.3872  159.2718 H   0  0  0  0  0  0  0  0  0  0  0  0  # atno 6909 bound_to 6896
  144.9065  140.6839  143.5052 H   0  0  0  0  0  0  0  0  0  0  0  0  # atno 7974 bound_to 7965
  156.2399  140.2932  156.0416 H   0  0  0  0  0  0  0  0  0  0  0  0  # atno 8008 bound_to 7997
  155.1981  140.0409  157.2930 H   0  0  0  0  0  0  0  0  0  0  0  0  # atno 8009 bound_to 7997
  154.6149  140.2461  155.7629 H   0  0  0  0  0  0  0  0  0  0  0  0  # atno 8010 bound_to 7997
  140.2158  143.3713  152.1012 H   0  0  0  0  0  0  0  0  0  0  0  0  # atno 10167 bound_to 10162
  157.0291  131.0254  151.2750 H   0  0  0  0  0  0  0  0  0  0  0  0  # atno 10718 bound_to 10713
  154.6251  135.5441  153.7618 H   0  0  0  0  0  0  0  0  0  0  0  0  # atno 10763 bound_to 10752
  153.0257  135.6422  154.1384 H   0  0  0  0  0  0  0  0  0  0  0  0  # atno 10764 bound_to 10752
  154.1316  135.2914  155.3163 H   0  0  0  0  0  0  0  0  0  0  0  0  # atno 10765 bound_to 10752
  139.9153  134.7882  156.1844 H   0  0  0  0  0  0  0  0  0  0  0  0  # atno 11005 bound_to 11000
  145.3527  139.1702  143.4426 LP  0  0  0  0  0  0  0  0  0  0  0  0  # atno 17320 bound_to 7965
  146.3136  140.3581  142.8662 LP  0  0  0  0  0  0  0  0  0  0  0  0  # atno 17321 bound_to 7965
  139.5163  144.6975  151.5589 LP  0  0  0  0  0  0  0  0  0  0  0  0  # atno 17342 bound_to 10162
  140.6291  143.9111  150.6590 LP  0  0  0  0  0  0  0  0  0  0  0  0  # atno 17343 bound_to 10162
  157.5191  130.7987  149.7789 LP  0  0  0  0  0  0  0  0  0  0  0  0  # atno 17370 bound_to 10713
  156.0076  130.3848  150.2378 LP  0  0  0  0  0  0  0  0  0  0  0  0  # atno 17371 bound_to 10713
  141.0622  133.6836  156.1975 LP  0  0  0  0  0  0  0  0  0  0  0  0  # atno 17394 bound_to 11000
  140.6642  134.4935  157.5585 LP  0  0  0  0  0  0  0  0  0  0  0  0  # atno 17395 bound_to 11000

$$$$
