#       Name:                AV-unprocessed.smi:149
#       Creating user name   scv26
#       Creation time:       Thu Mar 26 18:45:14 2020


#       File generated by GOLD software.
#

@<TRIPOS>MOLECULE
AV-unprocessed.smi:149
    70    74     1
SMALL
NO_CHARGES


@<TRIPOS>ATOM
      1 ****        -4.2533  -2.0360  -0.1389 C.3            1 S1                 0.0000
      2 ****        -3.5765  -0.7856  -0.7291 C.3            1 S1                 0.0000
      3 ****        -2.0445  -0.8983  -0.6261 C.3            1 S1                 0.0000
      4 ****        -1.5894   0.2697   0.1044 N.3            1 S1                 0.0000
      5 ****        -0.2734   0.6140   0.1131 C.ar           1 S1                 0.0000
      6 ****         0.0562   1.9161   0.3283 N.ar           1 S1                 0.0000
      7 ****         1.3346   2.3010   0.3553 C.ar           1 S1                 0.0000
      8 ****         2.4314   1.5589   0.2023 N.ar           1 S1                 0.0000
      9 ****         2.1159   0.2483  -0.0016 C.ar           1 S1                 0.0000
     10 ****         0.8039  -0.3056  -0.0671 C.ar           1 S1                 0.0000
     11 ****         0.8919  -1.6747  -0.2985 N.2            1 S1                 0.0000
     12 ****         2.1724  -1.9115  -0.3745 C.2            1 S1                 0.0000
     13 ****         2.9819  -0.8171  -0.1764 N.pl3          1 S1                 0.0000
     14 ****         4.4141  -0.7836  -0.2341 C.3            1 S1                 0.0000
     15 ****         5.2562  -2.0095   0.1350 C.3            1 S1                 0.0000
     16 ****         6.3594  -1.0717   0.6797 C.3            1 S1                 0.0000
     17 ****         7.0729  -1.4939   1.9795 C.3            1 S1                 0.0000
     18 ****         6.1682  -1.8551   3.0040 O.3            1 S1                 0.0000
     19 ****         7.4532  -0.6770  -0.3307 C.3            1 S1                 0.0000
     20 ****         8.2177  -1.7959  -0.7313 O.3            1 S1                 0.0000
     21 ****         5.2275  -0.0289   0.8224 C.3            1 S1                 0.0000
     22 ****        -2.6195   1.2876   0.0350 C.3            1 S1                 0.0000
     23 ****        -3.9561   0.5321  -0.0059 C.3            1 S1                 0.0000
     24 ****        -5.0364   1.3229  -0.6198 N.3            1 S1                 0.0000
     25 ****        -5.2999   2.5527   0.1306 C.3            1 S1                 0.0000
     26 ****        -6.4313   3.3882  -0.4924 C.3            1 S1                 0.0000
     27 ****        -7.6123   2.6001  -0.5765 O.3            1 S1                 0.0000
     28 ****        -7.4210   1.4201  -1.3472 C.3            1 S1                 0.0000
     29 ****        -6.2889   0.5768  -0.7351 C.3            1 S1                 0.0000
     30 ****        -3.9912  -2.1665   0.9117 H              1 S1                 0.0000
     31 ****        -3.9384  -2.9340  -0.6712 H              1 S1                 0.0000
     32 ****        -5.3389  -1.9882  -0.2003 H              1 S1                 0.0000
     33 ****        -3.8320  -0.7050  -1.7867 H              1 S1                 0.0000
     34 ****        -1.7515  -1.8012  -0.0900 H              1 S1                 0.0000
     35 ****        -1.5902  -0.9309  -1.6174 H              1 S1                 0.0000
     36 ****         1.5027   3.3537   0.5293 H              1 S1                 0.0000
     37 ****         2.5615  -2.9004  -0.5694 H              1 S1                 0.0000
     38 ****         4.6650  -0.4324  -1.2365 H              1 S1                 0.0000
     39 ****         4.7843  -2.6196   0.9070 H              1 S1                 0.0000
     40 ****         5.5494  -2.6242  -0.7164 H              1 S1                 0.0000
     41 ****         7.7304  -2.3467   1.8090 H              1 S1                 0.0000
     42 ****         7.6990  -0.6849   2.3575 H              1 S1                 0.0000
     43 ****         6.6646  -2.1020   3.7694 H              1 S1                 0.0000
     44 ****         7.0247  -0.2283  -1.2271 H              1 S1                 0.0000
     45 ****         8.1249   0.0713   0.0913 H              1 S1                 0.0000
     46 ****         7.6426  -2.4187  -1.1490 H              1 S1                 0.0000
     47 ****         5.5008   0.9873   0.5363 H              1 S1                 0.0000
     48 ****         4.7401  -0.0368   1.7986 H              1 S1                 0.0000
     49 ****        -2.5698   1.9589   0.8932 H              1 S1                 0.0000
     50 ****        -2.4771   1.8769  -0.8726 H              1 S1                 0.0000
     51 ****        -4.2272   0.2871   1.0226 H              1 S1                 0.0000
     52 ****        -5.5604   2.3075   1.1614 H              1 S1                 0.0000
     53 ****        -4.4037   3.1712   0.1750 H              1 S1                 0.0000
     54 ****        -6.6333   4.2683   0.1180 H              1 S1                 0.0000
     55 ****        -6.1491   3.7436  -1.4847 H              1 S1                 0.0000
     56 ****        -8.3503   0.8507  -1.3636 H              1 S1                 0.0000
     57 ****        -7.1893   1.6851  -2.3799 H              1 S1                 0.0000
     58 ****        -6.1467  -0.2976  -1.3684 H              1 S1                 0.0000
     59 ****        -6.5969   0.2140   0.2467 H              1 S1                 0.0000
     60 ****        -1.4895   0.0054   1.0637 LP             1 S1                 0.0000
     61 ****        -0.6669   2.5926   0.4679 LP             1 S1                 0.0000
     62 ****         3.3646   1.9170   0.2331 LP             1 S1                 0.0000
     63 ****         0.1418  -2.3302  -0.3867 LP             1 S1                 0.0000
     64 ****         5.6076  -2.6263   2.7024 LP             1 S1                 0.0000
     65 ****         5.5772  -1.0783   3.2214 LP             1 S1                 0.0000
     66 ****         8.6455  -2.2161   0.0691 LP             1 S1                 0.0000
     67 ****         8.9265  -1.5071  -1.3749 LP             1 S1                 0.0000
     68 ****        -4.7094   1.5468  -1.5379 LP             1 S1                 0.0000
     69 ****        -8.3343   3.1471  -1.0001 LP             1 S1                 0.0000
     70 ****        -7.8908   2.3387   0.3477 LP             1 S1                 0.0000
@<TRIPOS>BOND
    1    1    2 1     
    2    1   30 1     
    3    1   31 1     
    4    1   32 1     
    5    2   23 1     
    6    2    3 1     
    7    2   33 1     
    8    3    4 1     
    9    3   34 1     
   10    3   35 1     
   11    4    5 1     
   12    4   22 1     
   13    5   10 ar    
   14    5    6 ar    
   15    6    7 ar    
   16    7    8 ar    
   17    7   36 1     
   18    8    9 ar    
   19    9   13 1     
   20    9   10 ar    
   21   10   11 1     
   22   11   12 2     
   23   12   13 1     
   24   12   37 1     
   25   13   14 1     
   26   14   21 1     
   27   14   15 1     
   28   14   38 1     
   29   15   16 1     
   30   15   39 1     
   31   15   40 1     
   32   16   17 1     
   33   16   19 1     
   34   16   21 1     
   35   17   18 1     
   36   17   41 1     
   37   17   42 1     
   38   18   43 1     
   39   19   20 1     
   40   19   44 1     
   41   19   45 1     
   42   20   46 1     
   43   21   47 1     
   44   21   48 1     
   45   22   23 1     
   46   22   49 1     
   47   22   50 1     
   48   23   24 1     
   49   23   51 1     
   50   24   29 1     
   51   24   25 1     
   52   25   26 1     
   53   25   52 1     
   54   25   53 1     
   55   26   27 1     
   56   26   54 1     
   57   26   55 1     
   58   27   28 1     
   59   28   29 1     
   60   28   56 1     
   61   28   57 1     
   62   29   58 1     
   63   29   59 1     
   64    4   60 1     
   65    6   61 1     
   66    8   62 1     
   67   11   63 1     
   68   18   64 1     
   69   18   65 1     
   70   20   66 1     
   71   20   67 1     
   72   24   68 1     
   73   27   69 1     
   74   27   70 1     
@<TRIPOS>SUBSTRUCTURE
      1 S1             1
@<TRIPOS>SET
LONE_PAIRS      STATIC     ATOMS    <user>   **** ""
11 60 61 62 63 64 65 66 67 68 69 70
DONOR_HYDROGENS      STATIC     ATOMS    <user>   **** ""
2 43 46
ATOM$BLUE        STATIC     ATOMS    COLORGROUP SYSTEM
11 60 61 62 63 64 65 66 67 68 69 70
ATOM$RED        STATIC     ATOMS    COLORGROUP SYSTEM
2 43 46
