AV-unprocessed.smi:333|AV-procd|sdf|2360|dock2
  -GOLD-   2262022273D 1   1.00000     0.00000
 Structure written by MMmdl.
 25 25  0  0  0  0  0  0  0  0  2 V2000
  149.8822  143.0458  157.5086 N   0  0  0  0  0  0  0  0  0  0  0  0
  150.2104  141.7936  157.1666 C   0  0  0  0  0  0  0  0  0  0  0  0
  149.5549  141.2273  156.2916 O   0  0  0  0  0  0  0  0  0  0  0  0
  151.3601  141.2435  157.9211 C   0  0  0  0  0  0  0  0  0  0  0  0
  151.7789  141.7458  159.1104 C   0  0  0  0  0  0  0  0  0  0  0  0
  152.9109  141.1949  159.8413 C   0  0  0  0  0  0  0  0  0  0  0  0
  153.3357  141.8148  161.1671 C   0  0  0  0  0  0  0  0  0  0  0  0
  152.5466  143.0878  161.5143 C   0  0  0  0  0  0  0  0  0  0  0  0
  151.6265  142.8418  162.5564 O   0  0  0  0  0  0  0  0  0  0  0  0
  153.5498  140.1183  159.2170 C   0  0  0  0  0  0  0  0  0  0  0  0
  154.7757  139.4407  159.8533 C   0  0  0  0  0  0  0  0  0  0  0  0
  155.7549  140.3268  160.0400 F   0  0  0  0  0  0  0  0  0  0  0  0
  154.4638  138.9007  161.0315 F   0  0  0  0  0  0  0  0  0  0  0  0
  155.2665  138.4627  159.0868 F   0  0  0  0  0  0  0  0  0  0  0  0
  153.1442  139.5946  158.0268 N   0  5  0  0  0  0  0  0  0  0  0  0
  152.0824  140.0910  157.3336 C   0  0  0  0  0  0  0  0  0  0  0  0
  151.7547  139.5824  156.2608 O   0  0  0  0  0  0  0  0  0  0  0  0
  149.1085  143.5038  157.0501 H   0  0  0  0  0  0  0  0  0  0  0  0
  150.4083  143.5238  158.2252 H   0  0  0  0  0  0  0  0  0  0  0  0
  151.2794  142.5887  159.5635 H   0  0  0  0  0  0  0  0  0  0  0  0
  153.2681  141.1047  161.9888 H   0  0  0  0  0  0  0  0  0  0  0  0
  154.3939  142.0651  161.0866 H   0  0  0  0  0  0  0  0  0  0  0  0
  153.2294  143.8755  161.8330 H   0  0  0  0  0  0  0  0  0  0  0  0
  152.0099  143.4644  160.6431 H   0  0  0  0  0  0  0  0  0  0  0  0
  152.0543  143.0098  163.3817 H   0  0  0  0  0  0  0  0  0  0  0  0
  1  2  1  0  0  0  0
  1 18  1  0  0  0  0
  1 19  1  0  0  0  0
  2  3  2  0  0  0  0
  2  4  1  0  0  0  0
  4 16  1  0  0  0  0
  4  5  2  0  0  0  0
  5  6  1  0  0  0  0
  5 20  1  0  0  0  0
  6  7  1  0  0  0  0
  6 10  2  0  0  0  0
  7  8  1  0  0  0  0
  7 21  1  0  0  0  0
  7 22  1  0  0  0  0
  8  9  1  0  0  0  0
  8 23  1  0  0  0  0
  8 24  1  0  0  0  0
  9 25  1  0  0  0  0
 10 11  1  0  0  0  0
 10 15  1  0  0  0  0
 11 12  1  0  0  0  0
 11 13  1  0  0  0  0
 11 14  1  0  0  0  0
 15 16  1  0  0  0  0
 16 17  2  0  0  0  0
M  CHG  1  15  -1
M  END
> <s_m_source_file>
AV-unprocessed.smi

> <i_m_source_file_index>
333

> <i_lp_mmshare_version>
43012

> <i_f3d_flags>
0

> <s_epik_input>
W05IMl1DKD1PKWMxW2NIXWMoW0NIMl1bQ0gyXVtPSF0pYyhDKEYpKEYpRilbbkhdYzE9Tw==

> <s_epik_cmdline>
J2VwaWtfcHl0aG9uJywgJy1waCcsICc3LjAnLCAnLXRuJywgJzgnLCAnLW1hJywgJzIwMCcsICctbWV0YWxfYmluZGluZycsICctaW1hZScsICc8aW5maWxlLm1hZT4nLCAnLW9tYWUnLCAnPG91dGZpbGUubWFlPic=

> <r_epik_Ionization_Penalty>
0.0673264

> <r_epik_Ionization_Penalty_Charging>
0.00196754

> <r_epik_Ionization_Penalty_Neutral>
0.0653589

> <r_epik_State_Penalty>
0.0569931

> <r_epik_Charging_Adjusted_Penalty>
0.0589607

> <i_epik_Tot_Q>
-1

> <i_epik_Tot_abs_Q>
1

> <r_epik_Metal_State_Penalty>
0.0511714

> <b_epik_Metal_Only>
0

> <s_lp_Force_Field>
OPLS_2005

> <r_lp_Energy>
33.2875

> <b_lp_Chiralities_Consistent>
1

> <s_lp_Variant>
AV-unprocessed.smi:333-1

> <Gold.Version>
5.8.1

> <Gold.Id.Protein>
6NUR|6NUR_protein|mol2

> <Gold.PLP.Fitness>
41.2385

> <Gold.PLP.PLP>
-30.3497

> <Gold.PLP.part.hbond>
-3.8247

> <Gold.PLP.part.metal>
0.0000

> <Gold.PLP.part.buried>
-5.0929

> <Gold.PLP.part.nonpolar>
-22.0736

> <Gold.PLP.part.repulsive>
0.1002

> <Gold.PLP.ligand.clash>
4.3206

> <Gold.PLP.ligand.torsion>
0.5608

> <Gold.PLP.Chemscore.Hbond>
3.9920

> <Gold.PLP.Chemscore.CHOScore>
0.0000

> <Gold.PLP.Chemscore.Metal>
0.0000

> <Gold.Chemscore.Hbonds>
donor molecule, donor type, donor heavy atom, donor atom, acceptor molecule, acceptor atom, score
      L1  H     1    18       P1  8028  0.75
      P1  H  6933  6945       L1     9  1.00
      P1  H  7997  8009       L1    15  2.00

> <Gold.PLP.Chemscore.Internal.Correction>
4.3550

> <Gold.Rescore>
     Score         DG    S(hbond)    S(metal)    S(lipo)     H(rot)  DE(clash)    DE(int)     intcor
      9.12     -13.30       1.92        0.00      58.20       2.11       1.62       2.57       ----

> <Gold.Chemscore.Fitness>
9.1159

> <Gold.Chemscore.DG>
-13.3004

> <Gold.Chemscore.ZeroCoef>
-5.4800

> <Gold.Chemscore.Hbond>
1.9187

> <Gold.Chemscore.Metal>
0.0000

> <Gold.Chemscore.Lipo>
58.2019

> <Gold.Chemscore.Internal_Hbond>
0.0000

> <Gold.Chemscore.DEClash>
1.6180

> <Gold.Chemscore.DEInternal>
2.5665

> <Gold.Chemscore.Rot>
2.1084

> <Gold.Chemscore.Internal.Correction>
   9.000000E+99

> <Gold.Chemscore.Hbonds>
donor molecule, donor type, donor heavy atom, donor atom, acceptor molecule, acceptor atom, score
      L1  H     1    18       P1  8028  0.52
      P1  H  6933  6945       L1     9  0.95
      P1  H  7997  8009       L1    15  0.10

> <Gold.Chemscore.Hbond.Weighted>
-6.4084

> <Gold.Chemscore.Metal.Weighted>
-0.0000

> <Gold.Chemscore.Lipo.Weighted>
-6.8096

> <Gold.Chemscore.Internal_Hbond.Weighted>
0.0000

> <Gold.Chemscore.DEClash.Weighted>
1.6180

> <Gold.Chemscore.DEInternal.Weighted>
2.5665

> <Gold.Chemscore.Rot.Weighted>
5.3976

> <Gold.Chemscore.Internal.Correction.Weighted>
   9.000000E+99

> <Gold.Protein.RotatedTorsions>
[ 6907 6896 6895 6894 ] final   83.83 input  -60.11 | X-H torsion
[ 7974 7965 7964 7962 ] final  128.54 input  175.53 | X-H torsion
[ 8008 7997 7996 7995 ] final  163.86 input   59.86 | X-H torsion
[ 10167 10162 10161 10158 ] final   75.76 input  -65.29 | X-H torsion
[ 10718 10713 10712 10709 ] final  -63.19 input   66.30 | X-H torsion
[ 10763 10752 10751 10750 ] final -174.99 input  -60.55 | X-H torsion
[ 11005 11000 10999 10996 ] final   52.87 input  -57.11 | X-H torsion

> <Gold.Protein.ActiveResidues>
 VAL166  LYS551  ARG553  GLY616  TRP617  ASP618  TYR619  PRO620  LYS621  CYS622 
 ASP623  PHE694  ASN695  SER759  ASP760  ASP761  ALA762  ILE779  LEU786  VAL792 
 PHE793  MET794  SER795  GLU796  ALA797  LYS798  CYS799  TRP800  GLU811  SER814 

> <Gold.Protein.RotatedAtoms>
  152.5337  134.2835  159.9016 H   0  0  0  0  0  0  0  0  0  0  0  0  # atno 6907 bound_to 6896
  151.2789  133.4213  159.2633 H   0  0  0  0  0  0  0  0  0  0  0  0  # atno 6908 bound_to 6896
  151.0301  134.9548  159.8163 H   0  0  0  0  0  0  0  0  0  0  0  0  # atno 6909 bound_to 6896
  145.0384  139.3985  143.5114 H   0  0  0  0  0  0  0  0  0  0  0  0  # atno 7974 bound_to 7965
  156.1925  140.1712  156.8064 H   0  0  0  0  0  0  0  0  0  0  0  0  # atno 8008 bound_to 7997
  154.5488  140.0721  156.8666 H   0  0  0  0  0  0  0  0  0  0  0  0  # atno 8009 bound_to 7997
  155.3068  140.3365  155.4248 H   0  0  0  0  0  0  0  0  0  0  0  0  # atno 8010 bound_to 7997
  139.9995  144.5697  150.7749 H   0  0  0  0  0  0  0  0  0  0  0  0  # atno 10167 bound_to 10162
  156.0807  130.4218  150.1242 H   0  0  0  0  0  0  0  0  0  0  0  0  # atno 10718 bound_to 10713
  154.5897  135.2844  155.0648 H   0  0  0  0  0  0  0  0  0  0  0  0  # atno 10763 bound_to 10752
  154.1954  135.6433  153.5075 H   0  0  0  0  0  0  0  0  0  0  0  0  # atno 10764 bound_to 10752
  153.0117  135.5456  154.6578 H   0  0  0  0  0  0  0  0  0  0  0  0  # atno 10765 bound_to 10752
  140.0814  134.5334  155.8943 H   0  0  0  0  0  0  0  0  0  0  0  0  # atno 11005 bound_to 11000
  146.3506  139.9971  142.8680 LP  0  0  0  0  0  0  0  0  0  0  0  0  # atno 17320 bound_to 7965
  145.1680  140.9706  143.4338 LP  0  0  0  0  0  0  0  0  0  0  0  0  # atno 17321 bound_to 7965
  140.7424  143.2831  151.3540 LP  0  0  0  0  0  0  0  0  0  0  0  0  # atno 17342 bound_to 10162
  139.6282  144.0773  152.2453 LP  0  0  0  0  0  0  0  0  0  0  0  0  # atno 17343 bound_to 10162
  156.9273  130.9702  151.3539 LP  0  0  0  0  0  0  0  0  0  0  0  0  # atno 17370 bound_to 10713
  157.5922  130.8452  149.8676 LP  0  0  0  0  0  0  0  0  0  0  0  0  # atno 17371 bound_to 10713
  141.2048  133.6642  156.6141 LP  0  0  0  0  0  0  0  0  0  0  0  0  # atno 17394 bound_to 11000
  140.3483  134.7790  157.4448 LP  0  0  0  0  0  0  0  0  0  0  0  0  # atno 17395 bound_to 11000

$$$$
