AV-unprocessed.smi:92|AV-procd|sdf|847|dock3
  -GOLD-   2262017283D 1   1.00000     0.00000
 Structure written by MMmdl.
 61 64  0  0  0  0  0  0  0  0  2 V2000
  150.3728  142.8638  158.4779 C   0  0  0  0  0  0  0  0  0  0  0  0
  148.8638  142.6693  158.2701 C   0  0  0  0  0  0  0  0  0  0  0  0
  148.5105  142.3964  156.8535 N   0  3  2  0  0  0  0  0  0  0  0  0
  147.0443  142.3313  156.6166 C   0  0  0  0  0  0  0  0  0  0  0  0
  146.7095  142.1388  155.1242 C   0  0  0  0  0  0  0  0  0  0  0  0
  147.4836  140.9964  154.4339 C   0  0  2  0  0  0  0  0  0  0  0  0
  146.8385  139.6776  154.5702 N   0  0  0  0  0  0  0  0  0  0  0  0
  146.8952  138.8675  155.7856 C   0  0  0  0  0  0  0  0  0  0  0  0
  146.5241  139.0241  153.4216 C   0  0  0  0  0  0  0  0  0  0  0  0
  146.5970  139.6923  152.2402 N   0  0  0  0  0  0  0  0  0  0  0  0
  146.2705  139.0802  151.0987 C   0  0  0  0  0  0  0  0  0  0  0  0
  145.8589  137.8250  150.9146 N   0  0  0  0  0  0  0  0  0  0  0  0
  145.7991  137.1408  152.0933 C   0  0  0  0  0  0  0  0  0  0  0  0
  146.1124  137.6612  153.3813 C   0  0  0  0  0  0  0  0  0  0  0  0
  145.9452  136.6730  154.3440 N   0  0  0  0  0  0  0  0  0  0  0  0
  145.5451  135.6320  153.6665 C   0  0  0  0  0  0  0  0  0  0  0  0
  145.4306  135.8215  152.3072 N   0  0  0  0  0  0  0  0  0  0  0  0
  145.0065  134.8438  151.3433 C   0  0  0  0  0  0  0  0  0  0  0  0
  143.9648  133.7744  151.6870 C   0  0  0  0  0  0  0  0  0  0  0  0
  144.6932  132.7804  150.7516 C   0  0  0  0  0  0  0  0  0  0  0  0
  144.8198  131.3288  151.2550 C   0  0  0  0  0  0  0  0  0  0  0  0
  146.0897  130.7688  150.9850 O   0  0  0  0  0  0  0  0  0  0  0  0
  144.1098  132.7205  149.3273 C   0  0  0  0  0  0  0  0  0  0  0  0
  142.8621  132.0568  149.3011 O   0  0  0  0  0  0  0  0  0  0  0  0
  145.9281  133.6966  150.9228 C   0  0  0  0  0  0  0  0  0  0  0  0
  148.9856  141.0423  154.8108 C   0  0  2  0  0  0  0  0  0  0  0  0
  149.8147  139.8978  154.2038 C   0  0  0  0  0  0  0  0  0  0  0  0
  149.2084  141.1954  156.3276 C   0  0  0  0  0  0  0  0  0  0  0  0
  150.6028  142.9569  159.5395 H   0  0  0  0  0  0  0  0  0  0  0  0
  150.7423  143.7650  157.9894 H   0  0  0  0  0  0  0  0  0  0  0  0
  150.9369  142.0140  158.0924 H   0  0  0  0  0  0  0  0  0  0  0  0
  148.5540  141.8240  158.8861 H   0  0  0  0  0  0  0  0  0  0  0  0
  148.3097  143.5353  158.6354 H   0  0  0  0  0  0  0  0  0  0  0  0
  146.6065  141.5456  157.2281 H   0  0  0  0  0  0  0  0  0  0  0  0
  146.5764  143.2572  156.9486 H   0  0  0  0  0  0  0  0  0  0  0  0
  145.6354  142.0069  154.9884 H   0  0  0  0  0  0  0  0  0  0  0  0
  146.9576  143.0677  154.6091 H   0  0  0  0  0  0  0  0  0  0  0  0
  147.4657  141.2427  153.3726 H   0  0  0  0  0  0  0  0  0  0  0  0
  146.1406  138.0800  155.7599 H   0  0  0  0  0  0  0  0  0  0  0  0
  146.6978  139.4552  156.6764 H   0  0  0  0  0  0  0  0  0  0  0  0
  147.8699  138.3920  155.8923 H   0  0  0  0  0  0  0  0  0  0  0  0
  146.3490  139.6817  150.2050 H   0  0  0  0  0  0  0  0  0  0  0  0
  145.3212  134.6904  154.1465 H   0  0  0  0  0  0  0  0  0  0  0  0
  144.6839  135.3998  150.4610 H   0  0  0  0  0  0  0  0  0  0  0  0
  143.9838  133.4851  152.7380 H   0  0  0  0  0  0  0  0  0  0  0  0
  142.9491  134.0266  151.3808 H   0  0  0  0  0  0  0  0  0  0  0  0
  144.6525  131.2746  152.3312 H   0  0  0  0  0  0  0  0  0  0  0  0
  144.0739  130.6852  150.7880 H   0  0  0  0  0  0  0  0  0  0  0  0
  146.7336  131.4603  151.0040 H   0  0  0  0  0  0  0  0  0  0  0  0
  143.9824  133.7217  148.9138 H   0  0  0  0  0  0  0  0  0  0  0  0
  144.7805  132.1944  148.6475 H   0  0  0  0  0  0  0  0  0  0  0  0
  142.1893  132.6882  149.0959 H   0  0  0  0  0  0  0  0  0  0  0  0
  146.4890  133.8890  150.0080 H   0  0  0  0  0  0  0  0  0  0  0  0
  146.5984  133.3800  151.7227 H   0  0  0  0  0  0  0  0  0  0  0  0
  149.3763  141.9565  154.3607 H   0  0  0  0  0  0  0  0  0  0  0  0
  149.5596  138.9338  154.6428 H   0  0  0  0  0  0  0  0  0  0  0  0
  150.8803  140.0585  154.3682 H   0  0  0  0  0  0  0  0  0  0  0  0
  149.6561  139.8262  153.1272 H   0  0  0  0  0  0  0  0  0  0  0  0
  150.2785  141.2953  156.5140 H   0  0  0  0  0  0  0  0  0  0  0  0
  148.8829  140.3097  156.8719 H   0  0  0  0  0  0  0  0  0  0  0  0
  148.8601  143.1779  156.3176 H   0  0  0  0  0  0  0  0  0  0  0  0
  1  2  1  0  0  0  0
  1 29  1  0  0  0  0
  1 30  1  0  0  0  0
  1 31  1  0  0  0  0
  2  3  1  0  0  0  0
  2 32  1  0  0  0  0
  2 33  1  0  0  0  0
  3 28  1  0  0  0  0
  3  4  1  0  0  0  0
  3 61  1  0  0  0  0
  4  5  1  0  0  0  0
  4 34  1  0  0  0  0
  4 35  1  0  0  0  0
  5  6  1  0  0  0  0
  5 36  1  0  0  0  0
  5 37  1  0  0  0  0
  6  7  1  0  0  0  0
  6 26  1  0  0  0  0
  6 38  1  0  0  0  0
  7  8  1  0  0  0  0
  7  9  1  0  0  0  0
  8 39  1  0  0  0  0
  8 40  1  0  0  0  0
  8 41  1  0  0  0  0
  9 14  1  0  0  0  0
  9 10  2  0  0  0  0
 10 11  1  0  0  0  0
 11 12  2  0  0  0  0
 11 42  1  0  0  0  0
 12 13  1  0  0  0  0
 13 17  1  0  0  0  0
 13 14  2  0  0  0  0
 14 15  1  0  0  0  0
 15 16  2  0  0  0  0
 16 17  1  0  0  0  0
 16 43  1  0  0  0  0
 17 18  1  0  0  0  0
 18 25  1  0  0  0  0
 18 19  1  0  0  0  0
 18 44  1  0  0  0  0
 19 20  1  0  0  0  0
 19 45  1  0  0  0  0
 19 46  1  0  0  0  0
 20 21  1  0  0  0  0
 20 23  1  0  0  0  0
 20 25  1  0  0  0  0
 21 22  1  0  0  0  0
 21 47  1  0  0  0  0
 21 48  1  0  0  0  0
 22 49  1  0  0  0  0
 23 24  1  0  0  0  0
 23 50  1  0  0  0  0
 23 51  1  0  0  0  0
 24 52  1  0  0  0  0
 25 53  1  0  0  0  0
 25 54  1  0  0  0  0
 26 27  1  0  0  0  0
 26 28  1  0  0  0  0
 26 55  1  0  0  0  0
 27 56  1  0  0  0  0
 27 57  1  0  0  0  0
 27 58  1  0  0  0  0
 28 59  1  0  0  0  0
 28 60  1  0  0  0  0
M  CHG  1   3   1
M  END
> <s_m_source_file>
AV-unprocessed.smi

> <i_m_source_file_index>
92

> <i_lp_mmshare_version>
43012

> <i_f3d_flags>
0

> <s_epik_input>
W0NIM11bQ0gyXU4xW0NIMl1bQ0gyXVtDQEhdKFtDQEBIXShbQ0gzXSlbQ0gyXTEpTihbQ0gzXSljKG5bY0hdbjIpYyhjMjMpbltjSF1uM1tDSF0oW0NIMl00KVtDSDJdQzQoW0NIMl1bT0hdKVtDSDJdW09IXQ==

> <s_epik_cmdline>
J2VwaWtfcHl0aG9uJywgJy1waCcsICc3LjAnLCAnLXRuJywgJzgnLCAnLW1hJywgJzIwMCcsICctbWV0YWxfYmluZGluZycsICctaW1hZScsICc8aW5maWxlLm1hZT4nLCAnLW9tYWUnLCAnPG91dGZpbGUubWFlPic=

> <r_lp_tautomer_probability>
1

> <r_epik_Ionization_Penalty>
0.00235514

> <r_epik_Ionization_Penalty_Charging>
0.00137877

> <r_epik_Ionization_Penalty_Neutral>
0.000976366

> <r_epik_State_Penalty>
-0

> <r_epik_Charging_Adjusted_Penalty>
0.00137877

> <i_epik_Tot_Q>
1

> <i_epik_Tot_abs_Q>
1

> <r_epik_Metal_State_Penalty>
-0

> <b_epik_Metal_Only>
0

> <s_lp_Force_Field>
OPLS_2005

> <r_lp_Energy>
59.507

> <b_lp_Chiralities_Consistent>
1

> <s_lp_Variant>
AV-unprocessed.smi:92-7

> <Gold.Version>
5.8.1

> <Gold.Id.Protein>
6NUR|6NUR_protein|mol2

> <Gold.PLP.Fitness>
51.1618

> <Gold.PLP.PLP>
-42.0000

> <Gold.PLP.part.hbond>
-5.0321

> <Gold.PLP.part.metal>
0.0000

> <Gold.PLP.part.buried>
-4.4873

> <Gold.PLP.part.nonpolar>
-36.6915

> <Gold.PLP.part.repulsive>
4.9948

> <Gold.PLP.ligand.clash>
0.0000

> <Gold.PLP.ligand.torsion>
1.4575

> <Gold.PLP.Chemscore.Hbond>
3.6903

> <Gold.PLP.Chemscore.CHOScore>
0.0000

> <Gold.PLP.Chemscore.Metal>
0.0000

> <Gold.Chemscore.Hbonds>
donor molecule, donor type, donor heavy atom, donor atom, acceptor molecule, acceptor atom, score
      L1  H     3    61       P1  8028  2.00
      L1  H    24    52       P1 10186  0.75
      P1  H 10785 10796       L1    24  1.00
      L1  C    11    42       P1 10171  0.02

> <Gold.PLP.Chemscore.Internal.Correction>
1.0062

> <Gold.Rescore>
     Score         DG    S(hbond)    S(metal)    S(lipo)     H(rot)  DE(clash)    DE(int)     intcor
     10.56     -15.65       2.35        0.00      90.28       3.22       2.36       2.73       ----

> <Gold.Chemscore.Fitness>
10.5586

> <Gold.Chemscore.DG>
-15.6535

> <Gold.Chemscore.ZeroCoef>
-5.4800

> <Gold.Chemscore.Hbond>
2.3528

> <Gold.Chemscore.Metal>
0.0000

> <Gold.Chemscore.Lipo>
90.2835

> <Gold.Chemscore.Internal_Hbond>
0.0000

> <Gold.Chemscore.DEClash>
2.3646

> <Gold.Chemscore.DEInternal>
2.7302

> <Gold.Chemscore.Rot>
3.2219

> <Gold.Chemscore.Internal.Correction>
   9.000000E+99

> <Gold.Chemscore.Hbonds>
donor molecule, donor type, donor heavy atom, donor atom, acceptor molecule, acceptor atom, score
      L1  H     3    61       P1  8028  0.98
      L1  H    22    49       P1 10747  0.02
      L1  H    24    52       P1 10186  0.72
      P1  H 10785 10796       L1    24  0.62

> <Gold.Chemscore.Hbond.Weighted>
-7.8585

> <Gold.Chemscore.Metal.Weighted>
-0.0000

> <Gold.Chemscore.Lipo.Weighted>
-10.5632

> <Gold.Chemscore.Internal_Hbond.Weighted>
0.0000

> <Gold.Chemscore.DEClash.Weighted>
2.3646

> <Gold.Chemscore.DEInternal.Weighted>
2.7302

> <Gold.Chemscore.Rot.Weighted>
8.2482

> <Gold.Chemscore.Internal.Correction.Weighted>
   9.000000E+99

> <Gold.Protein.RotatedTorsions>
[ 6907 6896 6895 6894 ] final -109.80 input  -60.11 | X-H torsion
[ 7974 7965 7964 7962 ] final  142.15 input  175.53 | X-H torsion
[ 8008 7997 7996 7995 ] final  -27.87 input   59.86 | X-H torsion
[ 10167 10162 10161 10158 ] final  159.96 input  -65.29 | X-H torsion
[ 10718 10713 10712 10709 ] final  -96.09 input   66.30 | X-H torsion
[ 10763 10752 10751 10750 ] final   10.41 input  -60.55 | X-H torsion
[ 11005 11000 10999 10996 ] final   23.75 input  -57.11 | X-H torsion

> <Gold.Protein.ActiveResidues>
 VAL166  LYS551  ARG553  GLY616  TRP617  ASP618  TYR619  PRO620  LYS621  CYS622 
 ASP623  PHE694  ASN695  SER759  ASP760  ASP761  ALA762  ILE779  LEU786  VAL792 
 PHE793  MET794  SER795  GLU796  ALA797  LYS798  CYS799  TRP800  GLU811  SER814 

> <Gold.Protein.RotatedAtoms>
  150.7584  133.9476  159.3475 H   0  0  0  0  0  0  0  0  0  0  0  0  # atno 6907 bound_to 6896
  151.7390  135.0856  160.0322 H   0  0  0  0  0  0  0  0  0  0  0  0  # atno 6908 bound_to 6896
  152.3541  133.6178  159.6002 H   0  0  0  0  0  0  0  0  0  0  0  0  # atno 6909 bound_to 6896
  144.9033  139.5392  143.5743 H   0  0  0  0  0  0  0  0  0  0  0  0  # atno 7974 bound_to 7965
  154.4357  140.1860  156.1000 H   0  0  0  0  0  0  0  0  0  0  0  0  # atno 8008 bound_to 7997
  156.0299  140.3331  155.7103 H   0  0  0  0  0  0  0  0  0  0  0  0  # atno 8009 bound_to 7997
  155.5854  140.0626  157.2763 H   0  0  0  0  0  0  0  0  0  0  0  0  # atno 8010 bound_to 7997
  139.4836  144.4680  151.8615 H   0  0  0  0  0  0  0  0  0  0  0  0  # atno 10167 bound_to 10162
  156.0055  130.5136  150.6174 H   0  0  0  0  0  0  0  0  0  0  0  0  # atno 10718 bound_to 10713
  153.2035  135.6859  153.8202 H   0  0  0  0  0  0  0  0  0  0  0  0  # atno 10763 bound_to 10752
  153.7460  135.3231  155.3313 H   0  0  0  0  0  0  0  0  0  0  0  0  # atno 10764 bound_to 10752
  154.8184  135.4669  154.0811 H   0  0  0  0  0  0  0  0  0  0  0  0  # atno 10765 bound_to 10752
  140.3662  134.2072  155.7669 H   0  0  0  0  0  0  0  0  0  0  0  0  # atno 11005 bound_to 11000
  146.3120  139.7781  142.9012 LP  0  0  0  0  0  0  0  0  0  0  0  0  # atno 17320 bound_to 7965
  145.3578  141.0320  143.3302 LP  0  0  0  0  0  0  0  0  0  0  0  0  # atno 17321 bound_to 7965
  140.4147  144.2323  150.5888 LP  0  0  0  0  0  0  0  0  0  0  0  0  # atno 17342 bound_to 10162
  140.4932  143.2340  151.8787 LP  0  0  0  0  0  0  0  0  0  0  0  0  # atno 17343 bound_to 10162
  157.3995  131.0808  151.1321 LP  0  0  0  0  0  0  0  0  0  0  0  0  # atno 17370 bound_to 10713
  157.1987  130.6384  149.5730 LP  0  0  0  0  0  0  0  0  0  0  0  0  # atno 17371 bound_to 10713
  141.1969  133.8072  157.0652 LP  0  0  0  0  0  0  0  0  0  0  0  0  # atno 17394 bound_to 11000
  140.0588  134.9766  157.1268 LP  0  0  0  0  0  0  0  0  0  0  0  0  # atno 17395 bound_to 11000

$$$$
