AV-unprocessed.smi:1145|AV-procd|sdf|4884|dock3
  -GOLD-   22720 3453D 1   1.00000     0.00000
 Structure written by MMmdl.
 36 37  0  0  0  0  0  0  0  0  1 V2000
  152.8162  138.9641  158.6446 C   0  0  0  0  0  0  0  0  0  0  0  0
  152.2153  140.3063  158.2056 C   0  0  2  0  0  0  0  0  0  0  0  0
  151.7970  141.1598  159.4220 C   0  0  0  0  0  0  0  0  0  0  0  0
  151.6636  142.5696  159.0970 N   0  0  0  0  0  0  0  0  0  0  0  0
  152.6543  143.4675  158.7594 C   0  0  0  0  0  0  0  0  0  0  0  0
  152.0497  144.6681  158.5200 C   0  0  0  0  0  0  0  0  0  0  0  0
  150.6696  144.4019  158.7421 C   0  0  0  0  0  0  0  0  0  0  0  0
  150.4420  143.1465  159.0923 N   0  0  0  0  0  0  0  0  0  0  0  0
  151.0697  140.0528  157.3330 N   0  0  0  0  0  0  0  0  0  0  0  0
  151.0557  140.1886  155.9971 C   0  0  0  0  0  0  0  0  0  0  0  0
  152.0493  140.4946  155.3367 O   0  0  0  0  0  0  0  0  0  0  0  0
  149.7033  139.9730  155.3058 C   0  0  1  0  0  0  0  0  0  0  0  0
  149.2608  141.2493  154.5718 C   0  0  0  0  0  0  0  0  0  0  0  0
  147.8774  141.0660  153.9279 C   0  0  0  0  0  0  0  0  0  0  0  0
  147.7263  139.7388  153.1693 C   0  0  0  0  0  0  0  0  0  0  0  0
  146.8093  139.6053  152.3620 O   0  0  0  0  0  0  0  0  0  0  0  0
  148.5820  138.7352  153.4325 N   0  0  0  0  0  0  0  0  0  0  0  0
  149.7565  138.8008  154.3027 C   0  0  0  0  0  0  0  0  0  0  0  0
  153.6872  139.1153  159.2828 H   0  0  0  0  0  0  0  0  0  0  0  0
  153.1381  138.3773  157.7838 H   0  0  0  0  0  0  0  0  0  0  0  0
  152.0938  138.3686  159.2042 H   0  0  0  0  0  0  0  0  0  0  0  0
  152.9914  140.8414  157.6553 H   0  0  0  0  0  0  0  0  0  0  0  0
  150.8566  140.7968  159.8407 H   0  0  0  0  0  0  0  0  0  0  0  0
  152.5423  141.0721  160.2134 H   0  0  0  0  0  0  0  0  0  0  0  0
  153.6938  143.1783  158.7111 H   0  0  0  0  0  0  0  0  0  0  0  0
  152.5212  145.5945  158.2276 H   0  0  0  0  0  0  0  0  0  0  0  0
  149.8322  145.0790  158.6603 H   0  0  0  0  0  0  0  0  0  0  0  0
  150.2038  139.8013  157.7873 H   0  0  0  0  0  0  0  0  0  0  0  0
  148.9554  139.7408  156.0668 H   0  0  0  0  0  0  0  0  0  0  0  0
  149.2296  142.0926  155.2635 H   0  0  0  0  0  0  0  0  0  0  0  0
  149.9870  141.5124  153.8006 H   0  0  0  0  0  0  0  0  0  0  0  0
  147.1103  141.0914  154.7026 H   0  0  0  0  0  0  0  0  0  0  0  0
  147.6670  141.8971  153.2539 H   0  0  0  0  0  0  0  0  0  0  0  0
  148.4370  137.8650  152.9409 H   0  0  0  0  0  0  0  0  0  0  0  0
  150.6328  138.8809  153.6576 H   0  0  0  0  0  0  0  0  0  0  0  0
  149.8470  137.8540  154.8362 H   0  0  0  0  0  0  0  0  0  0  0  0
  1  2  1  0  0  0  0
  1 19  1  0  0  0  0
  1 20  1  0  0  0  0
  1 21  1  0  0  0  0
  2  3  1  0  0  0  0
  2  9  1  0  0  0  0
  2 22  1  0  0  0  0
  3  4  1  0  0  0  0
  3 23  1  0  0  0  0
  3 24  1  0  0  0  0
  4  8  1  0  0  0  0
  4  5  1  0  0  0  0
  5  6  2  0  0  0  0
  5 25  1  0  0  0  0
  6  7  1  0  0  0  0
  6 26  1  0  0  0  0
  7  8  2  0  0  0  0
  7 27  1  0  0  0  0
  9 10  1  0  0  0  0
  9 28  1  0  0  0  0
 10 11  2  0  0  0  0
 10 12  1  0  0  0  0
 12 18  1  0  0  0  0
 12 13  1  0  0  0  0
 12 29  1  0  0  0  0
 13 14  1  0  0  0  0
 13 30  1  0  0  0  0
 13 31  1  0  0  0  0
 14 15  1  0  0  0  0
 14 32  1  0  0  0  0
 14 33  1  0  0  0  0
 15 16  2  0  0  0  0
 15 17  1  0  0  0  0
 17 18  1  0  0  0  0
 17 34  1  0  0  0  0
 18 35  1  0  0  0  0
 18 36  1  0  0  0  0
M  END
> <s_m_source_file>
AV-unprocessed.smi

> <i_m_source_file_index>
1145

> <i_lp_mmshare_version>
43012

> <i_f3d_flags>
0

> <s_epik_input>
bjFbY0hdW2NIXVtjSF1uMVtDSDJdW0NAQEhdKFtDSDNdKVtOSF1DKD1PKVtDQEBIXTJbQ0gyXVtDSDJdQyg9TylbTkhdW0NIMl0y

> <s_epik_cmdline>
J2VwaWtfcHl0aG9uJywgJy1waCcsICc3LjAnLCAnLXRuJywgJzgnLCAnLW1hJywgJzIwMCcsICctbWV0YWxfYmluZGluZycsICctaW1hZScsICc8aW5maWxlLm1hZT4nLCAnLW9tYWUnLCAnPG91dGZpbGUubWFlPic=

> <r_lp_tautomer_probability>
1

> <r_epik_Ionization_Penalty>
0.000314064

> <r_epik_Ionization_Penalty_Charging>
0

> <r_epik_Ionization_Penalty_Neutral>
0.000314064

> <r_epik_State_Penalty>
-0

> <r_epik_Charging_Adjusted_Penalty>
0

> <i_epik_Tot_Q>
0

> <i_epik_Tot_abs_Q>
0

> <r_epik_Metal_State_Penalty>
-0

> <b_epik_Metal_Only>
0

> <s_lp_Force_Field>
OPLS_2005

> <r_lp_Energy>
12.228

> <b_lp_Chiralities_Consistent>
1

> <s_lp_Variant>
AV-unprocessed.smi:1145-3

> <Gold.Version>
5.8.1

> <Gold.Id.Protein>
6NUR|6NUR_protein|mol2

> <Gold.PLP.Fitness>
42.8728

> <Gold.PLP.PLP>
-35.7367

> <Gold.PLP.part.hbond>
-3.0000

> <Gold.PLP.part.metal>
0.0000

> <Gold.PLP.part.buried>
-0.6937

> <Gold.PLP.part.nonpolar>
-32.0477

> <Gold.PLP.part.repulsive>
0.8358

> <Gold.PLP.ligand.clash>
0.0000

> <Gold.PLP.ligand.torsion>
0.4313

> <Gold.PLP.Chemscore.Hbond>
1.6560

> <Gold.PLP.Chemscore.CHOScore>
1.0000

> <Gold.PLP.Chemscore.Metal>
0.0000

> <Gold.Chemscore.Hbonds>
donor molecule, donor type, donor heavy atom, donor atom, acceptor molecule, acceptor atom, score
      L1  H    17    34       P1  7948  1.00
      P1  H  7989  7998       L1    11  0.62
      L1  C     7    27       P1  8029  1.00

> <Gold.PLP.Chemscore.Internal.Correction>
0.0306

> <Gold.Rescore>
     Score         DG    S(hbond)    S(metal)    S(lipo)     H(rot)  DE(clash)    DE(int)     intcor
     14.98     -15.78       1.61        0.00      81.57       1.80       0.30       0.50       ----

> <Gold.Chemscore.Fitness>
14.9835

> <Gold.Chemscore.DG>
-15.7836

> <Gold.Chemscore.ZeroCoef>
-5.4800

> <Gold.Chemscore.Hbond>
1.6057

> <Gold.Chemscore.Metal>
0.0000

> <Gold.Chemscore.Lipo>
81.5734

> <Gold.Chemscore.Internal_Hbond>
0.0000

> <Gold.Chemscore.DEClash>
0.3009

> <Gold.Chemscore.DEInternal>
0.4992

> <Gold.Chemscore.Rot>
1.7982

> <Gold.Chemscore.Internal.Correction>
   9.000000E+99

> <Gold.Chemscore.Hbonds>
donor molecule, donor type, donor heavy atom, donor atom, acceptor molecule, acceptor atom, score
      L1  H    17    34       P1  7948  0.94
      P1  H  7989  7998       L1    11  0.56

> <Gold.Chemscore.Hbond.Weighted>
-5.3630

> <Gold.Chemscore.Metal.Weighted>
-0.0000

> <Gold.Chemscore.Lipo.Weighted>
-9.5441

> <Gold.Chemscore.Internal_Hbond.Weighted>
0.0000

> <Gold.Chemscore.DEClash.Weighted>
0.3009

> <Gold.Chemscore.DEInternal.Weighted>
0.4992

> <Gold.Chemscore.Rot.Weighted>
4.6035

> <Gold.Chemscore.Internal.Correction.Weighted>
   9.000000E+99

> <Gold.Protein.RotatedTorsions>
[ 6907 6896 6895 6894 ] final  103.14 input  -60.11 | X-H torsion
[ 7974 7965 7964 7962 ] final  108.39 input  175.53 | X-H torsion
[ 8008 7997 7996 7995 ] final  -66.14 input   59.86 | X-H torsion
[ 10167 10162 10161 10158 ] final  -76.39 input  -65.29 | X-H torsion
[ 10718 10713 10712 10709 ] final -141.46 input   66.30 | X-H torsion
[ 10763 10752 10751 10750 ] final  -79.00 input  -60.55 | X-H torsion
[ 11005 11000 10999 10996 ] final  121.65 input  -57.11 | X-H torsion

> <Gold.Protein.ActiveResidues>
 VAL166  LYS551  ARG553  GLY616  TRP617  ASP618  TYR619  PRO620  LYS621  CYS622 
 ASP623  PHE694  ASN695  SER759  ASP760  ASP761  ALA762  ILE779  LEU786  VAL792 
 PHE793  MET794  SER795  GLU796  ALA797  LYS798  CYS799  TRP800  GLU811  SER814 

> <Gold.Protein.RotatedAtoms>
  152.5304  133.9870  159.7833 H   0  0  0  0  0  0  0  0  0  0  0  0  # atno 6907 bound_to 6896
  151.0113  133.5954  159.2689 H   0  0  0  0  0  0  0  0  0  0  0  0  # atno 6908 bound_to 6896
  151.3028  135.0780  159.9298 H   0  0  0  0  0  0  0  0  0  0  0  0  # atno 6909 bound_to 6896
  145.2813  139.2631  143.3914 H   0  0  0  0  0  0  0  0  0  0  0  0  # atno 7974 bound_to 7965
  154.4716  140.0919  156.7158 H   0  0  0  0  0  0  0  0  0  0  0  0  # atno 8008 bound_to 7997
  155.4709  140.3464  155.4307 H   0  0  0  0  0  0  0  0  0  0  0  0  # atno 8009 bound_to 7997
  156.1048  140.1432  156.9408 H   0  0  0  0  0  0  0  0  0  0  0  0  # atno 8010 bound_to 7997
  140.4861  143.2391  151.7981 H   0  0  0  0  0  0  0  0  0  0  0  0  # atno 10167 bound_to 10162
  156.3343  130.7603  151.1727 H   0  0  0  0  0  0  0  0  0  0  0  0  # atno 10718 bound_to 10713
  154.5331  135.5710  153.6775 H   0  0  0  0  0  0  0  0  0  0  0  0  # atno 10763 bound_to 10752
  152.9944  135.6209  154.2603 H   0  0  0  0  0  0  0  0  0  0  0  0  # atno 10764 bound_to 10752
  154.2530  135.2858  155.2788 H   0  0  0  0  0  0  0  0  0  0  0  0  # atno 10765 bound_to 10752
  139.9235  134.9639  156.7990 H   0  0  0  0  0  0  0  0  0  0  0  0  # atno 11005 bound_to 11000
  146.3215  140.3281  142.8638 LP  0  0  0  0  0  0  0  0  0  0  0  0  # atno 17320 bound_to 7965
  144.9250  140.7911  143.5724 LP  0  0  0  0  0  0  0  0  0  0  0  0  # atno 17321 bound_to 7965
  139.4842  144.4710  151.9425 LP  0  0  0  0  0  0  0  0  0  0  0  0  # atno 17342 bound_to 10162
  140.3796  144.2753  150.5910 LP  0  0  0  0  0  0  0  0  0  0  0  0  # atno 17343 bound_to 10162
  157.7436  131.0472  150.4934 LP  0  0  0  0  0  0  0  0  0  0  0  0  # atno 17370 bound_to 10713
  156.5105  130.4138  149.6304 LP  0  0  0  0  0  0  0  0  0  0  0  0  # atno 17371 bound_to 10713
  140.6405  133.9823  155.7705 LP  0  0  0  0  0  0  0  0  0  0  0  0  # atno 17394 bound_to 11000
  141.0774  134.0114  157.3437 LP  0  0  0  0  0  0  0  0  0  0  0  0  # atno 17395 bound_to 11000

$$$$
