AV-unprocessed.smi:268|AV-procd|sdf|2040|dock6
  -GOLD-   2262021253D 1   1.00000     0.00000
 Structure written by MMmdl.
 50 53  0  0  0  0  0  0  0  0  1 V2000
  152.2392  143.8117  161.5116 C   0  0  0  0  0  0  0  0  0  0  0  0
  152.7816  143.6214  160.0933 C   0  0  0  0  0  0  0  0  0  0  0  0
  152.9546  142.2353  159.8499 O   0  0  0  0  0  0  0  0  0  0  0  0
  152.4781  141.8397  158.5743 C   0  0  2  0  0  0  0  0  0  0  0  0
  150.9734  142.0591  158.3684 C   0  0  0  0  0  0  0  0  0  0  0  0
  150.8708  140.6303  157.8023 C   0  0  1  0  0  0  0  0  0  0  0  0
  150.9376  140.5932  156.3355 N   0  0  0  0  0  0  0  0  0  0  0  0
  149.9670  141.3996  155.5999 C   0  0  0  0  0  0  0  0  0  0  0  0
  151.1774  139.3991  155.7336 C   0  0  0  0  0  0  0  0  0  0  0  0
  151.3478  139.3343  154.3856 N   0  0  0  0  0  0  0  0  0  0  0  0
  151.5932  138.1626  153.7920 C   0  0  0  0  0  0  0  0  0  0  0  0
  151.7091  136.9544  154.3466 N   0  0  0  0  0  0  0  0  0  0  0  0
  151.5438  137.0134  155.6990 C   0  0  0  0  0  0  0  0  0  0  0  0
  151.2813  138.1833  156.4659 C   0  0  0  0  0  0  0  0  0  0  0  0
  151.1731  137.8528  157.8112 N   0  0  0  0  0  0  0  0  0  0  0  0
  151.3617  136.5617  157.8383 C   0  0  0  0  0  0  0  0  0  0  0  0
  151.5804  135.9737  156.6126 N   0  0  0  0  0  0  0  0  0  0  0  0
  151.8123  134.5615  156.3505 C   0  0  0  0  0  0  0  0  0  0  0  0
  150.5690  133.8122  155.8359 C   0  0  0  0  0  0  0  0  0  0  0  0
  149.4528  133.9236  156.8948 C   0  0  0  0  0  0  0  0  0  0  0  0
  149.8642  133.4605  158.1657 O   0  0  0  0  0  0  0  0  0  0  0  0
  150.1698  134.1406  154.3900 C   0  0  0  0  0  0  0  0  0  0  0  0
  150.1750  132.7471  154.0086 O   0  0  0  0  0  0  0  0  0  0  0  0
  150.8133  132.4099  155.2600 C   0  0  0  0  0  0  0  0  0  0  0  0
  152.2181  140.3324  158.4936 C   0  0  0  0  0  0  0  0  0  0  0  0
  152.0957  144.8690  161.7351 H   0  0  0  0  0  0  0  0  0  0  0  0
  152.9276  143.4034  162.2519 H   0  0  0  0  0  0  0  0  0  0  0  0
  151.2788  143.3103  161.6333 H   0  0  0  0  0  0  0  0  0  0  0  0
  152.0870  144.0503  159.3698 H   0  0  0  0  0  0  0  0  0  0  0  0
  153.7339  144.1427  159.9864 H   0  0  0  0  0  0  0  0  0  0  0  0
  153.0832  142.1940  157.7374 H   0  0  0  0  0  0  0  0  0  0  0  0
  150.4324  142.1696  159.3096 H   0  0  0  0  0  0  0  0  0  0  0  0
  150.7326  142.8681  157.6782 H   0  0  0  0  0  0  0  0  0  0  0  0
  150.0361  140.0657  158.2199 H   0  0  0  0  0  0  0  0  0  0  0  0
  150.4842  142.1575  155.0109 H   0  0  0  0  0  0  0  0  0  0  0  0
  149.2838  141.9101  156.2793 H   0  0  0  0  0  0  0  0  0  0  0  0
  149.3590  140.7975  154.9221 H   0  0  0  0  0  0  0  0  0  0  0  0
  151.7136  138.1989  152.7194 H   0  0  0  0  0  0  0  0  0  0  0  0
  151.3431  136.0008  158.7611 H   0  0  0  0  0  0  0  0  0  0  0  0
  152.6342  134.4717  155.6391 H   0  0  0  0  0  0  0  0  0  0  0  0
  152.1749  134.1107  157.2753 H   0  0  0  0  0  0  0  0  0  0  0  0
  149.1302  134.9571  157.0205 H   0  0  0  0  0  0  0  0  0  0  0  0
  148.5743  133.3516  156.5946 H   0  0  0  0  0  0  0  0  0  0  0  0
  149.8896  132.5160  158.1483 H   0  0  0  0  0  0  0  0  0  0  0  0
  149.1870  134.6016  154.2859 H   0  0  0  0  0  0  0  0  0  0  0  0
  150.9210  134.7108  153.8413 H   0  0  0  0  0  0  0  0  0  0  0  0
  151.8657  132.1628  155.1164 H   0  0  0  0  0  0  0  0  0  0  0  0
  150.2970  131.6108  155.7933 H   0  0  0  0  0  0  0  0  0  0  0  0
  152.9559  139.7872  157.9044 H   0  0  0  0  0  0  0  0  0  0  0  0
  152.0848  139.8758  159.4756 H   0  0  0  0  0  0  0  0  0  0  0  0
  1  2  1  0  0  0  0
  1 26  1  0  0  0  0
  1 27  1  0  0  0  0
  1 28  1  0  0  0  0
  2  3  1  0  0  0  0
  2 29  1  0  0  0  0
  2 30  1  0  0  0  0
  3  4  1  0  0  0  0
  4 25  1  0  0  0  0
  4  5  1  0  0  0  0
  4 31  1  0  0  0  0
  5  6  1  0  0  0  0
  5 32  1  0  0  0  0
  5 33  1  0  0  0  0
  6  7  1  0  0  0  0
  6 25  1  0  0  0  0
  6 34  1  0  0  0  0
  7  8  1  0  0  0  0
  7  9  1  0  0  0  0
  8 35  1  0  0  0  0
  8 36  1  0  0  0  0
  8 37  1  0  0  0  0
  9 14  1  0  0  0  0
  9 10  2  0  0  0  0
 10 11  1  0  0  0  0
 11 12  2  0  0  0  0
 11 38  1  0  0  0  0
 12 13  1  0  0  0  0
 13 17  1  0  0  0  0
 13 14  2  0  0  0  0
 14 15  1  0  0  0  0
 15 16  2  0  0  0  0
 16 17  1  0  0  0  0
 16 39  1  0  0  0  0
 17 18  1  0  0  0  0
 18 19  1  0  0  0  0
 18 40  1  0  0  0  0
 18 41  1  0  0  0  0
 19 24  1  0  0  0  0
 19 20  1  0  0  0  0
 19 22  1  0  0  0  0
 20 21  1  0  0  0  0
 20 42  1  0  0  0  0
 20 43  1  0  0  0  0
 21 44  1  0  0  0  0
 22 23  1  0  0  0  0
 22 45  1  0  0  0  0
 22 46  1  0  0  0  0
 23 24  1  0  0  0  0
 24 47  1  0  0  0  0
 24 48  1  0  0  0  0
 25 49  1  0  0  0  0
 25 50  1  0  0  0  0
M  END
> <s_m_source_file>
AV-unprocessed.smi

> <i_m_source_file_index>
268

> <i_lp_mmshare_version>
43012

> <i_f3d_flags>
0

> <s_epik_input>
W0NIM11bQ0gyXU9bQ0BASF0xW0NIMl1bQ0BIXShbQ0gyXTEpTihbQ0gzXSljKG5bY0hdbjIpYyhjMjMpbltjSF1uM1tDSDJdQzQoW0NIMl1bT0hdKVtDSDJdT1tDSDJdNA==

> <s_epik_cmdline>
J2VwaWtfcHl0aG9uJywgJy1waCcsICc3LjAnLCAnLXRuJywgJzgnLCAnLW1hJywgJzIwMCcsICctbWV0YWxfYmluZGluZycsICctaW1hZScsICc8aW5maWxlLm1hZT4nLCAnLW9tYWUnLCAnPG91dGZpbGUubWFlPic=

> <r_lp_tautomer_probability>
1

> <r_epik_Ionization_Penalty>
0.00205824

> <r_epik_Ionization_Penalty_Charging>
0

> <r_epik_Ionization_Penalty_Neutral>
0.00205824

> <r_epik_State_Penalty>
0.00125218

> <r_epik_Charging_Adjusted_Penalty>
0.00125218

> <i_epik_Tot_Q>
0

> <i_epik_Tot_abs_Q>
0

> <r_epik_Metal_State_Penalty>
-0

> <b_epik_Metal_Only>
0

> <s_lp_Force_Field>
OPLS_2005

> <r_lp_Energy>
42.2334

> <b_lp_Chiralities_Consistent>
1

> <s_lp_Variant>
AV-unprocessed.smi:268-1

> <Gold.Version>
5.8.1

> <Gold.Id.Protein>
6NUR|6NUR_protein|mol2

> <Gold.PLP.Fitness>
46.9551

> <Gold.PLP.PLP>
-37.0408

> <Gold.PLP.part.hbond>
-3.0000

> <Gold.PLP.part.metal>
0.0000

> <Gold.PLP.part.buried>
-6.3811

> <Gold.PLP.part.nonpolar>
-28.2324

> <Gold.PLP.part.repulsive>
0.4459

> <Gold.PLP.ligand.clash>
0.0000

> <Gold.PLP.ligand.torsion>
1.3310

> <Gold.PLP.Chemscore.Hbond>
3.0000

> <Gold.PLP.Chemscore.CHOScore>
0.7492

> <Gold.PLP.Chemscore.Metal>
0.0000

> <Gold.Chemscore.Hbonds>
donor molecule, donor type, donor heavy atom, donor atom, acceptor molecule, acceptor atom, score
      P1  H  6896  6908       L1    21  0.88
      P1  H  7989  7998       L1    10  1.00
      P1  H 10752 10765       L1    12  1.00
      L1  C    11    38       P1  7949  0.63

> <Gold.PLP.Chemscore.Internal.Correction>
1.3288

> <Gold.Rescore>
     Score         DG    S(hbond)    S(metal)    S(lipo)     H(rot)  DE(clash)    DE(int)     intcor
     12.28     -16.48       2.68        0.00      86.38       3.15       0.17       4.03       ----

> <Gold.Chemscore.Fitness>
12.2761

> <Gold.Chemscore.DG>
-16.4754

> <Gold.Chemscore.ZeroCoef>
-5.4800

> <Gold.Chemscore.Hbond>
2.6836

> <Gold.Chemscore.Metal>
0.0000

> <Gold.Chemscore.Lipo>
86.3848

> <Gold.Chemscore.Internal_Hbond>
0.0000

> <Gold.Chemscore.DEClash>
0.1653

> <Gold.Chemscore.DEInternal>
4.0340

> <Gold.Chemscore.Rot>
3.1542

> <Gold.Chemscore.Internal.Correction>
   9.000000E+99

> <Gold.Chemscore.Hbonds>
donor molecule, donor type, donor heavy atom, donor atom, acceptor molecule, acceptor atom, score
      P1  H  6896  6908       L1    21  0.52
      P1  H  7989  7998       L1    10  0.94
      P1  H 10752 10765       L1    12  0.25

> <Gold.Chemscore.Hbond.Weighted>
-8.9631

> <Gold.Chemscore.Metal.Weighted>
-0.0000

> <Gold.Chemscore.Lipo.Weighted>
-10.1070

> <Gold.Chemscore.Internal_Hbond.Weighted>
0.0000

> <Gold.Chemscore.DEClash.Weighted>
0.1653

> <Gold.Chemscore.DEInternal.Weighted>
4.0340

> <Gold.Chemscore.Rot.Weighted>
8.0748

> <Gold.Chemscore.Internal.Correction.Weighted>
   9.000000E+99

> <Gold.Protein.RotatedTorsions>
[ 6907 6896 6895 6894 ] final  127.84 input  -60.11 | X-H torsion
[ 7974 7965 7964 7962 ] final -107.05 input  175.53 | X-H torsion
[ 8008 7997 7996 7995 ] final    1.54 input   59.86 | X-H torsion
[ 10167 10162 10161 10158 ] final  -44.63 input  -65.29 | X-H torsion
[ 10718 10713 10712 10709 ] final  135.32 input   66.30 | X-H torsion
[ 10763 10752 10751 10750 ] final  158.15 input  -60.55 | X-H torsion
[ 11005 11000 10999 10996 ] final  157.52 input  -57.11 | X-H torsion

> <Gold.Protein.ActiveResidues>
 VAL166  LYS551  ARG553  GLY616  TRP617  ASP618  TYR619  PRO620  LYS621  CYS622 
 ASP623  PHE694  ASN695  SER759  ASP760  ASP761  ALA762  ILE779  LEU786  VAL792 
 PHE793  MET794  SER795  GLU796  ALA797  LYS798  CYS799  TRP800  GLU811  SER814 

> <Gold.Protein.RotatedAtoms>
  152.3775  133.6501  159.6134 H   0  0  0  0  0  0  0  0  0  0  0  0  # atno 6907 bound_to 6896
  150.7715  133.9169  159.3395 H   0  0  0  0  0  0  0  0  0  0  0  0  # atno 6908 bound_to 6896
  151.6981  135.0936  160.0297 H   0  0  0  0  0  0  0  0  0  0  0  0  # atno 6909 bound_to 6896
  145.2102  140.9093  143.3319 H   0  0  0  0  0  0  0  0  0  0  0  0  # atno 7974 bound_to 7965
  154.6810  140.2632  155.6908 H   0  0  0  0  0  0  0  0  0  0  0  0  # atno 8008 bound_to 7997
  156.2696  140.2810  156.1277 H   0  0  0  0  0  0  0  0  0  0  0  0  # atno 8009 bound_to 7997
  155.1031  140.0374  157.2693 H   0  0  0  0  0  0  0  0  0  0  0  0  # atno 8010 bound_to 7997
  140.6889  143.2920  151.3523 H   0  0  0  0  0  0  0  0  0  0  0  0  # atno 10167 bound_to 10162
  157.4583  131.1071  150.9951 H   0  0  0  0  0  0  0  0  0  0  0  0  # atno 10718 bound_to 10713
  154.2116  135.2786  155.2956 H   0  0  0  0  0  0  0  0  0  0  0  0  # atno 10763 bound_to 10752
  154.5774  135.5600  153.7156 H   0  0  0  0  0  0  0  0  0  0  0  0  # atno 10764 bound_to 10752
  153.0063  135.6336  154.2255 H   0  0  0  0  0  0  0  0  0  0  0  0  # atno 10765 bound_to 10752
  140.1777  134.8498  157.2766 H   0  0  0  0  0  0  0  0  0  0  0  0  # atno 11005 bound_to 11000
  144.9863  139.3733  143.6237 LP  0  0  0  0  0  0  0  0  0  0  0  0  # atno 17320 bound_to 7965
  146.3399  139.9027  142.8792 LP  0  0  0  0  0  0  0  0  0  0  0  0  # atno 17321 bound_to 7965
  139.6273  144.0789  152.2445 LP  0  0  0  0  0  0  0  0  0  0  0  0  # atno 17342 bound_to 10162
  140.0252  144.6122  150.7533 LP  0  0  0  0  0  0  0  0  0  0  0  0  # atno 17343 bound_to 10162
  157.0757  130.5882  149.5411 LP  0  0  0  0  0  0  0  0  0  0  0  0  # atno 17370 bound_to 10713
  156.0017  130.5097  150.7686 LP  0  0  0  0  0  0  0  0  0  0  0  0  # atno 17371 bound_to 10713
  140.2303  134.3917  155.7525 LP  0  0  0  0  0  0  0  0  0  0  0  0  # atno 17394 bound_to 11000
  141.2221  133.7211  156.8630 LP  0  0  0  0  0  0  0  0  0  0  0  0  # atno 17395 bound_to 11000

$$$$
