AV-unprocessed.smi:3006|AV-procd|sdf|11445|dock9
  -GOLD-   2272016373D 1   1.00000     0.00000
 Structure written by MMmdl.
 44 45  0  0  0  0  0  0  0  0  1 V2000
  142.3817  145.3721  154.9703 C   0  0  0  0  0  0  0  0  0  0  0  0
  143.5914  144.5945  154.5796 C   0  0  0  0  0  0  0  0  0  0  0  0
  144.1901  143.7134  155.3849 N   0  0  0  0  0  0  0  0  0  0  0  0
  145.3109  143.1198  154.7954 C   0  0  0  0  0  0  0  0  0  0  0  0
  146.1126  142.1101  155.5592 C   0  0  0  0  0  0  0  0  0  0  0  0
  147.2733  141.5413  154.7269 C   0  0  0  0  0  0  0  0  0  0  0  0
  148.5673  141.9192  155.2833 N   0  0  0  0  0  0  0  0  0  0  0  0
  149.6571  141.1337  155.3162 C   0  0  0  0  0  0  0  0  0  0  0  0
  149.6605  139.9966  154.8423 O   0  0  0  0  0  0  0  0  0  0  0  0
  150.7550  141.7143  155.8601 N   0  0  0  0  0  0  0  0  0  0  0  0
  150.8483  143.0680  156.4177 C   0  0  0  0  0  0  0  0  0  0  0  0
  150.9428  142.9663  157.9525 C   0  0  0  0  0  0  0  0  0  0  0  0
  152.1193  142.1827  158.3682 N   0  0  0  0  0  0  0  0  0  0  0  0
  152.2141  142.0908  159.8396 C   0  0  0  0  0  0  0  0  0  0  0  0
  152.1960  143.4871  160.4997 C   0  0  0  0  0  0  0  0  0  0  0  0
  153.4950  141.3559  160.2923 C   0  0  0  0  0  0  0  0  0  0  0  0
  152.0508  140.8507  157.7427 C   0  0  0  0  0  0  0  0  0  0  0  0
  151.9572  140.9588  156.2092 C   0  0  0  0  0  0  0  0  0  0  0  0
  145.5507  143.5656  153.5194 C   0  0  0  0  0  0  0  0  0  0  0  0
  144.3786  144.7513  153.0137 S   0  0  0  0  0  0  0  0  0  0  0  0
  141.6540  144.7203  155.4541 H   0  0  0  0  0  0  0  0  0  0  0  0
  141.9186  145.8194  154.0908 H   0  0  0  0  0  0  0  0  0  0  0  0
  142.6579  146.1668  155.6635 H   0  0  0  0  0  0  0  0  0  0  0  0
  146.5056  142.5619  156.4708 H   0  0  0  0  0  0  0  0  0  0  0  0
  145.4637  141.2964  155.8856 H   0  0  0  0  0  0  0  0  0  0  0  0
  147.1966  140.4548  154.6566 H   0  0  0  0  0  0  0  0  0  0  0  0
  147.2218  141.9216  153.7062 H   0  0  0  0  0  0  0  0  0  0  0  0
  148.6428  142.8479  155.6723 H   0  0  0  0  0  0  0  0  0  0  0  0
  151.7346  143.5639  156.0186 H   0  0  0  0  0  0  0  0  0  0  0  0
  150.0100  143.7114  156.1516 H   0  0  0  0  0  0  0  0  0  0  0  0
  151.0008  143.9823  158.3384 H   0  0  0  0  0  0  0  0  0  0  0  0
  150.0336  142.5186  158.3575 H   0  0  0  0  0  0  0  0  0  0  0  0
  151.3550  141.5288  160.2092 H   0  0  0  0  0  0  0  0  0  0  0  0
  152.4123  143.4185  161.5662 H   0  0  0  0  0  0  0  0  0  0  0  0
  151.2234  143.9721  160.4248 H   0  0  0  0  0  0  0  0  0  0  0  0
  152.9432  144.1468  160.0572 H   0  0  0  0  0  0  0  0  0  0  0  0
  153.6265  141.4279  161.3724 H   0  0  0  0  0  0  0  0  0  0  0  0
  154.3852  141.7798  159.8261 H   0  0  0  0  0  0  0  0  0  0  0  0
  153.4641  140.2902  160.0675 H   0  0  0  0  0  0  0  0  0  0  0  0
  152.9450  140.2727  157.9694 H   0  0  0  0  0  0  0  0  0  0  0  0
  151.1973  140.2955  158.1353 H   0  0  0  0  0  0  0  0  0  0  0  0
  151.9668  139.9617  155.7667 H   0  0  0  0  0  0  0  0  0  0  0  0
  152.8371  141.4667  155.8108 H   0  0  0  0  0  0  0  0  0  0  0  0
  146.3449  143.2710  152.8495 H   0  0  0  0  0  0  0  0  0  0  0  0
  1  2  1  0  0  0  0
  1 21  1  0  0  0  0
  1 22  1  0  0  0  0
  1 23  1  0  0  0  0
  2 20  1  0  0  0  0
  2  3  2  0  0  0  0
  3  4  1  0  0  0  0
  4  5  1  0  0  0  0
  4 19  2  0  0  0  0
  5  6  1  0  0  0  0
  5 24  1  0  0  0  0
  5 25  1  0  0  0  0
  6  7  1  0  0  0  0
  6 26  1  0  0  0  0
  6 27  1  0  0  0  0
  7  8  1  0  0  0  0
  7 28  1  0  0  0  0
  8  9  2  0  0  0  0
  8 10  1  0  0  0  0
 10 18  1  0  0  0  0
 10 11  1  0  0  0  0
 11 12  1  0  0  0  0
 11 29  1  0  0  0  0
 11 30  1  0  0  0  0
 12 13  1  0  0  0  0
 12 31  1  0  0  0  0
 12 32  1  0  0  0  0
 13 14  1  0  0  0  0
 13 17  1  0  0  0  0
 14 15  1  0  0  0  0
 14 16  1  0  0  0  0
 14 33  1  0  0  0  0
 15 34  1  0  0  0  0
 15 35  1  0  0  0  0
 15 36  1  0  0  0  0
 16 37  1  0  0  0  0
 16 38  1  0  0  0  0
 16 39  1  0  0  0  0
 17 18  1  0  0  0  0
 17 40  1  0  0  0  0
 17 41  1  0  0  0  0
 18 42  1  0  0  0  0
 18 43  1  0  0  0  0
 19 20  1  0  0  0  0
 19 44  1  0  0  0  0
M  END
> <s_m_source_file>
AV-unprocessed.smi

> <i_m_source_file_index>
3006

> <i_lp_mmshare_version>
43012

> <i_f3d_flags>
0

> <s_epik_input>
W0NIM11jMW5jKFtjSF1zMSlbQ0gyXVtDSDJdW05IXUMoPU8pTjJbQ0gyXVtDSDJdTihbQ0hdKFtDSDNdKVtDSDNdKVtDSDJdW0NIMl0y

> <s_epik_cmdline>
J2VwaWtfcHl0aG9uJywgJy1waCcsICc3LjAnLCAnLXRuJywgJzgnLCAnLW1hJywgJzIwMCcsICctbWV0YWxfYmluZGluZycsICctaW1hZScsICc8aW5maWxlLm1hZT4nLCAnLW9tYWUnLCAnPG91dGZpbGUubWFlPic=

> <r_epik_Ionization_Penalty>
0.875753

> <r_epik_Ionization_Penalty_Charging>
0

> <r_epik_Ionization_Penalty_Neutral>
0.875753

> <r_epik_State_Penalty>
0.930306

> <r_epik_Charging_Adjusted_Penalty>
0.930306

> <i_epik_Tot_Q>
0

> <i_epik_Tot_abs_Q>
0

> <r_epik_Metal_State_Penalty>
0.928801

> <b_epik_Metal_Only>
0

> <s_lp_Force_Field>
OPLS_2005

> <r_lp_Energy>
38.048

> <b_lp_Chiralities_Consistent>
1

> <s_lp_Variant>
AV-unprocessed.smi:3006-2

> <Gold.Version>
5.8.1

> <Gold.Id.Protein>
6NUR|6NUR_protein|mol2

> <Gold.PLP.Fitness>
43.4983

> <Gold.PLP.PLP>
-41.5937

> <Gold.PLP.part.hbond>
-1.0000

> <Gold.PLP.part.metal>
0.0000

> <Gold.PLP.part.buried>
-3.9437

> <Gold.PLP.part.nonpolar>
-35.8883

> <Gold.PLP.part.repulsive>
0.3453

> <Gold.PLP.ligand.clash>
0.0000

> <Gold.PLP.ligand.torsion>
0.5856

> <Gold.PLP.Chemscore.Hbond>
1.0000

> <Gold.PLP.Chemscore.CHOScore>
0.0000

> <Gold.PLP.Chemscore.Metal>
0.0000

> <Gold.Chemscore.Hbonds>
donor molecule, donor type, donor heavy atom, donor atom, acceptor molecule, acceptor atom, score
      L1  H     7    28       P1  8028  1.00

> <Gold.PLP.Chemscore.Internal.Correction>
0.0759

> <Gold.Rescore>
     Score         DG    S(hbond)    S(metal)    S(lipo)     H(rot)  DE(clash)    DE(int)     intcor
     17.13     -18.21       0.98        0.00     111.09       1.39       0.26       0.82       ----

> <Gold.Chemscore.Fitness>
17.1288

> <Gold.Chemscore.DG>
-18.2071

> <Gold.Chemscore.ZeroCoef>
-5.4800

> <Gold.Chemscore.Hbond>
0.9813

> <Gold.Chemscore.Metal>
0.0000

> <Gold.Chemscore.Lipo>
111.0932

> <Gold.Chemscore.Internal_Hbond>
0.0000

> <Gold.Chemscore.DEClash>
0.2563

> <Gold.Chemscore.DEInternal>
0.8219

> <Gold.Chemscore.Rot>
1.3861

> <Gold.Chemscore.Internal.Correction>
   9.000000E+99

> <Gold.Chemscore.Hbonds>
donor molecule, donor type, donor heavy atom, donor atom, acceptor molecule, acceptor atom, score
      L1  H     7    28       P1  8028  0.98

> <Gold.Chemscore.Hbond.Weighted>
-3.2776

> <Gold.Chemscore.Metal.Weighted>
-0.0000

> <Gold.Chemscore.Lipo.Weighted>
-12.9979

> <Gold.Chemscore.Internal_Hbond.Weighted>
0.0000

> <Gold.Chemscore.DEClash.Weighted>
0.2563

> <Gold.Chemscore.DEInternal.Weighted>
0.8219

> <Gold.Chemscore.Rot.Weighted>
3.5484

> <Gold.Chemscore.Internal.Correction.Weighted>
   9.000000E+99

> <Gold.Protein.RotatedTorsions>
[ 6907 6896 6895 6894 ] final   51.36 input  -60.11 | X-H torsion
[ 7974 7965 7964 7962 ] final  108.69 input  175.53 | X-H torsion
[ 8008 7997 7996 7995 ] final  108.88 input   59.86 | X-H torsion
[ 10167 10162 10161 10158 ] final  115.58 input  -65.29 | X-H torsion
[ 10718 10713 10712 10709 ] final -122.72 input   66.30 | X-H torsion
[ 10763 10752 10751 10750 ] final  -15.54 input  -60.55 | X-H torsion
[ 11005 11000 10999 10996 ] final  -39.17 input  -57.11 | X-H torsion

> <Gold.Protein.ActiveResidues>
 VAL166  LYS551  ARG553  GLY616  TRP617  ASP618  TYR619  PRO620  LYS621  CYS622 
 ASP623  PHE694  ASN695  SER759  ASP760  ASP761  ALA762  ILE779  LEU786  VAL792 
 PHE793  MET794  SER795  GLU796  ALA797  LYS798  CYS799  TRP800  GLU811  SER814 

> <Gold.Protein.RotatedAtoms>
  152.3118  134.7488  160.0334 H   0  0  0  0  0  0  0  0  0  0  0  0  # atno 6907 bound_to 6896
  151.7966  133.3360  159.3523 H   0  0  0  0  0  0  0  0  0  0  0  0  # atno 6908 bound_to 6896
  150.7324  134.5723  159.5941 H   0  0  0  0  0  0  0  0  0  0  0  0  # atno 6909 bound_to 6896
  145.2774  139.2645  143.3934 H   0  0  0  0  0  0  0  0  0  0  0  0  # atno 7974 bound_to 7965
  156.1937  140.3068  155.9383 H   0  0  0  0  0  0  0  0  0  0  0  0  # atno 8008 bound_to 7997
  155.3116  140.0451  157.3052 H   0  0  0  0  0  0  0  0  0  0  0  0  # atno 8009 bound_to 7997
  154.5483  140.2283  155.8536 H   0  0  0  0  0  0  0  0  0  0  0  0  # atno 8010 bound_to 7997
  139.6307  144.7114  151.2438 H   0  0  0  0  0  0  0  0  0  0  0  0  # atno 10167 bound_to 10162
  156.1442  130.6488  150.9817 H   0  0  0  0  0  0  0  0  0  0  0  0  # atno 10718 bound_to 10713
  153.5449  135.7012  153.5619 H   0  0  0  0  0  0  0  0  0  0  0  0  # atno 10763 bound_to 10752
  153.3568  135.3980  155.1688 H   0  0  0  0  0  0  0  0  0  0  0  0  # atno 10764 bound_to 10752
  154.8669  135.3779  154.4956 H   0  0  0  0  0  0  0  0  0  0  0  0  # atno 10765 bound_to 10752
  141.0082  133.6921  156.2151 H   0  0  0  0  0  0  0  0  0  0  0  0  # atno 11005 bound_to 11000
  146.3227  140.3232  142.8635 LP  0  0  0  0  0  0  0  0  0  0  0  0  # atno 17320 bound_to 7965
  144.9283  140.7946  143.5705 LP  0  0  0  0  0  0  0  0  0  0  0  0  # atno 17321 bound_to 7965
  140.7437  143.6485  150.8270 LP  0  0  0  0  0  0  0  0  0  0  0  0  # atno 17342 bound_to 10162
  140.0110  143.5643  152.2839 LP  0  0  0  0  0  0  0  0  0  0  0  0  # atno 17343 bound_to 10162
  157.6602  131.0882  150.7855 LP  0  0  0  0  0  0  0  0  0  0  0  0  # atno 17370 bound_to 10713
  156.7928  130.4895  149.5382 LP  0  0  0  0  0  0  0  0  0  0  0  0  # atno 17371 bound_to 10713
  140.6777  134.4800  157.5588 LP  0  0  0  0  0  0  0  0  0  0  0  0  # atno 17394 bound_to 11000
  139.9075  134.8417  156.1650 LP  0  0  0  0  0  0  0  0  0  0  0  0  # atno 17395 bound_to 11000

$$$$
