AV-unprocessed.smi:3276|AV-procd|sdf|12535|dock2
  -GOLD-   2272018453D 1   1.00000     0.00000
 Structure written by MMmdl.
 39 40  0  0  0  0  0  0  0  0  1 V2000
  146.5163  133.8083  151.1516 C   0  0  0  0  0  0  0  0  0  0  0  0
  145.4468  134.7407  151.6791 C   0  0  0  0  0  0  0  0  0  0  0  0
  144.1522  134.2774  151.9959 C   0  0  0  0  0  0  0  0  0  0  0  0
  143.1976  135.1107  152.4630 N   0  0  0  0  0  0  0  0  0  0  0  0
  143.5414  136.4111  152.6118 C   0  0  0  0  0  0  0  0  0  0  0  0
  142.4542  137.3347  153.1315 C   0  0  0  0  0  0  0  0  0  0  0  0
  144.8403  136.8835  152.2934 C   0  0  0  0  0  0  0  0  0  0  0  0
  145.1603  138.2401  152.4615 N   0  0  0  0  0  0  0  0  0  0  0  0
  146.5447  138.6704  152.6190 C   0  0  0  0  0  0  0  0  0  0  0  0
  146.7365  139.5841  153.8381 C   0  0  0  0  0  0  0  0  0  0  0  0
  148.1117  139.9066  153.9536 O   0  0  0  0  0  0  0  0  0  0  0  0
  148.3333  141.2436  154.3716 C   0  0  0  0  0  0  0  0  0  0  0  0
  149.7333  141.3654  154.9889 C   0  0  1  0  0  0  0  0  0  0  0  0
  149.7753  141.3250  156.5194 C   0  0  0  0  0  0  0  0  0  0  0  0
  151.1449  140.7367  156.7725 C   0  0  0  0  0  0  0  0  0  0  0  0
  151.2540  139.7215  155.6397 C   0  0  0  0  0  0  0  0  0  0  0  0
  150.5842  140.3159  154.5328 O   0  0  0  0  0  0  0  0  0  0  0  0
  145.7923  136.0384  151.8272 N   0  0  0  0  0  0  0  0  0  0  0  0
  146.2036  132.7669  151.2318 H   0  0  0  0  0  0  0  0  0  0  0  0
  147.4411  133.9296  151.7165 H   0  0  0  0  0  0  0  0  0  0  0  0
  146.7216  134.0242  150.1029 H   0  0  0  0  0  0  0  0  0  0  0  0
  143.8797  133.2393  151.8752 H   0  0  0  0  0  0  0  0  0  0  0  0
  142.2529  138.1262  152.4090 H   0  0  0  0  0  0  0  0  0  0  0  0
  142.7639  137.7942  154.0704 H   0  0  0  0  0  0  0  0  0  0  0  0
  141.5229  136.7956  153.3102 H   0  0  0  0  0  0  0  0  0  0  0  0
  144.4927  138.9291  152.1464 H   0  0  0  0  0  0  0  0  0  0  0  0
  147.1706  137.7839  152.7230 H   0  0  0  0  0  0  0  0  0  0  0  0
  146.8805  139.1745  151.7122 H   0  0  0  0  0  0  0  0  0  0  0  0
  146.1593  140.4999  153.7034 H   0  0  0  0  0  0  0  0  0  0  0  0
  146.3741  139.1029  154.7478 H   0  0  0  0  0  0  0  0  0  0  0  0
  148.2354  141.9243  153.5246 H   0  0  0  0  0  0  0  0  0  0  0  0
  147.5833  141.5297  155.1105 H   0  0  0  0  0  0  0  0  0  0  0  0
  150.1881  142.2986  154.6537 H   0  0  0  0  0  0  0  0  0  0  0  0
  149.6396  142.3065  156.9744 H   0  0  0  0  0  0  0  0  0  0  0  0
  149.0114  140.6573  156.9202 H   0  0  0  0  0  0  0  0  0  0  0  0
  151.9114  141.5057  156.6656 H   0  0  0  0  0  0  0  0  0  0  0  0
  151.2434  140.2861  157.7605 H   0  0  0  0  0  0  0  0  0  0  0  0
  152.2868  139.4715  155.3958 H   0  0  0  0  0  0  0  0  0  0  0  0
  150.7345  138.8002  155.9062 H   0  0  0  0  0  0  0  0  0  0  0  0
  1  2  1  0  0  0  0
  1 19  1  0  0  0  0
  1 20  1  0  0  0  0
  1 21  1  0  0  0  0
  2 18  1  0  0  0  0
  2  3  2  0  0  0  0
  3  4  1  0  0  0  0
  3 22  1  0  0  0  0
  4  5  2  0  0  0  0
  5  6  1  0  0  0  0
  5  7  1  0  0  0  0
  6 23  1  0  0  0  0
  6 24  1  0  0  0  0
  6 25  1  0  0  0  0
  7  8  1  0  0  0  0
  7 18  2  0  0  0  0
  8  9  1  0  0  0  0
  8 26  1  0  0  0  0
  9 10  1  0  0  0  0
  9 27  1  0  0  0  0
  9 28  1  0  0  0  0
 10 11  1  0  0  0  0
 10 29  1  0  0  0  0
 10 30  1  0  0  0  0
 11 12  1  0  0  0  0
 12 13  1  0  0  0  0
 12 31  1  0  0  0  0
 12 32  1  0  0  0  0
 13 17  1  0  0  0  0
 13 14  1  0  0  0  0
 13 33  1  0  0  0  0
 14 15  1  0  0  0  0
 14 34  1  0  0  0  0
 14 35  1  0  0  0  0
 15 16  1  0  0  0  0
 15 36  1  0  0  0  0
 15 37  1  0  0  0  0
 16 17  1  0  0  0  0
 16 38  1  0  0  0  0
 16 39  1  0  0  0  0
M  END
> <s_m_source_file>
AV-unprocessed.smi

> <i_m_source_file_index>
3276

> <i_lp_mmshare_version>
43012

> <i_f3d_flags>
0

> <s_epik_input>
W0NIM11jMVtjSF1uYyhbQ0gzXSljKG4xKVtOSF1bQ0gyXVtDSDJdT1tDSDJdW0NAQEhdMltDSDJdW0NIMl1bQ0gyXU8y

> <s_epik_cmdline>
J2VwaWtfcHl0aG9uJywgJy1waCcsICc3LjAnLCAnLXRuJywgJzgnLCAnLW1hJywgJzIwMCcsICctbWV0YWxfYmluZGluZycsICctaW1hZScsICc8aW5maWxlLm1hZT4nLCAnLW9tYWUnLCAnPG91dGZpbGUubWFlPic=

> <r_lp_tautomer_probability>
1

> <r_epik_Ionization_Penalty>
0.000506

> <r_epik_Ionization_Penalty_Charging>
0

> <r_epik_Ionization_Penalty_Neutral>
0.000506

> <r_epik_State_Penalty>
-0

> <r_epik_Charging_Adjusted_Penalty>
0

> <i_epik_Tot_Q>
0

> <i_epik_Tot_abs_Q>
0

> <r_epik_Metal_State_Penalty>
-0

> <b_epik_Metal_Only>
0

> <s_lp_Force_Field>
OPLS_2005

> <r_lp_Energy>
26.2022

> <b_lp_Chiralities_Consistent>
1

> <s_lp_Variant>
AV-unprocessed.smi:3276-2

> <Gold.Version>
5.8.1

> <Gold.Id.Protein>
6NUR|6NUR_protein|mol2

> <Gold.PLP.Fitness>
36.2839

> <Gold.PLP.PLP>
-32.2299

> <Gold.PLP.part.hbond>
-2.9211

> <Gold.PLP.part.metal>
0.0000

> <Gold.PLP.part.buried>
-4.7718

> <Gold.PLP.part.nonpolar>
-25.7355

> <Gold.PLP.part.repulsive>
0.6289

> <Gold.PLP.ligand.clash>
0.0000

> <Gold.PLP.ligand.torsion>
1.0595

> <Gold.PLP.Chemscore.Hbond>
2.0000

> <Gold.PLP.Chemscore.CHOScore>
0.0000

> <Gold.PLP.Chemscore.Metal>
0.0000

> <Gold.Chemscore.Hbonds>
donor molecule, donor type, donor heavy atom, donor atom, acceptor molecule, acceptor atom, score
      L1  H     8    26       P1 10175  0.98
      P1  H  7989  7998       L1    17  1.00

> <Gold.PLP.Chemscore.Internal.Correction>
0.1730

> <Gold.Rescore>
     Score         DG    S(hbond)    S(metal)    S(lipo)     H(rot)  DE(clash)    DE(int)     intcor
     14.04     -15.03       1.87        0.00      65.11       1.68       0.07       0.92       ----

> <Gold.Chemscore.Fitness>
14.0394

> <Gold.Chemscore.DG>
-15.0334

> <Gold.Chemscore.ZeroCoef>
-5.4800

> <Gold.Chemscore.Hbond>
1.8687

> <Gold.Chemscore.Metal>
0.0000

> <Gold.Chemscore.Lipo>
65.1101

> <Gold.Chemscore.Internal_Hbond>
0.0000

> <Gold.Chemscore.DEClash>
0.0739

> <Gold.Chemscore.DEInternal>
0.9201

> <Gold.Chemscore.Rot>
1.6820

> <Gold.Chemscore.Internal.Correction>
   9.000000E+99

> <Gold.Chemscore.Hbonds>
donor molecule, donor type, donor heavy atom, donor atom, acceptor molecule, acceptor atom, score
      L1  H     8    26       P1 10175  0.93
      P1  H  7989  7998       L1    17  0.56

> <Gold.Chemscore.Hbond.Weighted>
-6.2413

> <Gold.Chemscore.Metal.Weighted>
-0.0000

> <Gold.Chemscore.Lipo.Weighted>
-7.6179

> <Gold.Chemscore.Internal_Hbond.Weighted>
0.0000

> <Gold.Chemscore.DEClash.Weighted>
0.0739

> <Gold.Chemscore.DEInternal.Weighted>
0.9201

> <Gold.Chemscore.Rot.Weighted>
4.3058

> <Gold.Chemscore.Internal.Correction.Weighted>
   9.000000E+99

> <Gold.Protein.RotatedTorsions>
[ 6907 6896 6895 6894 ] final  -16.45 input  -60.11 | X-H torsion
[ 7974 7965 7964 7962 ] final  145.24 input  175.53 | X-H torsion
[ 8008 7997 7996 7995 ] final -150.01 input   59.86 | X-H torsion
[ 10167 10162 10161 10158 ] final  167.01 input  -65.29 | X-H torsion
[ 10718 10713 10712 10709 ] final   62.91 input   66.30 | X-H torsion
[ 10763 10752 10751 10750 ] final   92.39 input  -60.55 | X-H torsion
[ 11005 11000 10999 10996 ] final  136.86 input  -57.11 | X-H torsion

> <Gold.Protein.ActiveResidues>
 VAL166  LYS551  ARG553  GLY616  TRP617  ASP618  TYR619  PRO620  LYS621  CYS622 
 ASP623  PHE694  ASN695  SER759  ASP760  ASP761  ALA762  ILE779  LEU786  VAL792 
 PHE793  MET794  SER795  GLU796  ALA797  LYS798  CYS799  TRP800  GLU811  SER814 

> <Gold.Protein.RotatedAtoms>
  151.3085  135.0788  159.9263 H   0  0  0  0  0  0  0  0  0  0  0  0  # atno 6907 bound_to 6896
  152.5283  133.9761  159.7795 H   0  0  0  0  0  0  0  0  0  0  0  0  # atno 6908 bound_to 6896
  151.0060  133.5959  159.2719 H   0  0  0  0  0  0  0  0  0  0  0  0  # atno 6909 bound_to 6896
  144.8768  139.5760  143.5861 H   0  0  0  0  0  0  0  0  0  0  0  0  # atno 7974 bound_to 7965
  155.6167  140.0677  157.2690 H   0  0  0  0  0  0  0  0  0  0  0  0  # atno 8008 bound_to 7997
  154.4239  140.1791  156.1377 H   0  0  0  0  0  0  0  0  0  0  0  0  # atno 8009 bound_to 7997
  156.0041  140.3333  155.6878 H   0  0  0  0  0  0  0  0  0  0  0  0  # atno 8010 bound_to 7997
  139.4936  144.3967  151.9456 H   0  0  0  0  0  0  0  0  0  0  0  0  # atno 10167 bound_to 10162
  157.5934  130.9076  149.9649 H   0  0  0  0  0  0  0  0  0  0  0  0  # atno 10718 bound_to 10713
  153.2187  135.4363  155.0464 H   0  0  0  0  0  0  0  0  0  0  0  0  # atno 10763 bound_to 10752
  154.8238  135.3351  154.6960 H   0  0  0  0  0  0  0  0  0  0  0  0  # atno 10764 bound_to 10752
  153.7393  135.7006  153.5026 H   0  0  0  0  0  0  0  0  0  0  0  0  # atno 10765 bound_to 10752
  140.0075  134.9453  157.0206 H   0  0  0  0  0  0  0  0  0  0  0  0  # atno 11005 bound_to 11000
  146.2968  139.7303  142.9120 LP  0  0  0  0  0  0  0  0  0  0  0  0  # atno 17320 bound_to 7965
  145.4027  141.0387  143.3061 LP  0  0  0  0  0  0  0  0  0  0  0  0  # atno 17321 bound_to 7965
  140.3405  144.3208  150.5968 LP  0  0  0  0  0  0  0  0  0  0  0  0  # atno 17342 bound_to 10162
  140.5569  143.2197  151.7831 LP  0  0  0  0  0  0  0  0  0  0  0  0  # atno 17343 bound_to 10162
  156.0993  130.3657  150.0248 LP  0  0  0  0  0  0  0  0  0  0  0  0  # atno 17370 bound_to 10713
  156.8366  130.9411  151.3634 LP  0  0  0  0  0  0  0  0  0  0  0  0  # atno 17371 bound_to 10713
  140.4615  134.1479  155.7192 LP  0  0  0  0  0  0  0  0  0  0  0  0  # atno 17394 bound_to 11000
  141.1687  133.8652  157.1637 LP  0  0  0  0  0  0  0  0  0  0  0  0  # atno 17395 bound_to 11000

$$$$
