AV-unprocessed.smi:2776|AV-procd|sdf|10706|dock1
  -GOLD-   2272015143D 1   1.00000     0.00000
 Structure written by MMmdl.
 26 27  0  0  0  0  0  0  0  0  2 V2000
  150.7469  140.0521  154.4597 O   0  0  0  0  0  0  0  0  0  0  0  0
  151.0954  139.3566  155.6417 C   0  0  2  0  0  0  0  0  0  0  0  0
  152.1218  140.1756  156.4517 C   0  0  0  0  0  0  0  0  0  0  0  0
  151.5491  141.4036  157.0226 N   0  0  0  0  0  0  0  0  0  0  0  0
  150.6210  142.2518  156.5022 C   0  0  0  0  0  0  0  0  0  0  0  0
  150.4177  143.2469  157.4094 N   0  3  0  0  0  0  0  0  0  0  0  0
  151.2288  143.0327  158.5260 C   0  0  0  0  0  0  0  0  0  0  0  0
  151.3766  143.7664  159.6987 C   0  0  0  0  0  0  0  0  0  0  0  0
  152.2983  143.2726  160.6452 C   0  0  0  0  0  0  0  0  0  0  0  0
  152.4814  143.9488  161.8039 F   0  0  0  0  0  0  0  0  0  0  0  0
  153.0321  142.0910  160.4075 C   0  0  0  0  0  0  0  0  0  0  0  0
  153.9089  141.6526  161.3415 F   0  0  0  0  0  0  0  0  0  0  0  0
  152.8723  141.3550  159.2149 C   0  0  0  0  0  0  0  0  0  0  0  0
  151.9588  141.8498  158.2849 C   0  0  0  0  0  0  0  0  0  0  0  0
  151.6097  137.9531  155.2676 C   0  0  0  0  0  0  0  0  0  0  0  0
  152.6537  138.0547  154.4446 F   0  0  0  0  0  0  0  0  0  0  0  0
  151.9632  137.2686  156.3560 F   0  0  0  0  0  0  0  0  0  0  0  0
  150.6482  137.2820  154.6339 F   0  0  0  0  0  0  0  0  0  0  0  0
  149.8080  140.0116  154.3559 H   0  0  0  0  0  0  0  0  0  0  0  0
  150.1857  139.2480  156.2339 H   0  0  0  0  0  0  0  0  0  0  0  0
  152.4965  139.5812  157.2856 H   0  0  0  0  0  0  0  0  0  0  0  0
  152.9918  140.4322  155.8471 H   0  0  0  0  0  0  0  0  0  0  0  0
  150.1341  142.1536  155.5425 H   0  0  0  0  0  0  0  0  0  0  0  0
  150.8183  144.6721  159.8841 H   0  0  0  0  0  0  0  0  0  0  0  0
  153.4439  140.4553  159.0422 H   0  0  0  0  0  0  0  0  0  0  0  0
  149.7728  144.0150  157.2730 H   0  0  0  0  0  0  0  0  0  0  0  0
  1  2  1  0  0  0  0
  1 19  1  0  0  0  0
  2  3  1  0  0  0  0
  2 15  1  0  0  0  0
  2 20  1  0  0  0  0
  3  4  1  0  0  0  0
  3 21  1  0  0  0  0
  3 22  1  0  0  0  0
  4 14  1  0  0  0  0
  4  5  1  0  0  0  0
  5  6  2  0  0  0  0
  5 23  1  0  0  0  0
  6  7  1  0  0  0  0
  6 26  1  0  0  0  0
  7 14  2  0  0  0  0
  7  8  1  0  0  0  0
  8  9  2  0  0  0  0
  8 24  1  0  0  0  0
  9 10  1  0  0  0  0
  9 11  1  0  0  0  0
 11 12  1  0  0  0  0
 11 13  2  0  0  0  0
 13 14  1  0  0  0  0
 13 25  1  0  0  0  0
 15 16  1  0  0  0  0
 15 17  1  0  0  0  0
 15 18  1  0  0  0  0
M  CHG  1   6   1
M  END
> <s_m_source_file>
AV-unprocessed.smi

> <i_m_source_file_index>
2776

> <i_lp_mmshare_version>
43012

> <i_f3d_flags>
0

> <s_epik_input>
RkMoRikoRilbQ0BIXShbT0hdKVtDSDJdbihbY0hdbjEpYyhjMTIpW2NIXWMoRiljKEYpW2NIXTI=

> <s_epik_cmdline>
J2VwaWtfcHl0aG9uJywgJy1waCcsICc3LjAnLCAnLXRuJywgJzgnLCAnLW1hJywgJzIwMCcsICctbWV0YWxfYmluZGluZycsICctaW1hZScsICc8aW5maWxlLm1hZT4nLCAnLW9tYWUnLCAnPG91dGZpbGUubWFlPic=

> <r_epik_Ionization_Penalty>
2.38424

> <r_epik_Ionization_Penalty_Charging>
2.37244

> <r_epik_Ionization_Penalty_Neutral>
0.0117937

> <r_epik_State_Penalty>
2.52832

> <r_epik_Charging_Adjusted_Penalty>
4.90076

> <i_epik_Tot_Q>
1

> <i_epik_Tot_abs_Q>
1

> <r_epik_Metal_State_Penalty>
6.61271

> <b_epik_Metal_Only>
0

> <s_lp_Force_Field>
OPLS_2005

> <r_lp_Energy>
13.8942

> <b_lp_Chiralities_Consistent>
1

> <s_lp_Variant>
AV-unprocessed.smi:2776-3

> <Gold.Version>
5.8.1

> <Gold.Id.Protein>
6NUR|6NUR_protein|mol2

> <Gold.PLP.Fitness>
47.1842

> <Gold.PLP.PLP>
-40.7302

> <Gold.PLP.part.hbond>
-2.0000

> <Gold.PLP.part.metal>
0.0000

> <Gold.PLP.part.buried>
-2.8926

> <Gold.PLP.part.nonpolar>
-34.9400

> <Gold.PLP.part.repulsive>
0.0065

> <Gold.PLP.ligand.clash>
0.0000

> <Gold.PLP.ligand.torsion>
0.3967

> <Gold.PLP.Chemscore.Hbond>
2.3440

> <Gold.PLP.Chemscore.CHOScore>
0.0567

> <Gold.PLP.Chemscore.Metal>
0.0000

> <Gold.Chemscore.Hbonds>
donor molecule, donor type, donor heavy atom, donor atom, acceptor molecule, acceptor atom, score
      L1  H     6    26       P1  8028  1.34
      P1  H  7989  7998       L1     1  1.00
      L1  C     5    23       P1  8028  0.06

> <Gold.PLP.Chemscore.Internal.Correction>
0.0454

> <Gold.Rescore>
     Score         DG    S(hbond)    S(metal)    S(lipo)     H(rot)  DE(clash)    DE(int)     intcor
     13.59     -15.69       1.94        0.00      78.18       2.12       0.62       1.48       ----

> <Gold.Chemscore.Fitness>
13.5859

> <Gold.Chemscore.DG>
-15.6876

> <Gold.Chemscore.ZeroCoef>
-5.4800

> <Gold.Chemscore.Hbond>
1.9402

> <Gold.Chemscore.Metal>
0.0000

> <Gold.Chemscore.Lipo>
78.1835

> <Gold.Chemscore.Internal_Hbond>
0.0000

> <Gold.Chemscore.DEClash>
0.6171

> <Gold.Chemscore.DEInternal>
1.4846

> <Gold.Chemscore.Rot>
2.1173

> <Gold.Chemscore.Internal.Correction>
   9.000000E+99

> <Gold.Chemscore.Hbonds>
donor molecule, donor type, donor heavy atom, donor atom, acceptor molecule, acceptor atom, score
      L1  H     6    26       P1  8028  0.43
      P1  H  7989  7998       L1     1  0.93

> <Gold.Chemscore.Hbond.Weighted>
-6.4803

> <Gold.Chemscore.Metal.Weighted>
-0.0000

> <Gold.Chemscore.Lipo.Weighted>
-9.1475

> <Gold.Chemscore.Internal_Hbond.Weighted>
0.0000

> <Gold.Chemscore.DEClash.Weighted>
0.6171

> <Gold.Chemscore.DEInternal.Weighted>
1.4846

> <Gold.Chemscore.Rot.Weighted>
5.4202

> <Gold.Chemscore.Internal.Correction.Weighted>
   9.000000E+99

> <Gold.Protein.RotatedTorsions>
[ 6907 6896 6895 6894 ] final   86.03 input  -60.11 | X-H torsion
[ 7974 7965 7964 7962 ] final  -20.69 input  175.53 | X-H torsion
[ 8008 7997 7996 7995 ] final   66.84 input   59.86 | X-H torsion
[ 10167 10162 10161 10158 ] final   98.45 input  -65.29 | X-H torsion
[ 10718 10713 10712 10709 ] final   86.75 input   66.30 | X-H torsion
[ 10763 10752 10751 10750 ] final  -57.27 input  -60.55 | X-H torsion
[ 11005 11000 10999 10996 ] final -123.80 input  -57.11 | X-H torsion

> <Gold.Protein.ActiveResidues>
 VAL166  LYS551  ARG553  GLY616  TRP617  ASP618  TYR619  PRO620  LYS621  CYS622 
 ASP623  PHE694  ASN695  SER759  ASP760  ASP761  ALA762  ILE779  LEU786  VAL792 
 PHE793  MET794  SER795  GLU796  ALA797  LYS798  CYS799  TRP800  GLU811  SER814 

> <Gold.Protein.RotatedAtoms>
  152.5386  134.2495  159.8892 H   0  0  0  0  0  0  0  0  0  0  0  0  # atno 6907 bound_to 6896
  151.2459  133.4369  159.2617 H   0  0  0  0  0  0  0  0  0  0  0  0  # atno 6908 bound_to 6896
  151.0584  134.9734  159.8304 H   0  0  0  0  0  0  0  0  0  0  0  0  # atno 6909 bound_to 6896
  146.1774  140.4237  142.8508 H   0  0  0  0  0  0  0  0  0  0  0  0  # atno 7974 bound_to 7965
  155.6836  140.3496  155.4865 H   0  0  0  0  0  0  0  0  0  0  0  0  # atno 8008 bound_to 7997
  155.9586  140.1133  157.0938 H   0  0  0  0  0  0  0  0  0  0  0  0  # atno 8009 bound_to 7997
  154.4138  140.1180  156.5134 H   0  0  0  0  0  0  0  0  0  0  0  0  # atno 8010 bound_to 7997
  139.7707  144.6923  151.0159 H   0  0  0  0  0  0  0  0  0  0  0  0  # atno 10167 bound_to 10162
  157.6932  131.0228  150.3020 H   0  0  0  0  0  0  0  0  0  0  0  0  # atno 10718 bound_to 10713
  154.2197  135.6380  153.5141 H   0  0  0  0  0  0  0  0  0  0  0  0  # atno 10763 bound_to 10752
  152.9971  135.5494  154.6127 H   0  0  0  0  0  0  0  0  0  0  0  0  # atno 10764 bound_to 10752
  154.5584  135.2907  155.0916 H   0  0  0  0  0  0  0  0  0  0  0  0  # atno 10765 bound_to 10752
  140.9891  134.0565  157.3676 H   0  0  0  0  0  0  0  0  0  0  0  0  # atno 11005 bound_to 11000
  144.8259  140.6627  143.6323 LP  0  0  0  0  0  0  0  0  0  0  0  0  # atno 17320 bound_to 7965
  145.4173  139.1570  143.4093 LP  0  0  0  0  0  0  0  0  0  0  0  0  # atno 17321 bound_to 7965
  140.7814  143.4591  151.0303 LP  0  0  0  0  0  0  0  0  0  0  0  0  # atno 17342 bound_to 10162
  139.8275  143.7736  152.3179 LP  0  0  0  0  0  0  0  0  0  0  0  0  # atno 17343 bound_to 10162
  156.3534  130.3835  149.7310 LP  0  0  0  0  0  0  0  0  0  0  0  0  # atno 17370 bound_to 10713
  156.4780  130.8027  151.3043 LP  0  0  0  0  0  0  0  0  0  0  0  0  # atno 17371 bound_to 10713
  139.8984  135.0154  156.7146 LP  0  0  0  0  0  0  0  0  0  0  0  0  # atno 17394 bound_to 11000
  140.7068  133.9258  155.8059 LP  0  0  0  0  0  0  0  0  0  0  0  0  # atno 17395 bound_to 11000

$$$$
