AV-unprocessed.smi:9|AV-procd|sdf|49|dock2
  -GOLD-   2262015163D 1   1.00000     0.00000
 Structure written by MMmdl.
 34 36  0  0  0  0  0  0  0  0  2 V2000
  148.2503  136.7910  161.5163 O   0  0  0  0  0  0  0  0  0  0  0  0
  148.4480  136.2238  160.4435 C   0  0  0  0  0  0  0  0  0  0  0  0
  147.9944  134.9736  160.1143 N   0  5  0  0  0  0  0  0  0  0  0  0
  148.2737  134.4172  158.8610 C   0  0  0  0  0  0  0  0  0  0  0  0
  147.7105  133.0220  158.6115 C   0  0  0  0  0  0  0  0  0  0  0  0
  148.0617  132.5555  157.4107 F   0  0  0  0  0  0  0  0  0  0  0  0
  148.1594  132.1650  159.5297 F   0  0  0  0  0  0  0  0  0  0  0  0
  146.3784  133.0401  158.6704 F   0  0  0  0  0  0  0  0  0  0  0  0
  148.9569  134.9887  157.9217 N   0  0  0  0  0  0  0  0  0  0  0  0
  149.4273  136.2486  158.2207 C   0  0  0  0  0  0  0  0  0  0  0  0
  149.2392  136.9206  159.3952 C   0  0  0  0  0  0  0  0  0  0  0  0
  149.8554  138.1666  159.3669 N   0  0  0  0  0  0  0  0  0  0  0  0
  150.3956  138.1832  158.1482 C   0  0  0  0  0  0  0  0  0  0  0  0
  150.1772  137.0822  157.4009 N   0  0  0  0  0  0  0  0  0  0  0  0
  150.6444  136.8268  156.0459 C   0  0  0  0  0  0  0  0  0  0  0  0
  150.3293  137.9610  155.0365 C   0  0  1  0  0  0  0  0  0  0  0  0
  150.7992  137.5416  153.7688 O   0  0  0  0  0  0  0  0  0  0  0  0
  148.8153  138.2555  154.9465 C   0  0  0  0  0  0  0  0  0  0  0  0
  148.5311  139.5403  154.1623 C   0  0  0  0  0  0  0  0  0  0  0  0
  149.3675  140.6963  154.7218 C   0  0  0  0  0  0  0  0  0  0  0  0
  150.7450  140.3613  154.6290 O   0  0  0  0  0  0  0  0  0  0  0  0
  151.1199  139.2351  155.4187 C   0  0  0  0  0  0  0  0  0  0  0  0
  150.9645  139.0261  157.7844 H   0  0  0  0  0  0  0  0  0  0  0  0
  151.7221  136.6649  156.0938 H   0  0  0  0  0  0  0  0  0  0  0  0
  150.2143  135.8835  155.7061 H   0  0  0  0  0  0  0  0  0  0  0  0
  150.0531  137.3354  153.2266 H   0  0  0  0  0  0  0  0  0  0  0  0
  148.2797  137.4207  154.4929 H   0  0  0  0  0  0  0  0  0  0  0  0
  148.4123  138.3684  155.9539 H   0  0  0  0  0  0  0  0  0  0  0  0
  148.7667  139.3936  153.1076 H   0  0  0  0  0  0  0  0  0  0  0  0
  147.4695  139.7831  154.2143 H   0  0  0  0  0  0  0  0  0  0  0  0
  149.1865  141.6034  154.1450 H   0  0  0  0  0  0  0  0  0  0  0  0
  149.0984  140.9145  155.7564 H   0  0  0  0  0  0  0  0  0  0  0  0
  150.9501  139.4819  156.4679 H   0  0  0  0  0  0  0  0  0  0  0  0
  152.1930  139.0702  155.3124 H   0  0  0  0  0  0  0  0  0  0  0  0
  1  2  2  0  0  0  0
  2 11  1  0  0  0  0
  2  3  1  0  0  0  0
  3  4  1  0  0  0  0
  4  5  1  0  0  0  0
  4  9  2  0  0  0  0
  5  6  1  0  0  0  0
  5  7  1  0  0  0  0
  5  8  1  0  0  0  0
  9 10  1  0  0  0  0
 10 14  1  0  0  0  0
 10 11  2  0  0  0  0
 11 12  1  0  0  0  0
 12 13  2  0  0  0  0
 13 14  1  0  0  0  0
 13 23  1  0  0  0  0
 14 15  1  0  0  0  0
 15 16  1  0  0  0  0
 15 24  1  0  0  0  0
 15 25  1  0  0  0  0
 16 22  1  0  0  0  0
 16 17  1  0  0  0  0
 16 18  1  0  0  0  0
 17 26  1  0  0  0  0
 18 19  1  0  0  0  0
 18 27  1  0  0  0  0
 18 28  1  0  0  0  0
 19 20  1  0  0  0  0
 19 29  1  0  0  0  0
 19 30  1  0  0  0  0
 20 21  1  0  0  0  0
 20 31  1  0  0  0  0
 20 32  1  0  0  0  0
 21 22  1  0  0  0  0
 22 33  1  0  0  0  0
 22 34  1  0  0  0  0
M  CHG  1   3  -1
M  END
> <s_m_source_file>
AV-unprocessed.smi

> <i_m_source_file_index>
9

> <i_lp_mmshare_version>
43012

> <i_f3d_flags>
0

> <s_epik_input>
RkMoRikoRiljKG4xKVtuSF1jKD1PKWMoYzEyKW5bY0hdbjJbQ0gyXVtDQEBdMyhbT0hdKVtDSDJdW0NIMl1bQ0gyXU9bQ0gyXTM=

> <s_epik_cmdline>
J2VwaWtfcHl0aG9uJywgJy1waCcsICc3LjAnLCAnLXRuJywgJzgnLCAnLW1hJywgJzIwMCcsICctbWV0YWxfYmluZGluZycsICctaW1hZScsICc8aW5maWxlLm1hZT4nLCAnLW9tYWUnLCAnPG91dGZpbGUubWFlPic=

> <r_lp_tautomer_probability>
1

> <r_epik_Ionization_Penalty>
0.188582

> <r_epik_Ionization_Penalty_Charging>
1.37005e-11

> <r_epik_Ionization_Penalty_Neutral>
0.188582

> <r_epik_State_Penalty>
0.012336

> <r_epik_Charging_Adjusted_Penalty>
0.012336

> <i_epik_Tot_Q>
-1

> <i_epik_Tot_abs_Q>
1

> <r_epik_Metal_State_Penalty>
0.0089237

> <b_epik_Metal_Only>
0

> <s_lp_Force_Field>
OPLS_2005

> <r_lp_Energy>
37.6166

> <b_lp_Chiralities_Consistent>
1

> <s_lp_Variant>
AV-unprocessed.smi:9-1

> <Gold.Version>
5.8.1

> <Gold.Id.Protein>
6NUR|6NUR_protein|mol2

> <Gold.PLP.Fitness>
34.1141

> <Gold.PLP.PLP>
-25.4702

> <Gold.PLP.part.hbond>
-5.1017

> <Gold.PLP.part.metal>
0.0000

> <Gold.PLP.part.buried>
-3.9537

> <Gold.PLP.part.nonpolar>
-17.2451

> <Gold.PLP.part.repulsive>
0.0912

> <Gold.PLP.ligand.clash>
0.0000

> <Gold.PLP.ligand.torsion>
0.1061

> <Gold.PLP.Chemscore.Hbond>
2.9500

> <Gold.PLP.Chemscore.CHOScore>
0.0000

> <Gold.PLP.Chemscore.Metal>
0.0000

> <Gold.Chemscore.Hbonds>
donor molecule, donor type, donor heavy atom, donor atom, acceptor molecule, acceptor atom, score
      L1  H    17    26       P1  7948  0.95
      P1  H  6931  6943       L1     1  1.00
      P1  H  7989  7998       L1    21  0.98

> <Gold.PLP.Chemscore.Internal.Correction>
0.0061

> <Gold.Rescore>
     Score         DG    S(hbond)    S(metal)    S(lipo)     H(rot)  DE(clash)    DE(int)     intcor
     12.53     -12.61       2.50        0.00      35.95       2.12       0.02       0.06       ----

> <Gold.Chemscore.Fitness>
12.5255

> <Gold.Chemscore.DG>
-12.6105

> <Gold.Chemscore.ZeroCoef>
-5.4800

> <Gold.Chemscore.Hbond>
2.5033

> <Gold.Chemscore.Metal>
0.0000

> <Gold.Chemscore.Lipo>
35.9547

> <Gold.Chemscore.Internal_Hbond>
0.0000

> <Gold.Chemscore.DEClash>
0.0208

> <Gold.Chemscore.DEInternal>
0.0642

> <Gold.Chemscore.Rot>
2.1239

> <Gold.Chemscore.Internal.Correction>
   9.000000E+99

> <Gold.Chemscore.Hbonds>
donor molecule, donor type, donor heavy atom, donor atom, acceptor molecule, acceptor atom, score
      L1  H    17    26       P1  7948  0.20
      P1  H  6931  6943       L1     1  0.98
      P1  H  7989  7998       L1    21  0.90

> <Gold.Chemscore.Hbond.Weighted>
-8.3611

> <Gold.Chemscore.Metal.Weighted>
-0.0000

> <Gold.Chemscore.Lipo.Weighted>
-4.2067

> <Gold.Chemscore.Internal_Hbond.Weighted>
0.0000

> <Gold.Chemscore.DEClash.Weighted>
0.0208

> <Gold.Chemscore.DEInternal.Weighted>
0.0642

> <Gold.Chemscore.Rot.Weighted>
5.4373

> <Gold.Chemscore.Internal.Correction.Weighted>
   9.000000E+99

> <Gold.Protein.RotatedTorsions>
[ 6907 6896 6895 6894 ] final  -54.20 input  -60.11 | X-H torsion
[ 7974 7965 7964 7962 ] final  -80.08 input  175.53 | X-H torsion
[ 8008 7997 7996 7995 ] final   89.77 input   59.86 | X-H torsion
[ 10167 10162 10161 10158 ] final  103.54 input  -65.29 | X-H torsion
[ 10718 10713 10712 10709 ] final  -96.45 input   66.30 | X-H torsion
[ 10763 10752 10751 10750 ] final   43.33 input  -60.55 | X-H torsion
[ 11005 11000 10999 10996 ] final  -26.75 input  -57.11 | X-H torsion

> <Gold.Protein.ActiveResidues>
 VAL166  LYS551  ARG553  GLY616  TRP617  ASP618  TYR619  PRO620  LYS621  CYS622 
 ASP623  PHE694  ASN695  SER759  ASP760  ASP761  ALA762  ILE779  LEU786  VAL792 
 PHE793  MET794  SER795  GLU796  ALA797  LYS798  CYS799  TRP800  GLU811  SER814 

> <Gold.Protein.RotatedAtoms>
  150.8359  134.7632  159.6892 H   0  0  0  0  0  0  0  0  0  0  0  0  # atno 6907 bound_to 6896
  152.4456  134.5498  159.9873 H   0  0  0  0  0  0  0  0  0  0  0  0  # atno 6908 bound_to 6896
  151.5649  133.3360  159.3014 H   0  0  0  0  0  0  0  0  0  0  0  0  # atno 6909 bound_to 6896
  145.5646  140.9476  143.1428 H   0  0  0  0  0  0  0  0  0  0  0  0  # atno 7974 bound_to 7965
  156.0039  140.3357  155.6873 H   0  0  0  0  0  0  0  0  0  0  0  0  # atno 8008 bound_to 7997
  155.6252  140.0679  157.2684 H   0  0  0  0  0  0  0  0  0  0  0  0  # atno 8009 bound_to 7997
  154.4258  140.1769  156.1401 H   0  0  0  0  0  0  0  0  0  0  0  0  # atno 8010 bound_to 7997
  139.7254  144.7048  151.0805 H   0  0  0  0  0  0  0  0  0  0  0  0  # atno 10167 bound_to 10162
  156.0062  130.5152  150.6228 H   0  0  0  0  0  0  0  0  0  0  0  0  # atno 10718 bound_to 10713
  152.9863  135.6104  154.3094 H   0  0  0  0  0  0  0  0  0  0  0  0  # atno 10763 bound_to 10752
  154.2810  135.2777  155.2699 H   0  0  0  0  0  0  0  0  0  0  0  0  # atno 10764 bound_to 10752
  154.5037  135.5860  153.6607 H   0  0  0  0  0  0  0  0  0  0  0  0  # atno 10765 bound_to 10752
  140.9058  133.7494  156.0604 H   0  0  0  0  0  0  0  0  0  0  0  0  # atno 11005 bound_to 11000
  144.7466  139.7303  143.7289 LP  0  0  0  0  0  0  0  0  0  0  0  0  # atno 17320 bound_to 7965
  146.1827  139.5027  142.9856 LP  0  0  0  0  0  0  0  0  0  0  0  0  # atno 17321 bound_to 7965
  140.7762  143.5111  150.9651 LP  0  0  0  0  0  0  0  0  0  0  0  0  # atno 17342 bound_to 10162
  139.8799  143.7086  152.3158 LP  0  0  0  0  0  0  0  0  0  0  0  0  # atno 17343 bound_to 10162
  157.4040  131.0814  151.1282 LP  0  0  0  0  0  0  0  0  0  0  0  0  # atno 17370 bound_to 10713
  157.1934  130.6362  149.5712 LP  0  0  0  0  0  0  0  0  0  0  0  0  # atno 17371 bound_to 10713
  140.8173  134.3330  157.5393 LP  0  0  0  0  0  0  0  0  0  0  0  0  # atno 17394 bound_to 11000
  139.8749  134.9289  156.3462 LP  0  0  0  0  0  0  0  0  0  0  0  0  # atno 17395 bound_to 11000

$$$$
