AV-unprocessed.smi:2635|AV-procd|sdf|10255|dock3
  -GOLD-   2272014263D 1   1.00000     0.00000
 Structure written by MMmdl.
 32 33  0  0  0  0  0  0  0  0  1 V2000
  146.2031  142.5482  154.5383 C   0  0  0  0  0  0  0  0  0  0  0  0
  147.4823  141.7282  154.5257 C   0  0  0  0  0  0  0  0  0  0  0  0
  148.4816  141.9260  155.4235 C   0  0  0  0  0  0  0  0  0  0  0  0
  149.6588  141.1961  155.4290 N   0  0  0  0  0  0  0  0  0  0  0  0
  150.6938  141.3829  156.4300 C   0  0  0  0  0  0  0  0  0  0  0  0
  150.3677  142.4816  157.2179 O   0  0  0  0  0  0  0  0  0  0  0  0
  151.4382  143.3991  157.3685 C   0  0  0  0  0  0  0  0  0  0  0  0
  151.7623  143.6260  158.8305 C   0  0  0  0  0  0  0  0  0  0  0  0
  152.3382  142.5918  159.5976 C   0  0  0  0  0  0  0  0  0  0  0  0
  152.6430  142.8052  160.9562 C   0  0  0  0  0  0  0  0  0  0  0  0
  152.3744  144.0532  161.5512 C   0  0  0  0  0  0  0  0  0  0  0  0
  151.8022  145.0886  160.7869 C   0  0  0  0  0  0  0  0  0  0  0  0
  151.4976  144.8760  159.4280 C   0  0  0  0  0  0  0  0  0  0  0  0
  149.8529  140.1687  154.4825 C   0  0  0  0  0  0  0  0  0  0  0  0
  150.8648  139.4683  154.4466 O   0  0  0  0  0  0  0  0  0  0  0  0
  148.8281  139.9684  153.5587 N   0  0  0  0  0  0  0  0  0  0  0  0
  147.6310  140.6881  153.5025 C   0  0  0  0  0  0  0  0  0  0  0  0
  146.8015  140.4192  152.6353 O   0  0  0  0  0  0  0  0  0  0  0  0
  148.9600  139.2378  152.8745 H   0  0  0  0  0  0  0  0  0  0  0  0
  146.1891  143.2617  155.3625 H   0  0  0  0  0  0  0  0  0  0  0  0
  145.3330  141.8993  154.6437 H   0  0  0  0  0  0  0  0  0  0  0  0
  146.1024  143.1093  153.6087 H   0  0  0  0  0  0  0  0  0  0  0  0
  148.3559  142.6935  156.1739 H   0  0  0  0  0  0  0  0  0  0  0  0
  150.7823  140.4719  157.0271 H   0  0  0  0  0  0  0  0  0  0  0  0
  151.6474  141.5543  155.9271 H   0  0  0  0  0  0  0  0  0  0  0  0
  152.3278  143.0240  156.8597 H   0  0  0  0  0  0  0  0  0  0  0  0
  151.1830  144.3536  156.9053 H   0  0  0  0  0  0  0  0  0  0  0  0
  152.5488  141.6332  159.1460 H   0  0  0  0  0  0  0  0  0  0  0  0
  153.0838  142.0119  161.5416 H   0  0  0  0  0  0  0  0  0  0  0  0
  152.6087  144.2168  162.5927 H   0  0  0  0  0  0  0  0  0  0  0  0
  151.5977  146.0462  161.2423 H   0  0  0  0  0  0  0  0  0  0  0  0
  151.0619  145.6745  158.8454 H   0  0  0  0  0  0  0  0  0  0  0  0
  1  2  1  0  0  0  0
  1 20  1  0  0  0  0
  1 21  1  0  0  0  0
  1 22  1  0  0  0  0
  2 17  1  0  0  0  0
  2  3  2  0  0  0  0
  3  4  1  0  0  0  0
  3 23  1  0  0  0  0
  4  5  1  0  0  0  0
  4 14  1  0  0  0  0
  5  6  1  0  0  0  0
  5 24  1  0  0  0  0
  5 25  1  0  0  0  0
  6  7  1  0  0  0  0
  7  8  1  0  0  0  0
  7 26  1  0  0  0  0
  7 27  1  0  0  0  0
  8 13  1  0  0  0  0
  8  9  2  0  0  0  0
  9 10  1  0  0  0  0
  9 28  1  0  0  0  0
 10 11  2  0  0  0  0
 10 29  1  0  0  0  0
 11 12  1  0  0  0  0
 11 30  1  0  0  0  0
 12 13  2  0  0  0  0
 12 31  1  0  0  0  0
 13 32  1  0  0  0  0
 14 15  2  0  0  0  0
 14 16  1  0  0  0  0
 16 19  1  0  0  0  0
 16 17  1  0  0  0  0
 17 18  2  0  0  0  0
M  END
> <s_m_source_file>
AV-unprocessed.smi

> <i_m_source_file_index>
2635

> <i_lp_mmshare_version>
43012

> <i_f3d_flags>
0

> <s_epik_input>
Tz1jMVtuSF1jKD1PKW4oW2NIXWMxW0NIM10pW0NIMl1PW0NIMl1jMltjSF1bY0hdW2NIXVtjSF1bY0hdMg==

> <s_epik_cmdline>
J2VwaWtfcHl0aG9uJywgJy1waCcsICc3LjAnLCAnLXRuJywgJzgnLCAnLW1hJywgJzIwMCcsICctbWV0YWxfYmluZGluZycsICctaW1hZScsICc8aW5maWxlLm1hZT4nLCAnLW9tYWUnLCAnPG91dGZpbGUubWFlPic=

> <r_lp_tautomer_probability>
0.999537

> <r_epik_Ionization_Penalty>
0.00186109

> <r_epik_Ionization_Penalty_Charging>
0.00186109

> <r_epik_Ionization_Penalty_Neutral>
6.96075e-13

> <r_epik_State_Penalty>
0.00126512

> <r_epik_Charging_Adjusted_Penalty>
0.00312622

> <i_epik_Tot_Q>
0

> <i_epik_Tot_abs_Q>
0

> <r_epik_Metal_State_Penalty>
0.842611

> <b_epik_Metal_Only>
0

> <s_epik_Chemistry_Notes>
This compound contains an acetal/aminal-like group ( X-CH(R)-Y where X, Y are N, S, or O) that may be acid/base labile, releasing an aldehyde.

> <s_lp_Force_Field>
OPLS_2005

> <r_lp_Energy>
3.09653

> <b_lp_Chiralities_Consistent>
1

> <s_lp_Variant>
AV-unprocessed.smi:2635-1

> <Gold.Version>
5.8.1

> <Gold.Id.Protein>
6NUR|6NUR_protein|mol2

> <Gold.PLP.Fitness>
45.4681

> <Gold.PLP.PLP>
-43.1788

> <Gold.PLP.part.hbond>
-1.8530

> <Gold.PLP.part.metal>
0.0000

> <Gold.PLP.part.buried>
-1.0482

> <Gold.PLP.part.nonpolar>
-40.7131

> <Gold.PLP.part.repulsive>
0.6856

> <Gold.PLP.ligand.clash>
0.0000

> <Gold.PLP.ligand.torsion>
0.8222

> <Gold.PLP.Chemscore.Hbond>
0.5400

> <Gold.PLP.Chemscore.CHOScore>
0.7627

> <Gold.PLP.Chemscore.Metal>
0.0000

> <Gold.Chemscore.Hbonds>
donor molecule, donor type, donor heavy atom, donor atom, acceptor molecule, acceptor atom, score
      L1  H    16    19       P1  7957  0.21
      P1  H  7989  7998       L1    15  0.30
      L1  C     3    23       P1  8028  0.77

> <Gold.PLP.Chemscore.Internal.Correction>
0.0255

> <Gold.Rescore>
     Score         DG    S(hbond)    S(metal)    S(lipo)     H(rot)  DE(clash)    DE(int)     intcor
     13.40     -14.27       0.98        0.00      89.72       1.94       0.02       0.85       ----

> <Gold.Chemscore.Fitness>
13.3952

> <Gold.Chemscore.DG>
-14.2704

> <Gold.Chemscore.ZeroCoef>
-5.4800

> <Gold.Chemscore.Hbond>
0.9776

> <Gold.Chemscore.Metal>
0.0000

> <Gold.Chemscore.Lipo>
89.7154

> <Gold.Chemscore.Internal_Hbond>
0.0000

> <Gold.Chemscore.DEClash>
0.0217

> <Gold.Chemscore.DEInternal>
0.8536

> <Gold.Chemscore.Rot>
1.9420

> <Gold.Chemscore.Internal.Correction>
   9.000000E+99

> <Gold.Chemscore.Hbonds>
donor molecule, donor type, donor heavy atom, donor atom, acceptor molecule, acceptor atom, score
      L1  H    16    19       P1  7957  0.20

> <Gold.Chemscore.Hbond.Weighted>
-3.2652

> <Gold.Chemscore.Metal.Weighted>
-0.0000

> <Gold.Chemscore.Lipo.Weighted>
-10.4967

> <Gold.Chemscore.Internal_Hbond.Weighted>
0.0000

> <Gold.Chemscore.DEClash.Weighted>
0.0217

> <Gold.Chemscore.DEInternal.Weighted>
0.8536

> <Gold.Chemscore.Rot.Weighted>
4.9716

> <Gold.Chemscore.Internal.Correction.Weighted>
   9.000000E+99

> <Gold.Protein.RotatedTorsions>
[ 6907 6896 6895 6894 ] final   51.95 input  -60.11 | X-H torsion
[ 7974 7965 7964 7962 ] final   95.51 input  175.53 | X-H torsion
[ 8008 7997 7996 7995 ] final  -43.94 input   59.86 | X-H torsion
[ 10167 10162 10161 10158 ] final -139.48 input  -65.29 | X-H torsion
[ 10718 10713 10712 10709 ] final   -4.84 input   66.30 | X-H torsion
[ 10763 10752 10751 10750 ] final  135.95 input  -60.55 | X-H torsion
[ 11005 11000 10999 10996 ] final   89.02 input  -57.11 | X-H torsion

> <Gold.Protein.ActiveResidues>
 VAL166  LYS551  ARG553  GLY616  TRP617  ASP618  TYR619  PRO620  LYS621  CYS622 
 ASP623  PHE694  ASN695  SER759  ASP760  ASP761  ALA762  ILE779  LEU786  VAL792 
 PHE793  MET794  SER795  GLU796  ALA797  LYS798  CYS799  TRP800  GLU811  SER814 

> <Gold.Protein.RotatedAtoms>
  152.3182  134.7414  160.0320 H   0  0  0  0  0  0  0  0  0  0  0  0  # atno 6907 bound_to 6896
  151.7871  133.3350  159.3496 H   0  0  0  0  0  0  0  0  0  0  0  0  # atno 6908 bound_to 6896
  150.7355  134.5807  159.5982 H   0  0  0  0  0  0  0  0  0  0  0  0  # atno 6909 bound_to 6896
  145.4512  139.2293  143.3038 H   0  0  0  0  0  0  0  0  0  0  0  0  # atno 7974 bound_to 7965
  154.3997  140.1435  156.3601 H   0  0  0  0  0  0  0  0  0  0  0  0  # atno 8008 bound_to 7997
  155.8189  140.3470  155.5481 H   0  0  0  0  0  0  0  0  0  0  0  0  # atno 8009 bound_to 7997
  155.8309  140.0912  157.1784 H   0  0  0  0  0  0  0  0  0  0  0  0  # atno 8010 bound_to 7997
  139.8375  143.7365  152.2664 H   0  0  0  0  0  0  0  0  0  0  0  0  # atno 10167 bound_to 10162
  156.7553  130.5252  149.5796 H   0  0  0  0  0  0  0  0  0  0  0  0  # atno 10718 bound_to 10713
  153.8485  135.3082  155.3431 H   0  0  0  0  0  0  0  0  0  0  0  0  # atno 10763 bound_to 10752
  154.7901  135.4787  154.0037 H   0  0  0  0  0  0  0  0  0  0  0  0  # atno 10764 bound_to 10752
  153.1532  135.6847  153.8943 H   0  0  0  0  0  0  0  0  0  0  0  0  # atno 10765 bound_to 10752
  139.8884  134.8525  156.3082 H   0  0  0  0  0  0  0  0  0  0  0  0  # atno 11005 bound_to 11000
  146.2503  140.5271  142.8896 LP  0  0  0  0  0  0  0  0  0  0  0  0  # atno 17320 bound_to 7965
  144.8060  140.6300  143.6446 LP  0  0  0  0  0  0  0  0  0  0  0  0  # atno 17321 bound_to 7965
  139.7592  144.7511  151.0389 LP  0  0  0  0  0  0  0  0  0  0  0  0  # atno 17342 bound_to 10162
  140.7801  143.4770  151.0069 LP  0  0  0  0  0  0  0  0  0  0  0  0  # atno 17343 bound_to 10162
  156.1374  130.6221  151.0420 LP  0  0  0  0  0  0  0  0  0  0  0  0  # atno 17370 bound_to 10713
  157.6759  131.0850  150.7496 LP  0  0  0  0  0  0  0  0  0  0  0  0  # atno 17371 bound_to 10713
  140.9868  133.7233  156.0753 LP  0  0  0  0  0  0  0  0  0  0  0  0  # atno 17394 bound_to 11000
  140.7678  134.3867  157.5513 LP  0  0  0  0  0  0  0  0  0  0  0  0  # atno 17395 bound_to 11000

$$$$
