#       Name:                AV-unprocessed.smi:3083
#       Creating user name   scv26
#       Creation time:       Fri Mar 27 17:13:59 2020


#       File generated by GOLD software.
#

@<TRIPOS>MOLECULE
AV-unprocessed.smi:3083
    29    30     1
SMALL
NO_CHARGES


@<TRIPOS>ATOM
      1 ****        -1.9089  -1.3309  -0.6781 N.4            1 S1                 1.0000
      2 ****        -0.4406  -1.3152  -0.5396 C.3            1 S1                 0.0000
      3 ****         0.2335  -0.7719  -1.8191 C.3            1 S1                 0.0000
      4 ****         1.7626  -0.7150  -1.6736 C.3            1 S1                 0.0000
      5 ****         2.1830   0.0738  -0.4242 C.3            1 S1                 0.0000
      6 ****         1.5502  -0.5254   0.8429 C.3            1 S1                 0.0000
      7 ****         0.0100  -0.5930   0.7632 C.3            1 S1                 0.0000
      8 ****        -0.5942   0.7208   0.9972 N.pl3          1 S1                 0.0000
      9 ****        -0.9601   1.2616   2.2140 C.2            1 S1                 0.0000
     10 ****        -1.4435   2.5173   1.9835 C.2            1 S1                 0.0000
     11 ****        -1.3162   2.6728   0.5763 C.2            1 S1                 0.0000
     12 ****        -0.8034   1.6023  -0.0071 N.2            1 S1                 0.0000
     13 ****        -2.2440  -0.3813  -0.7630 H              1 S1                 0.0000
     14 ****        -2.3218  -1.7612   0.1369 H              1 S1                 0.0000
     15 ****        -0.1406  -2.3598  -0.4450 H              1 S1                 0.0000
     16 ****        -0.0222  -1.4080  -2.6673 H              1 S1                 0.0000
     17 ****        -0.1428   0.2184  -2.0721 H              1 S1                 0.0000
     18 ****         2.1608  -1.7288  -1.6130 H              1 S1                 0.0000
     19 ****         2.2032  -0.2646  -2.5635 H              1 S1                 0.0000
     20 ****         3.2695   0.0652  -0.3319 H              1 S1                 0.0000
     21 ****         1.8953   1.1202  -0.5304 H              1 S1                 0.0000
     22 ****         1.9435  -1.5327   0.9872 H              1 S1                 0.0000
     23 ****         1.8592   0.0451   1.7197 H              1 S1                 0.0000
     24 ****        -0.3216  -1.2153   1.5961 H              1 S1                 0.0000
     25 ****        -0.8469   0.7127   3.1373 H              1 S1                 0.0000
     26 ****        -1.8215   3.2208   2.7107 H              1 S1                 0.0000
     27 ****        -1.5755   3.5257  -0.0335 H              1 S1                 0.0000
     28 ****        -2.1657  -1.8537  -1.5031 H              1 S1                 0.0000
     29 ****        -0.6119   1.4728  -0.9800 LP             1 S1                 0.0000
@<TRIPOS>BOND
    1    1    2 1     
    2    1   13 1     
    3    1   14 1     
    4    1   28 1     
    5    2    7 1     
    6    2    3 1     
    7    2   15 1     
    8    3    4 1     
    9    3   16 1     
   10    3   17 1     
   11    4    5 1     
   12    4   18 1     
   13    4   19 1     
   14    5    6 1     
   15    5   20 1     
   16    5   21 1     
   17    6    7 1     
   18    6   22 1     
   19    6   23 1     
   20    7    8 1     
   21    7   24 1     
   22    8   12 1     
   23    8    9 1     
   24    9   10 2     
   25    9   25 1     
   26   10   11 1     
   27   10   26 1     
   28   11   12 2     
   29   11   27 1     
   30   12   29 1     
@<TRIPOS>SUBSTRUCTURE
      1 S1             1
@<TRIPOS>SET
LONE_PAIRS      STATIC     ATOMS    <user>   **** ""
1 29
DONOR_HYDROGENS      STATIC     ATOMS    <user>   **** ""
3 13 14 28
ATOM$BLUE        STATIC     ATOMS    COLORGROUP SYSTEM
1 29
ATOM$RED        STATIC     ATOMS    COLORGROUP SYSTEM
3 13 14 28
