AV-unprocessed.smi:3056|AV-procd|sdf|11648|dock1
  -GOLD-   2272017 43D 1   1.00000     0.00000
 Structure written by MMmdl.
 48 49  0  0  0  0  0  0  0  0  2 V2000
  144.3923  132.4718  149.4665 C   0  0  0  0  0  0  0  0  0  0  0  0
  144.8715  132.7938  150.8526 C   0  0  0  0  0  0  0  0  0  0  0  0
  144.1228  133.3429  151.9307 C   0  0  0  0  0  0  0  0  0  0  0  0
  144.8455  133.4996  153.0269 N   0  0  0  0  0  0  0  0  0  0  0  0
  146.0828  133.0676  152.6920 N   0  0  0  0  0  0  0  0  0  0  0  0
  147.1722  133.0611  153.6655 C   0  0  1  0  0  0  0  0  0  0  0  0
  148.5063  132.5582  153.0686 C   0  0  0  0  0  0  0  0  0  0  0  0
  147.2880  134.4167  154.4172 C   0  0  1  0  0  0  0  0  0  0  0  0
  146.9800  134.2743  155.9165 C   0  0  0  0  0  0  0  0  0  0  0  0
  148.6132  135.0597  154.2487 N   0  3  0  0  0  0  0  0  0  0  0  0
  148.9563  136.0949  155.2473 C   0  0  0  0  0  0  0  0  0  0  0  0
  150.4255  136.5161  155.1388 C   0  0  0  0  0  0  0  0  0  0  0  0
  151.2796  135.6996  155.4829 O   0  0  0  0  0  0  0  0  0  0  0  0
  150.7435  137.7525  154.6849 N   0  0  0  0  0  0  0  0  0  0  0  0
  152.1112  138.2763  154.6779 C   0  0  0  0  0  0  0  0  0  0  0  0
  152.1742  139.4557  155.6657 C   0  0  0  0  0  0  0  0  0  0  0  0
  151.2144  140.4455  155.2989 O   0  0  0  0  0  0  0  0  0  0  0  0
  149.8743  139.9562  155.2569 C   0  0  1  0  0  0  0  0  0  0  0  0
  148.9529  141.1157  154.8632 C   0  0  0  0  0  0  0  0  0  0  0  0
  149.8029  138.7894  154.2532 C   0  0  0  0  0  0  0  0  0  0  0  0
  146.1195  132.6309  151.3833 C   0  0  0  0  0  0  0  0  0  0  0  0
  143.3987  132.8781  149.2758 H   0  0  0  0  0  0  0  0  0  0  0  0
  144.3369  131.3959  149.3006 H   0  0  0  0  0  0  0  0  0  0  0  0
  145.0566  132.8819  148.7055 H   0  0  0  0  0  0  0  0  0  0  0  0
  143.0808  133.6263  151.9507 H   0  0  0  0  0  0  0  0  0  0  0  0
  146.8783  132.3173  154.4078 H   0  0  0  0  0  0  0  0  0  0  0  0
  149.2635  132.4189  153.8394 H   0  0  0  0  0  0  0  0  0  0  0  0
  148.9116  133.2497  152.3292 H   0  0  0  0  0  0  0  0  0  0  0  0
  148.3735  131.5927  152.5793 H   0  0  0  0  0  0  0  0  0  0  0  0
  146.5273  135.0928  154.0234 H   0  0  0  0  0  0  0  0  0  0  0  0
  146.0009  133.8215  156.0768 H   0  0  0  0  0  0  0  0  0  0  0  0
  146.9706  135.2488  156.4058 H   0  0  0  0  0  0  0  0  0  0  0  0
  147.7202  133.6605  156.4299 H   0  0  0  0  0  0  0  0  0  0  0  0
  149.3106  134.3344  154.3376 H   0  0  0  0  0  0  0  0  0  0  0  0
  148.3128  136.9683  155.1629 H   0  0  0  0  0  0  0  0  0  0  0  0
  148.7883  135.6900  156.2464 H   0  0  0  0  0  0  0  0  0  0  0  0
  152.8565  137.5279  154.9503 H   0  0  0  0  0  0  0  0  0  0  0  0
  152.3702  138.6108  153.6723 H   0  0  0  0  0  0  0  0  0  0  0  0
  151.9867  139.1176  156.6861 H   0  0  0  0  0  0  0  0  0  0  0  0
  153.1670  139.9056  155.6554 H   0  0  0  0  0  0  0  0  0  0  0  0
  149.5903  139.6051  156.2507 H   0  0  0  0  0  0  0  0  0  0  0  0
  147.9122  140.7954  154.8202 H   0  0  0  0  0  0  0  0  0  0  0  0
  149.2196  141.5169  153.8852 H   0  0  0  0  0  0  0  0  0  0  0  0
  149.0200  141.9290  155.5863 H   0  0  0  0  0  0  0  0  0  0  0  0
  150.0837  139.1336  153.2566 H   0  0  0  0  0  0  0  0  0  0  0  0
  148.7797  138.4358  154.1598 H   0  0  0  0  0  0  0  0  0  0  0  0
  147.0244  132.2413  150.9404 H   0  0  0  0  0  0  0  0  0  0  0  0
  148.6774  135.4495  153.3191 H   0  0  0  0  0  0  0  0  0  0  0  0
  1  2  1  0  0  0  0
  1 22  1  0  0  0  0
  1 23  1  0  0  0  0
  1 24  1  0  0  0  0
  2 21  2  0  0  0  0
  2  3  1  0  0  0  0
  3  4  2  0  0  0  0
  3 25  1  0  0  0  0
  4  5  1  0  0  0  0
  5  6  1  0  0  0  0
  5 21  1  0  0  0  0
  6  7  1  0  0  0  0
  6  8  1  0  0  0  0
  6 26  1  0  0  0  0
  7 27  1  0  0  0  0
  7 28  1  0  0  0  0
  7 29  1  0  0  0  0
  8  9  1  0  0  0  0
  8 10  1  0  0  0  0
  8 30  1  0  0  0  0
  9 31  1  0  0  0  0
  9 32  1  0  0  0  0
  9 33  1  0  0  0  0
 10 11  1  0  0  0  0
 10 34  1  0  0  0  0
 10 48  1  0  0  0  0
 11 12  1  0  0  0  0
 11 35  1  0  0  0  0
 11 36  1  0  0  0  0
 12 13  2  0  0  0  0
 12 14  1  0  0  0  0
 14 20  1  0  0  0  0
 14 15  1  0  0  0  0
 15 16  1  0  0  0  0
 15 37  1  0  0  0  0
 15 38  1  0  0  0  0
 16 17  1  0  0  0  0
 16 39  1  0  0  0  0
 16 40  1  0  0  0  0
 17 18  1  0  0  0  0
 18 19  1  0  0  0  0
 18 20  1  0  0  0  0
 18 41  1  0  0  0  0
 19 42  1  0  0  0  0
 19 43  1  0  0  0  0
 19 44  1  0  0  0  0
 20 45  1  0  0  0  0
 20 46  1  0  0  0  0
 21 47  1  0  0  0  0
M  CHG  1  10   1
M  END
> <s_m_source_file>
AV-unprocessed.smi

> <i_m_source_file_index>
3056

> <i_lp_mmshare_version>
43012

> <i_f3d_flags>
0

> <s_epik_input>
W0NIM11jMVtjSF1ubihbY0hdMSlbQ0BIXShbQ0gzXSlbQ0BIXShbQ0gzXSlbTkhdW0NIMl1DKD1PKU4yW0NIMl1bQ0gyXU9bQ0BASF0oW0NIM10pW0NIMl0y

> <s_epik_cmdline>
J2VwaWtfcHl0aG9uJywgJy1waCcsICc3LjAnLCAnLXRuJywgJzgnLCAnLW1hJywgJzIwMCcsICctbWV0YWxfYmluZGluZycsICctaW1hZScsICc8aW5maWxlLm1hZT4nLCAnLW9tYWUnLCAnPG91dGZpbGUubWFlPic=

> <r_lp_tautomer_probability>
1

> <r_epik_Ionization_Penalty>
0.233715

> <r_epik_Ionization_Penalty_Charging>
0.233698

> <r_epik_Ionization_Penalty_Neutral>
1.68157e-05

> <r_epik_State_Penalty>
0.225221

> <r_epik_Charging_Adjusted_Penalty>
0.458919

> <i_epik_Tot_Q>
1

> <i_epik_Tot_abs_Q>
1

> <r_epik_Metal_State_Penalty>
0.225535

> <b_epik_Metal_Only>
0

> <s_lp_Force_Field>
OPLS_2005

> <r_lp_Energy>
30.0079

> <b_lp_Chiralities_Consistent>
1

> <s_lp_Variant>
AV-unprocessed.smi:3056-4

> <Gold.Version>
5.8.1

> <Gold.Id.Protein>
6NUR|6NUR_protein|mol2

> <Gold.PLP.Fitness>
50.9732

> <Gold.PLP.PLP>
-39.7503

> <Gold.PLP.part.hbond>
-3.0000

> <Gold.PLP.part.metal>
0.0000

> <Gold.PLP.part.buried>
-4.6846

> <Gold.PLP.part.nonpolar>
-32.6676

> <Gold.PLP.part.repulsive>
0.2112

> <Gold.PLP.ligand.clash>
0.0000

> <Gold.PLP.ligand.torsion>
1.9528

> <Gold.PLP.Chemscore.Hbond>
3.9440

> <Gold.PLP.Chemscore.CHOScore>
1.0000

> <Gold.PLP.Chemscore.Metal>
0.0000

> <Gold.Chemscore.Hbonds>
donor molecule, donor type, donor heavy atom, donor atom, acceptor molecule, acceptor atom, score
      L1  H    10    48       P1  7948  2.00
      P1  H  7989  7998       L1    17  0.96
      P1  H 10752 10764       L1    13  1.00
      L1  C    21    47       P1 10747  1.00

> <Gold.PLP.Chemscore.Internal.Correction>
0.2965

> <Gold.Rescore>
     Score         DG    S(hbond)    S(metal)    S(lipo)     H(rot)  DE(clash)    DE(int)     intcor
     16.07     -18.00       2.18        0.00      82.81       1.74       0.00       1.93       ----

> <Gold.Chemscore.Fitness>
16.0653

> <Gold.Chemscore.DG>
-17.9983

> <Gold.Chemscore.ZeroCoef>
-5.4800

> <Gold.Chemscore.Hbond>
2.1774

> <Gold.Chemscore.Metal>
0.0000

> <Gold.Chemscore.Lipo>
82.8071

> <Gold.Chemscore.Internal_Hbond>
0.0000

> <Gold.Chemscore.DEClash>
0.0036

> <Gold.Chemscore.DEInternal>
1.9294

> <Gold.Chemscore.Rot>
1.7354

> <Gold.Chemscore.Internal.Correction>
   9.000000E+99

> <Gold.Chemscore.Hbonds>
donor molecule, donor type, donor heavy atom, donor atom, acceptor molecule, acceptor atom, score
      L1  H    10    48       P1  7948  0.92
      P1  H  7989  7998       L1    17  0.25
      P1  H 10752 10764       L1    13  0.99

> <Gold.Chemscore.Hbond.Weighted>
-7.2725

> <Gold.Chemscore.Metal.Weighted>
-0.0000

> <Gold.Chemscore.Lipo.Weighted>
-9.6884

> <Gold.Chemscore.Internal_Hbond.Weighted>
0.0000

> <Gold.Chemscore.DEClash.Weighted>
0.0036

> <Gold.Chemscore.DEInternal.Weighted>
1.9294

> <Gold.Chemscore.Rot.Weighted>
4.4426

> <Gold.Chemscore.Internal.Correction.Weighted>
   9.000000E+99

> <Gold.Protein.RotatedTorsions>
[ 6907 6896 6895 6894 ] final -131.25 input  -60.11 | X-H torsion
[ 7974 7965 7964 7962 ] final -132.84 input  175.53 | X-H torsion
[ 8008 7997 7996 7995 ] final  -78.68 input   59.86 | X-H torsion
[ 10167 10162 10161 10158 ] final -108.62 input  -65.29 | X-H torsion
[ 10718 10713 10712 10709 ] final  160.87 input   66.30 | X-H torsion
[ 10763 10752 10751 10750 ] final  -54.18 input  -60.55 | X-H torsion
[ 11005 11000 10999 10996 ] final   35.82 input  -57.11 | X-H torsion

> <Gold.Protein.ActiveResidues>
 VAL166  LYS551  ARG553  GLY616  TRP617  ASP618  TYR619  PRO620  LYS621  CYS622 
 ASP623  PHE694  ASN695  SER759  ASP760  ASP761  ALA762  ILE779  LEU786  VAL792 
 PHE793  MET794  SER795  GLU796  ALA797  LYS798  CYS799  TRP800  GLU811  SER814 

> <Gold.Protein.RotatedAtoms>
  150.9488  133.6572  159.2775 H   0  0  0  0  0  0  0  0  0  0  0  0  # atno 6907 bound_to 6896
  151.3935  135.0958  159.9543 H   0  0  0  0  0  0  0  0  0  0  0  0  # atno 6908 bound_to 6896
  152.5101  133.8998  159.7490 H   0  0  0  0  0  0  0  0  0  0  0  0  # atno 6909 bound_to 6896
  144.9248  140.7058  143.4943 H   0  0  0  0  0  0  0  0  0  0  0  0  # atno 7974 bound_to 7965
  154.5712  140.0690  156.8967 H   0  0  0  0  0  0  0  0  0  0  0  0  # atno 8008 bound_to 7997
  155.2631  140.3360  155.4253 H   0  0  0  0  0  0  0  0  0  0  0  0  # atno 8009 bound_to 7997
  156.2120  140.1763  156.7660 H   0  0  0  0  0  0  0  0  0  0  0  0  # atno 8010 bound_to 7997
  140.1642  143.4095  152.1403 H   0  0  0  0  0  0  0  0  0  0  0  0  # atno 10167 bound_to 10162
  157.1444  131.0548  151.2311 H   0  0  0  0  0  0  0  0  0  0  0  0  # atno 10718 bound_to 10713
  154.1707  135.6459  153.5009 H   0  0  0  0  0  0  0  0  0  0  0  0  # atno 10763 bound_to 10752
  153.0085  135.5382  154.6616 H   0  0  0  0  0  0  0  0  0  0  0  0  # atno 10764 bound_to 10752
  154.5954  135.2938  155.0564 H   0  0  0  0  0  0  0  0  0  0  0  0  # atno 10765 bound_to 10752
  140.2388  134.3439  155.7934 H   0  0  0  0  0  0  0  0  0  0  0  0  # atno 11005 bound_to 11000
  145.3237  139.1780  143.4574 LP  0  0  0  0  0  0  0  0  0  0  0  0  # atno 17320 bound_to 7965
  146.3221  140.3258  142.8636 LP  0  0  0  0  0  0  0  0  0  0  0  0  # atno 17321 bound_to 7965
  139.5367  144.7217  151.4869 LP  0  0  0  0  0  0  0  0  0  0  0  0  # atno 17342 bound_to 10162
  140.6624  143.8471  150.6903 LP  0  0  0  0  0  0  0  0  0  0  0  0  # atno 17343 bound_to 10162
  157.4278  130.7473  149.6965 LP  0  0  0  0  0  0  0  0  0  0  0  0  # atno 17370 bound_to 10713
  155.9782  130.4054  150.3662 LP  0  0  0  0  0  0  0  0  0  0  0  0  # atno 17371 bound_to 10713
  141.2212  133.7287  156.8852 LP  0  0  0  0  0  0  0  0  0  0  0  0  # atno 17394 bound_to 11000
  140.1674  134.9123  157.2791 LP  0  0  0  0  0  0  0  0  0  0  0  0  # atno 17395 bound_to 11000

$$$$
