AV-unprocessed.smi:182|AV-procd|sdf|1455|dock4
  -GOLD-   2262019253D 1   1.00000     0.00000
 Structure written by MMmdl.
 56 59  0  0  0  0  0  0  0  0  1 V2000
  149.2430  127.9326  151.3293 N   0  0  0  0  0  0  0  0  0  0  0  0
  148.3596  128.6760  151.9995 C   0  0  0  0  0  0  0  0  0  0  0  0
  148.7039  129.4664  152.8764 O   0  0  0  0  0  0  0  0  0  0  0  0
  146.8844  128.4926  151.6296 C   0  0  0  0  0  0  0  0  0  0  0  0
  145.9216  129.2172  152.5920 C   0  0  0  0  0  0  0  0  0  0  0  0
  145.5943  130.6649  152.1750 C   0  0  2  0  0  0  0  0  0  0  0  0
  145.7451  130.8449  150.6515 C   0  0  0  0  0  0  0  0  0  0  0  0
  145.4470  132.2942  150.2408 C   0  0  0  0  0  0  0  0  0  0  0  0
  146.3308  133.2769  151.0224 C   0  0  0  0  0  0  0  0  0  0  0  0
  146.1934  133.0637  152.4622 N   0  0  0  0  0  0  0  0  0  0  0  0
  146.6464  134.0870  153.2317 C   0  0  0  0  0  0  0  0  0  0  0  0
  147.5370  133.8425  154.2308 N   0  0  0  0  0  0  0  0  0  0  0  0
  147.9938  134.8420  154.9902 C   0  0  0  0  0  0  0  0  0  0  0  0
  147.7004  136.1415  154.9230 N   0  0  0  0  0  0  0  0  0  0  0  0
  146.8062  136.3959  153.9254 C   0  0  0  0  0  0  0  0  0  0  0  0
  146.2280  135.4357  153.0468 C   0  0  0  0  0  0  0  0  0  0  0  0
  145.3356  136.0633  152.1852 N   0  0  0  0  0  0  0  0  0  0  0  0
  145.3902  137.3211  152.5286 C   0  0  0  0  0  0  0  0  0  0  0  0
  146.2720  137.6145  153.5440 N   0  0  0  0  0  0  0  0  0  0  0  0
  146.5001  138.8991  154.1378 C   0  0  0  0  0  0  0  0  0  0  0  0
  147.0800  140.0567  153.3214 C   0  0  0  0  0  0  0  0  0  0  0  0
  147.7952  140.5823  154.5871 C   0  0  0  0  0  0  0  0  0  0  0  0
  149.2359  141.0775  154.3778 C   0  0  0  0  0  0  0  0  0  0  0  0
  150.0445  140.0715  153.8026 O   0  0  0  0  0  0  0  0  0  0  0  0
  147.0110  141.6328  155.3987 C   0  0  0  0  0  0  0  0  0  0  0  0
  147.7605  142.0961  156.5037 O   0  0  0  0  0  0  0  0  0  0  0  0
  147.6687  139.1305  155.0984 C   0  0  0  0  0  0  0  0  0  0  0  0
  146.4707  131.6987  152.9157 C   0  0  0  0  0  0  0  0  0  0  0  0
  150.2271  128.0161  151.5393 H   0  0  0  0  0  0  0  0  0  0  0  0
  148.9270  127.2888  150.6184 H   0  0  0  0  0  0  0  0  0  0  0  0
  146.7263  128.8580  150.6139 H   0  0  0  0  0  0  0  0  0  0  0  0
  146.6756  127.4230  151.6158 H   0  0  0  0  0  0  0  0  0  0  0  0
  144.9937  128.6507  152.6861 H   0  0  0  0  0  0  0  0  0  0  0  0
  146.3689  129.2316  153.5873 H   0  0  0  0  0  0  0  0  0  0  0  0
  144.5512  130.8613  152.4283 H   0  0  0  0  0  0  0  0  0  0  0  0
  146.7584  130.5802  150.3457 H   0  0  0  0  0  0  0  0  0  0  0  0
  145.0734  130.1683  150.1220 H   0  0  0  0  0  0  0  0  0  0  0  0
  145.6070  132.4209  149.1700 H   0  0  0  0  0  0  0  0  0  0  0  0
  144.3964  132.5206  150.4271 H   0  0  0  0  0  0  0  0  0  0  0  0
  147.3766  133.1345  150.7470 H   0  0  0  0  0  0  0  0  0  0  0  0
  146.0711  134.2960  150.7391 H   0  0  0  0  0  0  0  0  0  0  0  0
  148.6969  134.5605  155.7602 H   0  0  0  0  0  0  0  0  0  0  0  0
  144.7873  138.0744  152.0422 H   0  0  0  0  0  0  0  0  0  0  0  0
  145.5557  139.1884  154.6019 H   0  0  0  0  0  0  0  0  0  0  0  0
  147.7748  139.7163  152.5512 H   0  0  0  0  0  0  0  0  0  0  0  0
  146.3306  140.7264  152.8987 H   0  0  0  0  0  0  0  0  0  0  0  0
  149.2557  141.9395  153.7103 H   0  0  0  0  0  0  0  0  0  0  0  0
  149.6892  141.4059  155.3132 H   0  0  0  0  0  0  0  0  0  0  0  0
  149.6841  139.8422  152.9597 H   0  0  0  0  0  0  0  0  0  0  0  0
  146.7571  142.4970  154.7845 H   0  0  0  0  0  0  0  0  0  0  0  0
  146.0638  141.2322  155.7607 H   0  0  0  0  0  0  0  0  0  0  0  0
  148.0516  142.9764  156.3210 H   0  0  0  0  0  0  0  0  0  0  0  0
  147.4108  139.0375  156.1539 H   0  0  0  0  0  0  0  0  0  0  0  0
  148.5370  138.5153  154.8540 H   0  0  0  0  0  0  0  0  0  0  0  0
  146.2852  131.6340  153.9883 H   0  0  0  0  0  0  0  0  0  0  0  0
  147.5271  131.4767  152.7565 H   0  0  0  0  0  0  0  0  0  0  0  0
  1  2  1  0  0  0  0
  1 29  1  0  0  0  0
  1 30  1  0  0  0  0
  2  3  2  0  0  0  0
  2  4  1  0  0  0  0
  4  5  1  0  0  0  0
  4 31  1  0  0  0  0
  4 32  1  0  0  0  0
  5  6  1  0  0  0  0
  5 33  1  0  0  0  0
  5 34  1  0  0  0  0
  6 28  1  0  0  0  0
  6  7  1  0  0  0  0
  6 35  1  0  0  0  0
  7  8  1  0  0  0  0
  7 36  1  0  0  0  0
  7 37  1  0  0  0  0
  8  9  1  0  0  0  0
  8 38  1  0  0  0  0
  8 39  1  0  0  0  0
  9 10  1  0  0  0  0
  9 40  1  0  0  0  0
  9 41  1  0  0  0  0
 10 11  1  0  0  0  0
 10 28  1  0  0  0  0
 11 16  1  0  0  0  0
 11 12  2  0  0  0  0
 12 13  1  0  0  0  0
 13 14  2  0  0  0  0
 13 42  1  0  0  0  0
 14 15  1  0  0  0  0
 15 19  1  0  0  0  0
 15 16  2  0  0  0  0
 16 17  1  0  0  0  0
 17 18  2  0  0  0  0
 18 19  1  0  0  0  0
 18 43  1  0  0  0  0
 19 20  1  0  0  0  0
 20 27  1  0  0  0  0
 20 21  1  0  0  0  0
 20 44  1  0  0  0  0
 21 22  1  0  0  0  0
 21 45  1  0  0  0  0
 21 46  1  0  0  0  0
 22 23  1  0  0  0  0
 22 25  1  0  0  0  0
 22 27  1  0  0  0  0
 23 24  1  0  0  0  0
 23 47  1  0  0  0  0
 23 48  1  0  0  0  0
 24 49  1  0  0  0  0
 25 26  1  0  0  0  0
 25 50  1  0  0  0  0
 25 51  1  0  0  0  0
 26 52  1  0  0  0  0
 27 53  1  0  0  0  0
 27 54  1  0  0  0  0
 28 55  1  0  0  0  0
 28 56  1  0  0  0  0
M  END
> <s_m_source_file>
AV-unprocessed.smi

> <i_m_source_file_index>
182

> <i_lp_mmshare_version>
43012

> <i_f3d_flags>
0

> <s_epik_input>
W05IMl1DKD1PKVtDSDJdW0NIMl1bQ0BASF0xW0NIMl1bQ0gyXVtDSDJdTihbQ0gyXTEpYyhuW2NIXW4yKWMoYzIzKW5bY0hdbjNbQ0hdKFtDSDJdNClbQ0gyXUM0KFtDSDJdW09IXSlbQ0gyXVtPSF0=

> <s_epik_cmdline>
J2VwaWtfcHl0aG9uJywgJy1waCcsICc3LjAnLCAnLXRuJywgJzgnLCAnLW1hJywgJzIwMCcsICctbWV0YWxfYmluZGluZycsICctaW1hZScsICc8aW5maWxlLm1hZT4nLCAnLW9tYWUnLCAnPG91dGZpbGUubWFlPic=

> <r_lp_tautomer_probability>
1

> <r_epik_Ionization_Penalty>
0.00186057

> <r_epik_Ionization_Penalty_Charging>
0

> <r_epik_Ionization_Penalty_Neutral>
0.00186057

> <r_epik_State_Penalty>
0.00110736

> <r_epik_Charging_Adjusted_Penalty>
0.00110736

> <i_epik_Tot_Q>
0

> <i_epik_Tot_abs_Q>
0

> <r_epik_Metal_State_Penalty>
-0

> <b_epik_Metal_Only>
0

> <s_lp_Force_Field>
OPLS_2005

> <r_lp_Energy>
36.2346

> <b_lp_Chiralities_Consistent>
1

> <s_lp_Variant>
AV-unprocessed.smi:182-1

> <Gold.Version>
5.8.1

> <Gold.Id.Protein>
6NUR|6NUR_protein|mol2

> <Gold.PLP.Fitness>
49.7750

> <Gold.PLP.PLP>
-35.3278

> <Gold.PLP.part.hbond>
-4.3042

> <Gold.PLP.part.metal>
0.0000

> <Gold.PLP.part.buried>
0.1292

> <Gold.PLP.part.nonpolar>
-30.3785

> <Gold.PLP.part.repulsive>
0.7238

> <Gold.PLP.ligand.clash>
0.0000

> <Gold.PLP.ligand.torsion>
1.3985

> <Gold.PLP.Chemscore.Hbond>
3.8480

> <Gold.PLP.Chemscore.CHOScore>
1.5739

> <Gold.PLP.Chemscore.Metal>
0.0000

> <Gold.Chemscore.Hbonds>
donor molecule, donor type, donor heavy atom, donor atom, acceptor molecule, acceptor atom, score
      L1  H     1    29       P1 10737  1.00
      L1  H    24    49       P1  7957  1.00
      L1  H    26    52       P1  8028  1.00
      P1  H  7989  7998       L1    24  0.82
      L1  C    18    43       P1 10171  1.00
      L1  C    18    43       P1 10175  0.70

> <Gold.PLP.Chemscore.Internal.Correction>
0.9785

> <Gold.Rescore>
     Score         DG    S(hbond)    S(metal)    S(lipo)     H(rot)  DE(clash)    DE(int)     intcor
     10.08     -13.24       2.77        0.00      91.98       4.79       0.80       2.37       ----

> <Gold.Chemscore.Fitness>
10.0752

> <Gold.Chemscore.DG>
-13.2393

> <Gold.Chemscore.ZeroCoef>
-5.4800

> <Gold.Chemscore.Hbond>
2.7743

> <Gold.Chemscore.Metal>
0.0000

> <Gold.Chemscore.Lipo>
91.9753

> <Gold.Chemscore.Internal_Hbond>
0.0000

> <Gold.Chemscore.DEClash>
0.7977

> <Gold.Chemscore.DEInternal>
2.3665

> <Gold.Chemscore.Rot>
4.7922

> <Gold.Chemscore.Internal.Correction>
   9.000000E+99

> <Gold.Chemscore.Hbonds>
donor molecule, donor type, donor heavy atom, donor atom, acceptor molecule, acceptor atom, score
      L1  H     1    29       P1 10737  0.91
      L1  H    24    49       P1  7957  0.95
      L1  H    26    52       P1  8028  0.47
      P1  H  7989  7998       L1    24  0.22

> <Gold.Chemscore.Hbond.Weighted>
-9.2662

> <Gold.Chemscore.Metal.Weighted>
-0.0000

> <Gold.Chemscore.Lipo.Weighted>
-10.7611

> <Gold.Chemscore.Internal_Hbond.Weighted>
0.0000

> <Gold.Chemscore.DEClash.Weighted>
0.7977

> <Gold.Chemscore.DEInternal.Weighted>
2.3665

> <Gold.Chemscore.Rot.Weighted>
12.2680

> <Gold.Chemscore.Internal.Correction.Weighted>
   9.000000E+99

> <Gold.Protein.RotatedTorsions>
[ 6907 6896 6895 6894 ] final -132.94 input  -60.11 | X-H torsion
[ 7974 7965 7964 7962 ] final  -34.25 input  175.53 | X-H torsion
[ 8008 7997 7996 7995 ] final   93.88 input   59.86 | X-H torsion
[ 10167 10162 10161 10158 ] final   38.07 input  -65.29 | X-H torsion
[ 10718 10713 10712 10709 ] final  -54.55 input   66.30 | X-H torsion
[ 10763 10752 10751 10750 ] final -119.23 input  -60.55 | X-H torsion
[ 11005 11000 10999 10996 ] final   -4.56 input  -57.11 | X-H torsion

> <Gold.Protein.ActiveResidues>
 VAL166  LYS551  ARG553  GLY616  TRP617  ASP618  TYR619  PRO620  LYS621  CYS622 
 ASP623  PHE694  ASN695  SER759  ASP760  ASP761  ALA762  ILE779  LEU786  VAL792 
 PHE793  MET794  SER795  GLU796  ALA797  LYS798  CYS799  TRP800  GLU811  SER814 

> <Gold.Protein.RotatedAtoms>
  150.9682  133.6372  159.2742 H   0  0  0  0  0  0  0  0  0  0  0  0  # atno 6907 bound_to 6896
  151.3670  135.0914  159.9463 H   0  0  0  0  0  0  0  0  0  0  0  0  # atno 6908 bound_to 6896
  152.5173  133.9244  159.7604 H   0  0  0  0  0  0  0  0  0  0  0  0  # atno 6909 bound_to 6896
  146.0845  140.6015  142.8893 H   0  0  0  0  0  0  0  0  0  0  0  0  # atno 7974 bound_to 7965
  156.0517  140.3307  155.7358 H   0  0  0  0  0  0  0  0  0  0  0  0  # atno 8008 bound_to 7997
  155.5591  140.0617  157.2850 H   0  0  0  0  0  0  0  0  0  0  0  0  # atno 8009 bound_to 7997
  154.4439  140.1880  156.0753 H   0  0  0  0  0  0  0  0  0  0  0  0  # atno 8010 bound_to 7997
  140.3972  144.1773  150.6132 H   0  0  0  0  0  0  0  0  0  0  0  0  # atno 10167 bound_to 10162
  156.1442  130.4153  150.0053 H   0  0  0  0  0  0  0  0  0  0  0  0  # atno 10718 bound_to 10713
  154.8611  135.4245  154.2266 H   0  0  0  0  0  0  0  0  0  0  0  0  # atno 10763 bound_to 10752
  153.3260  135.6985  153.6995 H   0  0  0  0  0  0  0  0  0  0  0  0  # atno 10764 bound_to 10752
  153.6030  135.3533  155.2926 H   0  0  0  0  0  0  0  0  0  0  0  0  # atno 10765 bound_to 10752
  140.6816  133.9149  155.8559 H   0  0  0  0  0  0  0  0  0  0  0  0  # atno 11005 bound_to 11000
  144.7316  140.4687  143.6934 LP  0  0  0  0  0  0  0  0  0  0  0  0  # atno 17320 bound_to 7965
  145.6156  139.1518  143.3051 LP  0  0  0  0  0  0  0  0  0  0  0  0  # atno 17321 bound_to 7965
  140.4778  143.2390  151.8998 LP  0  0  0  0  0  0  0  0  0  0  0  0  # atno 17342 bound_to 10162
  139.4786  144.5301  151.8678 LP  0  0  0  0  0  0  0  0  0  0  0  0  # atno 17343 bound_to 10162
  156.7929  130.9262  151.3646 LP  0  0  0  0  0  0  0  0  0  0  0  0  # atno 17370 bound_to 10713
  157.6602  130.8959  149.9813 LP  0  0  0  0  0  0  0  0  0  0  0  0  # atno 17371 bound_to 10713
  141.0313  134.0752  157.4011 LP  0  0  0  0  0  0  0  0  0  0  0  0  # atno 17394 bound_to 11000
  139.8950  135.0139  156.6980 LP  0  0  0  0  0  0  0  0  0  0  0  0  # atno 17395 bound_to 11000

$$$$
