AV-unprocessed.smi:674|AV-procd|sdf|3302|dock1
  -GOLD-   22720 0263D 1   1.00000     0.00000
 Structure written by MMmdl.
 47 48  0  0  0  0  0  0  0  0  1 V2000
  150.8949  141.8386  157.4805 C   0  0  0  0  0  0  0  0  0  0  0  0
  150.3593  142.0865  156.0657 C   0  0  0  0  0  0  0  0  0  0  0  0
  150.1164  140.8036  155.3218 C   0  0  0  0  0  0  0  0  0  0  0  0
  148.8944  140.3403  154.7540 C   0  0  0  0  0  0  0  0  0  0  0  0
  149.2494  139.1345  154.2135 C   0  0  0  0  0  0  0  0  0  0  0  0
  148.4743  138.2401  153.5443 N   0  0  0  0  0  0  0  0  0  0  0  0
  147.1449  138.0564  153.6218 C   0  0  0  0  0  0  0  0  0  0  0  0
  146.3692  138.7243  154.3059 O   0  0  0  0  0  0  0  0  0  0  0  0
  146.7521  137.0337  152.8503 N   0  0  0  0  0  0  0  0  0  0  0  0
  145.3727  136.5705  152.7366 C   0  0  1  0  0  0  0  0  0  0  0  0
  145.0261  136.0913  151.3283 C   0  0  0  0  0  0  0  0  0  0  0  0
  144.1867  134.9825  151.9918 C   0  0  2  0  0  0  0  0  0  0  0  0
  144.0676  133.6159  151.3050 C   0  0  0  0  0  0  0  0  0  0  0  0
  142.8898  135.4868  152.3396 O   0  0  0  0  0  0  0  0  0  0  0  0
  141.9583  134.5653  152.8928 C   0  0  0  0  0  0  0  0  0  0  0  0
  145.1222  135.1239  153.2367 C   0  0  0  0  0  0  0  0  0  0  0  0
  146.3417  134.1830  153.2741 C   0  0  0  0  0  0  0  0  0  0  0  0
  144.4560  134.9947  154.6112 C   0  0  0  0  0  0  0  0  0  0  0  0
  150.5875  138.9139  154.4604 N   0  0  0  0  0  0  0  0  0  0  0  0
  151.4324  137.7912  154.1012 C   0  0  0  0  0  0  0  0  0  0  0  0
  151.1195  139.9511  155.1415 N   0  0  0  0  0  0  0  0  0  0  0  0
  151.0597  142.7803  158.0041 H   0  0  0  0  0  0  0  0  0  0  0  0
  151.8439  141.3022  157.4547 H   0  0  0  0  0  0  0  0  0  0  0  0
  150.1915  141.2486  158.0687 H   0  0  0  0  0  0  0  0  0  0  0  0
  149.4330  142.6585  156.1266 H   0  0  0  0  0  0  0  0  0  0  0  0
  151.0631  142.7108  155.5138 H   0  0  0  0  0  0  0  0  0  0  0  0
  147.9307  140.8266  154.7578 H   0  0  0  0  0  0  0  0  0  0  0  0
  148.9717  137.6261  152.9165 H   0  0  0  0  0  0  0  0  0  0  0  0
  147.4494  136.5358  152.3167 H   0  0  0  0  0  0  0  0  0  0  0  0
  144.6355  137.2842  153.1123 H   0  0  0  0  0  0  0  0  0  0  0  0
  144.4761  136.8185  150.7318 H   0  0  0  0  0  0  0  0  0  0  0  0
  145.8825  135.7006  150.7760 H   0  0  0  0  0  0  0  0  0  0  0  0
  145.0429  133.1653  151.1258 H   0  0  0  0  0  0  0  0  0  0  0  0
  143.5865  133.6895  150.3302 H   0  0  0  0  0  0  0  0  0  0  0  0
  143.4915  132.9172  151.9120 H   0  0  0  0  0  0  0  0  0  0  0  0
  140.9799  135.0412  152.9520 H   0  0  0  0  0  0  0  0  0  0  0  0
  142.2356  134.2749  153.9061 H   0  0  0  0  0  0  0  0  0  0  0  0
  141.8523  133.6659  152.2869 H   0  0  0  0  0  0  0  0  0  0  0  0
  146.0429  133.1489  153.4487 H   0  0  0  0  0  0  0  0  0  0  0  0
  147.0359  134.4542  154.0702 H   0  0  0  0  0  0  0  0  0  0  0  0
  146.9055  134.2019  152.3414 H   0  0  0  0  0  0  0  0  0  0  0  0
  144.0266  134.0026  154.7540 H   0  0  0  0  0  0  0  0  0  0  0  0
  143.6517  135.7185  154.7446 H   0  0  0  0  0  0  0  0  0  0  0  0
  145.1664  135.1667  155.4204 H   0  0  0  0  0  0  0  0  0  0  0  0
  150.8288  136.9460  153.7710 H   0  0  0  0  0  0  0  0  0  0  0  0
  152.0225  137.4819  154.9645 H   0  0  0  0  0  0  0  0  0  0  0  0
  152.1058  138.0836  153.2951 H   0  0  0  0  0  0  0  0  0  0  0  0
  1  2  1  0  0  0  0
  1 22  1  0  0  0  0
  1 23  1  0  0  0  0
  1 24  1  0  0  0  0
  2  3  1  0  0  0  0
  2 25  1  0  0  0  0
  2 26  1  0  0  0  0
  3 21  2  0  0  0  0
  3  4  1  0  0  0  0
  4  5  2  0  0  0  0
  4 27  1  0  0  0  0
  5  6  1  0  0  0  0
  5 19  1  0  0  0  0
  6  7  1  0  0  0  0
  6 28  1  0  0  0  0
  7  8  2  0  0  0  0
  7  9  1  0  0  0  0
  9 10  1  0  0  0  0
  9 29  1  0  0  0  0
 10 16  1  0  0  0  0
 10 11  1  0  0  0  0
 10 30  1  0  0  0  0
 11 12  1  0  0  0  0
 11 31  1  0  0  0  0
 11 32  1  0  0  0  0
 12 13  1  0  0  0  0
 12 14  1  0  0  0  0
 12 16  1  0  0  0  0
 13 33  1  0  0  0  0
 13 34  1  0  0  0  0
 13 35  1  0  0  0  0
 14 15  1  0  0  0  0
 15 36  1  0  0  0  0
 15 37  1  0  0  0  0
 15 38  1  0  0  0  0
 16 17  1  0  0  0  0
 16 18  1  0  0  0  0
 17 39  1  0  0  0  0
 17 40  1  0  0  0  0
 17 41  1  0  0  0  0
 18 42  1  0  0  0  0
 18 43  1  0  0  0  0
 18 44  1  0  0  0  0
 19 20  1  0  0  0  0
 19 21  1  0  0  0  0
 20 45  1  0  0  0  0
 20 46  1  0  0  0  0
 20 47  1  0  0  0  0
M  END
> <s_m_source_file>
AV-unprocessed.smi

> <i_m_source_file_index>
674

> <i_lp_mmshare_version>
43012

> <i_f3d_flags>
0

> <s_epik_input>
W0NIM11bQ0gyXWMxW2NIXWMobihuMSlbQ0gzXSlbTkhdQyg9TylbTkhdW0NAQEhdKEMyKFtDSDNdKVtDSDNdKVtDSDJdW0NAQF0yKFtDSDNdKU9bQ0gzXQ==

> <s_epik_cmdline>
J2VwaWtfcHl0aG9uJywgJy1waCcsICc3LjAnLCAnLXRuJywgJzgnLCAnLW1hJywgJzIwMCcsICctbWV0YWxfYmluZGluZycsICctaW1hZScsICc8aW5maWxlLm1hZT4nLCAnLW9tYWUnLCAnPG91dGZpbGUubWFlPic=

> <r_lp_tautomer_probability>
1

> <r_epik_Ionization_Penalty>
0.000101626

> <r_epik_Ionization_Penalty_Charging>
0

> <r_epik_Ionization_Penalty_Neutral>
0.000101626

> <r_epik_State_Penalty>
-0

> <r_epik_Charging_Adjusted_Penalty>
0

> <i_epik_Tot_Q>
0

> <i_epik_Tot_abs_Q>
0

> <r_epik_Metal_State_Penalty>
-0

> <b_epik_Metal_Only>
0

> <s_lp_Force_Field>
OPLS_2005

> <r_lp_Energy>
22.7899

> <b_lp_Chiralities_Consistent>
1

> <s_lp_Variant>
AV-unprocessed.smi:674-4

> <Gold.Version>
5.8.1

> <Gold.Id.Protein>
6NUR|6NUR_protein|mol2

> <Gold.PLP.Fitness>
38.9381

> <Gold.PLP.PLP>
-32.4853

> <Gold.PLP.part.hbond>
-3.4498

> <Gold.PLP.part.metal>
0.0000

> <Gold.PLP.part.buried>
-1.6268

> <Gold.PLP.part.nonpolar>
-27.9214

> <Gold.PLP.part.repulsive>
0.4150

> <Gold.PLP.ligand.clash>
0.0000

> <Gold.PLP.ligand.torsion>
0.5831

> <Gold.PLP.Chemscore.Hbond>
2.3900

> <Gold.PLP.Chemscore.CHOScore>
0.0000

> <Gold.PLP.Chemscore.Metal>
0.0000

> <Gold.Chemscore.Hbonds>
donor molecule, donor type, donor heavy atom, donor atom, acceptor molecule, acceptor atom, score
      L1  H     6    28       P1  7948  1.00
      L1  H     9    29       P1  7948  1.00
      P1  H  7989  7998       L1    21  0.36

> <Gold.PLP.Chemscore.Internal.Correction>
0.4491

> <Gold.Rescore>
     Score         DG    S(hbond)    S(metal)    S(lipo)     H(rot)  DE(clash)    DE(int)     intcor
     14.95     -16.73       1.95        0.00      70.27       1.37       0.31       1.47       ----

> <Gold.Chemscore.Fitness>
14.9491

> <Gold.Chemscore.DG>
-16.7337

> <Gold.Chemscore.ZeroCoef>
-5.4800

> <Gold.Chemscore.Hbond>
1.9546

> <Gold.Chemscore.Metal>
0.0000

> <Gold.Chemscore.Lipo>
70.2714

> <Gold.Chemscore.Internal_Hbond>
0.0000

> <Gold.Chemscore.DEClash>
0.3107

> <Gold.Chemscore.DEInternal>
1.4739

> <Gold.Chemscore.Rot>
1.3658

> <Gold.Chemscore.Internal.Correction>
   9.000000E+99

> <Gold.Chemscore.Hbonds>
donor molecule, donor type, donor heavy atom, donor atom, acceptor molecule, acceptor atom, score
      L1  H     6    28       P1  7948  0.94
      L1  H     9    29       P1  7948  0.96

> <Gold.Chemscore.Hbond.Weighted>
-6.5283

> <Gold.Chemscore.Metal.Weighted>
-0.0000

> <Gold.Chemscore.Lipo.Weighted>
-8.2218

> <Gold.Chemscore.Internal_Hbond.Weighted>
0.0000

> <Gold.Chemscore.DEClash.Weighted>
0.3107

> <Gold.Chemscore.DEInternal.Weighted>
1.4739

> <Gold.Chemscore.Rot.Weighted>
3.4963

> <Gold.Chemscore.Internal.Correction.Weighted>
   9.000000E+99

> <Gold.Protein.RotatedTorsions>
[ 6907 6896 6895 6894 ] final  139.45 input  -60.11 | X-H torsion
[ 7974 7965 7964 7962 ] final -143.11 input  175.53 | X-H torsion
[ 8008 7997 7996 7995 ] final   42.69 input   59.86 | X-H torsion
[ 10167 10162 10161 10158 ] final   21.71 input  -65.29 | X-H torsion
[ 10718 10713 10712 10709 ] final   78.71 input   66.30 | X-H torsion
[ 10763 10752 10751 10750 ] final  -79.84 input  -60.55 | X-H torsion
[ 11005 11000 10999 10996 ] final   -9.11 input  -57.11 | X-H torsion

> <Gold.Protein.ActiveResidues>
 VAL166  LYS551  ARG553  GLY616  TRP617  ASP618  TYR619  PRO620  LYS621  CYS622 
 ASP623  PHE694  ASN695  SER759  ASP760  ASP761  ALA762  ILE779  LEU786  VAL792 
 PHE793  MET794  SER795  GLU796  ALA797  LYS798  CYS799  TRP800  GLU811  SER814 

> <Gold.Protein.RotatedAtoms>
  152.2548  133.5246  159.5346 H   0  0  0  0  0  0  0  0  0  0  0  0  # atno 6907 bound_to 6896
  150.7105  134.0911  159.3941 H   0  0  0  0  0  0  0  0  0  0  0  0  # atno 6908 bound_to 6896
  151.8829  135.0446  160.0541 H   0  0  0  0  0  0  0  0  0  0  0  0  # atno 6909 bound_to 6896
  144.8394  140.5875  143.5463 H   0  0  0  0  0  0  0  0  0  0  0  0  # atno 7974 bound_to 7965
  155.2903  140.3378  155.4253 H   0  0  0  0  0  0  0  0  0  0  0  0  # atno 8008 bound_to 7997
  156.2049  140.1747  156.7861 H   0  0  0  0  0  0  0  0  0  0  0  0  # atno 8009 bound_to 7997
  154.5607  140.0688  156.8799 H   0  0  0  0  0  0  0  0  0  0  0  0  # atno 8010 bound_to 7997
  140.5405  143.9685  150.6516 H   0  0  0  0  0  0  0  0  0  0  0  0  # atno 10167 bound_to 10162
  157.6753  130.9881  150.1826 H   0  0  0  0  0  0  0  0  0  0  0  0  # atno 10718 bound_to 10713
  154.5436  135.5682  153.6861 H   0  0  0  0  0  0  0  0  0  0  0  0  # atno 10763 bound_to 10752
  152.9970  135.6234  154.2468 H   0  0  0  0  0  0  0  0  0  0  0  0  # atno 10764 bound_to 10752
  154.2400  135.2862  155.2837 H   0  0  0  0  0  0  0  0  0  0  0  0  # atno 10765 bound_to 10752
  140.7306  133.8752  155.8890 H   0  0  0  0  0  0  0  0  0  0  0  0  # atno 11005 bound_to 11000
  145.4727  139.1502  143.3805 LP  0  0  0  0  0  0  0  0  0  0  0  0  # atno 17320 bound_to 7965
  146.2688  140.4861  142.8823 LP  0  0  0  0  0  0  0  0  0  0  0  0  # atno 17321 bound_to 7965
  140.3084  143.3214  152.0903 LP  0  0  0  0  0  0  0  0  0  0  0  0  # atno 17342 bound_to 10162
  139.4987  144.6652  151.6373 LP  0  0  0  0  0  0  0  0  0  0  0  0  # atno 17343 bound_to 10162
  156.2555  130.3705  149.8186 LP  0  0  0  0  0  0  0  0  0  0  0  0  # atno 17370 bound_to 10713
  156.5947  130.8521  151.3417 LP  0  0  0  0  0  0  0  0  0  0  0  0  # atno 17371 bound_to 10713
  140.9924  134.1261  157.4396 LP  0  0  0  0  0  0  0  0  0  0  0  0  # atno 17394 bound_to 11000
  139.8827  135.0044  156.6249 LP  0  0  0  0  0  0  0  0  0  0  0  0  # atno 17395 bound_to 11000

$$$$
