AV-unprocessed.smi:886|AV-procd|sdf|4051|dock6
  -GOLD-   22720 1543D 1   1.00000     0.00000
 Structure written by MMmdl.
 35 37  0  0  0  0  0  0  0  0  1 V2000
  154.5173  135.8932  161.4801 C   0  0  0  0  0  0  0  0  0  0  0  0
  154.3210  137.2821  161.0950 N   0  0  0  0  0  0  0  0  0  0  0  0
  153.4191  137.6947  160.1911 C   0  0  0  0  0  0  0  0  0  0  0  0
  152.6742  136.9261  159.5815 O   0  0  0  0  0  0  0  0  0  0  0  0
  153.3976  139.1807  159.9370 C   0  0  0  0  0  0  0  0  0  0  0  0
  153.9330  140.0606  160.9072 C   0  0  0  0  0  0  0  0  0  0  0  0
  153.8912  141.4486  160.6862 C   0  0  0  0  0  0  0  0  0  0  0  0
  153.3055  141.9146  159.4971 C   0  0  0  0  0  0  0  0  0  0  0  0
  152.7835  141.0946  158.5633 N   0  0  0  0  0  0  0  0  0  0  0  0
  152.8180  139.7550  158.7682 C   0  0  0  0  0  0  0  0  0  0  0  0
  152.2788  138.9416  157.7557 N   0  0  0  0  0  0  0  0  0  0  0  0
  152.2656  139.3959  156.3683 C   0  0  1  0  0  0  0  0  0  0  0  0
  152.9543  138.4150  155.4161 C   0  0  0  0  0  0  0  0  0  0  0  0
  151.8599  138.1697  154.3682 C   0  0  1  0  0  0  0  0  0  0  0  0
  150.7479  137.2658  154.9165 C   0  0  0  0  0  0  0  0  0  0  0  0
  150.0254  138.2104  155.8747 C   0  0  0  0  0  0  0  0  0  0  0  0
  150.8588  139.4968  155.7427 C   0  0  2  0  0  0  0  0  0  0  0  0
  151.2007  139.4251  154.3688 O   0  0  0  0  0  0  0  0  0  0  0  0
  155.2950  135.8244  162.2405 H   0  0  0  0  0  0  0  0  0  0  0  0
  154.8245  135.2926  160.6230 H   0  0  0  0  0  0  0  0  0  0  0  0
  153.5996  135.4705  161.8914 H   0  0  0  0  0  0  0  0  0  0  0  0
  154.9073  137.9732  161.5404 H   0  0  0  0  0  0  0  0  0  0  0  0
  154.3692  139.6831  161.8209 H   0  0  0  0  0  0  0  0  0  0  0  0
  154.2950  142.1386  161.4120 H   0  0  0  0  0  0  0  0  0  0  0  0
  153.2541  142.9732  159.2901 H   0  0  0  0  0  0  0  0  0  0  0  0
  151.5491  138.2983  158.0277 H   0  0  0  0  0  0  0  0  0  0  0  0
  152.7703  140.3604  156.2945 H   0  0  0  0  0  0  0  0  0  0  0  0
  153.8289  138.8816  154.9621 H   0  0  0  0  0  0  0  0  0  0  0  0
  153.2765  137.4887  155.8939 H   0  0  0  0  0  0  0  0  0  0  0  0
  152.2403  137.8606  153.3945 H   0  0  0  0  0  0  0  0  0  0  0  0
  150.0775  136.9426  154.1194 H   0  0  0  0  0  0  0  0  0  0  0  0
  151.1415  136.3786  155.4139 H   0  0  0  0  0  0  0  0  0  0  0  0
  149.0033  138.3827  155.5357 H   0  0  0  0  0  0  0  0  0  0  0  0
  149.9783  137.8308  156.8952 H   0  0  0  0  0  0  0  0  0  0  0  0
  150.3160  140.4016  156.0176 H   0  0  0  0  0  0  0  0  0  0  0  0
  1  2  1  0  0  0  0
  1 19  1  0  0  0  0
  1 20  1  0  0  0  0
  1 21  1  0  0  0  0
  2  3  1  0  0  0  0
  2 22  1  0  0  0  0
  3  4  2  0  0  0  0
  3  5  1  0  0  0  0
  5 10  1  0  0  0  0
  5  6  2  0  0  0  0
  6  7  1  0  0  0  0
  6 23  1  0  0  0  0
  7  8  2  0  0  0  0
  7 24  1  0  0  0  0
  8  9  1  0  0  0  0
  8 25  1  0  0  0  0
  9 10  2  0  0  0  0
 10 11  1  0  0  0  0
 11 12  1  0  0  0  0
 11 26  1  0  0  0  0
 12 17  1  0  0  0  0
 12 13  1  0  0  0  0
 12 27  1  0  0  0  0
 13 14  1  0  0  0  0
 13 28  1  0  0  0  0
 13 29  1  0  0  0  0
 14 18  1  0  0  0  0
 14 15  1  0  0  0  0
 14 30  1  0  0  0  0
 15 16  1  0  0  0  0
 15 31  1  0  0  0  0
 15 32  1  0  0  0  0
 16 17  1  0  0  0  0
 16 33  1  0  0  0  0
 16 34  1  0  0  0  0
 17 18  1  0  0  0  0
 17 35  1  0  0  0  0
M  END
> <s_m_source_file>
AV-unprocessed.smi

> <i_m_source_file_index>
886

> <i_lp_mmshare_version>
43012

> <i_f3d_flags>
0

> <s_epik_input>
W0NIM11bTkhdQyg9TyljMVtjSF1bY0hdW2NIXW5jMVtOSF1bQ0BIXShbQ0gyXVtDQEhdMjMpW0NASF0oTzMpW0NIMl1bQ0gyXTI=

> <s_epik_cmdline>
J2VwaWtfcHl0aG9uJywgJy1waCcsICc3LjAnLCAnLXRuJywgJzgnLCAnLW1hJywgJzIwMCcsICctbWV0YWxfYmluZGluZycsICctaW1hZScsICc8aW5maWxlLm1hZT4nLCAnLW9tYWUnLCAnPG91dGZpbGUubWFlPic=

> <r_lp_tautomer_probability>
1

> <r_epik_Ionization_Penalty>
0.0065447

> <r_epik_Ionization_Penalty_Charging>
0

> <r_epik_Ionization_Penalty_Neutral>
0.0065447

> <r_epik_State_Penalty>
0.00484214

> <r_epik_Charging_Adjusted_Penalty>
0.00484214

> <i_epik_Tot_Q>
0

> <i_epik_Tot_abs_Q>
0

> <r_epik_Metal_State_Penalty>
-0

> <b_epik_Metal_Only>
0

> <s_lp_Force_Field>
OPLS_2005

> <r_lp_Energy>
46.6605

> <b_lp_Chiralities_Consistent>
1

> <s_lp_Variant>
AV-unprocessed.smi:886-4

> <Gold.Version>
5.8.1

> <Gold.Id.Protein>
6NUR|6NUR_protein|mol2

> <Gold.PLP.Fitness>
36.1072

> <Gold.PLP.PLP>
-30.7996

> <Gold.PLP.part.hbond>
-2.0000

> <Gold.PLP.part.metal>
0.0000

> <Gold.PLP.part.buried>
-3.4797

> <Gold.PLP.part.nonpolar>
-24.8775

> <Gold.PLP.part.repulsive>
0.2316

> <Gold.PLP.ligand.clash>
0.0000

> <Gold.PLP.ligand.torsion>
0.3404

> <Gold.PLP.Chemscore.Hbond>
1.9913

> <Gold.PLP.Chemscore.CHOScore>
0.0000

> <Gold.PLP.Chemscore.Metal>
0.0000

> <Gold.Chemscore.Hbonds>
donor molecule, donor type, donor heavy atom, donor atom, acceptor molecule, acceptor atom, score
      P1  H  6896  6909       L1     4  1.00
      P1  H  7989  7998       L1    18  1.00

> <Gold.PLP.Chemscore.Internal.Correction>
0.0146

> <Gold.Rescore>
     Score         DG    S(hbond)    S(metal)    S(lipo)     H(rot)  DE(clash)    DE(int)     intcor
     18.27     -18.57       1.98        0.00      77.28       1.00       0.01       0.29       ----

> <Gold.Chemscore.Fitness>
18.2673

> <Gold.Chemscore.DG>
-18.5706

> <Gold.Chemscore.ZeroCoef>
-5.4800

> <Gold.Chemscore.Hbond>
1.9789

> <Gold.Chemscore.Metal>
0.0000

> <Gold.Chemscore.Lipo>
77.2750

> <Gold.Chemscore.Internal_Hbond>
0.0000

> <Gold.Chemscore.DEClash>
0.0149

> <Gold.Chemscore.DEInternal>
0.2885

> <Gold.Chemscore.Rot>
1.0000

> <Gold.Chemscore.Internal.Correction>
   9.000000E+99

> <Gold.Chemscore.Hbonds>
donor molecule, donor type, donor heavy atom, donor atom, acceptor molecule, acceptor atom, score
      P1  H  6896  6909       L1     4  0.93
      P1  H  7989  7998       L1    18  0.98

> <Gold.Chemscore.Hbond.Weighted>
-6.6094

> <Gold.Chemscore.Metal.Weighted>
-0.0000

> <Gold.Chemscore.Lipo.Weighted>
-9.0412

> <Gold.Chemscore.Internal_Hbond.Weighted>
0.0000

> <Gold.Chemscore.DEClash.Weighted>
0.0149

> <Gold.Chemscore.DEInternal.Weighted>
0.2885

> <Gold.Chemscore.Rot.Weighted>
2.5600

> <Gold.Chemscore.Internal.Correction.Weighted>
   9.000000E+99

> <Gold.Protein.RotatedTorsions>
[ 6907 6896 6895 6894 ] final  140.57 input  -60.11 | X-H torsion
[ 7974 7965 7964 7962 ] final  160.40 input  175.53 | X-H torsion
[ 8008 7997 7996 7995 ] final   92.07 input   59.86 | X-H torsion
[ 10167 10162 10161 10158 ] final -150.04 input  -65.29 | X-H torsion
[ 10718 10713 10712 10709 ] final  142.54 input   66.30 | X-H torsion
[ 10763 10752 10751 10750 ] final -141.27 input  -60.55 | X-H torsion
[ 11005 11000 10999 10996 ] final -129.90 input  -57.11 | X-H torsion

> <Gold.Protein.ActiveResidues>
 VAL166  LYS551  ARG553  GLY616  TRP617  ASP618  TYR619  PRO620  LYS621  CYS622 
 ASP623  PHE694  ASN695  SER759  ASP760  ASP761  ALA762  ILE779  LEU786  VAL792 
 PHE793  MET794  SER795  GLU796  ALA797  LYS798  CYS799  TRP800  GLU811  SER814 

> <Gold.Protein.RotatedAtoms>
  152.2414  133.5139  159.5272 H   0  0  0  0  0  0  0  0  0  0  0  0  # atno 6907 bound_to 6896
  150.7065  134.1083  159.4000 H   0  0  0  0  0  0  0  0  0  0  0  0  # atno 6908 bound_to 6896
  151.9004  135.0380  160.0556 H   0  0  0  0  0  0  0  0  0  0  0  0  # atno 6909 bound_to 6896
  144.7739  139.7752  143.6286 H   0  0  0  0  0  0  0  0  0  0  0  0  # atno 7974 bound_to 7965
  156.0311  140.3330  155.7141 H   0  0  0  0  0  0  0  0  0  0  0  0  # atno 8008 bound_to 7997
  155.5883  140.0643  157.2783 H   0  0  0  0  0  0  0  0  0  0  0  0  # atno 8009 bound_to 7997
  154.4354  140.1832  156.1036 H   0  0  0  0  0  0  0  0  0  0  0  0  # atno 8010 bound_to 7997
  139.7389  143.8692  152.2557 H   0  0  0  0  0  0  0  0  0  0  0  0  # atno 10167 bound_to 10162
  157.3794  131.0990  151.0753 H   0  0  0  0  0  0  0  0  0  0  0  0  # atno 10718 bound_to 10713
  154.8551  135.3529  154.5841 H   0  0  0  0  0  0  0  0  0  0  0  0  # atno 10763 bound_to 10752
  153.6452  135.6996  153.5232 H   0  0  0  0  0  0  0  0  0  0  0  0  # atno 10764 bound_to 10752
  153.2939  135.4226  155.1150 H   0  0  0  0  0  0  0  0  0  0  0  0  # atno 10765 bound_to 10752
  140.9392  134.1216  157.4166 H   0  0  0  0  0  0  0  0  0  0  0  0  # atno 11005 bound_to 11000
  146.1905  139.5143  142.9808 LP  0  0  0  0  0  0  0  0  0  0  0  0  # atno 17320 bound_to 7965
  145.6243  141.0316  143.1898 LP  0  0  0  0  0  0  0  0  0  0  0  0  # atno 17321 bound_to 7965
  139.8637  144.7104  150.9069 LP  0  0  0  0  0  0  0  0  0  0  0  0  # atno 17342 bound_to 10162
  140.7783  143.3796  151.1501 LP  0  0  0  0  0  0  0  0  0  0  0  0  # atno 17343 bound_to 10162
  157.1828  130.6317  149.5677 LP  0  0  0  0  0  0  0  0  0  0  0  0  # atno 17370 bound_to 10713
  155.9772  130.4748  150.6580 LP  0  0  0  0  0  0  0  0  0  0  0  0  # atno 17371 bound_to 10713
  139.8816  135.0031  156.6166 LP  0  0  0  0  0  0  0  0  0  0  0  0  # atno 17394 bound_to 11000
  140.7757  133.8701  155.8527 LP  0  0  0  0  0  0  0  0  0  0  0  0  # atno 17395 bound_to 11000

$$$$
