AV-unprocessed.smi:2245|AV-procd|sdf|9076|dock6
  -GOLD-   2272012283D 1   1.00000     0.00000
 Structure written by MMmdl.
 44 45  0  0  0  0  0  0  0  0  1 V2000
  144.6150  132.4361  149.8109 C   0  0  0  0  0  0  0  0  0  0  0  0
  145.5787  132.0366  150.9088 C   0  0  0  0  0  0  0  0  0  0  0  0
  145.5959  130.7225  151.4140 C   0  0  0  0  0  0  0  0  0  0  0  0
  146.5141  130.4156  152.4372 C   0  0  0  0  0  0  0  0  0  0  0  0
  146.5802  129.0245  153.0313 C   0  0  0  0  0  0  0  0  0  0  0  0
  147.3723  131.3212  152.9530 N   0  0  0  0  0  0  0  0  0  0  0  0
  147.3646  132.5899  152.4740 C   0  0  0  0  0  0  0  0  0  0  0  0
  148.2143  133.6193  152.9578 N   0  0  0  0  0  0  0  0  0  0  0  0
  148.8838  133.6642  154.1229 C   0  0  0  0  0  0  0  0  0  0  0  0
  148.9448  132.7512  154.9471 O   0  0  0  0  0  0  0  0  0  0  0  0
  149.4914  134.8472  154.2854 N   0  0  0  0  0  0  0  0  0  0  0  0
  150.2559  135.2340  155.4645 C   0  0  0  0  0  0  0  0  0  0  0  0
  150.4613  136.7567  155.5027 C   0  0  2  0  0  0  0  0  0  0  0  0
  151.2103  137.3354  154.3001 C   0  0  0  0  0  0  0  0  0  0  0  0
  152.2005  138.3394  154.9006 C   0  0  0  0  0  0  0  0  0  0  0  0
  151.7259  138.5553  156.2632 N   0  0  0  0  0  0  0  0  0  0  0  0
  152.7443  139.0963  157.1609 C   0  0  0  0  0  0  0  0  0  0  0  0
  152.1583  139.9974  158.2651 C   0  0  0  0  0  0  0  0  0  0  0  0
  151.1702  139.3402  158.8710 F   0  0  0  0  0  0  0  0  0  0  0  0
  153.0753  140.3069  159.1814 F   0  0  0  0  0  0  0  0  0  0  0  0
  151.6622  141.1181  157.7396 F   0  0  0  0  0  0  0  0  0  0  0  0
  151.2889  137.2355  156.6934 C   0  0  0  0  0  0  0  0  0  0  0  0
  146.4766  132.9804  151.4467 C   0  0  0  0  0  0  0  0  0  0  0  0
  143.9549  131.6108  149.5425 H   0  0  0  0  0  0  0  0  0  0  0  0
  145.1638  132.7392  148.9190 H   0  0  0  0  0  0  0  0  0  0  0  0
  143.9977  133.2737  150.1364 H   0  0  0  0  0  0  0  0  0  0  0  0
  144.9224  129.9704  151.0299 H   0  0  0  0  0  0  0  0  0  0  0  0
  146.0602  128.3023  152.4015 H   0  0  0  0  0  0  0  0  0  0  0  0
  146.1170  129.0146  154.0181 H   0  0  0  0  0  0  0  0  0  0  0  0
  147.6162  128.6996  153.1345 H   0  0  0  0  0  0  0  0  0  0  0  0
  148.2859  134.4345  152.3674 H   0  0  0  0  0  0  0  0  0  0  0  0
  149.3961  135.5391  153.5567 H   0  0  0  0  0  0  0  0  0  0  0  0
  149.7322  134.9179  156.3685 H   0  0  0  0  0  0  0  0  0  0  0  0
  151.2160  134.7162  155.4544 H   0  0  0  0  0  0  0  0  0  0  0  0
  149.4845  137.2407  155.5631 H   0  0  0  0  0  0  0  0  0  0  0  0
  151.7467  136.5695  153.7385 H   0  0  0  0  0  0  0  0  0  0  0  0
  150.5163  137.8224  153.6144 H   0  0  0  0  0  0  0  0  0  0  0  0
  153.2010  137.9036  154.9173 H   0  0  0  0  0  0  0  0  0  0  0  0
  152.2403  139.2675  154.3302 H   0  0  0  0  0  0  0  0  0  0  0  0
  153.2447  138.2543  157.6413 H   0  0  0  0  0  0  0  0  0  0  0  0
  153.5084  139.6303  156.5946 H   0  0  0  0  0  0  0  0  0  0  0  0
  150.7086  137.2782  157.6159 H   0  0  0  0  0  0  0  0  0  0  0  0
  152.1497  136.5835  156.8538 H   0  0  0  0  0  0  0  0  0  0  0  0
  146.4791  133.9951  151.0751 H   0  0  0  0  0  0  0  0  0  0  0  0
  1  2  1  0  0  0  0
  1 24  1  0  0  0  0
  1 25  1  0  0  0  0
  1 26  1  0  0  0  0
  2 23  1  0  0  0  0
  2  3  2  0  0  0  0
  3  4  1  0  0  0  0
  3 27  1  0  0  0  0
  4  5  1  0  0  0  0
  4  6  2  0  0  0  0
  5 28  1  0  0  0  0
  5 29  1  0  0  0  0
  5 30  1  0  0  0  0
  6  7  1  0  0  0  0
  7  8  1  0  0  0  0
  7 23  2  0  0  0  0
  8  9  1  0  0  0  0
  8 31  1  0  0  0  0
  9 10  2  0  0  0  0
  9 11  1  0  0  0  0
 11 12  1  0  0  0  0
 11 32  1  0  0  0  0
 12 13  1  0  0  0  0
 12 33  1  0  0  0  0
 12 34  1  0  0  0  0
 13 22  1  0  0  0  0
 13 14  1  0  0  0  0
 13 35  1  0  0  0  0
 14 15  1  0  0  0  0
 14 36  1  0  0  0  0
 14 37  1  0  0  0  0
 15 16  1  0  0  0  0
 15 38  1  0  0  0  0
 15 39  1  0  0  0  0
 16 17  1  0  0  0  0
 16 22  1  0  0  0  0
 17 18  1  0  0  0  0
 17 40  1  0  0  0  0
 17 41  1  0  0  0  0
 18 19  1  0  0  0  0
 18 20  1  0  0  0  0
 18 21  1  0  0  0  0
 22 42  1  0  0  0  0
 22 43  1  0  0  0  0
 23 44  1  0  0  0  0
M  END
> <s_m_source_file>
AV-unprocessed.smi

> <i_m_source_file_index>
2245

> <i_lp_mmshare_version>
43012

> <i_f3d_flags>
0

> <s_epik_input>
W0NIM11jMVtjSF1jKFtDSDNdKW5jKFtjSF0xKVtOSF1DKD1PKVtOSF1bQ0gyXVtDQEBIXTJbQ0gyXVtDSDJdTihbQ0gyXTIpW0NIMl1DKEYpKEYpRg==

> <s_epik_cmdline>
J2VwaWtfcHl0aG9uJywgJy1waCcsICc3LjAnLCAnLXRuJywgJzgnLCAnLW1hJywgJzIwMCcsICctbWV0YWxfYmluZGluZycsICctaW1hZScsICc8aW5maWxlLm1hZT4nLCAnLW9tYWUnLCAnPG91dGZpbGUubWFlPic=

> <r_epik_Ionization_Penalty>
0.252219

> <r_epik_Ionization_Penalty_Charging>
0

> <r_epik_Ionization_Penalty_Neutral>
0.252219

> <r_epik_State_Penalty>
0.24335

> <r_epik_Charging_Adjusted_Penalty>
0.24335

> <i_epik_Tot_Q>
0

> <i_epik_Tot_abs_Q>
0

> <r_epik_Metal_State_Penalty>
0.243337

> <b_epik_Metal_Only>
0

> <s_lp_Force_Field>
OPLS_2005

> <r_lp_Energy>
29.2312

> <b_lp_Chiralities_Consistent>
1

> <s_lp_Variant>
AV-unprocessed.smi:2245-1

> <Gold.Version>
5.8.1

> <Gold.Id.Protein>
6NUR|6NUR_protein|mol2

> <Gold.PLP.Fitness>
43.8202

> <Gold.PLP.PLP>
-39.2331

> <Gold.PLP.part.hbond>
-2.0000

> <Gold.PLP.part.metal>
0.0000

> <Gold.PLP.part.buried>
-5.1702

> <Gold.PLP.part.nonpolar>
-32.6609

> <Gold.PLP.part.repulsive>
0.1492

> <Gold.PLP.ligand.clash>
0.0000

> <Gold.PLP.ligand.torsion>
0.6706

> <Gold.PLP.Chemscore.Hbond>
1.8500

> <Gold.PLP.Chemscore.CHOScore>
0.0000

> <Gold.PLP.Chemscore.Metal>
0.0000

> <Gold.Chemscore.Hbonds>
donor molecule, donor type, donor heavy atom, donor atom, acceptor molecule, acceptor atom, score
      L1  H     8    31       P1  7948  0.75
      L1  H    11    32       P1  7948  1.00

> <Gold.PLP.Chemscore.Internal.Correction>
0.3782

> <Gold.Rescore>
     Score         DG    S(hbond)    S(metal)    S(lipo)     H(rot)  DE(clash)    DE(int)     intcor
     14.61     -16.58       1.47        0.00      87.48       1.58       0.09       1.87       ----

> <Gold.Chemscore.Fitness>
14.6122

> <Gold.Chemscore.DG>
-16.5774

> <Gold.Chemscore.ZeroCoef>
-5.4800

> <Gold.Chemscore.Hbond>
1.4713

> <Gold.Chemscore.Metal>
0.0000

> <Gold.Chemscore.Lipo>
87.4760

> <Gold.Chemscore.Internal_Hbond>
0.0000

> <Gold.Chemscore.DEClash>
0.0945

> <Gold.Chemscore.DEInternal>
1.8707

> <Gold.Chemscore.Rot>
1.5826

> <Gold.Chemscore.Internal.Correction>
   9.000000E+99

> <Gold.Chemscore.Hbonds>
donor molecule, donor type, donor heavy atom, donor atom, acceptor molecule, acceptor atom, score
      L1  H     8    31       P1  7948  0.09
      L1  H    11    32       P1  7948  0.30

> <Gold.Chemscore.Hbond.Weighted>
-4.9141

> <Gold.Chemscore.Metal.Weighted>
-0.0000

> <Gold.Chemscore.Lipo.Weighted>
-10.2347

> <Gold.Chemscore.Internal_Hbond.Weighted>
0.0000

> <Gold.Chemscore.DEClash.Weighted>
0.0945

> <Gold.Chemscore.DEInternal.Weighted>
1.8707

> <Gold.Chemscore.Rot.Weighted>
4.0515

> <Gold.Chemscore.Internal.Correction.Weighted>
   9.000000E+99

> <Gold.Protein.RotatedTorsions>
[ 6907 6896 6895 6894 ] final  107.29 input  -60.11 | X-H torsion
[ 7974 7965 7964 7962 ] final    6.59 input  175.53 | X-H torsion
[ 8008 7997 7996 7995 ] final -112.82 input   59.86 | X-H torsion
[ 10167 10162 10161 10158 ] final   40.65 input  -65.29 | X-H torsion
[ 10718 10713 10712 10709 ] final   73.83 input   66.30 | X-H torsion
[ 10763 10752 10751 10750 ] final  -57.28 input  -60.55 | X-H torsion
[ 11005 11000 10999 10996 ] final   63.04 input  -57.11 | X-H torsion

> <Gold.Protein.ActiveResidues>
 VAL166  LYS551  ARG553  GLY616  TRP617  ASP618  TYR619  PRO620  LYS621  CYS622 
 ASP623  PHE694  ASN695  SER759  ASP760  ASP761  ALA762  ILE779  LEU786  VAL792 
 PHE793  MET794  SER795  GLU796  ALA797  LYS798  CYS799  TRP800  GLU811  SER814 

> <Gold.Protein.RotatedAtoms>
  152.5160  133.9256  159.7555 H   0  0  0  0  0  0  0  0  0  0  0  0  # atno 6907 bound_to 6896
  150.9618  133.6429  159.2760 H   0  0  0  0  0  0  0  0  0  0  0  0  # atno 6908 bound_to 6896
  151.3671  135.0921  159.9506 H   0  0  0  0  0  0  0  0  0  0  0  0  # atno 6909 bound_to 6896
  146.2433  140.0211  142.8398 H   0  0  0  0  0  0  0  0  0  0  0  0  # atno 7974 bound_to 7965
  155.0111  140.0393  157.2399 H   0  0  0  0  0  0  0  0  0  0  0  0  # atno 8008 bound_to 7997
  154.7460  140.2758  155.6310 H   0  0  0  0  0  0  0  0  0  0  0  0  # atno 8009 bound_to 7997
  156.2875  140.2656  156.2200 H   0  0  0  0  0  0  0  0  0  0  0  0  # atno 8010 bound_to 7997
  140.3721  144.2091  150.6133 H   0  0  0  0  0  0  0  0  0  0  0  0  # atno 10167 bound_to 10162
  157.6565  130.9648  150.1125 H   0  0  0  0  0  0  0  0  0  0  0  0  # atno 10718 bound_to 10713
  154.2199  135.6379  153.5141 H   0  0  0  0  0  0  0  0  0  0  0  0  # atno 10763 bound_to 10752
  152.9971  135.5494  154.6125 H   0  0  0  0  0  0  0  0  0  0  0  0  # atno 10764 bound_to 10752
  154.5582  135.2907  155.0918 H   0  0  0  0  0  0  0  0  0  0  0  0  # atno 10765 bound_to 10752
  140.0051  134.6382  155.9868 H   0  0  0  0  0  0  0  0  0  0  0  0  # atno 11005 bound_to 11000
  145.1240  140.9479  143.4583 LP  0  0  0  0  0  0  0  0  0  0  0  0  # atno 17320 bound_to 7965
  145.0453  139.3226  143.5956 LP  0  0  0  0  0  0  0  0  0  0  0  0  # atno 17321 bound_to 7965
  140.5023  143.2314  151.8660 LP  0  0  0  0  0  0  0  0  0  0  0  0  # atno 17342 bound_to 10162
  139.4803  144.5046  151.9015 LP  0  0  0  0  0  0  0  0  0  0  0  0  # atno 17343 bound_to 10162
  156.2018  130.3661  149.8779 LP  0  0  0  0  0  0  0  0  0  0  0  0  # atno 17370 bound_to 10713
  156.6681  130.8809  151.3558 LP  0  0  0  0  0  0  0  0  0  0  0  0  # atno 17371 bound_to 10713
  141.1671  133.6537  156.4518 LP  0  0  0  0  0  0  0  0  0  0  0  0  # atno 17394 bound_to 11000
  140.4656  134.6801  157.5105 LP  0  0  0  0  0  0  0  0  0  0  0  0  # atno 17395 bound_to 11000

$$$$
