AV-unprocessed.smi:842|AV-procd|sdf|3919|dock4
  -GOLD-   22720 1383D 1   1.00000     0.00000
 Structure written by MMmdl.
 43 44  0  0  0  0  0  0  0  0  2 V2000
  143.4940  137.0655  152.6631 C   0  0  0  0  0  0  0  0  0  0  0  0
  144.9510  137.3257  153.0745 C   0  0  0  0  0  0  0  0  0  0  0  0
  145.8657  137.7340  151.9021 C   0  0  2  0  0  0  0  0  0  0  0  0
  145.9783  136.6021  150.8579 C   0  0  0  0  0  0  0  0  0  0  0  0
  146.2578  137.1325  149.5794 O   0  0  0  0  0  0  0  0  0  0  0  0
  147.1917  138.0652  152.4232 N   0  0  0  0  0  0  0  0  0  0  0  0
  147.4523  139.0286  153.3182 C   0  0  0  0  0  0  0  0  0  0  0  0
  146.5876  139.7569  153.8034 O   0  0  0  0  0  0  0  0  0  0  0  0
  148.7667  139.0934  153.5933 N   0  0  0  0  0  0  0  0  0  0  0  0
  149.4450  139.9668  154.4868 C   0  0  0  0  0  0  0  0  0  0  0  0
  150.6773  139.5317  155.0208 C   0  0  0  0  0  0  0  0  0  0  0  0
  151.3840  140.3581  155.9184 C   0  0  0  0  0  0  0  0  0  0  0  0
  150.8406  141.6129  156.2800 C   0  0  0  0  0  0  0  0  0  0  0  0
  151.4628  142.5127  157.1567 N   0  0  0  0  0  0  0  0  0  0  0  0
  151.2957  143.9189  156.8324 C   0  0  0  0  0  0  0  0  0  0  0  0
  151.7101  144.6729  158.0965 C   0  0  0  0  0  0  0  0  0  0  0  0
  151.4788  143.6754  159.2375 C   0  0  0  0  0  0  0  0  0  0  0  0
  151.0665  142.3700  158.5480 C   0  0  0  0  0  0  0  0  0  0  0  0
  149.6543  141.9895  155.7561 N   0  3  0  0  0  0  0  0  0  0  0  0
  148.9461  141.2290  154.8934 C   0  0  0  0  0  0  0  0  0  0  0  0
  142.9072  136.7249  153.5163 H   0  0  0  0  0  0  0  0  0  0  0  0
  143.4352  136.2965  151.8924 H   0  0  0  0  0  0  0  0  0  0  0  0
  143.0173  137.9662  152.2761 H   0  0  0  0  0  0  0  0  0  0  0  0
  144.9762  138.0928  153.8496 H   0  0  0  0  0  0  0  0  0  0  0  0
  145.3425  136.4177  153.5347 H   0  0  0  0  0  0  0  0  0  0  0  0
  145.4122  138.6127  151.4381 H   0  0  0  0  0  0  0  0  0  0  0  0
  146.7332  135.8653  151.1355 H   0  0  0  0  0  0  0  0  0  0  0  0
  145.0327  136.0657  150.7726 H   0  0  0  0  0  0  0  0  0  0  0  0
  146.3222  136.4187  148.9634 H   0  0  0  0  0  0  0  0  0  0  0  0
  147.9636  137.5152  152.0759 H   0  0  0  0  0  0  0  0  0  0  0  0
  149.3585  138.4679  153.0664 H   0  0  0  0  0  0  0  0  0  0  0  0
  151.0860  138.5715  154.7410 H   0  0  0  0  0  0  0  0  0  0  0  0
  152.3318  140.0280  156.3176 H   0  0  0  0  0  0  0  0  0  0  0  0
  151.9105  144.2014  155.9771 H   0  0  0  0  0  0  0  0  0  0  0  0
  150.2559  144.1396  156.5893 H   0  0  0  0  0  0  0  0  0  0  0  0
  152.7678  144.9346  158.0461 H   0  0  0  0  0  0  0  0  0  0  0  0
  151.1449  145.5963  158.2253 H   0  0  0  0  0  0  0  0  0  0  0  0
  152.3980  143.5379  159.8081 H   0  0  0  0  0  0  0  0  0  0  0  0
  150.7073  144.0159  159.9288 H   0  0  0  0  0  0  0  0  0  0  0  0
  149.9877  142.2272  158.6265 H   0  0  0  0  0  0  0  0  0  0  0  0
  151.5528  141.5070  159.0042 H   0  0  0  0  0  0  0  0  0  0  0  0
  148.0098  141.6630  154.5772 H   0  0  0  0  0  0  0  0  0  0  0  0
  149.2706  142.8951  156.0278 H   0  0  0  0  0  0  0  0  0  0  0  0
  1  2  1  0  0  0  0
  1 21  1  0  0  0  0
  1 22  1  0  0  0  0
  1 23  1  0  0  0  0
  2  3  1  0  0  0  0
  2 24  1  0  0  0  0
  2 25  1  0  0  0  0
  3  4  1  0  0  0  0
  3  6  1  0  0  0  0
  3 26  1  0  0  0  0
  4  5  1  0  0  0  0
  4 27  1  0  0  0  0
  4 28  1  0  0  0  0
  5 29  1  0  0  0  0
  6  7  1  0  0  0  0
  6 30  1  0  0  0  0
  7  8  2  0  0  0  0
  7  9  1  0  0  0  0
  9 10  1  0  0  0  0
  9 31  1  0  0  0  0
 10 20  1  0  0  0  0
 10 11  2  0  0  0  0
 11 12  1  0  0  0  0
 11 32  1  0  0  0  0
 12 13  2  0  0  0  0
 12 33  1  0  0  0  0
 13 14  1  0  0  0  0
 13 19  1  0  0  0  0
 14 18  1  0  0  0  0
 14 15  1  0  0  0  0
 15 16  1  0  0  0  0
 15 34  1  0  0  0  0
 15 35  1  0  0  0  0
 16 17  1  0  0  0  0
 16 36  1  0  0  0  0
 16 37  1  0  0  0  0
 17 18  1  0  0  0  0
 17 38  1  0  0  0  0
 17 39  1  0  0  0  0
 18 40  1  0  0  0  0
 18 41  1  0  0  0  0
 19 20  2  0  0  0  0
 19 43  1  0  0  0  0
 20 42  1  0  0  0  0
M  CHG  1  19   1
M  END
> <s_m_source_file>
AV-unprocessed.smi

> <i_m_source_file_index>
842

> <i_lp_mmshare_version>
43012

> <i_f3d_flags>
0

> <s_epik_input>
W0NIM11bQ0gyXVtDQEhdKFtDSDJdW09IXSlbTkhdQyg9TylbTkhdYzFbY0hdW2NIXWMobltjSF0xKU4yW0NIMl1bQ0gyXVtDSDJdW0NIMl0y

> <s_epik_cmdline>
J2VwaWtfcHl0aG9uJywgJy1waCcsICc3LjAnLCAnLXRuJywgJzgnLCAnLW1hJywgJzIwMCcsICctbWV0YWxfYmluZGluZycsICctaW1hZScsICc8aW5maWxlLm1hZT4nLCAnLW9tYWUnLCAnPG91dGZpbGUubWFlPic=

> <r_lp_tautomer_probability>
0.999994

> <r_epik_Ionization_Penalty>
1.10848

> <r_epik_Ionization_Penalty_Charging>
1.10846

> <r_epik_Ionization_Penalty_Neutral>
2.01032e-05

> <r_epik_State_Penalty>
1.16624

> <r_epik_Charging_Adjusted_Penalty>
2.2747

> <i_epik_Tot_Q>
1

> <i_epik_Tot_abs_Q>
1

> <r_epik_Metal_State_Penalty>
1.25257

> <b_epik_Metal_Only>
0

> <s_lp_Force_Field>
OPLS_2005

> <r_lp_Energy>
41.2931

> <b_lp_Chiralities_Consistent>
1

> <s_lp_Variant>
AV-unprocessed.smi:842-3

> <Gold.Version>
5.8.1

> <Gold.Id.Protein>
6NUR|6NUR_protein|mol2

> <Gold.PLP.Fitness>
48.0092

> <Gold.PLP.PLP>
-37.6101

> <Gold.PLP.part.hbond>
-6.0007

> <Gold.PLP.part.metal>
0.0000

> <Gold.PLP.part.buried>
6.4758

> <Gold.PLP.part.nonpolar>
-36.8912

> <Gold.PLP.part.repulsive>
0.5099

> <Gold.PLP.ligand.clash>
0.0000

> <Gold.PLP.ligand.torsion>
1.1557

> <Gold.PLP.Chemscore.Hbond>
4.2220

> <Gold.PLP.Chemscore.CHOScore>
0.0000

> <Gold.PLP.Chemscore.Metal>
0.0000

> <Gold.Chemscore.Hbonds>
donor molecule, donor type, donor heavy atom, donor atom, acceptor molecule, acceptor atom, score
      L1  H     5    29       P1  7921  0.94
      L1  H     6    30       P1  7948  1.00
      L1  H    19    43       P1  8028  2.00
      P1  H  7954  7966       L1     5  0.36

> <Gold.PLP.Chemscore.Internal.Correction>
0.0444

> <Gold.Rescore>
     Score         DG    S(hbond)    S(metal)    S(lipo)     H(rot)  DE(clash)    DE(int)     intcor
     14.77     -20.81       3.02        0.00      94.55       2.27       2.98       3.06       ----

> <Gold.Chemscore.Fitness>
14.7663

> <Gold.Chemscore.DG>
-20.8116

> <Gold.Chemscore.ZeroCoef>
-5.4800

> <Gold.Chemscore.Hbond>
3.0172

> <Gold.Chemscore.Metal>
0.0000

> <Gold.Chemscore.Lipo>
94.5459

> <Gold.Chemscore.Internal_Hbond>
0.0000

> <Gold.Chemscore.DEClash>
2.9828

> <Gold.Chemscore.DEInternal>
3.0625

> <Gold.Chemscore.Rot>
2.2687

> <Gold.Chemscore.Internal.Correction>
   9.000000E+99

> <Gold.Chemscore.Hbonds>
donor molecule, donor type, donor heavy atom, donor atom, acceptor molecule, acceptor atom, score
      L1  H     5    29       P1  7921  0.82
      L1  H     6    30       P1  7948  0.99
      L1  H    19    43       P1  8028  0.95
      P1  H  7954  7966       L1     5  0.07

> <Gold.Chemscore.Hbond.Weighted>
-10.0775

> <Gold.Chemscore.Metal.Weighted>
-0.0000

> <Gold.Chemscore.Lipo.Weighted>
-11.0619

> <Gold.Chemscore.Internal_Hbond.Weighted>
0.0000

> <Gold.Chemscore.DEClash.Weighted>
2.9828

> <Gold.Chemscore.DEInternal.Weighted>
3.0625

> <Gold.Chemscore.Rot.Weighted>
5.8078

> <Gold.Chemscore.Internal.Correction.Weighted>
   9.000000E+99

> <Gold.Protein.RotatedTorsions>
[ 6907 6896 6895 6894 ] final -124.30 input  -60.11 | X-H torsion
[ 7974 7965 7964 7962 ] final   61.08 input  175.53 | X-H torsion
[ 8008 7997 7996 7995 ] final -107.38 input   59.86 | X-H torsion
[ 10167 10162 10161 10158 ] final  107.17 input  -65.29 | X-H torsion
[ 10718 10713 10712 10709 ] final -166.19 input   66.30 | X-H torsion
[ 10763 10752 10751 10750 ] final  -46.79 input  -60.55 | X-H torsion
[ 11005 11000 10999 10996 ] final   64.82 input  -57.11 | X-H torsion

> <Gold.Protein.ActiveResidues>
 VAL166  LYS551  ARG553  GLY616  TRP617  ASP618  TYR619  PRO620  LYS621  CYS622 
 ASP623  PHE694  ASN695  SER759  ASP760  ASP761  ALA762  ILE779  LEU786  VAL792 
 PHE793  MET794  SER795  GLU796  ALA797  LYS798  CYS799  TRP800  GLU811  SER814 

> <Gold.Protein.RotatedAtoms>
  150.8755  133.7445  159.2947 H   0  0  0  0  0  0  0  0  0  0  0  0  # atno 6907 bound_to 6896
  151.5043  135.1061  159.9847 H   0  0  0  0  0  0  0  0  0  0  0  0  # atno 6908 bound_to 6896
  152.4724  133.8016  159.7011 H   0  0  0  0  0  0  0  0  0  0  0  0  # atno 6909 bound_to 6896
  145.8887  139.3495  143.0662 H   0  0  0  0  0  0  0  0  0  0  0  0  # atno 7974 bound_to 7965
  154.9285  140.0405  157.2036 H   0  0  0  0  0  0  0  0  0  0  0  0  # atno 8008 bound_to 7997
  154.8184  140.2879  155.5782 H   0  0  0  0  0  0  0  0  0  0  0  0  # atno 8009 bound_to 7997
  156.2978  140.2523  156.3086 H   0  0  0  0  0  0  0  0  0  0  0  0  # atno 8010 bound_to 7997
  139.6949  144.7103  151.1284 H   0  0  0  0  0  0  0  0  0  0  0  0  # atno 10167 bound_to 10162
  156.6643  130.9058  151.3034 H   0  0  0  0  0  0  0  0  0  0  0  0  # atno 10718 bound_to 10713
  154.0507  135.6631  153.4800 H   0  0  0  0  0  0  0  0  0  0  0  0  # atno 10763 bound_to 10752
  153.0465  135.5111  154.7753 H   0  0  0  0  0  0  0  0  0  0  0  0  # atno 10764 bound_to 10752
  154.6759  135.3037  154.9646 H   0  0  0  0  0  0  0  0  0  0  0  0  # atno 10765 bound_to 10752
  139.9934  134.6556  156.0052 H   0  0  0  0  0  0  0  0  0  0  0  0  # atno 11005 bound_to 11000
  145.8934  140.9289  143.0540 LP  0  0  0  0  0  0  0  0  0  0  0  0  # atno 17320 bound_to 7965
  144.6729  140.0937  143.7464 LP  0  0  0  0  0  0  0  0  0  0  0  0  # atno 17321 bound_to 7965
  140.7693  143.5506  150.9209 LP  0  0  0  0  0  0  0  0  0  0  0  0  # atno 17342 bound_to 10162
  139.9185  143.6635  152.3101 LP  0  0  0  0  0  0  0  0  0  0  0  0  # atno 17343 bound_to 10162
  157.7099  130.9428  150.1054 LP  0  0  0  0  0  0  0  0  0  0  0  0  # atno 17370 bound_to 10713
  156.1987  130.3659  149.8816 LP  0  0  0  0  0  0  0  0  0  0  0  0  # atno 17371 bound_to 10713
  141.1584  133.6540  156.4238 LP  0  0  0  0  0  0  0  0  0  0  0  0  # atno 17394 bound_to 11000
  140.4865  134.6616  157.5193 LP  0  0  0  0  0  0  0  0  0  0  0  0  # atno 17395 bound_to 11000

$$$$
