#       Name:                AV-unprocessed.smi:3015
#       Creating user name   scv26
#       Creation time:       Fri Mar 27 16:41:02 2020


#       File generated by GOLD software.
#

@<TRIPOS>MOLECULE
AV-unprocessed.smi:3015
    27    27     1
SMALL
NO_CHARGES


@<TRIPOS>ATOM
      1 ****         0.8159  -1.5857  -1.0255 N.3            1 S1                 0.0000
      2 ****         1.2273  -0.7563   0.1196 C.3            1 S1                 0.0000
      3 ****         2.7617  -0.7308   0.2448 C.3            1 S1                 0.0000
      4 ****         3.1603  -0.1356   1.4618 O.3            1 S1                 0.0000
      5 ****         0.6345   0.6653   0.0206 C.3            1 S1                 0.0000
      6 ****        -0.8824   0.6815   0.0872 C.ar           1 S1                 0.0000
      7 ****        -1.6613   0.7818  -1.0841 C.ar           1 S1                 0.0000
      8 ****        -3.0646   0.7933  -0.9672 C.ar           1 S1                 0.0000
      9 ****        -3.6308   0.7030   0.3200 C.ar           1 S1                 0.0000
     10 ****        -2.8954   0.6061   1.4486 N.ar           1 S1                 0.0000
     11 ****        -1.5504   0.5962   1.3273 C.ar           1 S1                 0.0000
     12 ****         1.1557  -1.1815  -1.8970 H              1 S1                 0.0000
     13 ****         1.2240  -2.5164  -0.9534 H              1 S1                 0.0000
     14 ****         0.8383  -1.2190   1.0276 H              1 S1                 0.0000
     15 ****         3.1617  -1.7451   0.2201 H              1 S1                 0.0000
     16 ****         3.2119  -0.1869  -0.5864 H              1 S1                 0.0000
     17 ****         4.1041  -0.1493   1.5083 H              1 S1                 0.0000
     18 ****         1.0067   1.2884   0.8344 H              1 S1                 0.0000
     19 ****         0.9631   1.1475  -0.9013 H              1 S1                 0.0000
     20 ****        -1.1938   0.8467  -2.0557 H              1 S1                 0.0000
     21 ****        -3.6922   0.8694  -1.8427 H              1 S1                 0.0000
     22 ****        -4.7033   0.7098   0.4462 H              1 S1                 0.0000
     23 ****        -0.9909   0.5175   2.2479 H              1 S1                 0.0000
     24 ****        -0.1830  -1.6314  -1.0188 LP             1 S1                 0.0000
     25 ****         2.7775  -0.6493   2.2296 LP             1 S1                 0.0000
     26 ****         2.8347   0.8092   1.4975 LP             1 S1                 0.0000
     27 ****        -3.3329   0.5437   2.3456 LP             1 S1                 0.0000
@<TRIPOS>BOND
    1    1    2 1     
    2    1   12 1     
    3    1   13 1     
    4    2    3 1     
    5    2    5 1     
    6    2   14 1     
    7    3    4 1     
    8    3   15 1     
    9    3   16 1     
   10    4   17 1     
   11    5    6 1     
   12    5   18 1     
   13    5   19 1     
   14    6   11 ar    
   15    6    7 ar    
   16    7    8 ar    
   17    7   20 1     
   18    8    9 ar    
   19    8   21 1     
   20    9   10 ar    
   21    9   22 1     
   22   10   11 ar    
   23   11   23 1     
   24    1   24 1     
   25    4   25 1     
   26    4   26 1     
   27   10   27 1     
@<TRIPOS>SUBSTRUCTURE
      1 S1             1
@<TRIPOS>SET
LONE_PAIRS      STATIC     ATOMS    <user>   **** ""
4 24 25 26 27
DONOR_HYDROGENS      STATIC     ATOMS    <user>   **** ""
3 12 13 17
ATOM$BLUE        STATIC     ATOMS    COLORGROUP SYSTEM
4 24 25 26 27
ATOM$RED        STATIC     ATOMS    COLORGROUP SYSTEM
3 12 13 17
