#       Name:                AV-unprocessed.smi:1419
#       Creating user name   scv26
#       Creation time:       Fri Mar 27 05:42:00 2020


#       File generated by GOLD software.
#

@<TRIPOS>MOLECULE
AV-unprocessed.smi:1419
    46    47     1
SMALL
NO_CHARGES


@<TRIPOS>ATOM
      1 ****        -3.7563  -0.9786  -1.5293 C.3            1 S1                 0.0000
      2 ****        -2.8669  -0.3692  -0.4375 C.3            1 S1                 0.0000
      3 ****        -2.7796  -1.2935   0.7961 C.3            1 S1                 0.0000
      4 ****        -2.0470  -0.6862   1.9131 N.pl3          1 S1                 0.0000
      5 ****        -2.4859   0.3057   2.7519 C.2            1 S1                 0.0000
      6 ****        -1.4588   0.5635   3.6230 C.2            1 S1                 0.0000
      7 ****        -0.4391  -0.2845   3.2827 N.pl3          1 S1                 1.0000
      8 ****        -0.8006  -1.0479   2.2465 C.2            1 S1                 0.0000
      9 ****        -1.5376  -0.1186  -0.9928 N.am           1 S1                 0.0000
     10 ****        -0.7548   0.9405  -0.7198 C.2            1 S1                 0.0000
     11 ****        -1.1320   1.8693  -0.0040 O.2            1 S1                 0.0000
     12 ****         0.4726   0.8983  -1.2933 N.am           1 S1                 0.0000
     13 ****         1.1069  -0.2741  -1.9104 C.3            1 S1                 0.0000
     14 ****         2.1492  -0.8259  -0.9167 C.3            1 S1                 0.0000
     15 ****         2.9087  -2.0309  -1.4816 C.3            1 S1                 0.0000
     16 ****         3.0974   0.1991  -0.6181 O.3            1 S1                 0.0000
     17 ****         2.5199   1.3866  -0.0741 C.3            1 S1                 0.0000
     18 ****         3.6479   2.3867   0.1997 C.3            1 S1                 0.0000
     19 ****         1.4762   1.9398  -1.0660 C.3            1 S1                 0.0000
     20 ****        -4.7668  -1.1546  -1.1590 H              1 S1                 0.0000
     21 ****        -3.3604  -1.9325  -1.8796 H              1 S1                 0.0000
     22 ****        -3.8340  -0.3132  -2.3898 H              1 S1                 0.0000
     23 ****        -3.3273   0.5741  -0.1378 H              1 S1                 0.0000
     24 ****        -3.7795  -1.5320   1.1611 H              1 S1                 0.0000
     25 ****        -2.3028  -2.2413   0.5399 H              1 S1                 0.0000
     26 ****        -3.4674   0.7488   2.6629 H              1 S1                 0.0000
     27 ****        -1.3790   1.2696   4.4369 H              1 S1                 0.0000
     28 ****        -0.1984  -1.7987   1.7662 H              1 S1                 0.0000
     29 ****        -1.1650  -0.8269  -1.6084 H              1 S1                 0.0000
     30 ****         0.4042  -1.0582  -2.1929 H              1 S1                 0.0000
     31 ****         1.5943   0.0275  -2.8390 H              1 S1                 0.0000
     32 ****         1.6526  -1.1285   0.0070 H              1 S1                 0.0000
     33 ****         2.2283  -2.8507  -1.7137 H              1 S1                 0.0000
     34 ****         3.6418  -2.4005  -0.7642 H              1 S1                 0.0000
     35 ****         3.4411  -1.7679  -2.3961 H              1 S1                 0.0000
     36 ****         2.0343   1.1415   0.8724 H              1 S1                 0.0000
     37 ****         3.2588   3.3082   0.6334 H              1 S1                 0.0000
     38 ****         4.1772   2.6455  -0.7181 H              1 S1                 0.0000
     39 ****         4.3752   1.9721   0.8982 H              1 S1                 0.0000
     40 ****         1.9510   2.2023  -2.0128 H              1 S1                 0.0000
     41 ****         1.0414   2.8649  -0.6839 H              1 S1                 0.0000
     42 ****         0.4599  -0.3287   3.7464 H              1 S1                 0.0000
     43 ****        -2.0483   1.8519   0.3962 LP             1 S1                 0.0000
     44 ****        -0.5219   2.6407   0.1770 LP             1 S1                 0.0000
     45 ****         3.5753   0.4406  -1.4626 LP             1 S1                 0.0000
     46 ****         3.7534  -0.1631   0.0442 LP             1 S1                 0.0000
@<TRIPOS>BOND
    1    1    2 1     
    2    1   20 1     
    3    1   21 1     
    4    1   22 1     
    5    2    3 1     
    6    2    9 1     
    7    2   23 1     
    8    3    4 1     
    9    3   24 1     
   10    3   25 1     
   11    4    8 1     
   12    4    5 1     
   13    5    6 2     
   14    5   26 1     
   15    6    7 1     
   16    6   27 1     
   17    7    8 2     
   18    7   42 1     
   19    8   28 1     
   20    9   10 am    
   21    9   29 1     
   22   10   11 2     
   23   10   12 am    
   24   12   19 1     
   25   12   13 1     
   26   13   14 1     
   27   13   30 1     
   28   13   31 1     
   29   14   15 1     
   30   14   16 1     
   31   14   32 1     
   32   15   33 1     
   33   15   34 1     
   34   15   35 1     
   35   16   17 1     
   36   17   18 1     
   37   17   19 1     
   38   17   36 1     
   39   18   37 1     
   40   18   38 1     
   41   18   39 1     
   42   19   40 1     
   43   19   41 1     
   44   11   43 1     
   45   11   44 1     
   46   16   45 1     
   47   16   46 1     
@<TRIPOS>SUBSTRUCTURE
      1 S1             1
@<TRIPOS>SET
LONE_PAIRS      STATIC     ATOMS    <user>   **** ""
4 43 44 45 46
DONOR_HYDROGENS      STATIC     ATOMS    <user>   **** ""
2 42 29
ATOM$BLUE        STATIC     ATOMS    COLORGROUP SYSTEM
4 43 44 45 46
ATOM$RED        STATIC     ATOMS    COLORGROUP SYSTEM
2 42 29
