#       Name:                AV-unprocessed.smi:1214
#       Creating user name   scv26
#       Creation time:       Fri Mar 27 04:14:31 2020


#       File generated by GOLD software.
#

@<TRIPOS>MOLECULE
AV-unprocessed.smi:1214
    36    37     1
SMALL
NO_CHARGES


@<TRIPOS>ATOM
      1 ****        -1.8917  -3.3976  -0.5332 C.3            1 S1                 0.0000
      2 ****        -0.5411  -4.0471  -0.2764 C.ar           1 S1                 0.0000
      3 ****        -0.4465  -5.4550  -0.2637 C.ar           1 S1                 0.0000
      4 ****         0.8010  -6.0567  -0.0269 C.ar           1 S1                 0.0000
      5 ****         1.9081  -5.2192   0.1876 C.ar           1 S1                 0.0000
      6 ****         1.8260  -3.8730   0.1772 N.ar           1 S1                 0.0000
      7 ****         0.6281  -3.2729  -0.0448 C.ar           1 S1                 0.0000
      8 ****         0.4567  -1.8547  -0.0912 N.am           1 S1                 0.0000
      9 ****         1.2850  -0.8403   0.2374 C.2            1 S1                 0.0000
     10 ****         2.4223  -1.0584   0.6515 O.2            1 S1                 0.0000
     11 ****         0.8001   0.4007   0.0694 N.am           1 S1                 0.0000
     12 ****         1.5221   1.6367   0.3485 C.3            1 S1                 0.0000
     13 ****         1.4898   1.9982   1.8470 C.3            1 S1                 0.0000
     14 ****         1.9160   3.4626   2.0098 C.3            1 S1                 0.0000
     15 ****         1.3948   4.3203   0.4760 S.o2           1 S1                 0.0000
     16 ****         0.1943   5.1267   0.7436 O.2            1 S1                 0.0000
     17 ****         2.5789   4.9148  -0.1622 O.2            1 S1                 0.0000
     18 ****         0.9096   2.8062  -0.4335 C.3            1 S1                 0.0000
     19 ****        -2.6711  -4.1457  -0.6808 H              1 S1                 0.0000
     20 ****        -1.8527  -2.7741  -1.4269 H              1 S1                 0.0000
     21 ****        -2.1820  -2.7741   0.3128 H              1 S1                 0.0000
     22 ****        -1.3180  -6.0700  -0.4341 H              1 S1                 0.0000
     23 ****         0.9063  -7.1314  -0.0116 H              1 S1                 0.0000
     24 ****         2.8858  -5.6393   0.3715 H              1 S1                 0.0000
     25 ****        -0.4350  -1.5584  -0.4597 H              1 S1                 0.0000
     26 ****        -0.1465   0.4902  -0.2726 H              1 S1                 0.0000
     27 ****         2.5638   1.5340   0.0383 H              1 S1                 0.0000
     28 ****         0.4699   1.8890   2.2190 H              1 S1                 0.0000
     29 ****         2.1166   1.3320   2.4405 H              1 S1                 0.0000
     30 ****         1.4687   3.9412   2.8809 H              1 S1                 0.0000
     31 ****         3.0004   3.5427   2.0862 H              1 S1                 0.0000
     32 ****         1.2570   2.8591  -1.4654 H              1 S1                 0.0000
     33 ****        -0.1799   2.7551  -0.4340 H              1 S1                 0.0000
     34 ****         2.6439  -3.3190   0.3324 LP             1 S1                 0.0000
     35 ****         2.7469  -1.9991   0.7495 LP             1 S1                 0.0000
     36 ****         3.0224  -0.2949   0.8903 LP             1 S1                 0.0000
@<TRIPOS>BOND
    1    1    2 1     
    2    1   19 1     
    3    1   20 1     
    4    1   21 1     
    5    2    7 ar    
    6    2    3 ar    
    7    3    4 ar    
    8    3   22 1     
    9    4    5 ar    
   10    4   23 1     
   11    5    6 ar    
   12    5   24 1     
   13    6    7 ar    
   14    7    8 1     
   15    8    9 am    
   16    8   25 1     
   17    9   10 2     
   18    9   11 am    
   19   11   12 1     
   20   11   26 1     
   21   12   18 1     
   22   12   13 1     
   23   12   27 1     
   24   13   14 1     
   25   13   28 1     
   26   13   29 1     
   27   14   15 1     
   28   14   30 1     
   29   14   31 1     
   30   15   16 2     
   31   15   17 2     
   32   15   18 1     
   33   18   32 1     
   34   18   33 1     
   35    6   34 1     
   36   10   35 1     
   37   10   36 1     
@<TRIPOS>SUBSTRUCTURE
      1 S1             1
@<TRIPOS>SET
LONE_PAIRS      STATIC     ATOMS    <user>   **** ""
5 34 35 36 16 17
DONOR_HYDROGENS      STATIC     ATOMS    <user>   **** ""
2 25 26
ATOM$BLUE        STATIC     ATOMS    COLORGROUP SYSTEM
5 34 35 36 16 17
ATOM$RED        STATIC     ATOMS    COLORGROUP SYSTEM
2 25 26
