AV-unprocessed.smi:33|AV-procd|sdf|201|dock1
  -GOLD-   2262015473D 1   1.00000     0.00000
 Structure written by MMmdl.
 67 72  0  0  0  0  0  0  0  0  1 V2000
  152.0047  140.4773  158.5071 O   0  0  0  0  0  0  0  0  0  0  0  0
  151.8062  141.5732  157.9787 C   0  0  0  0  0  0  0  0  0  0  0  0
  151.5548  141.7323  156.6647 O   0  0  0  0  0  0  0  0  0  0  0  0
  151.3488  140.5970  155.8402 C   0  0  0  0  0  0  0  0  0  0  0  0
  149.8724  140.1880  155.9049 C   0  0  2  0  0  0  0  0  0  0  0  0
  149.6386  139.3005  156.9867 O   0  0  0  0  0  0  0  0  0  0  0  0
  148.4407  138.6280  156.7563 C   0  0  2  0  0  0  0  0  0  0  0  0
  148.5783  137.2419  157.2935 N   0  0  0  0  0  0  0  0  0  0  0  0
  149.6987  136.6627  157.8469 C   0  0  0  0  0  0  0  0  0  0  0  0
  149.5517  135.4277  158.2444 N   0  0  0  0  0  0  0  0  0  0  0  0
  148.2301  135.1314  157.9363 C   0  0  0  0  0  0  0  0  0  0  0  0
  147.4136  133.9783  158.0901 C   0  0  0  0  0  0  0  0  0  0  0  0
  147.8653  132.8225  158.6318 N   0  0  0  0  0  0  0  0  0  0  0  0
  148.6367  131.9287  157.7552 C   0  0  0  0  0  0  0  0  0  0  0  0
  149.4389  131.1343  158.2498 O   0  0  0  0  0  0  0  0  0  0  0  0
  148.4879  132.0108  156.2622 C   0  0  0  0  0  0  0  0  0  0  0  0
  149.6148  131.8352  155.4293 C   0  0  0  0  0  0  0  0  0  0  0  0
  149.4788  131.8942  154.0288 C   0  0  0  0  0  0  0  0  0  0  0  0
  148.2129  132.1107  153.4518 C   0  0  0  0  0  0  0  0  0  0  0  0
  147.0807  132.2585  154.2756 C   0  0  0  0  0  0  0  0  0  0  0  0
  147.2159  132.2000  155.6762 C   0  0  0  0  0  0  0  0  0  0  0  0
  147.5354  132.5615  160.0409 C   0  0  0  0  0  0  0  0  0  0  0  0
  147.4803  131.3991  160.4470 O   0  0  0  0  0  0  0  0  0  0  0  0
  147.2086  133.6972  160.9692 C   0  0  0  0  0  0  0  0  0  0  0  0
  147.9637  134.8897  160.9210 C   0  0  0  0  0  0  0  0  0  0  0  0
  147.6554  135.9603  161.7825 C   0  0  0  0  0  0  0  0  0  0  0  0
  146.5781  135.8533  162.6828 C   0  0  0  0  0  0  0  0  0  0  0  0
  145.8033  134.6784  162.7157 C   0  0  0  0  0  0  0  0  0  0  0  0
  146.1119  133.6068  161.8560 C   0  0  0  0  0  0  0  0  0  0  0  0
  146.1245  134.0491  157.6672 N   0  0  0  0  0  0  0  0  0  0  0  0
  145.6647  135.1805  157.1254 C   0  0  0  0  0  0  0  0  0  0  0  0
  146.3114  136.3294  156.9180 N   0  0  0  0  0  0  0  0  0  0  0  0
  147.6069  136.2630  157.3422 C   0  0  0  0  0  0  0  0  0  0  0  0
  148.1966  138.6090  155.2367 C   0  0  1  0  0  0  0  0  0  0  0  0
  146.9895  139.2571  154.8897 O   0  0  0  0  0  0  0  0  0  0  0  0
  149.3828  139.3950  154.6912 C   0  0  2  0  0  0  0  0  0  0  0  0
  150.3200  138.5456  154.2673 F   0  0  0  0  0  0  0  0  0  0  0  0
  151.8184  142.8627  158.7281 C   0  0  0  0  0  0  0  0  0  0  0  0
  152.1492  142.8616  160.1035 C   0  0  0  0  0  0  0  0  0  0  0  0
  152.1653  144.0631  160.8386 C   0  0  0  0  0  0  0  0  0  0  0  0
  151.8500  145.2804  160.2075 C   0  0  0  0  0  0  0  0  0  0  0  0
  151.5186  145.2949  158.8401 C   0  0  0  0  0  0  0  0  0  0  0  0
  151.5024  144.0946  158.1032 C   0  0  0  0  0  0  0  0  0  0  0  0
  151.6184  140.8493  154.8137 H   0  0  0  0  0  0  0  0  0  0  0  0
  151.9895  139.7729  156.1579 H   0  0  0  0  0  0  0  0  0  0  0  0
  149.2410  141.0693  156.0327 H   0  0  0  0  0  0  0  0  0  0  0  0
  147.6276  139.0774  157.3287 H   0  0  0  0  0  0  0  0  0  0  0  0
  150.6360  137.1901  157.9500 H   0  0  0  0  0  0  0  0  0  0  0  0
  150.5911  131.6677  155.8610 H   0  0  0  0  0  0  0  0  0  0  0  0
  150.3461  131.7719  153.3972 H   0  0  0  0  0  0  0  0  0  0  0  0
  148.1093  132.1559  152.3777 H   0  0  0  0  0  0  0  0  0  0  0  0
  146.1080  132.4147  153.8331 H   0  0  0  0  0  0  0  0  0  0  0  0
  146.3390  132.3090  156.2986 H   0  0  0  0  0  0  0  0  0  0  0  0
  148.7930  134.9830  160.2348 H   0  0  0  0  0  0  0  0  0  0  0  0
  148.2459  136.8641  161.7522 H   0  0  0  0  0  0  0  0  0  0  0  0
  146.3422  136.6746  163.3433 H   0  0  0  0  0  0  0  0  0  0  0  0
  144.9717  134.5989  163.4001 H   0  0  0  0  0  0  0  0  0  0  0  0
  145.5080  132.7113  161.8874 H   0  0  0  0  0  0  0  0  0  0  0  0
  144.6312  135.1626  156.8122 H   0  0  0  0  0  0  0  0  0  0  0  0
  148.1759  137.5885  154.8502 H   0  0  0  0  0  0  0  0  0  0  0  0
  147.1983  140.0580  154.4338 H   0  0  0  0  0  0  0  0  0  0  0  0
  149.1346  140.0319  153.8412 H   0  0  0  0  0  0  0  0  0  0  0  0
  152.3936  141.9391  160.6103 H   0  0  0  0  0  0  0  0  0  0  0  0
  152.4190  144.0496  161.8885 H   0  0  0  0  0  0  0  0  0  0  0  0
  151.8625  146.2014  160.7713 H   0  0  0  0  0  0  0  0  0  0  0  0
  151.2754  146.2285  158.3544 H   0  0  0  0  0  0  0  0  0  0  0  0
  151.2418  144.1413  157.0559 H   0  0  0  0  0  0  0  0  0  0  0  0
  1  2  2  0  0  0  0
  2  3  1  0  0  0  0
  2 38  1  0  0  0  0
  3  4  1  0  0  0  0
  4  5  1  0  0  0  0
  4 44  1  0  0  0  0
  4 45  1  0  0  0  0
  5 36  1  0  0  0  0
  5  6  1  0  0  0  0
  5 46  1  0  0  0  0
  6  7  1  0  0  0  0
  7  8  1  0  0  0  0
  7 34  1  0  0  0  0
  7 47  1  0  0  0  0
  8 33  1  0  0  0  0
  8  9  1  0  0  0  0
  9 10  2  0  0  0  0
  9 48  1  0  0  0  0
 10 11  1  0  0  0  0
 11 33  2  0  0  0  0
 11 12  1  0  0  0  0
 12 13  1  0  0  0  0
 12 30  2  0  0  0  0
 13 14  1  0  0  0  0
 13 22  1  0  0  0  0
 14 15  2  0  0  0  0
 14 16  1  0  0  0  0
 16 21  1  0  0  0  0
 16 17  2  0  0  0  0
 17 18  1  0  0  0  0
 17 49  1  0  0  0  0
 18 19  2  0  0  0  0
 18 50  1  0  0  0  0
 19 20  1  0  0  0  0
 19 51  1  0  0  0  0
 20 21  2  0  0  0  0
 20 52  1  0  0  0  0
 21 53  1  0  0  0  0
 22 23  2  0  0  0  0
 22 24  1  0  0  0  0
 24 29  1  0  0  0  0
 24 25  2  0  0  0  0
 25 26  1  0  0  0  0
 25 54  1  0  0  0  0
 26 27  2  0  0  0  0
 26 55  1  0  0  0  0
 27 28  1  0  0  0  0
 27 56  1  0  0  0  0
 28 29  2  0  0  0  0
 28 57  1  0  0  0  0
 29 58  1  0  0  0  0
 30 31  1  0  0  0  0
 31 32  2  0  0  0  0
 31 59  1  0  0  0  0
 32 33  1  0  0  0  0
 34 35  1  0  0  0  0
 34 36  1  0  0  0  0
 34 60  1  0  0  0  0
 35 61  1  0  0  0  0
 36 37  1  0  0  0  0
 36 62  1  0  0  0  0
 38 43  1  0  0  0  0
 38 39  2  0  0  0  0
 39 40  1  0  0  0  0
 39 63  1  0  0  0  0
 40 41  2  0  0  0  0
 40 64  1  0  0  0  0
 41 42  1  0  0  0  0
 41 65  1  0  0  0  0
 42 43  2  0  0  0  0
 42 66  1  0  0  0  0
 43 67  1  0  0  0  0
M  END
> <s_m_source_file>
AV-unprocessed.smi

> <i_m_source_file_index>
33

> <i_lp_mmshare_version>
43012

> <i_f3d_flags>
0

> <s_epik_input>
W2NIXTFbY0hdW2NIXVtjSF1bY0hdYzFDKD1PKU9bQ0gyXVtDQEBIXTJPW0NASF0oW0NAQEhdKFtPSF0pW0NAQEhdMkYpbihbY0hdbjMpYyhjMzQpbltjSF1uYzROKEMoPU8pYzVbY0hdW2NIXVtjSF1bY0hdW2NIXTUpQyg9TyljNltjSF1bY0hdW2NIXVtjSF1bY0hdNg==

> <s_epik_cmdline>
J2VwaWtfcHl0aG9uJywgJy1waCcsICc3LjAnLCAnLXRuJywgJzgnLCAnLW1hJywgJzIwMCcsICctbWV0YWxfYmluZGluZycsICctaW1hZScsICc8aW5maWxlLm1hZT4nLCAnLW9tYWUnLCAnPG91dGZpbGUubWFlPic=

> <r_lp_tautomer_probability>
1

> <r_epik_Ionization_Penalty>
0.00067664

> <r_epik_Ionization_Penalty_Charging>
0

> <r_epik_Ionization_Penalty_Neutral>
0.00067664

> <r_epik_State_Penalty>
0.000428095

> <r_epik_Charging_Adjusted_Penalty>
0.000428095

> <i_epik_Tot_Q>
0

> <i_epik_Tot_abs_Q>
0

> <r_epik_Metal_State_Penalty>
-0

> <b_epik_Metal_Only>
0

> <s_epik_Chemistry_Notes>
This compound has an ester and may undergo hydrolysis at high or low pH. This compound contains an acetal/aminal-like group ( X-CH(R)-Y where X, Y are N, S, or O) that may be acid/base labile, releasing an aldehyde.

> <s_lp_Force_Field>
OPLS_2005

> <r_lp_Energy>
66.4626

> <b_lp_Chiralities_Consistent>
1

> <s_lp_Variant>
AV-unprocessed.smi:33-3

> <Gold.Version>
5.8.1

> <Gold.Id.Protein>
6NUR|6NUR_protein|mol2

> <Gold.PLP.Fitness>
61.4003

> <Gold.PLP.PLP>
-60.4635

> <Gold.PLP.part.hbond>
-1.0000

> <Gold.PLP.part.metal>
0.0000

> <Gold.PLP.part.buried>
-6.1452

> <Gold.PLP.part.nonpolar>
-53.0327

> <Gold.PLP.part.repulsive>
0.0429

> <Gold.PLP.ligand.clash>
0.0000

> <Gold.PLP.ligand.torsion>
3.7553

> <Gold.PLP.Chemscore.Hbond>
1.0000

> <Gold.PLP.Chemscore.CHOScore>
0.0000

> <Gold.PLP.Chemscore.Metal>
0.0000

> <Gold.Chemscore.Hbonds>
donor molecule, donor type, donor heavy atom, donor atom, acceptor molecule, acceptor atom, score
      P1  H  6896  6908       L1    10  1.00

> <Gold.PLP.Chemscore.Internal.Correction>
5.4475

> <Gold.Rescore>
     Score         DG    S(hbond)    S(metal)    S(lipo)     H(rot)  DE(clash)    DE(int)     intcor
     12.77     -20.99       0.98        0.00     159.81       2.52       0.95       7.28       ----

> <Gold.Chemscore.Fitness>
12.7695

> <Gold.Chemscore.DG>
-20.9919

> <Gold.Chemscore.ZeroCoef>
-5.4800

> <Gold.Chemscore.Hbond>
0.9811

> <Gold.Chemscore.Metal>
0.0000

> <Gold.Chemscore.Lipo>
159.8145

> <Gold.Chemscore.Internal_Hbond>
0.0000

> <Gold.Chemscore.DEClash>
0.9468

> <Gold.Chemscore.DEInternal>
7.2756

> <Gold.Chemscore.Rot>
2.5247

> <Gold.Chemscore.Internal.Correction>
   9.000000E+99

> <Gold.Chemscore.Hbonds>
donor molecule, donor type, donor heavy atom, donor atom, acceptor molecule, acceptor atom, score
      P1  H  6896  6908       L1    10  0.99

> <Gold.Chemscore.Hbond.Weighted>
-3.2768

> <Gold.Chemscore.Metal.Weighted>
-0.0000

> <Gold.Chemscore.Lipo.Weighted>
-18.6983

> <Gold.Chemscore.Internal_Hbond.Weighted>
0.0000

> <Gold.Chemscore.DEClash.Weighted>
0.9468

> <Gold.Chemscore.DEInternal.Weighted>
7.2756

> <Gold.Chemscore.Rot.Weighted>
6.4633

> <Gold.Chemscore.Internal.Correction.Weighted>
   9.000000E+99

> <Gold.Protein.RotatedTorsions>
[ 6907 6896 6895 6894 ] final  160.32 input  -60.11 | X-H torsion
[ 7974 7965 7964 7962 ] final   33.84 input  175.53 | X-H torsion
[ 8008 7997 7996 7995 ] final   99.37 input   59.86 | X-H torsion
[ 10167 10162 10161 10158 ] final  120.78 input  -65.29 | X-H torsion
[ 10718 10713 10712 10709 ] final -134.92 input   66.30 | X-H torsion
[ 10763 10752 10751 10750 ] final  -34.04 input  -60.55 | X-H torsion
[ 11005 11000 10999 10996 ] final    6.43 input  -57.11 | X-H torsion

> <Gold.Protein.ActiveResidues>
 VAL166  LYS551  ARG553  GLY616  TRP617  ASP618  TYR619  PRO620  LYS621  CYS622 
 ASP623  PHE694  ASN695  SER759  ASP760  ASP761  ALA762  ILE779  LEU786  VAL792 
 PHE793  MET794  SER795  GLU796  ALA797  LYS798  CYS799  TRP800  GLU811  SER814 

> <Gold.Protein.RotatedAtoms>
  151.9724  133.3730  159.4075 H   0  0  0  0  0  0  0  0  0  0  0  0  # atno 6907 bound_to 6896
  150.6947  134.4126  159.5178 H   0  0  0  0  0  0  0  0  0  0  0  0  # atno 6908 bound_to 6896
  152.1832  134.8736  160.0575 H   0  0  0  0  0  0  0  0  0  0  0  0  # atno 6909 bound_to 6896
  146.1394  139.6346  142.9173 H   0  0  0  0  0  0  0  0  0  0  0  0  # atno 7974 bound_to 7965
  156.1098  140.3230  155.8056 H   0  0  0  0  0  0  0  0  0  0  0  0  # atno 8008 bound_to 7997
  155.4693  140.0545  157.2998 H   0  0  0  0  0  0  0  0  0  0  0  0  # atno 8009 bound_to 7997
  154.4752  140.2029  155.9910 H   0  0  0  0  0  0  0  0  0  0  0  0  # atno 8010 bound_to 7997
  139.5960  144.7042  151.3175 H   0  0  0  0  0  0  0  0  0  0  0  0  # atno 10167 bound_to 10162
  156.2606  130.7207  151.1140 H   0  0  0  0  0  0  0  0  0  0  0  0  # atno 10718 bound_to 10713
  153.8401  135.6858  153.4804 H   0  0  0  0  0  0  0  0  0  0  0  0  # atno 10763 bound_to 10752
  153.1459  135.4638  154.9563 H   0  0  0  0  0  0  0  0  0  0  0  0  # atno 10764 bound_to 10752
  154.7849  135.3281  154.7856 H   0  0  0  0  0  0  0  0  0  0  0  0  # atno 10765 bound_to 10752
  140.5595  134.0205  155.7966 H   0  0  0  0  0  0  0  0  0  0  0  0  # atno 11005 bound_to 11000
  145.5082  141.0436  143.2502 LP  0  0  0  0  0  0  0  0  0  0  0  0  # atno 17320 bound_to 7965
  144.7775  139.6598  143.7168 LP  0  0  0  0  0  0  0  0  0  0  0  0  # atno 17321 bound_to 7965
  140.7212  143.7130  150.7755 LP  0  0  0  0  0  0  0  0  0  0  0  0  # atno 17342 bound_to 10162
  140.0696  143.5074  152.2586 LP  0  0  0  0  0  0  0  0  0  0  0  0  # atno 17343 bound_to 10162
  157.7249  131.0657  150.5976 LP  0  0  0  0  0  0  0  0  0  0  0  0  # atno 17370 bound_to 10713
  156.6063  130.4368  149.5876 LP  0  0  0  0  0  0  0  0  0  0  0  0  # atno 17371 bound_to 10713
  141.1123  133.9597  157.2888 LP  0  0  0  0  0  0  0  0  0  0  0  0  # atno 17394 bound_to 11000
  139.9414  135.0190  156.8721 LP  0  0  0  0  0  0  0  0  0  0  0  0  # atno 17395 bound_to 11000

$$$$
