AV-unprocessed.smi:1428|AV-procd|sdf|5817|dock1
  -GOLD-   22720 5473D 1   1.00000     0.00000
 Structure written by MMmdl.
 43 44  0  0  0  0  0  0  0  0  3 V2000
  151.7541  144.4660  159.3650 C   0  0  0  0  0  0  0  0  0  0  0  0
  151.6778  143.1069  158.9488 O   0  0  0  0  0  0  0  0  0  0  0  0
  152.4571  142.1721  159.6037 C   0  0  0  0  0  0  0  0  0  0  0  0
  153.1278  142.5579  160.7181 N   0  0  0  0  0  0  0  0  0  0  0  0
  153.8868  141.6461  161.3595 C   0  0  0  0  0  0  0  0  0  0  0  0
  154.0125  140.3115  160.9326 C   0  0  0  0  0  0  0  0  0  0  0  0
  153.3177  139.9084  159.7774 C   0  0  0  0  0  0  0  0  0  0  0  0
  152.5281  140.8582  159.0844 C   0  0  0  0  0  0  0  0  0  0  0  0
  151.7719  140.5559  157.9182 N   0  0  0  0  0  0  0  0  0  0  0  0
  152.0987  139.7521  156.8923 C   0  0  0  0  0  0  0  0  0  0  0  0
  153.1436  139.1096  156.7941 O   0  0  0  0  0  0  0  0  0  0  0  0
  151.1390  139.7496  155.9560 N   0  0  0  0  0  0  0  0  0  0  0  0
  151.1783  138.9915  154.7058 C   0  0  2  0  0  0  0  0  0  0  0  0
  149.9125  139.2184  153.8553 C   0  0  0  0  0  0  0  0  0  0  0  0
  148.6707  138.5629  154.4842 C   0  0  0  0  0  0  0  0  0  0  0  0
  148.8895  137.1125  154.7137 N   0  3  2  0  0  0  0  0  0  0  0  0
  147.6599  136.4246  155.1811 C   0  0  0  0  0  0  0  0  0  0  0  0
  146.4892  136.7263  154.2387 C   0  0  0  0  0  0  0  0  0  0  0  0
  146.6981  136.2603  152.9927 N   0  5  0  0  0  0  0  0  0  0  0  0
  145.5126  137.3434  154.6600 O   0  0  0  0  0  0  0  0  0  0  0  0
  150.0675  136.8681  155.5892 C   0  0  0  0  0  0  0  0  0  0  0  0
  151.3444  137.4888  154.9928 C   0  0  0  0  0  0  0  0  0  0  0  0
  151.0873  145.0701  158.7498 H   0  0  0  0  0  0  0  0  0  0  0  0
  152.7631  144.8633  159.2460 H   0  0  0  0  0  0  0  0  0  0  0  0
  151.4427  144.5836  160.4039 H   0  0  0  0  0  0  0  0  0  0  0  0
  154.4044  141.9890  162.2432 H   0  0  0  0  0  0  0  0  0  0  0  0
  154.6242  139.6112  161.4820 H   0  0  0  0  0  0  0  0  0  0  0  0
  153.3930  138.8809  159.4574 H   0  0  0  0  0  0  0  0  0  0  0  0
  150.9123  141.0760  157.8188 H   0  0  0  0  0  0  0  0  0  0  0  0
  150.3145  140.3076  156.1240 H   0  0  0  0  0  0  0  0  0  0  0  0
  152.0489  139.3265  154.1390 H   0  0  0  0  0  0  0  0  0  0  0  0
  149.7355  140.2833  153.7009 H   0  0  0  0  0  0  0  0  0  0  0  0
  150.0710  138.7955  152.8625 H   0  0  0  0  0  0  0  0  0  0  0  0
  148.4188  139.0491  155.4280 H   0  0  0  0  0  0  0  0  0  0  0  0
  147.8187  138.7056  153.8185 H   0  0  0  0  0  0  0  0  0  0  0  0
  147.8466  135.3547  155.2975 H   0  0  0  0  0  0  0  0  0  0  0  0
  147.3746  136.8000  156.1649 H   0  0  0  0  0  0  0  0  0  0  0  0
  147.5932  136.4598  152.5305 H   0  0  0  0  0  0  0  0  0  0  0  0
  149.8748  137.2773  156.5820 H   0  0  0  0  0  0  0  0  0  0  0  0
  150.2245  135.7969  155.7195 H   0  0  0  0  0  0  0  0  0  0  0  0
  151.5872  136.9725  154.0630 H   0  0  0  0  0  0  0  0  0  0  0  0
  152.1904  137.3217  155.6608 H   0  0  0  0  0  0  0  0  0  0  0  0
  149.1032  136.7092  153.8124 H   0  0  0  0  0  0  0  0  0  0  0  0
  1  2  1  0  0  0  0
  1 23  1  0  0  0  0
  1 24  1  0  0  0  0
  1 25  1  0  0  0  0
  2  3  1  0  0  0  0
  3  8  1  0  0  0  0
  3  4  2  0  0  0  0
  4  5  1  0  0  0  0
  5  6  2  0  0  0  0
  5 26  1  0  0  0  0
  6  7  1  0  0  0  0
  6 27  1  0  0  0  0
  7  8  2  0  0  0  0
  7 28  1  0  0  0  0
  8  9  1  0  0  0  0
  9 10  1  0  0  0  0
  9 29  1  0  0  0  0
 10 11  2  0  0  0  0
 10 12  1  0  0  0  0
 12 13  1  0  0  0  0
 12 30  1  0  0  0  0
 13 22  1  0  0  0  0
 13 14  1  0  0  0  0
 13 31  1  0  0  0  0
 14 15  1  0  0  0  0
 14 32  1  0  0  0  0
 14 33  1  0  0  0  0
 15 16  1  0  0  0  0
 15 34  1  0  0  0  0
 15 35  1  0  0  0  0
 16 17  1  0  0  0  0
 16 21  1  0  0  0  0
 16 43  1  0  0  0  0
 17 18  1  0  0  0  0
 17 36  1  0  0  0  0
 17 37  1  0  0  0  0
 18 19  1  0  0  0  0
 18 20  2  0  0  0  0
 19 38  1  0  0  0  0
 21 22  1  0  0  0  0
 21 39  1  0  0  0  0
 21 40  1  0  0  0  0
 22 41  1  0  0  0  0
 22 42  1  0  0  0  0
M  CHG  1  16   1
M  CHG  1  19  -1
M  END
> <s_m_source_file>
AV-unprocessed.smi

> <i_m_source_file_index>
1428

> <i_lp_mmshare_version>
43012

> <i_f3d_flags>
0

> <s_epik_input>
W0NIM11PYzFuW2NIXVtjSF1bY0hdYzFbTkhdQyg9TylbTkhdW0NIXTJbQ0gyXVtDSDJdTihbQ0gyXVtDSDJdMilbQ0gyXUMoPU8pW05IMl0=

> <s_epik_cmdline>
J2VwaWtfcHl0aG9uJywgJy1waCcsICc3LjAnLCAnLXRuJywgJzgnLCAnLW1hJywgJzIwMCcsICctbWV0YWxfYmluZGluZycsICctaW1hZScsICc8aW5maWxlLm1hZT4nLCAnLW9tYWUnLCAnPG91dGZpbGUubWFlPic=

> <r_lp_tautomer_probability>
1

> <r_epik_Ionization_Penalty>
5.72888

> <r_epik_Ionization_Penalty_Charging>
5.7288

> <r_epik_Ionization_Penalty_Neutral>
7.84403e-05

> <r_epik_State_Penalty>
6.54882

> <r_epik_Charging_Adjusted_Penalty>
12.2776

> <i_epik_Tot_Q>
0

> <i_epik_Tot_abs_Q>
2

> <r_epik_Metal_State_Penalty>
2.51301

> <b_epik_Metal_Only>
1

> <s_lp_Force_Field>
OPLS_2005

> <r_lp_Energy>
10.1368

> <b_lp_Chiralities_Consistent>
1

> <s_lp_Variant>
AV-unprocessed.smi:1428-5

> <Gold.Version>
5.8.1

> <Gold.Id.Protein>
6NUR|6NUR_protein|mol2

> <Gold.PLP.Fitness>
45.1692

> <Gold.PLP.PLP>
-33.8561

> <Gold.PLP.part.hbond>
-2.9681

> <Gold.PLP.part.metal>
0.0000

> <Gold.PLP.part.buried>
-2.9848

> <Gold.PLP.part.nonpolar>
-28.2221

> <Gold.PLP.part.repulsive>
0.2751

> <Gold.PLP.ligand.clash>
0.0000

> <Gold.PLP.ligand.torsion>
0.3740

> <Gold.PLP.Chemscore.Hbond>
4.0000

> <Gold.PLP.Chemscore.CHOScore>
0.0000

> <Gold.PLP.Chemscore.Metal>
0.0000

> <Gold.Chemscore.Hbonds>
donor molecule, donor type, donor heavy atom, donor atom, acceptor molecule, acceptor atom, score
      L1  H    16    43       P1  7948  2.00
      L1  H    19    38       P1  7948  0.99
      P1  H  7997  8010       L1    11  1.00

> <Gold.PLP.Chemscore.Internal.Correction>
0.0611

> <Gold.Rescore>
     Score         DG    S(hbond)    S(metal)    S(lipo)     H(rot)  DE(clash)    DE(int)     intcor
     15.33     -18.11       2.87        0.00      76.05       2.29       0.91       1.87       ----

> <Gold.Chemscore.Fitness>
15.3280

> <Gold.Chemscore.DG>
-18.1069

> <Gold.Chemscore.ZeroCoef>
-5.4800

> <Gold.Chemscore.Hbond>
2.8713

> <Gold.Chemscore.Metal>
0.0000

> <Gold.Chemscore.Lipo>
76.0473

> <Gold.Chemscore.Internal_Hbond>
0.0000

> <Gold.Chemscore.DEClash>
0.9134

> <Gold.Chemscore.DEInternal>
1.8654

> <Gold.Chemscore.Rot>
2.2894

> <Gold.Chemscore.Internal.Correction>
   9.000000E+99

> <Gold.Chemscore.Hbonds>
donor molecule, donor type, donor heavy atom, donor atom, acceptor molecule, acceptor atom, score
      L1  H    16    43       P1  7948  0.96
      L1  H    19    38       P1  7948  0.92
      P1  H  7997  8010       L1    11  0.73

> <Gold.Chemscore.Hbond.Weighted>
-9.5901

> <Gold.Chemscore.Metal.Weighted>
-0.0000

> <Gold.Chemscore.Lipo.Weighted>
-8.8975

> <Gold.Chemscore.Internal_Hbond.Weighted>
0.0000

> <Gold.Chemscore.DEClash.Weighted>
0.9134

> <Gold.Chemscore.DEInternal.Weighted>
1.8654

> <Gold.Chemscore.Rot.Weighted>
5.8608

> <Gold.Chemscore.Internal.Correction.Weighted>
   9.000000E+99

> <Gold.Protein.RotatedTorsions>
[ 6907 6896 6895 6894 ] final   16.98 input  -60.11 | X-H torsion
[ 7974 7965 7964 7962 ] final -112.13 input  175.53 | X-H torsion
[ 8008 7997 7996 7995 ] final   69.73 input   59.86 | X-H torsion
[ 10167 10162 10161 10158 ] final   41.72 input  -65.29 | X-H torsion
[ 10718 10713 10712 10709 ] final  138.43 input   66.30 | X-H torsion
[ 10763 10752 10751 10750 ] final -174.86 input  -60.55 | X-H torsion
[ 11005 11000 10999 10996 ] final -177.05 input  -57.11 | X-H torsion

> <Gold.Protein.ActiveResidues>
 VAL166  LYS551  ARG553  GLY616  TRP617  ASP618  TYR619  PRO620  LYS621  CYS622 
 ASP623  PHE694  ASN695  SER759  ASP760  ASP761  ALA762  ILE779  LEU786  VAL792 
 PHE793  MET794  SER795  GLU796  ALA797  LYS798  CYS799  TRP800  GLU811  SER814 

> <Gold.Protein.RotatedAtoms>
  151.8424  135.0585  160.0449 H   0  0  0  0  0  0  0  0  0  0  0  0  # atno 6907 bound_to 6896
  152.2798  133.5456  159.5499 H   0  0  0  0  0  0  0  0  0  0  0  0  # atno 6908 bound_to 6896
  150.7185  134.0495  159.3836 H   0  0  0  0  0  0  0  0  0  0  0  0  # atno 6909 bound_to 6896
  145.1477  140.8812  143.3665 H   0  0  0  0  0  0  0  0  0  0  0  0  # atno 7974 bound_to 7965
  155.7281  140.3492  155.5047 H   0  0  0  0  0  0  0  0  0  0  0  0  # atno 8008 bound_to 7997
  155.9208  140.1067  157.1230 H   0  0  0  0  0  0  0  0  0  0  0  0  # atno 8009 bound_to 7997
  154.4069  140.1250  156.4663 H   0  0  0  0  0  0  0  0  0  0  0  0  # atno 8010 bound_to 7997
  140.3615  144.2222  150.6138 H   0  0  0  0  0  0  0  0  0  0  0  0  # atno 10167 bound_to 10162
  157.4254  131.1043  151.0308 H   0  0  0  0  0  0  0  0  0  0  0  0  # atno 10718 bound_to 10713
  154.5912  135.2845  155.0633 H   0  0  0  0  0  0  0  0  0  0  0  0  # atno 10763 bound_to 10752
  154.1933  135.6437  153.5070 H   0  0  0  0  0  0  0  0  0  0  0  0  # atno 10764 bound_to 10752
  153.0122  135.5451  154.6599 H   0  0  0  0  0  0  0  0  0  0  0  0  # atno 10765 bound_to 10752
  140.4453  134.6394  157.4776 H   0  0  0  0  0  0  0  0  0  0  0  0  # atno 11005 bound_to 11000
  145.0464  139.3217  143.5950 LP  0  0  0  0  0  0  0  0  0  0  0  0  # atno 17320 bound_to 7965
  146.3498  139.9856  142.8691 LP  0  0  0  0  0  0  0  0  0  0  0  0  # atno 17321 bound_to 7965
  140.5122  143.2287  151.8517 LP  0  0  0  0  0  0  0  0  0  0  0  0  # atno 17342 bound_to 10162
  139.4813  144.4936  151.9153 LP  0  0  0  0  0  0  0  0  0  0  0  0  # atno 17343 bound_to 10162
  157.1223  130.6067  149.5508 LP  0  0  0  0  0  0  0  0  0  0  0  0  # atno 17370 bound_to 10713
  155.9895  130.4942  150.7215 LP  0  0  0  0  0  0  0  0  0  0  0  0  # atno 17371 bound_to 10713
  140.0043  134.6788  155.9480 LP  0  0  0  0  0  0  0  0  0  0  0  0  # atno 17394 bound_to 11000
  141.1688  133.6537  156.4575 LP  0  0  0  0  0  0  0  0  0  0  0  0  # atno 17395 bound_to 11000

$$$$
