AV-unprocessed.smi:1795|AV-procd|sdf|7250|dock6
  -GOLD-   22720 8503D 1   1.00000     0.00000
 Structure written by MMmdl.
 48 49  0  0  0  0  0  0  0  0  2 V2000
  149.8265  133.2111  153.4874 C   0  0  0  0  0  0  0  0  0  0  0  0
  149.7125  133.6833  154.9480 C   0  0  1  0  0  0  0  0  0  0  0  0
  150.5352  134.9487  155.2537 C   0  0  0  0  0  0  0  0  0  0  0  0
  149.9239  136.1619  154.6468 N   0  3  2  0  0  0  0  0  0  0  0  0
  150.7823  137.3800  154.8175 C   0  0  1  0  0  0  0  0  0  0  0  0
  150.0806  138.5993  154.1777 C   0  0  0  0  0  0  0  0  0  0  0  0
  151.1734  137.6746  156.2928 C   0  0  0  0  0  0  0  0  0  0  0  0
  151.5683  139.0644  156.5073 N   0  0  0  0  0  0  0  0  0  0  0  0
  150.9504  139.9342  157.3215 C   0  0  0  0  0  0  0  0  0  0  0  0
  149.9719  139.6393  158.0085 O   0  0  0  0  0  0  0  0  0  0  0  0
  151.5357  141.3519  157.3665 C   0  0  0  0  0  0  0  0  0  0  0  0
  152.2276  141.6419  158.6332 N   0  0  0  0  0  0  0  0  0  0  0  0
  151.8248  142.7932  159.3390 C   0  0  0  0  0  0  0  0  0  0  0  0
  152.3916  143.1462  160.5035 C   0  0  0  0  0  0  0  0  0  0  0  0
  153.4417  142.3091  161.0333 C   0  0  0  0  0  0  0  0  0  0  0  0
  153.8376  141.2078  160.3643 C   0  0  0  0  0  0  0  0  0  0  0  0
  153.2238  140.8204  159.0889 C   0  0  0  0  0  0  0  0  0  0  0  0
  153.5832  139.8196  158.4672 O   0  0  0  0  0  0  0  0  0  0  0  0
  148.5125  136.2810  155.1017 C   0  0  0  0  0  0  0  0  0  0  0  0
  147.7191  135.0019  154.7745 C   0  0  2  0  0  0  0  0  0  0  0  0
  146.2870  135.0605  155.3179 C   0  0  0  0  0  0  0  0  0  0  0  0
  148.3602  133.8728  155.3572 O   0  0  0  0  0  0  0  0  0  0  0  0
  150.8545  132.9366  153.2500 H   0  0  0  0  0  0  0  0  0  0  0  0
  149.5264  133.9811  152.7771 H   0  0  0  0  0  0  0  0  0  0  0  0
  149.2037  132.3334  153.3131 H   0  0  0  0  0  0  0  0  0  0  0  0
  150.1025  132.8768  155.5698 H   0  0  0  0  0  0  0  0  0  0  0  0
  150.5937  135.0868  156.3347 H   0  0  0  0  0  0  0  0  0  0  0  0
  151.5570  134.7998  154.9084 H   0  0  0  0  0  0  0  0  0  0  0  0
  151.7144  137.2034  154.2778 H   0  0  0  0  0  0  0  0  0  0  0  0
  150.7229  139.4795  154.1739 H   0  0  0  0  0  0  0  0  0  0  0  0
  149.1713  138.8571  154.7214 H   0  0  0  0  0  0  0  0  0  0  0  0
  149.8030  138.4288  153.1393 H   0  0  0  0  0  0  0  0  0  0  0  0
  150.3618  137.3938  156.9665 H   0  0  0  0  0  0  0  0  0  0  0  0
  152.0397  137.0808  156.5842 H   0  0  0  0  0  0  0  0  0  0  0  0
  152.3682  139.3951  155.9867 H   0  0  0  0  0  0  0  0  0  0  0  0
  152.2136  141.4645  156.5197 H   0  0  0  0  0  0  0  0  0  0  0  0
  150.7458  142.0869  157.2004 H   0  0  0  0  0  0  0  0  0  0  0  0
  151.0379  143.3684  158.8733 H   0  0  0  0  0  0  0  0  0  0  0  0
  152.0730  144.0346  161.0287 H   0  0  0  0  0  0  0  0  0  0  0  0
  153.9129  142.5676  161.9701 H   0  0  0  0  0  0  0  0  0  0  0  0
  154.6249  140.5937  160.7759 H   0  0  0  0  0  0  0  0  0  0  0  0
  148.4894  136.4827  156.1740 H   0  0  0  0  0  0  0  0  0  0  0  0
  148.0103  137.1076  154.6005 H   0  0  0  0  0  0  0  0  0  0  0  0
  147.6619  134.8745  153.6933 H   0  0  0  0  0  0  0  0  0  0  0  0
  145.7380  135.9000  154.8907 H   0  0  0  0  0  0  0  0  0  0  0  0
  146.2796  135.1728  156.4024 H   0  0  0  0  0  0  0  0  0  0  0  0
  145.7402  134.1493  155.0741 H   0  0  0  0  0  0  0  0  0  0  0  0
  149.8734  135.9986  153.6511 H   0  0  0  0  0  0  0  0  0  0  0  0
  1  2  1  0  0  0  0
  1 23  1  0  0  0  0
  1 24  1  0  0  0  0
  1 25  1  0  0  0  0
  2 22  1  0  0  0  0
  2  3  1  0  0  0  0
  2 26  1  0  0  0  0
  3  4  1  0  0  0  0
  3 27  1  0  0  0  0
  3 28  1  0  0  0  0
  4  5  1  0  0  0  0
  4 19  1  0  0  0  0
  4 48  1  0  0  0  0
  5  6  1  0  0  0  0
  5  7  1  0  0  0  0
  5 29  1  0  0  0  0
  6 30  1  0  0  0  0
  6 31  1  0  0  0  0
  6 32  1  0  0  0  0
  7  8  1  0  0  0  0
  7 33  1  0  0  0  0
  7 34  1  0  0  0  0
  8  9  1  0  0  0  0
  8 35  1  0  0  0  0
  9 10  2  0  0  0  0
  9 11  1  0  0  0  0
 11 12  1  0  0  0  0
 11 36  1  0  0  0  0
 11 37  1  0  0  0  0
 12 17  1  0  0  0  0
 12 13  1  0  0  0  0
 13 14  2  0  0  0  0
 13 38  1  0  0  0  0
 14 15  1  0  0  0  0
 14 39  1  0  0  0  0
 15 16  2  0  0  0  0
 15 40  1  0  0  0  0
 16 17  1  0  0  0  0
 16 41  1  0  0  0  0
 17 18  2  0  0  0  0
 19 20  1  0  0  0  0
 19 42  1  0  0  0  0
 19 43  1  0  0  0  0
 20 21  1  0  0  0  0
 20 22  1  0  0  0  0
 20 44  1  0  0  0  0
 21 45  1  0  0  0  0
 21 46  1  0  0  0  0
 21 47  1  0  0  0  0
M  CHG  1   4   1
M  END
> <s_m_source_file>
AV-unprocessed.smi

> <i_m_source_file_index>
1795

> <i_lp_mmshare_version>
43012

> <i_f3d_flags>
0

> <s_epik_input>
W0NIM11bQ0BASF0xW0NIMl1OKFtDSDJdW0NASF0oTzEpW0NIM10pW0NASF0oW0NIM10pW0NIMl1bTkhdQyg9TylbQ0gyXW4yW2NIXVtjSF1bY0hdW2NIXWMyPU8=

> <s_epik_cmdline>
J2VwaWtfcHl0aG9uJywgJy1waCcsICc3LjAnLCAnLXRuJywgJzgnLCAnLW1hJywgJzIwMCcsICctbWV0YWxfYmluZGluZycsICctaW1hZScsICc8aW5maWxlLm1hZT4nLCAnLW9tYWUnLCAnPG91dGZpbGUubWFlPic=

> <r_lp_tautomer_probability>
1

> <r_epik_Ionization_Penalty>
0.656654

> <r_epik_Ionization_Penalty_Charging>
0.656654

> <r_epik_Ionization_Penalty_Neutral>
8.90321e-08

> <r_epik_State_Penalty>
0.675641

> <r_epik_Charging_Adjusted_Penalty>
1.33229

> <i_epik_Tot_Q>
1

> <i_epik_Tot_abs_Q>
1

> <r_epik_Metal_State_Penalty>
0.675691

> <b_epik_Metal_Only>
0

> <s_lp_Force_Field>
OPLS_2005

> <r_lp_Energy>
30.8259

> <b_lp_Chiralities_Consistent>
1

> <s_lp_Variant>
AV-unprocessed.smi:1795-14

> <Gold.Version>
5.8.1

> <Gold.Id.Protein>
6NUR|6NUR_protein|mol2

> <Gold.PLP.Fitness>
45.1591

> <Gold.PLP.PLP>
-36.9865

> <Gold.PLP.part.hbond>
-2.0000

> <Gold.PLP.part.metal>
0.0000

> <Gold.PLP.part.buried>
-5.4069

> <Gold.PLP.part.nonpolar>
-29.0516

> <Gold.PLP.part.repulsive>
0.1553

> <Gold.PLP.ligand.clash>
0.0000

> <Gold.PLP.ligand.torsion>
0.4565

> <Gold.PLP.Chemscore.Hbond>
3.0000

> <Gold.PLP.Chemscore.CHOScore>
0.0000

> <Gold.PLP.Chemscore.Metal>
0.0000

> <Gold.Chemscore.Hbonds>
donor molecule, donor type, donor heavy atom, donor atom, acceptor molecule, acceptor atom, score
      L1  H     4    48       P1  7948  1.60
      P1  H  7997  8009       L1    18  1.00

> <Gold.PLP.Chemscore.Internal.Correction>
0.0856

> <Gold.Rescore>
     Score         DG    S(hbond)    S(metal)    S(lipo)     H(rot)  DE(clash)    DE(int)     intcor
     15.95     -16.52       1.88        0.00      82.11       1.89       0.02       0.55       ----

> <Gold.Chemscore.Fitness>
15.9492

> <Gold.Chemscore.DG>
-16.5241

> <Gold.Chemscore.ZeroCoef>
-5.4800

> <Gold.Chemscore.Hbond>
1.8768

> <Gold.Chemscore.Metal>
0.0000

> <Gold.Chemscore.Lipo>
82.1052

> <Gold.Chemscore.Internal_Hbond>
0.0000

> <Gold.Chemscore.DEClash>
0.0207

> <Gold.Chemscore.DEInternal>
0.5543

> <Gold.Chemscore.Rot>
1.8870

> <Gold.Chemscore.Internal.Correction>
   9.000000E+99

> <Gold.Chemscore.Hbonds>
donor molecule, donor type, donor heavy atom, donor atom, acceptor molecule, acceptor atom, score
      L1  H     4    48       P1  7948  0.11
      P1  H  7997  8009       L1    18  0.92

> <Gold.Chemscore.Hbond.Weighted>
-6.2686

> <Gold.Chemscore.Metal.Weighted>
-0.0000

> <Gold.Chemscore.Lipo.Weighted>
-9.6063

> <Gold.Chemscore.Internal_Hbond.Weighted>
0.0000

> <Gold.Chemscore.DEClash.Weighted>
0.0207

> <Gold.Chemscore.DEInternal.Weighted>
0.5543

> <Gold.Chemscore.Rot.Weighted>
4.8308

> <Gold.Chemscore.Internal.Correction.Weighted>
   9.000000E+99

> <Gold.Protein.RotatedTorsions>
[ 6907 6896 6895 6894 ] final  -96.09 input  -60.11 | X-H torsion
[ 7974 7965 7964 7962 ] final   98.38 input  175.53 | X-H torsion
[ 8008 7997 7996 7995 ] final  136.30 input   59.86 | X-H torsion
[ 10167 10162 10161 10158 ] final  155.93 input  -65.29 | X-H torsion
[ 10718 10713 10712 10709 ] final -163.61 input   66.30 | X-H torsion
[ 10763 10752 10751 10750 ] final -168.04 input  -60.55 | X-H torsion
[ 11005 11000 10999 10996 ] final -154.01 input  -57.11 | X-H torsion

> <Gold.Protein.ActiveResidues>
 VAL166  LYS551  ARG553  GLY616  TRP617  ASP618  TYR619  PRO620  LYS621  CYS622 
 ASP623  PHE694  ASN695  SER759  ASP760  ASP761  ALA762  ILE779  LEU786  VAL792 
 PHE793  MET794  SER795  GLU796  ALA797  LYS798  CYS799  TRP800  GLU811  SER814 

> <Gold.Protein.RotatedAtoms>
  150.6980  134.1557  159.4157 H   0  0  0  0  0  0  0  0  0  0  0  0  # atno 6907 bound_to 6896
  151.9539  135.0154  160.0553 H   0  0  0  0  0  0  0  0  0  0  0  0  # atno 6908 bound_to 6896
  152.1986  133.4790  159.5083 H   0  0  0  0  0  0  0  0  0  0  0  0  # atno 6909 bound_to 6896
  145.4130  139.2331  143.3238 H   0  0  0  0  0  0  0  0  0  0  0  0  # atno 7974 bound_to 7965
  156.3004  140.2449  156.3722 H   0  0  0  0  0  0  0  0  0  0  0  0  # atno 8008 bound_to 7997
  154.8778  140.0413  157.1783 H   0  0  0  0  0  0  0  0  0  0  0  0  # atno 8009 bound_to 7997
  154.8728  140.2937  155.5475 H   0  0  0  0  0  0  0  0  0  0  0  0  # atno 8010 bound_to 7997
  139.4821  144.5054  151.8105 H   0  0  0  0  0  0  0  0  0  0  0  0  # atno 10167 bound_to 10162
  156.6272  130.8914  151.2970 H   0  0  0  0  0  0  0  0  0  0  0  0  # atno 10718 bound_to 10713
  154.6670  135.2933  154.9792 H   0  0  0  0  0  0  0  0  0  0  0  0  # atno 10763 bound_to 10752
  154.0833  135.6601  153.4845 H   0  0  0  0  0  0  0  0  0  0  0  0  # atno 10764 bound_to 10752
  153.0463  135.5202  154.7647 H   0  0  0  0  0  0  0  0  0  0  0  0  # atno 10765 bound_to 10752
  140.7019  134.3927  157.5208 H   0  0  0  0  0  0  0  0  0  0  0  0  # atno 11005 bound_to 11000
  146.2695  140.4844  142.8820 LP  0  0  0  0  0  0  0  0  0  0  0  0  # atno 17320 bound_to 7965
  144.8296  140.6685  143.6299 LP  0  0  0  0  0  0  0  0  0  0  0  0  # atno 17321 bound_to 7965
  140.4552  144.1799  150.5901 LP  0  0  0  0  0  0  0  0  0  0  0  0  # atno 17342 bound_to 10162
  140.4543  143.2474  151.9306 LP  0  0  0  0  0  0  0  0  0  0  0  0  # atno 17343 bound_to 10162
  157.7210  130.9559  150.1441 LP  0  0  0  0  0  0  0  0  0  0  0  0  # atno 17370 bound_to 10713
  156.2264  130.3678  149.8496 LP  0  0  0  0  0  0  0  0  0  0  0  0  # atno 17371 bound_to 10713
  139.8894  134.8830  156.2421 LP  0  0  0  0  0  0  0  0  0  0  0  0  # atno 17394 bound_to 11000
  141.0156  133.7070  156.1183 LP  0  0  0  0  0  0  0  0  0  0  0  0  # atno 17395 bound_to 11000

$$$$
