#       Name:                AV-unprocessed.smi:2158
#       Creating user name   scv26
#       Creation time:       Fri Mar 27 11:56:48 2020


#       File generated by GOLD software.
#

@<TRIPOS>MOLECULE
AV-unprocessed.smi:2158
    37    37     1
SMALL
NO_CHARGES


@<TRIPOS>ATOM
      1 ****        -2.5687  -1.0852  -2.2631 C.3            1 S1                 0.0000
      2 ****        -2.9309  -1.8276  -0.9685 C.3            1 S1                 0.0000
      3 ****        -2.3696  -1.1735   0.3102 C.3            1 S1                 0.0000
      4 ****        -2.8614  -1.8920   1.5744 C.3            1 S1                 0.0000
      5 ****        -0.9073  -1.1754   0.2995 N.am           1 S1                 0.0000
      6 ****        -0.1190  -0.1123   0.0732 C.2            1 S1                 0.0000
      7 ****        -0.5548   1.0119  -0.1796 O.2            1 S1                 0.0000
      8 ****         1.3929  -0.3776   0.1172 C.3            1 S1                 0.0000
      9 ****         2.1929   0.8491   0.2486 N.am           1 S1                 0.0000
     10 ****         2.7633   1.4362  -0.8720 C.2            1 S1                 0.0000
     11 ****         3.5034   2.5692  -0.8251 C.2            1 S1                 0.0000
     12 ****         3.7405   3.2445   0.4463 C.2            1 S1                 0.0000
     13 ****         4.3989   4.2719   0.5917 O.2            1 S1                 0.0000
     14 ****         3.1464   2.6259   1.5495 N.am           1 S1                 0.0000
     15 ****         2.3812   1.4593   1.5079 C.2            1 S1                 0.0000
     16 ****         1.8984   0.9993   2.5420 O.2            1 S1                 0.0000
     17 ****         3.2786   3.0599   2.4515 H              1 S1                 0.0000
     18 ****        -3.0474  -1.5526  -3.1236 H              1 S1                 0.0000
     19 ****        -1.4936  -1.0929  -2.4432 H              1 S1                 0.0000
     20 ****        -2.8951  -0.0456  -2.2250 H              1 S1                 0.0000
     21 ****        -4.0177  -1.8764  -0.8935 H              1 S1                 0.0000
     22 ****        -2.5872  -2.8604  -1.0375 H              1 S1                 0.0000
     23 ****        -2.7412  -0.1485   0.3592 H              1 S1                 0.0000
     24 ****        -3.9502  -1.8815   1.6332 H              1 S1                 0.0000
     25 ****        -2.4800  -1.4082   2.4743 H              1 S1                 0.0000
     26 ****        -2.5376  -2.9331   1.5927 H              1 S1                 0.0000
     27 ****        -0.4575  -2.0597   0.4878 H              1 S1                 0.0000
     28 ****         1.6214  -1.0640   0.9352 H              1 S1                 0.0000
     29 ****         1.6699  -0.9122  -0.7926 H              1 S1                 0.0000
     30 ****         2.6102   0.9728  -1.8364 H              1 S1                 0.0000
     31 ****         3.9216   2.9785  -1.7333 H              1 S1                 0.0000
     32 ****        -1.5417   1.1672  -0.2244 LP             1 S1                 0.0000
     33 ****         0.0783   1.7692  -0.3401 LP             1 S1                 0.0000
     34 ****         4.8223   4.7108  -0.2009 LP             1 S1                 0.0000
     35 ****         4.5112   4.6691   1.5025 LP             1 S1                 0.0000
     36 ****         1.3499   0.1638   2.5092 LP             1 S1                 0.0000
     37 ****         2.0545   1.4610   3.4152 LP             1 S1                 0.0000
@<TRIPOS>BOND
    1    1    2 1     
    2    1   18 1     
    3    1   19 1     
    4    1   20 1     
    5    2    3 1     
    6    2   21 1     
    7    2   22 1     
    8    3    4 1     
    9    3    5 1     
   10    3   23 1     
   11    4   24 1     
   12    4   25 1     
   13    4   26 1     
   14    5    6 am    
   15    5   27 1     
   16    6    7 2     
   17    6    8 1     
   18    8    9 1     
   19    8   28 1     
   20    8   29 1     
   21    9   15 1     
   22    9   10 1     
   23   10   11 2     
   24   10   30 1     
   25   11   12 1     
   26   11   31 1     
   27   12   13 2     
   28   12   14 1     
   29   14   17 1     
   30   14   15 1     
   31   15   16 2     
   32    7   32 1     
   33    7   33 1     
   34   13   34 1     
   35   13   35 1     
   36   16   36 1     
   37   16   37 1     
@<TRIPOS>SUBSTRUCTURE
      1 S1             1
@<TRIPOS>SET
LONE_PAIRS      STATIC     ATOMS    <user>   **** ""
6 32 33 34 35 36 37
DONOR_HYDROGENS      STATIC     ATOMS    <user>   **** ""
2 27 17
ATOM$BLUE        STATIC     ATOMS    COLORGROUP SYSTEM
6 32 33 34 35 36 37
ATOM$RED        STATIC     ATOMS    COLORGROUP SYSTEM
2 27 17
