AV-unprocessed.smi:331|AV-procd|sdf|2351|dock4
  -GOLD-   2262022263D 1   1.00000     0.00000
 Structure written by MMmdl.
 37 38  0  0  0  0  0  0  0  0  2 V2000
  151.4330  141.1742  156.9597 O   0  0  0  0  0  0  0  0  0  0  0  0
  150.8191  142.2251  156.7882 C   0  0  0  0  0  0  0  0  0  0  0  0
  149.7403  142.3301  155.9944 N   0  0  0  0  0  0  0  0  0  0  0  0
  149.1796  141.2482  155.1912 C   0  0  0  0  0  0  0  0  0  0  0  0
  148.2114  141.7549  154.1037 C   0  0  0  0  0  0  0  0  0  0  0  0
  146.8630  142.1915  154.6513 C   0  0  0  0  0  0  0  0  0  0  0  0
  146.6173  142.1954  156.0427 C   0  0  0  0  0  0  0  0  0  0  0  0
  145.3508  142.5911  156.5206 C   0  0  0  0  0  0  0  0  0  0  0  0
  144.3592  142.9785  155.5965 C   0  0  0  0  0  0  0  0  0  0  0  0
  144.6313  142.9650  154.2730 N   0  3  0  0  0  0  0  0  0  0  0  0
  145.8304  142.5905  153.7754 C   0  0  0  0  0  0  0  0  0  0  0  0
  151.1867  143.3707  157.3891 N   0  0  0  0  0  0  0  0  0  0  0  0
  152.3086  143.5879  158.3059 C   0  0  0  0  0  0  0  0  0  0  0  0
  152.3010  142.5376  159.4333 C   0  0  0  0  0  0  0  0  0  0  0  0
  152.4835  143.3140  160.7382 C   0  0  0  0  0  0  0  0  0  0  0  0
  151.8516  144.6731  160.4578 C   0  0  0  0  0  0  0  0  0  0  0  0
  152.2176  144.9615  159.0017 C   0  0  0  0  0  0  0  0  0  0  0  0
  149.2881  143.2303  155.9282 H   0  0  0  0  0  0  0  0  0  0  0  0
  149.9791  140.6550  154.7446 H   0  0  0  0  0  0  0  0  0  0  0  0
  148.6463  140.5831  155.8707 H   0  0  0  0  0  0  0  0  0  0  0  0
  148.6631  142.5913  153.5687 H   0  0  0  0  0  0  0  0  0  0  0  0
  148.0555  140.9734  153.3591 H   0  0  0  0  0  0  0  0  0  0  0  0
  147.3871  141.8909  156.7372 H   0  0  0  0  0  0  0  0  0  0  0  0
  145.1438  142.5965  157.5808 H   0  0  0  0  0  0  0  0  0  0  0  0
  143.3645  143.2955  155.8738 H   0  0  0  0  0  0  0  0  0  0  0  0
  145.9253  142.6178  152.6995 H   0  0  0  0  0  0  0  0  0  0  0  0
  150.5965  144.1733  157.2235 H   0  0  0  0  0  0  0  0  0  0  0  0
  153.2529  143.5141  157.7633 H   0  0  0  0  0  0  0  0  0  0  0  0
  151.3446  142.0131  159.4656 H   0  0  0  0  0  0  0  0  0  0  0  0
  153.0759  141.7827  159.2977 H   0  0  0  0  0  0  0  0  0  0  0  0
  152.0343  142.8094  161.5939 H   0  0  0  0  0  0  0  0  0  0  0  0
  153.5466  143.4403  160.9465 H   0  0  0  0  0  0  0  0  0  0  0  0
  150.7677  144.6015  160.5572 H   0  0  0  0  0  0  0  0  0  0  0  0
  152.1992  145.4489  161.1401 H   0  0  0  0  0  0  0  0  0  0  0  0
  153.1940  145.4462  158.9664 H   0  0  0  0  0  0  0  0  0  0  0  0
  151.5068  145.6428  158.5319 H   0  0  0  0  0  0  0  0  0  0  0  0
  143.8997  143.2491  153.6210 H   0  0  0  0  0  0  0  0  0  0  0  0
  1  2  2  0  0  0  0
  2  3  1  0  0  0  0
  2 12  1  0  0  0  0
  3  4  1  0  0  0  0
  3 18  1  0  0  0  0
  4  5  1  0  0  0  0
  4 19  1  0  0  0  0
  4 20  1  0  0  0  0
  5  6  1  0  0  0  0
  5 21  1  0  0  0  0
  5 22  1  0  0  0  0
  6 11  1  0  0  0  0
  6  7  2  0  0  0  0
  7  8  1  0  0  0  0
  7 23  1  0  0  0  0
  8  9  2  0  0  0  0
  8 24  1  0  0  0  0
  9 10  1  0  0  0  0
  9 25  1  0  0  0  0
 10 11  2  0  0  0  0
 10 37  1  0  0  0  0
 11 26  1  0  0  0  0
 12 13  1  0  0  0  0
 12 27  1  0  0  0  0
 13 17  1  0  0  0  0
 13 14  1  0  0  0  0
 13 28  1  0  0  0  0
 14 15  1  0  0  0  0
 14 29  1  0  0  0  0
 14 30  1  0  0  0  0
 15 16  1  0  0  0  0
 15 31  1  0  0  0  0
 15 32  1  0  0  0  0
 16 17  1  0  0  0  0
 16 33  1  0  0  0  0
 16 34  1  0  0  0  0
 17 35  1  0  0  0  0
 17 36  1  0  0  0  0
M  CHG  1  10   1
M  END
> <s_m_source_file>
AV-unprocessed.smi

> <i_m_source_file_index>
331

> <i_lp_mmshare_version>
43012

> <i_f3d_flags>
0

> <s_epik_input>
W0NIMl0xW0NIMl1bQ0gyXVtDSDJdW0NIXTFbTkhdQyg9TylbTkhdW0NIMl1bQ0gyXWMyW2NIXVtjSF1bY0hdbltjSF0y

> <s_epik_cmdline>
J2VwaWtfcHl0aG9uJywgJy1waCcsICc3LjAnLCAnLXRuJywgJzgnLCAnLW1hJywgJzIwMCcsICctbWV0YWxfYmluZGluZycsICctaW1hZScsICc8aW5maWxlLm1hZT4nLCAnLW9tYWUnLCAnPG91dGZpbGUubWFlPic=

> <r_epik_Ionization_Penalty>
2.21063

> <r_epik_Ionization_Penalty_Charging>
2.21057

> <r_epik_Ionization_Penalty_Neutral>
5.76468e-05

> <r_epik_State_Penalty>
2.35476

> <r_epik_Charging_Adjusted_Penalty>
4.56533

> <i_epik_Tot_Q>
1

> <i_epik_Tot_abs_Q>
1

> <r_epik_Metal_State_Penalty>
2.36886

> <b_epik_Metal_Only>
0

> <s_lp_Force_Field>
OPLS_2005

> <r_lp_Energy>
33.3407

> <b_lp_Chiralities_Consistent>
1

> <s_lp_Variant>
AV-unprocessed.smi:331-2

> <Gold.Version>
5.8.1

> <Gold.Id.Protein>
6NUR|6NUR_protein|mol2

> <Gold.PLP.Fitness>
48.9763

> <Gold.PLP.PLP>
-40.9383

> <Gold.PLP.part.hbond>
-3.1754

> <Gold.PLP.part.metal>
0.0000

> <Gold.PLP.part.buried>
-4.7401

> <Gold.PLP.part.nonpolar>
-35.4042

> <Gold.PLP.part.repulsive>
0.1607

> <Gold.PLP.ligand.clash>
0.0000

> <Gold.PLP.ligand.torsion>
0.2835

> <Gold.PLP.Chemscore.Hbond>
2.8647

> <Gold.PLP.Chemscore.CHOScore>
0.0000

> <Gold.PLP.Chemscore.Metal>
0.0000

> <Gold.Chemscore.Hbonds>
donor molecule, donor type, donor heavy atom, donor atom, acceptor molecule, acceptor atom, score
      L1  H     3    18       P1  8028  1.00
      L1  H    10    37       P1 10174  1.49
      L1  H    12    27       P1  8028  0.14

> <Gold.PLP.Chemscore.Internal.Correction>
0.0109

> <Gold.Rescore>
     Score         DG    S(hbond)    S(metal)    S(lipo)     H(rot)  DE(clash)    DE(int)     intcor
     17.40     -17.70       1.50        0.00      96.42       1.59       0.03       0.28       ----

> <Gold.Chemscore.Fitness>
17.4006

> <Gold.Chemscore.DG>
-17.7045

> <Gold.Chemscore.ZeroCoef>
-5.4800

> <Gold.Chemscore.Hbond>
1.5037

> <Gold.Chemscore.Metal>
0.0000

> <Gold.Chemscore.Lipo>
96.4157

> <Gold.Chemscore.Internal_Hbond>
0.0000

> <Gold.Chemscore.DEClash>
0.0284

> <Gold.Chemscore.DEInternal>
0.2756

> <Gold.Chemscore.Rot>
1.5932

> <Gold.Chemscore.Internal.Correction>
   9.000000E+99

> <Gold.Chemscore.Hbonds>
donor molecule, donor type, donor heavy atom, donor atom, acceptor molecule, acceptor atom, score
      L1  H     3    18       P1  8028  0.97
      L1  H    10    37       P1 10174  0.18
      L1  H    12    27       P1  8028  0.13

> <Gold.Chemscore.Hbond.Weighted>
-5.0224

> <Gold.Chemscore.Metal.Weighted>
-0.0000

> <Gold.Chemscore.Lipo.Weighted>
-11.2806

> <Gold.Chemscore.Internal_Hbond.Weighted>
0.0000

> <Gold.Chemscore.DEClash.Weighted>
0.0284

> <Gold.Chemscore.DEInternal.Weighted>
0.2756

> <Gold.Chemscore.Rot.Weighted>
4.0785

> <Gold.Chemscore.Internal.Correction.Weighted>
   9.000000E+99

> <Gold.Protein.RotatedTorsions>
[ 6907 6896 6895 6894 ] final  -50.89 input  -60.11 | X-H torsion
[ 7974 7965 7964 7962 ] final  145.68 input  175.53 | X-H torsion
[ 8008 7997 7996 7995 ] final  -19.97 input   59.86 | X-H torsion
[ 10167 10162 10161 10158 ] final -147.47 input  -65.29 | X-H torsion
[ 10718 10713 10712 10709 ] final  -40.52 input   66.30 | X-H torsion
[ 10763 10752 10751 10750 ] final  167.91 input  -60.55 | X-H torsion
[ 11005 11000 10999 10996 ] final  117.62 input  -57.11 | X-H torsion

> <Gold.Protein.ActiveResidues>
 VAL166  LYS551  ARG553  GLY616  TRP617  ASP618  TYR619  PRO620  LYS621  CYS622 
 ASP623  PHE694  ASN695  SER759  ASP760  ASP761  ALA762  ILE779  LEU786  VAL792 
 PHE793  MET794  SER795  GLU796  ALA797  LYS798  CYS799  TRP800  GLU811  SER814 

> <Gold.Protein.RotatedAtoms>
  150.8664  134.8028  159.7121 H   0  0  0  0  0  0  0  0  0  0  0  0  # atno 6907 bound_to 6896
  152.4684  134.5017  159.9736 H   0  0  0  0  0  0  0  0  0  0  0  0  # atno 6908 bound_to 6896
  151.5113  133.3446  159.2921 H   0  0  0  0  0  0  0  0  0  0  0  0  # atno 6909 bound_to 6896
  144.8732  139.5813  143.5877 H   0  0  0  0  0  0  0  0  0  0  0  0  # atno 7974 bound_to 7965
  154.4801  140.2074  155.9784 H   0  0  0  0  0  0  0  0  0  0  0  0  # atno 8008 bound_to 7997
  156.1151  140.3222  155.8098 H   0  0  0  0  0  0  0  0  0  0  0  0  # atno 8009 bound_to 7997
  155.4566  140.0521  157.2986 H   0  0  0  0  0  0  0  0  0  0  0  0  # atno 8010 bound_to 7997
  139.7619  143.8365  152.2608 H   0  0  0  0  0  0  0  0  0  0  0  0  # atno 10167 bound_to 10162
  156.2804  130.4216  149.8343 H   0  0  0  0  0  0  0  0  0  0  0  0  # atno 10718 bound_to 10713
  154.3608  135.2753  155.2321 H   0  0  0  0  0  0  0  0  0  0  0  0  # atno 10763 bound_to 10752
  154.4510  135.5931  153.6195 H   0  0  0  0  0  0  0  0  0  0  0  0  # atno 10764 bound_to 10752
  152.9843  135.6042  154.3828 H   0  0  0  0  0  0  0  0  0  0  0  0  # atno 10765 bound_to 10752
  139.9081  134.9612  156.7379 H   0  0  0  0  0  0  0  0  0  0  0  0  # atno 11005 bound_to 11000
  146.2945  139.7236  142.9137 LP  0  0  0  0  0  0  0  0  0  0  0  0  # atno 17320 bound_to 7965
  145.4091  141.0394  143.3027 LP  0  0  0  0  0  0  0  0  0  0  0  0  # atno 17321 bound_to 7965
  139.8373  144.7226  150.9375 LP  0  0  0  0  0  0  0  0  0  0  0  0  # atno 17342 bound_to 10162
  140.7808  143.4015  151.1141 LP  0  0  0  0  0  0  0  0  0  0  0  0  # atno 17343 bound_to 10162
  156.5792  130.8458  151.3378 LP  0  0  0  0  0  0  0  0  0  0  0  0  # atno 17370 bound_to 10713
  157.7312  130.9697  150.1871 LP  0  0  0  0  0  0  0  0  0  0  0  0  # atno 17371 bound_to 10713
  140.6873  133.9421  155.7945 LP  0  0  0  0  0  0  0  0  0  0  0  0  # atno 17394 bound_to 11000
  141.0467  134.0544  157.3835 LP  0  0  0  0  0  0  0  0  0  0  0  0  # atno 17395 bound_to 11000

$$$$
