#       Name:                AV-unprocessed.smi:3160
#       Creating user name   scv26
#       Creation time:       Fri Mar 27 17:48:07 2020


#       File generated by GOLD software.
#

@<TRIPOS>MOLECULE
AV-unprocessed.smi:3160
    41    42     1
SMALL
NO_CHARGES


@<TRIPOS>ATOM
      1 ****        -3.6935  -2.1044  -1.9415 C.3            1 S1                 0.0000
      2 ****        -2.9210  -0.9470  -1.3771 C.2            1 S1                 0.0000
      3 ****        -2.2410   0.0807  -2.0895 C.2            1 S1                 0.0000
      4 ****        -1.6518   0.9550  -1.2909 N.2            1 S1                 0.0000
      5 ****        -1.9328   0.5206  -0.0422 N.pl3          1 S1                 0.0000
      6 ****        -1.4278   1.2431   1.1204 C.3            1 S1                 0.0000
      7 ****        -2.0559   2.6488   1.1744 C.3            1 S1                 0.0000
      8 ****         0.1246   1.2637   1.1433 C.3            1 S1                 0.0000
      9 ****         0.6966   1.9325   2.4045 C.3            1 S1                 0.0000
     10 ****         0.6544  -0.1179   1.0554 N.4            1 S1                 1.0000
     11 ****         1.5136  -0.3948  -0.1157 C.3            1 S1                 0.0000
     12 ****         1.8177  -1.8838  -0.2692 C.3            1 S1                 0.0000
     13 ****         3.0558  -1.9262  -1.1703 C.3            1 S1                 0.0000
     14 ****         3.7788  -0.5841  -0.9669 C.3            1 S1                 0.0000
     15 ****         2.9035   0.2379  -0.0124 C.3            1 S1                 0.0000
     16 ****        -2.7028  -0.6239  -0.0678 C.2            1 S1                 0.0000
     17 ****        -3.6834  -2.1055  -3.0318 H              1 S1                 0.0000
     18 ****        -4.7380  -2.0807  -1.6306 H              1 S1                 0.0000
     19 ****        -3.2817  -3.0599  -1.6161 H              1 S1                 0.0000
     20 ****        -2.1570   0.2150  -3.1579 H              1 S1                 0.0000
     21 ****        -1.7720   0.7001   2.0022 H              1 S1                 0.0000
     22 ****        -1.8389   3.1520   2.1162 H              1 S1                 0.0000
     23 ****        -3.1416   2.5939   1.0878 H              1 S1                 0.0000
     24 ****        -1.6912   3.2821   0.3650 H              1 S1                 0.0000
     25 ****         0.4734   1.8380   0.2832 H              1 S1                 0.0000
     26 ****         0.4252   2.9861   2.4621 H              1 S1                 0.0000
     27 ****         1.7862   1.8869   2.4106 H              1 S1                 0.0000
     28 ****         0.3393   1.4440   3.3116 H              1 S1                 0.0000
     29 ****         1.1703  -0.3283   1.8978 H              1 S1                 0.0000
     30 ****         1.0189  -0.0498  -1.0250 H              1 S1                 0.0000
     31 ****         2.0604  -2.3199   0.7011 H              1 S1                 0.0000
     32 ****         0.9786  -2.4432  -0.6848 H              1 S1                 0.0000
     33 ****         3.6952  -2.7779  -0.9360 H              1 S1                 0.0000
     34 ****         2.7524  -2.0237  -2.2135 H              1 S1                 0.0000
     35 ****         4.7816  -0.7211  -0.5608 H              1 S1                 0.0000
     36 ****         3.8830  -0.0714  -1.9239 H              1 S1                 0.0000
     37 ****         2.9023   1.2998  -0.2601 H              1 S1                 0.0000
     38 ****         3.2862   0.1365   1.0045 H              1 S1                 0.0000
     39 ****        -3.0266  -1.1132   0.8392 H              1 S1                 0.0000
     40 ****        -0.1392  -0.7402   1.0032 H              1 S1                 0.0000
     41 ****        -1.1174   1.7586  -1.5527 LP             1 S1                 0.0000
@<TRIPOS>BOND
    1    1    2 1     
    2    1   17 1     
    3    1   18 1     
    4    1   19 1     
    5    2   16 2     
    6    2    3 1     
    7    3    4 2     
    8    3   20 1     
    9    4    5 1     
   10    5    6 1     
   11    5   16 1     
   12    6    7 1     
   13    6    8 1     
   14    6   21 1     
   15    7   22 1     
   16    7   23 1     
   17    7   24 1     
   18    8    9 1     
   19    8   10 1     
   20    8   25 1     
   21    9   26 1     
   22    9   27 1     
   23    9   28 1     
   24   10   11 1     
   25   10   29 1     
   26   10   40 1     
   27   11   15 1     
   28   11   12 1     
   29   11   30 1     
   30   12   13 1     
   31   12   31 1     
   32   12   32 1     
   33   13   14 1     
   34   13   33 1     
   35   13   34 1     
   36   14   15 1     
   37   14   35 1     
   38   14   36 1     
   39   15   37 1     
   40   15   38 1     
   41   16   39 1     
   42    4   41 1     
@<TRIPOS>SUBSTRUCTURE
      1 S1             1
@<TRIPOS>SET
LONE_PAIRS      STATIC     ATOMS    <user>   **** ""
1 41
DONOR_HYDROGENS      STATIC     ATOMS    <user>   **** ""
2 29 40
ATOM$BLUE        STATIC     ATOMS    COLORGROUP SYSTEM
1 41
ATOM$RED        STATIC     ATOMS    COLORGROUP SYSTEM
2 29 40
