AV-unprocessed.smi:1644|AV-procd|sdf|6595|dock3
  -GOLD-   22720 7293D 1   1.00000     0.00000
 Structure written by MMmdl.
 48 50  0  0  0  0  0  0  0  0  2 V2000
  143.8285  145.9722  158.6693 C   0  0  0  0  0  0  0  0  0  0  0  0
  143.4017  145.0623  157.5127 C   0  0  0  0  0  0  0  0  0  0  0  0
  144.2937  143.8078  157.3914 C   0  0  0  0  0  0  0  0  0  0  0  0
  144.1891  143.0216  156.0616 C   0  0  1  0  0  0  0  0  0  0  0  0
  144.2311  143.9014  154.9124 N   0  5  0  0  0  0  0  0  0  0  0  0
  145.2548  143.5141  154.1152 C   0  0  0  0  0  0  0  0  0  0  0  0
  145.5979  144.0353  153.0543 O   0  0  0  0  0  0  0  0  0  0  0  0
  145.9002  142.4509  154.6343 N   0  0  0  0  0  0  0  0  0  0  0  0
  147.0789  141.8088  154.0440 C   0  0  0  0  0  0  0  0  0  0  0  0
  148.0546  141.3023  155.1263 C   0  0  1  0  0  0  0  0  0  0  0  0
  147.6629  140.0022  155.5247 O   0  0  0  0  0  0  0  0  0  0  0  0
  149.5010  141.2351  154.6010 C   0  0  0  0  0  0  0  0  0  0  0  0
  150.4255  140.7069  155.5879 N   0  0  0  0  0  0  0  0  0  0  0  0
  151.0095  139.4933  155.5923 C   0  0  0  0  0  0  0  0  0  0  0  0
  151.8345  139.2183  156.5991 N   0  0  0  0  0  0  0  0  0  0  0  0
  151.7768  140.3901  157.3343 C   0  0  0  0  0  0  0  0  0  0  0  0
  152.4268  140.7529  158.5345 C   0  0  0  0  0  0  0  0  0  0  0  0
  152.2165  142.0234  159.1171 C   0  0  0  0  0  0  0  0  0  0  0  0
  152.9350  142.3717  160.4088 C   0  0  0  0  0  0  0  0  0  0  0  0
  151.3446  142.9543  158.4969 C   0  0  0  0  0  0  0  0  0  0  0  0
  151.1008  144.3242  159.1048 C   0  0  0  0  0  0  0  0  0  0  0  0
  150.6887  142.6083  157.2971 C   0  0  0  0  0  0  0  0  0  0  0  0
  150.9055  141.3412  156.7279 C   0  0  0  0  0  0  0  0  0  0  0  0
  145.3520  142.0869  155.7972 C   0  0  0  0  0  0  0  0  0  0  0  0
  145.7022  141.1742  156.5464 O   0  0  0  0  0  0  0  0  0  0  0  0
  143.1830  146.8485  158.7314 H   0  0  0  0  0  0  0  0  0  0  0  0
  144.8529  146.3215  158.5378 H   0  0  0  0  0  0  0  0  0  0  0  0
  143.7716  145.4485  159.6238 H   0  0  0  0  0  0  0  0  0  0  0  0
  142.3626  144.7668  157.6605 H   0  0  0  0  0  0  0  0  0  0  0  0
  143.4289  145.6380  156.5872 H   0  0  0  0  0  0  0  0  0  0  0  0
  145.3334  144.1027  157.5391 H   0  0  0  0  0  0  0  0  0  0  0  0
  144.0642  143.1297  158.2145 H   0  0  0  0  0  0  0  0  0  0  0  0
  143.2745  142.4273  156.0742 H   0  0  0  0  0  0  0  0  0  0  0  0
  146.7951  141.0027  153.3649 H   0  0  0  0  0  0  0  0  0  0  0  0
  147.5801  142.5458  153.4143 H   0  0  0  0  0  0  0  0  0  0  0  0
  148.0250  141.9581  155.9975 H   0  0  0  0  0  0  0  0  0  0  0  0
  147.0630  139.6588  154.8807 H   0  0  0  0  0  0  0  0  0  0  0  0
  149.5555  140.6217  153.7003 H   0  0  0  0  0  0  0  0  0  0  0  0
  149.8454  142.2317  154.3215 H   0  0  0  0  0  0  0  0  0  0  0  0
  150.8171  138.7702  154.8131 H   0  0  0  0  0  0  0  0  0  0  0  0
  153.0903  140.0431  159.0064 H   0  0  0  0  0  0  0  0  0  0  0  0
  153.5952  143.2261  160.2590 H   0  0  0  0  0  0  0  0  0  0  0  0
  153.5415  141.5384  160.7650 H   0  0  0  0  0  0  0  0  0  0  0  0
  152.2176  142.6208  161.1910 H   0  0  0  0  0  0  0  0  0  0  0  0
  150.4247  144.9182  158.4888 H   0  0  0  0  0  0  0  0  0  0  0  0
  152.0372  144.8744  159.1984 H   0  0  0  0  0  0  0  0  0  0  0  0
  150.6537  144.2282  160.0944 H   0  0  0  0  0  0  0  0  0  0  0  0
  150.0193  143.3059  156.8148 H   0  0  0  0  0  0  0  0  0  0  0  0
  1  2  1  0  0  0  0
  1 26  1  0  0  0  0
  1 27  1  0  0  0  0
  1 28  1  0  0  0  0
  2  3  1  0  0  0  0
  2 29  1  0  0  0  0
  2 30  1  0  0  0  0
  3  4  1  0  0  0  0
  3 31  1  0  0  0  0
  3 32  1  0  0  0  0
  4 24  1  0  0  0  0
  4  5  1  0  0  0  0
  4 33  1  0  0  0  0
  5  6  1  0  0  0  0
  6  7  2  0  0  0  0
  6  8  1  0  0  0  0
  8  9  1  0  0  0  0
  8 24  1  0  0  0  0
  9 10  1  0  0  0  0
  9 34  1  0  0  0  0
  9 35  1  0  0  0  0
 10 11  1  0  0  0  0
 10 12  1  0  0  0  0
 10 36  1  0  0  0  0
 11 37  1  0  0  0  0
 12 13  1  0  0  0  0
 12 38  1  0  0  0  0
 12 39  1  0  0  0  0
 13 23  1  0  0  0  0
 13 14  1  0  0  0  0
 14 15  2  0  0  0  0
 14 40  1  0  0  0  0
 15 16  1  0  0  0  0
 16 23  2  0  0  0  0
 16 17  1  0  0  0  0
 17 18  2  0  0  0  0
 17 41  1  0  0  0  0
 18 19  1  0  0  0  0
 18 20  1  0  0  0  0
 19 42  1  0  0  0  0
 19 43  1  0  0  0  0
 19 44  1  0  0  0  0
 20 21  1  0  0  0  0
 20 22  2  0  0  0  0
 21 45  1  0  0  0  0
 21 46  1  0  0  0  0
 21 47  1  0  0  0  0
 22 23  1  0  0  0  0
 22 48  1  0  0  0  0
 24 25  2  0  0  0  0
M  CHG  1   5  -1
M  END
> <s_m_source_file>
AV-unprocessed.smi

> <i_m_source_file_index>
1644

> <i_lp_mmshare_version>
43012

> <i_f3d_flags>
0

> <s_epik_input>
W0NIM11bQ0gyXVtDSDJdW0NAQEhdMVtOSF1DKD1PKU4oQzE9TylbQ0gyXVtDQEhdKFtPSF0pW0NIMl1uKFtjSF1uMiljKGMyMylbY0hdYyhbQ0gzXSljKFtjSF0zKVtDSDNd

> <s_epik_cmdline>
J2VwaWtfcHl0aG9uJywgJy1waCcsICc3LjAnLCAnLXRuJywgJzgnLCAnLW1hJywgJzIwMCcsICctbWV0YWxfYmluZGluZycsICctaW1hZScsICc8aW5maWxlLm1hZT4nLCAnLW9tYWUnLCAnPG91dGZpbGUubWFlPic=

> <r_lp_tautomer_probability>
1

> <r_epik_Ionization_Penalty>
5.95212

> <r_epik_Ionization_Penalty_Charging>
5.84419

> <r_epik_Ionization_Penalty_Neutral>
0.107924

> <r_epik_State_Penalty>
5.94088

> <r_epik_Charging_Adjusted_Penalty>
11.7851

> <i_epik_Tot_Q>
-1

> <i_epik_Tot_abs_Q>
1

> <r_epik_Metal_State_Penalty>
1.99095

> <b_epik_Metal_Only>
1

> <s_lp_Force_Field>
OPLS_2005

> <r_lp_Energy>
19.6047

> <b_lp_Chiralities_Consistent>
1

> <s_lp_Variant>
AV-unprocessed.smi:1644-12

> <Gold.Version>
5.8.1

> <Gold.Id.Protein>
6NUR|6NUR_protein|mol2

> <Gold.PLP.Fitness>
45.8243

> <Gold.PLP.PLP>
-47.6985

> <Gold.PLP.part.hbond>
-1.0000

> <Gold.PLP.part.metal>
0.0000

> <Gold.PLP.part.buried>
-3.7489

> <Gold.PLP.part.nonpolar>
-43.9736

> <Gold.PLP.part.repulsive>
0.4006

> <Gold.PLP.ligand.clash>
0.0000

> <Gold.PLP.ligand.torsion>
1.0022

> <Gold.PLP.Chemscore.Hbond>
0.0000

> <Gold.PLP.Chemscore.CHOScore>
0.0000

> <Gold.PLP.Chemscore.Metal>
0.0000

> <Gold.PLP.Chemscore.Internal.Correction>
0.1301

> <Gold.Rescore>
     Score         DG    S(hbond)    S(metal)    S(lipo)     H(rot)  DE(clash)    DE(int)     intcor
      7.17     -11.25       0.00        0.00     107.27       2.65       0.25       3.83       ----

> <Gold.Chemscore.Fitness>
7.1740

> <Gold.Chemscore.DG>
-11.2505

> <Gold.Chemscore.ZeroCoef>
-5.4800

> <Gold.Chemscore.Hbond>
0.0001

> <Gold.Chemscore.Metal>
0.0000

> <Gold.Chemscore.Lipo>
107.2714

> <Gold.Chemscore.Internal_Hbond>
0.0000

> <Gold.Chemscore.DEClash>
0.2457

> <Gold.Chemscore.DEInternal>
3.8309

> <Gold.Chemscore.Rot>
2.6486

> <Gold.Chemscore.Internal.Correction>
   9.000000E+99

> <Gold.Chemscore.Hbond.Weighted>
-0.0002

> <Gold.Chemscore.Metal.Weighted>
-0.0000

> <Gold.Chemscore.Lipo.Weighted>
-12.5508

> <Gold.Chemscore.Internal_Hbond.Weighted>
0.0000

> <Gold.Chemscore.DEClash.Weighted>
0.2457

> <Gold.Chemscore.DEInternal.Weighted>
3.8309

> <Gold.Chemscore.Rot.Weighted>
6.7804

> <Gold.Chemscore.Internal.Correction.Weighted>
   9.000000E+99

> <Gold.Protein.RotatedTorsions>
[ 6907 6896 6895 6894 ] final   37.27 input  -60.11 | X-H torsion
[ 7974 7965 7964 7962 ] final  103.21 input  175.53 | X-H torsion
[ 8008 7997 7996 7995 ] final   90.82 input   59.86 | X-H torsion
[ 10167 10162 10161 10158 ] final   52.34 input  -65.29 | X-H torsion
[ 10718 10713 10712 10709 ] final -134.92 input   66.30 | X-H torsion
[ 10763 10752 10751 10750 ] final   52.53 input  -60.55 | X-H torsion
[ 11005 11000 10999 10996 ] final   42.83 input  -57.11 | X-H torsion

> <Gold.Protein.ActiveResidues>
 VAL166  LYS551  ARG553  GLY616  TRP617  ASP618  TYR619  PRO620  LYS621  CYS622 
 ASP623  PHE694  ASN695  SER759  ASP760  ASP761  ALA762  ILE779  LEU786  VAL792 
 PHE793  MET794  SER795  GLU796  ALA797  LYS798  CYS799  TRP800  GLU811  SER814 

> <Gold.Protein.RotatedAtoms>
  152.1409  134.9063  160.0553 H   0  0  0  0  0  0  0  0  0  0  0  0  # atno 6907 bound_to 6896
  152.0131  133.3864  159.4236 H   0  0  0  0  0  0  0  0  0  0  0  0  # atno 6908 bound_to 6896
  150.6865  134.3630  159.5002 H   0  0  0  0  0  0  0  0  0  0  0  0  # atno 6909 bound_to 6896
  145.3489  139.2444  143.3569 H   0  0  0  0  0  0  0  0  0  0  0  0  # atno 7974 bound_to 7965
  156.0165  140.3345  155.6994 H   0  0  0  0  0  0  0  0  0  0  0  0  # atno 8008 bound_to 7997
  155.6084  140.0662  157.2731 H   0  0  0  0  0  0  0  0  0  0  0  0  # atno 8009 bound_to 7997
  154.4300  140.1798  156.1234 H   0  0  0  0  0  0  0  0  0  0  0  0  # atno 8010 bound_to 7997
  140.2524  144.3464  150.6344 H   0  0  0  0  0  0  0  0  0  0  0  0  # atno 10167 bound_to 10162
  156.2606  130.7207  151.1140 H   0  0  0  0  0  0  0  0  0  0  0  0  # atno 10718 bound_to 10713
  152.9789  135.5809  154.4594 H   0  0  0  0  0  0  0  0  0  0  0  0  # atno 10763 bound_to 10752
  154.4172  135.2771  155.2001 H   0  0  0  0  0  0  0  0  0  0  0  0  # atno 10764 bound_to 10752
  154.3765  135.6156  153.5822 H   0  0  0  0  0  0  0  0  0  0  0  0  # atno 10765 bound_to 10752
  140.1702  134.4232  155.8262 H   0  0  0  0  0  0  0  0  0  0  0  0  # atno 11005 bound_to 11000
  146.2976  140.4101  142.8716 LP  0  0  0  0  0  0  0  0  0  0  0  0  # atno 17320 bound_to 7965
  144.8733  140.7302  143.6033 LP  0  0  0  0  0  0  0  0  0  0  0  0  # atno 17321 bound_to 7965
  140.6030  143.2167  151.7036 LP  0  0  0  0  0  0  0  0  0  0  0  0  # atno 17342 bound_to 10162
  139.5042  144.3763  152.0420 LP  0  0  0  0  0  0  0  0  0  0  0  0  # atno 17343 bound_to 10162
  157.7249  131.0657  150.5976 LP  0  0  0  0  0  0  0  0  0  0  0  0  # atno 17370 bound_to 10713
  156.6064  130.4368  149.5876 LP  0  0  0  0  0  0  0  0  0  0  0  0  # atno 17371 bound_to 10713
  141.2217  133.6952  156.7749 LP  0  0  0  0  0  0  0  0  0  0  0  0  # atno 17394 bound_to 11000
  140.2386  134.8630  157.3551 LP  0  0  0  0  0  0  0  0  0  0  0  0  # atno 17395 bound_to 11000

$$$$
