#       Name:                AV-unprocessed.smi:1076
#       Creating user name   scv26
#       Creation time:       Fri Mar 27 03:21:45 2020


#       File generated by GOLD software.
#

@<TRIPOS>MOLECULE
AV-unprocessed.smi:1076
    50    51     1
SMALL
NO_CHARGES


@<TRIPOS>ATOM
      1 ****        -1.2528   1.1255   3.9706 C.3            1 S1                 0.0000
      2 ****        -1.5217   0.2336   2.7937 C.2            1 S1                 0.0000
      3 ****        -0.7679  -0.8948   2.3642 C.2            1 S1                 0.0000
      4 ****        -1.2630  -1.4584   1.2746 N.2            1 S1                 0.0000
      5 ****        -2.3512  -0.7169   0.9751 N.pl3          1 S1                 0.0000
      6 ****        -3.1375  -1.0335  -0.2061 C.3            1 S1                 0.0000
      7 ****        -2.7213  -0.1749  -1.4162 C.3            1 S1                 0.0000
      8 ****        -3.5779  -0.4829  -2.6529 C.3            1 S1                 0.0000
      9 ****        -1.2857  -0.3826  -1.7052 N.4            1 S1                 1.0000
     10 ****        -0.6100   0.7069  -2.4431 C.3            1 S1                 0.0000
     11 ****         0.9028   0.7185  -2.1436 C.3            1 S1                 0.0000
     12 ****         1.2446   1.0237  -0.6701 C.2            1 S1                 0.0000
     13 ****         0.3609   1.4690   0.0643 O.2            1 S1                 0.0000
     14 ****         2.4943   0.7726  -0.2143 N.am           1 S1                 0.0000
     15 ****         2.8560   0.8366   1.2041 C.3            1 S1                 0.0000
     16 ****         3.2039  -0.5890   1.6708 C.3            1 S1                 0.0000
     17 ****         4.2620  -1.1137   0.8711 O.3            1 S1                 0.0000
     18 ****         3.9544  -1.1474  -0.5212 C.3            1 S1                 0.0000
     19 ****         3.6213   0.2742  -1.0069 C.3            1 S1                 0.0000
     20 ****        -2.5325   0.3092   1.8778 C.2            1 S1                 0.0000
     21 ****        -0.6156   0.6393   4.7097 H              1 S1                 0.0000
     22 ****        -2.1731   1.4118   4.4798 H              1 S1                 0.0000
     23 ****        -0.7512   2.0451   3.6691 H              1 S1                 0.0000
     24 ****         0.1242  -1.3134   2.8061 H              1 S1                 0.0000
     25 ****        -3.0310  -2.0963  -0.4305 H              1 S1                 0.0000
     26 ****        -4.1888  -0.8675   0.0316 H              1 S1                 0.0000
     27 ****        -2.8734   0.8696  -1.1396 H              1 S1                 0.0000
     28 ****        -4.6364  -0.3256  -2.4437 H              1 S1                 0.0000
     29 ****        -3.4536  -1.5176  -2.9746 H              1 S1                 0.0000
     30 ****        -3.3122   0.1617  -3.4912 H              1 S1                 0.0000
     31 ****        -0.8292  -0.4409  -0.8050 H              1 S1                 0.0000
     32 ****        -0.7851   0.5706  -3.5104 H              1 S1                 0.0000
     33 ****        -1.0395   1.6749  -2.1804 H              1 S1                 0.0000
     34 ****         1.3114  -0.2537  -2.4210 H              1 S1                 0.0000
     35 ****         1.3928   1.4639  -2.7709 H              1 S1                 0.0000
     36 ****         3.7143   1.4975   1.3336 H              1 S1                 0.0000
     37 ****         2.0618   1.2443   1.8309 H              1 S1                 0.0000
     38 ****         3.5194  -0.5798   2.7141 H              1 S1                 0.0000
     39 ****         2.3323  -1.2421   1.6057 H              1 S1                 0.0000
     40 ****         4.8141  -1.5413  -1.0633 H              1 S1                 0.0000
     41 ****         3.1203  -1.8270  -0.7038 H              1 S1                 0.0000
     42 ****         3.4404   0.2771  -2.0806 H              1 S1                 0.0000
     43 ****         4.4815   0.9281  -0.8558 H              1 S1                 0.0000
     44 ****        -3.3508   1.0085   1.7880 H              1 S1                 0.0000
     45 ****        -1.1519  -1.2623  -2.1827 H              1 S1                 0.0000
     46 ****        -0.9106  -2.2548   0.7830 LP             1 S1                 0.0000
     47 ****        -0.5579   1.6262  -0.2977 LP             1 S1                 0.0000
     48 ****         0.5626   1.6731   1.0222 LP             1 S1                 0.0000
     49 ****         4.4575  -2.0460   1.1755 LP             1 S1                 0.0000
     50 ****         5.0725  -0.5431   1.0032 LP             1 S1                 0.0000
@<TRIPOS>BOND
    1    1    2 1     
    2    1   21 1     
    3    1   22 1     
    4    1   23 1     
    5    2   20 2     
    6    2    3 1     
    7    3    4 2     
    8    3   24 1     
    9    4    5 1     
   10    5    6 1     
   11    5   20 1     
   12    6    7 1     
   13    6   25 1     
   14    6   26 1     
   15    7    8 1     
   16    7    9 1     
   17    7   27 1     
   18    8   28 1     
   19    8   29 1     
   20    8   30 1     
   21    9   10 1     
   22    9   31 1     
   23    9   45 1     
   24   10   11 1     
   25   10   32 1     
   26   10   33 1     
   27   11   12 1     
   28   11   34 1     
   29   11   35 1     
   30   12   13 2     
   31   12   14 am    
   32   14   19 1     
   33   14   15 1     
   34   15   16 1     
   35   15   36 1     
   36   15   37 1     
   37   16   17 1     
   38   16   38 1     
   39   16   39 1     
   40   17   18 1     
   41   18   19 1     
   42   18   40 1     
   43   18   41 1     
   44   19   42 1     
   45   19   43 1     
   46   20   44 1     
   47    4   46 1     
   48   13   47 1     
   49   13   48 1     
   50   17   49 1     
   51   17   50 1     
@<TRIPOS>SUBSTRUCTURE
      1 S1             1
@<TRIPOS>SET
LONE_PAIRS      STATIC     ATOMS    <user>   **** ""
5 46 47 48 49 50
DONOR_HYDROGENS      STATIC     ATOMS    <user>   **** ""
2 31 45
ATOM$BLUE        STATIC     ATOMS    COLORGROUP SYSTEM
5 46 47 48 49 50
ATOM$RED        STATIC     ATOMS    COLORGROUP SYSTEM
2 31 45
