#       Name:                AV-unprocessed.smi:2113
#       Creating user name   scv26
#       Creation time:       Fri Mar 27 11:35:52 2020


#       File generated by GOLD software.
#

@<TRIPOS>MOLECULE
AV-unprocessed.smi:2113
    52    53     1
SMALL
NO_CHARGES


@<TRIPOS>ATOM
      1 ****        -3.9254  -0.7261   0.9787 C.3            1 S1                 0.0000
      2 ****        -3.4093  -0.2232  -0.3709 C.3            1 S1                 0.0000
      3 ****        -3.6643  -1.2162  -1.3582 O.3            1 S1                 0.0000
      4 ****        -3.3239  -0.8579  -2.6962 C.3            1 S1                 0.0000
      5 ****        -3.9309  -1.9169  -3.6280 C.3            1 S1                 0.0000
      6 ****        -1.7974  -0.7798  -2.8562 C.2            1 S1                 0.0000
      7 ****        -1.1112  -1.7992  -2.7772 O.2            1 S1                 0.0000
      8 ****        -1.2786   0.4433  -3.0469 N.am           1 S1                 0.0000
      9 ****         0.1481   0.7396  -3.1099 C.3            1 S1                 0.0000
     10 ****         0.8108   0.7587  -1.7419 C.ar           1 S1                 0.0000
     11 ****         0.2330   1.4492  -0.6576 C.ar           1 S1                 0.0000
     12 ****         0.8759   1.4165   0.5939 C.ar           1 S1                 0.0000
     13 ****         2.0854   0.6940   0.7300 C.ar           1 S1                 0.0000
     14 ****         2.7373   0.6325   1.9809 N.3            1 S1                 0.0000
     15 ****         4.0948   0.0913   2.0191 C.3            1 S1                 0.0000
     16 ****         4.7383   0.3531   3.3911 C.3            1 S1                 0.0000
     17 ****         3.9086  -0.1784   4.4186 O.3            1 S1                 0.0000
     18 ****         2.6267   0.4405   4.4353 C.3            1 S1                 0.0000
     19 ****         1.9074   0.1889   3.0988 C.3            1 S1                 0.0000
     20 ****         2.6479   0.0482  -0.3219 N.ar           1 S1                 0.0000
     21 ****         2.0260   0.0809  -1.5195 C.ar           1 S1                 0.0000
     22 ****        -3.7511   0.0121   1.7617 H              1 S1                 0.0000
     23 ****        -3.4213  -1.6480   1.2699 H              1 S1                 0.0000
     24 ****        -4.9962  -0.9264   0.9392 H              1 S1                 0.0000
     25 ****        -3.9117   0.7081  -0.6360 H              1 S1                 0.0000
     26 ****        -2.3430  -0.0123  -0.2909 H              1 S1                 0.0000
     27 ****        -3.7716   0.1085  -2.9363 H              1 S1                 0.0000
     28 ****        -3.6974  -1.7072  -4.6724 H              1 S1                 0.0000
     29 ****        -5.0166  -1.9383  -3.5317 H              1 S1                 0.0000
     30 ****        -3.5613  -2.9165  -3.3954 H              1 S1                 0.0000
     31 ****        -1.9132   1.2266  -3.1028 H              1 S1                 0.0000
     32 ****         0.6493   0.0249  -3.7649 H              1 S1                 0.0000
     33 ****         0.2748   1.7207  -3.5679 H              1 S1                 0.0000
     34 ****        -0.6921   1.9938  -0.7781 H              1 S1                 0.0000
     35 ****         0.4419   1.9502   1.4261 H              1 S1                 0.0000
     36 ****         4.0626  -0.9811   1.8214 H              1 S1                 0.0000
     37 ****         4.7060   0.5491   1.2403 H              1 S1                 0.0000
     38 ****         5.7175  -0.1225   3.4435 H              1 S1                 0.0000
     39 ****         4.8939   1.4214   3.5502 H              1 S1                 0.0000
     40 ****         2.0438   0.0257   5.2575 H              1 S1                 0.0000
     41 ****         2.7296   1.5099   4.6257 H              1 S1                 0.0000
     42 ****         0.9447   0.6977   3.1151 H              1 S1                 0.0000
     43 ****         1.7009  -0.8759   2.9819 H              1 S1                 0.0000
     44 ****         2.5107  -0.4587  -2.3200 H              1 S1                 0.0000
     45 ****        -4.6413  -1.4284  -1.3357 LP             1 S1                 0.0000
     46 ****        -3.1402  -2.0327  -1.1157 LP             1 S1                 0.0000
     47 ****        -1.5468  -2.6833  -2.6081 LP             1 S1                 0.0000
     48 ****        -0.1183  -1.7430  -2.8820 LP             1 S1                 0.0000
     49 ****         2.8939   1.6092   2.1278 LP             1 S1                 0.0000
     50 ****         4.3519  -0.0290   5.3025 LP             1 S1                 0.0000
     51 ****         3.7924  -1.1598   4.2658 LP             1 S1                 0.0000
     52 ****         3.5108  -0.4450  -0.2117 LP             1 S1                 0.0000
@<TRIPOS>BOND
    1    1    2 1     
    2    1   22 1     
    3    1   23 1     
    4    1   24 1     
    5    2    3 1     
    6    2   25 1     
    7    2   26 1     
    8    3    4 1     
    9    4    5 1     
   10    4    6 1     
   11    4   27 1     
   12    5   28 1     
   13    5   29 1     
   14    5   30 1     
   15    6    7 2     
   16    6    8 am    
   17    8    9 1     
   18    8   31 1     
   19    9   10 1     
   20    9   32 1     
   21    9   33 1     
   22   10   21 ar    
   23   10   11 ar    
   24   11   12 ar    
   25   11   34 1     
   26   12   13 ar    
   27   12   35 1     
   28   13   14 1     
   29   13   20 ar    
   30   14   19 1     
   31   14   15 1     
   32   15   16 1     
   33   15   36 1     
   34   15   37 1     
   35   16   17 1     
   36   16   38 1     
   37   16   39 1     
   38   17   18 1     
   39   18   19 1     
   40   18   40 1     
   41   18   41 1     
   42   19   42 1     
   43   19   43 1     
   44   20   21 ar    
   45   21   44 1     
   46    3   45 1     
   47    3   46 1     
   48    7   47 1     
   49    7   48 1     
   50   14   49 1     
   51   17   50 1     
   52   17   51 1     
   53   20   52 1     
@<TRIPOS>SUBSTRUCTURE
      1 S1             1
@<TRIPOS>SET
LONE_PAIRS      STATIC     ATOMS    <user>   **** ""
8 45 46 47 48 49 50 51 52
DONOR_HYDROGENS      STATIC     ATOMS    <user>   **** ""
1 31
ATOM$BLUE        STATIC     ATOMS    COLORGROUP SYSTEM
8 45 46 47 48 49 50 51 52
ATOM$RED        STATIC     ATOMS    COLORGROUP SYSTEM
1 31
