AV-unprocessed.smi:2755|AV-procd|sdf|10617|dock1
  -GOLD-   2272015 63D 1   1.00000     0.00000
 Structure written by MMmdl.
 32 32  0  0  0  0  0  0  0  0  1 V2000
  152.0527  145.0000  158.6813 C   0  0  0  0  0  0  0  0  0  0  0  0
  152.7438  143.6334  158.7398 C   0  0  0  0  0  0  0  0  0  0  0  0
  153.0481  143.1864  160.1769 C   0  0  0  0  0  0  0  0  0  0  0  0
  153.7404  141.8173  160.2333 C   0  0  0  0  0  0  0  0  0  0  0  0
  152.8147  140.6710  159.8050 C   0  0  0  0  0  0  0  0  0  0  0  0
  152.8042  140.5440  158.3552 N   0  0  0  0  0  0  0  0  0  0  0  0
  152.1361  139.6010  157.6713 C   0  0  0  0  0  0  0  0  0  0  0  0
  151.4453  138.7453  158.2232 O   0  0  0  0  0  0  0  0  0  0  0  0
  152.2452  139.5970  156.1367 C   0  0  0  0  0  0  0  0  0  0  0  0
  151.0176  139.9734  155.4287 N   0  0  0  0  0  0  0  0  0  0  0  0
  150.4655  139.0402  154.5839 N   0  0  0  0  0  0  0  0  0  0  0  0
  149.4046  139.5613  154.0764 C   0  0  0  0  0  0  0  0  0  0  0  0
  148.5508  138.9588  153.1755 N   0  0  0  0  0  0  0  0  0  0  0  0
  148.9412  141.2133  154.5405 S   0  0  0  0  0  0  0  0  0  0  0  0
  150.3863  141.2140  155.5714 C   0  0  0  0  0  0  0  0  0  0  0  0
  150.7179  142.1670  156.2742 O   0  0  0  0  0  0  0  0  0  0  0  0
  151.8514  145.2893  157.6496 H   0  0  0  0  0  0  0  0  0  0  0  0
  152.6749  145.7755  159.1289 H   0  0  0  0  0  0  0  0  0  0  0  0
  151.1014  144.9835  159.2136 H   0  0  0  0  0  0  0  0  0  0  0  0
  152.1120  142.8907  158.2514 H   0  0  0  0  0  0  0  0  0  0  0  0
  153.6701  143.6759  158.1657 H   0  0  0  0  0  0  0  0  0  0  0  0
  153.6793  143.9321  160.6619 H   0  0  0  0  0  0  0  0  0  0  0  0
  152.1205  143.1473  160.7496 H   0  0  0  0  0  0  0  0  0  0  0  0
  154.6226  141.8312  159.5918 H   0  0  0  0  0  0  0  0  0  0  0  0
  154.0981  141.6340  161.2475 H   0  0  0  0  0  0  0  0  0  0  0  0
  153.1495  139.7338  160.2529 H   0  0  0  0  0  0  0  0  0  0  0  0
  151.7980  140.8541  160.1562 H   0  0  0  0  0  0  0  0  0  0  0  0
  153.3473  141.2152  157.8314 H   0  0  0  0  0  0  0  0  0  0  0  0
  153.0494  140.2750  155.8466 H   0  0  0  0  0  0  0  0  0  0  0  0
  152.5627  138.6028  155.8180 H   0  0  0  0  0  0  0  0  0  0  0  0
  148.6867  138.0227  152.8216 H   0  0  0  0  0  0  0  0  0  0  0  0
  147.7309  139.4098  152.7960 H   0  0  0  0  0  0  0  0  0  0  0  0
  1  2  1  0  0  0  0
  1 17  1  0  0  0  0
  1 18  1  0  0  0  0
  1 19  1  0  0  0  0
  2  3  1  0  0  0  0
  2 20  1  0  0  0  0
  2 21  1  0  0  0  0
  3  4  1  0  0  0  0
  3 22  1  0  0  0  0
  3 23  1  0  0  0  0
  4  5  1  0  0  0  0
  4 24  1  0  0  0  0
  4 25  1  0  0  0  0
  5  6  1  0  0  0  0
  5 26  1  0  0  0  0
  5 27  1  0  0  0  0
  6  7  1  0  0  0  0
  6 28  1  0  0  0  0
  7  8  2  0  0  0  0
  7  9  1  0  0  0  0
  9 10  1  0  0  0  0
  9 29  1  0  0  0  0
  9 30  1  0  0  0  0
 10 15  1  0  0  0  0
 10 11  1  0  0  0  0
 11 12  2  0  0  0  0
 12 13  1  0  0  0  0
 12 14  1  0  0  0  0
 13 31  1  0  0  0  0
 13 32  1  0  0  0  0
 14 15  1  0  0  0  0
 15 16  2  0  0  0  0
M  END
> <s_m_source_file>
AV-unprocessed.smi

> <i_m_source_file_index>
2755

> <i_lp_mmshare_version>
43012

> <i_f3d_flags>
0

> <s_epik_input>
W0NIM11bQ0gyXVtDSDJdW0NIMl1bQ0gyXVtOSF1DKD1PKVtDSDJdbjFuYyhbTkgyXSlzYzE9Tw==

> <s_epik_cmdline>
J2VwaWtfcHl0aG9uJywgJy1waCcsICc3LjAnLCAnLXRuJywgJzgnLCAnLW1hJywgJzIwMCcsICctbWV0YWxfYmluZGluZycsICctaW1hZScsICc8aW5maWxlLm1hZT4nLCAnLW9tYWUnLCAnPG91dGZpbGUubWFlPic=

> <r_lp_tautomer_probability>
1

> <r_epik_Ionization_Penalty>
4.62415e-07

> <r_epik_Ionization_Penalty_Charging>
1.84682e-08

> <r_epik_Ionization_Penalty_Neutral>
4.43947e-07

> <r_epik_State_Penalty>
-0

> <r_epik_Charging_Adjusted_Penalty>
1.84682e-08

> <i_epik_Tot_Q>
0

> <i_epik_Tot_abs_Q>
0

> <r_epik_Metal_State_Penalty>
-0

> <b_epik_Metal_Only>
0

> <s_lp_Force_Field>
OPLS_2005

> <r_lp_Energy>
7.41943

> <b_lp_Chiralities_Consistent>
1

> <s_lp_Variant>
AV-unprocessed.smi:2755-1

> <Gold.Version>
5.8.1

> <Gold.Id.Protein>
6NUR|6NUR_protein|mol2

> <Gold.PLP.Fitness>
39.5628

> <Gold.PLP.PLP>
-36.9883

> <Gold.PLP.part.hbond>
-2.0000

> <Gold.PLP.part.metal>
0.0000

> <Gold.PLP.part.buried>
-2.0477

> <Gold.PLP.part.nonpolar>
-32.3469

> <Gold.PLP.part.repulsive>
0.4093

> <Gold.PLP.ligand.clash>
0.0000

> <Gold.PLP.ligand.torsion>
0.2309

> <Gold.PLP.Chemscore.Hbond>
1.0000

> <Gold.PLP.Chemscore.CHOScore>
0.0000

> <Gold.PLP.Chemscore.Metal>
0.0000

> <Gold.Chemscore.Hbonds>
donor molecule, donor type, donor heavy atom, donor atom, acceptor molecule, acceptor atom, score
      L1  H    13    31       P1  7948  1.00

> <Gold.PLP.Chemscore.Internal.Correction>
0.0362

> <Gold.Rescore>
     Score         DG    S(hbond)    S(metal)    S(lipo)     H(rot)  DE(clash)    DE(int)     intcor
      9.94     -10.27       1.00        0.00      73.92       2.81       0.09       0.24       ----

> <Gold.Chemscore.Fitness>
9.9442

> <Gold.Chemscore.DG>
-10.2685

> <Gold.Chemscore.ZeroCoef>
-5.4800

> <Gold.Chemscore.Hbond>
0.9955

> <Gold.Chemscore.Metal>
0.0000

> <Gold.Chemscore.Lipo>
73.9248

> <Gold.Chemscore.Internal_Hbond>
0.0000

> <Gold.Chemscore.DEClash>
0.0872

> <Gold.Chemscore.DEInternal>
0.2371

> <Gold.Chemscore.Rot>
2.8069

> <Gold.Chemscore.Internal.Correction>
   9.000000E+99

> <Gold.Chemscore.Hbonds>
donor molecule, donor type, donor heavy atom, donor atom, acceptor molecule, acceptor atom, score
      L1  H    13    31       P1  7948  0.93

> <Gold.Chemscore.Hbond.Weighted>
-3.3249

> <Gold.Chemscore.Metal.Weighted>
-0.0000

> <Gold.Chemscore.Lipo.Weighted>
-8.6492

> <Gold.Chemscore.Internal_Hbond.Weighted>
0.0000

> <Gold.Chemscore.DEClash.Weighted>
0.0872

> <Gold.Chemscore.DEInternal.Weighted>
0.2371

> <Gold.Chemscore.Rot.Weighted>
7.1856

> <Gold.Chemscore.Internal.Correction.Weighted>
   9.000000E+99

> <Gold.Protein.RotatedTorsions>
[ 6907 6896 6895 6894 ] final  131.88 input  -60.11 | X-H torsion
[ 7974 7965 7964 7962 ] final  -21.25 input  175.53 | X-H torsion
[ 8008 7997 7996 7995 ] final  175.61 input   59.86 | X-H torsion
[ 10167 10162 10161 10158 ] final  -57.40 input  -65.29 | X-H torsion
[ 10718 10713 10712 10709 ] final  137.96 input   66.30 | X-H torsion
[ 10763 10752 10751 10750 ] final  130.72 input  -60.55 | X-H torsion
[ 11005 11000 10999 10996 ] final  -90.02 input  -57.11 | X-H torsion

> <Gold.Protein.ActiveResidues>
 VAL166  LYS551  ARG553  GLY616  TRP617  ASP618  TYR619  PRO620  LYS621  CYS622 
 ASP623  PHE694  ASN695  SER759  ASP760  ASP761  ALA762  ILE779  LEU786  VAL792 
 PHE793  MET794  SER795  GLU796  ALA797  LYS798  CYS799  TRP800  GLU811  SER814 

> <Gold.Protein.RotatedAtoms>
  152.3381  133.6034  159.5856 H   0  0  0  0  0  0  0  0  0  0  0  0  # atno 6907 bound_to 6896
  150.7462  133.9765  159.3571 H   0  0  0  0  0  0  0  0  0  0  0  0  # atno 6908 bound_to 6896
  151.7633  135.0805  160.0400 H   0  0  0  0  0  0  0  0  0  0  0  0  # atno 6909 bound_to 6896
  146.1743  140.4315  142.8520 H   0  0  0  0  0  0  0  0  0  0  0  0  # atno 7974 bound_to 7965
  156.0852  140.1404  156.9662 H   0  0  0  0  0  0  0  0  0  0  0  0  # atno 8008 bound_to 7997
  154.4608  140.0944  156.6937 H   0  0  0  0  0  0  0  0  0  0  0  0  # atno 8009 bound_to 7997
  155.5010  140.3451  155.4373 H   0  0  0  0  0  0  0  0  0  0  0  0  # atno 8010 bound_to 7997
  140.6260  143.2439  151.5361 H   0  0  0  0  0  0  0  0  0  0  0  0  # atno 10167 bound_to 10162
  157.4304  131.1048  151.0256 H   0  0  0  0  0  0  0  0  0  0  0  0  # atno 10718 bound_to 10713
  153.7626  135.3193  155.3339 H   0  0  0  0  0  0  0  0  0  0  0  0  # atno 10763 bound_to 10752
  154.8225  135.4593  154.0823 H   0  0  0  0  0  0  0  0  0  0  0  0  # atno 10764 bound_to 10752
  153.2058  135.6929  153.8258 H   0  0  0  0  0  0  0  0  0  0  0  0  # atno 10765 bound_to 10752
  141.1574  133.7666  156.9678 H   0  0  0  0  0  0  0  0  0  0  0  0  # atno 11005 bound_to 11000
  144.8212  140.6552  143.6352 LP  0  0  0  0  0  0  0  0  0  0  0  0  # atno 17320 bound_to 7965
  145.4254  139.1557  143.4051 LP  0  0  0  0  0  0  0  0  0  0  0  0  # atno 17321 bound_to 7965
  139.5481  144.2468  152.1479 LP  0  0  0  0  0  0  0  0  0  0  0  0  # atno 17342 bound_to 10162
  140.1700  144.4945  150.6585 LP  0  0  0  0  0  0  0  0  0  0  0  0  # atno 17343 bound_to 10162
  157.1154  130.6039  149.5492 LP  0  0  0  0  0  0  0  0  0  0  0  0  # atno 17370 bound_to 10713
  155.9911  130.4965  150.7286 LP  0  0  0  0  0  0  0  0  0  0  0  0  # atno 17371 bound_to 10713
  140.1149  134.9453  157.2120 LP  0  0  0  0  0  0  0  0  0  0  0  0  # atno 17394 bound_to 11000
  140.3145  134.2986  155.7259 LP  0  0  0  0  0  0  0  0  0  0  0  0  # atno 17395 bound_to 11000

$$$$
