#       Name:                AV-unprocessed.smi:703
#       Creating user name   scv26
#       Creation time:       Fri Mar 27 00:41:40 2020


#       File generated by GOLD software.
#

@<TRIPOS>MOLECULE
AV-unprocessed.smi:703
    42    43     1
SMALL
NO_CHARGES


@<TRIPOS>ATOM
      1 ****        -2.7898  -4.3468   0.9260 C.3            1 S1                 0.0000
      2 ****        -2.6339  -2.9000   1.4132 C.3            1 S1                 0.0000
      3 ****        -1.6723  -2.1318   0.5884 N.4            1 S1                 1.0000
      4 ****        -2.1119  -1.8499  -0.7912 C.3            1 S1                 0.0000
      5 ****        -1.1669  -0.7526  -1.2860 C.3            1 S1                 0.0000
      6 ****        -1.7614   0.1172  -2.4017 C.3            1 S1                 0.0000
      7 ****        -0.7932   0.0306  -0.0136 C.3            1 S1                 0.0000
      8 ****         0.6584   0.2229   0.0608 N.3            1 S1                 0.0000
      9 ****         1.2666   1.8320   0.1735 S.o2           1 S1                 0.0000
     10 ****         0.6783   2.6055  -0.9307 O.2            1 S1                 0.0000
     11 ****         1.0769   2.2749   1.5631 O.2            1 S1                 0.0000
     12 ****         3.0661   1.6078  -0.1536 C.3            1 S1                 0.0000
     13 ****         3.7394   2.9496  -0.2099 C.2            1 S1                 0.0000
     14 ****         4.0309   3.8391   0.8612 C.2            1 S1                 0.0000
     15 ****         4.6421   4.8919   0.2435 C.2            1 S1                 0.0000
     16 ****         4.7278   4.6743  -1.0931 O.3            1 S1                 0.0000
     17 ****         4.1499   3.4307  -1.3726 N.2            1 S1                 0.0000
     18 ****        -1.2922  -0.8254   1.1623 C.3            1 S1                 0.0000
     19 ****        -3.4483  -4.9072   1.5900 H              1 S1                 0.0000
     20 ****        -1.8287  -4.8615   0.9023 H              1 S1                 0.0000
     21 ****        -3.2209  -4.3917  -0.0743 H              1 S1                 0.0000
     22 ****        -3.6020  -2.3973   1.4286 H              1 S1                 0.0000
     23 ****        -2.2721  -2.9153   2.4421 H              1 S1                 0.0000
     24 ****        -2.0740  -2.7385  -1.4218 H              1 S1                 0.0000
     25 ****        -3.1412  -1.4870  -0.7778 H              1 S1                 0.0000
     26 ****        -0.2758  -1.2472  -1.6774 H              1 S1                 0.0000
     27 ****        -2.6665   0.6276  -2.0705 H              1 S1                 0.0000
     28 ****        -2.0182  -0.4854  -3.2733 H              1 S1                 0.0000
     29 ****        -1.0491   0.8779  -2.7224 H              1 S1                 0.0000
     30 ****        -1.2945   0.9998   0.0110 H              1 S1                 0.0000
     31 ****         1.0810  -0.3806   0.7660 H              1 S1                 0.0000
     32 ****         3.4890   0.9906   0.6386 H              1 S1                 0.0000
     33 ****         3.1785   1.0675  -1.0941 H              1 S1                 0.0000
     34 ****         3.8210   3.7245   1.9142 H              1 S1                 0.0000
     35 ****         5.0536   5.8247   0.5997 H              1 S1                 0.0000
     36 ****        -2.1721  -0.3521   1.6018 H              1 S1                 0.0000
     37 ****        -0.5542  -0.9448   1.9568 H              1 S1                 0.0000
     38 ****        -0.8218  -2.6723   0.5200 H              1 S1                 0.0000
     39 ****         0.9480  -0.0506  -0.8564 LP             1 S1                 0.0000
     40 ****         5.6873   4.6724  -1.3747 LP             1 S1                 0.0000
     41 ****         4.2374   5.3935  -1.5851 LP             1 S1                 0.0000
     42 ****         4.0645   2.9944  -2.2683 LP             1 S1                 0.0000
@<TRIPOS>BOND
    1    1    2 1     
    2    1   19 1     
    3    1   20 1     
    4    1   21 1     
    5    2    3 1     
    6    2   22 1     
    7    2   23 1     
    8    3   18 1     
    9    3    4 1     
   10    3   38 1     
   11    4    5 1     
   12    4   24 1     
   13    4   25 1     
   14    5    6 1     
   15    5    7 1     
   16    5   26 1     
   17    6   27 1     
   18    6   28 1     
   19    6   29 1     
   20    7    8 1     
   21    7   18 1     
   22    7   30 1     
   23    8    9 1     
   24    8   31 1     
   25    9   10 2     
   26    9   11 2     
   27    9   12 1     
   28   12   13 1     
   29   12   32 1     
   30   12   33 1     
   31   13   17 2     
   32   13   14 1     
   33   14   15 2     
   34   14   34 1     
   35   15   16 1     
   36   15   35 1     
   37   16   17 1     
   38   18   36 1     
   39   18   37 1     
   40    8   39 1     
   41   16   40 1     
   42   16   41 1     
   43   17   42 1     
@<TRIPOS>SUBSTRUCTURE
      1 S1             1
@<TRIPOS>SET
LONE_PAIRS      STATIC     ATOMS    <user>   **** ""
6 39 10 11 40 41 42
DONOR_HYDROGENS      STATIC     ATOMS    <user>   **** ""
2 38 31
ATOM$BLUE        STATIC     ATOMS    COLORGROUP SYSTEM
6 39 10 11 40 41 42
ATOM$RED        STATIC     ATOMS    COLORGROUP SYSTEM
2 38 31
