AV-unprocessed.smi:3009|AV-procd|sdf|11453|dock2
  -GOLD-   2272016383D 1   1.00000     0.00000
 Structure written by MMmdl.
 43 44  0  0  0  0  0  0  0  0  1 V2000
  148.9547  141.6694  157.8395 C   0  0  0  0  0  0  0  0  0  0  0  0
  150.4775  141.5760  157.6456 C   0  0  0  0  0  0  0  0  0  0  0  0
  151.2612  142.3503  158.7197 C   0  0  0  0  0  0  0  0  0  0  0  0
  150.9418  141.8727  156.1981 C   0  0  0  0  0  0  0  0  0  0  0  0
  150.7618  140.8172  155.1956 N   0  0  0  0  0  0  0  0  0  0  0  0
  151.4687  139.5824  155.5248 C   0  0  0  0  0  0  0  0  0  0  0  0
  151.2176  138.4773  154.4846 C   0  0  0  0  0  0  0  0  0  0  0  0
  149.8189  138.2517  154.3517 O   0  0  0  0  0  0  0  0  0  0  0  0
  149.1061  139.4219  153.9589 C   0  0  1  0  0  0  0  0  0  0  0  0
  147.6155  139.0662  153.8252 C   0  0  0  0  0  0  0  0  0  0  0  0
  147.4162  137.8676  153.0177 N   0  0  0  0  0  0  0  0  0  0  0  0
  146.2296  137.2963  152.7685 C   0  0  0  0  0  0  0  0  0  0  0  0
  145.1629  137.7201  153.2144 O   0  0  0  0  0  0  0  0  0  0  0  0
  146.3632  136.2181  151.9789 N   0  0  0  0  0  0  0  0  0  0  0  0
  145.3336  135.3696  151.4988 C   0  0  0  0  0  0  0  0  0  0  0  0
  145.4630  133.9666  151.3109 C   0  0  0  0  0  0  0  0  0  0  0  0
  144.3401  133.4350  150.8491 N   0  0  0  0  0  0  0  0  0  0  0  0
  143.4956  134.4856  150.7394 N   0  0  0  0  0  0  0  0  0  0  0  0
  144.0574  135.6834  151.1231 C   0  0  0  0  0  0  0  0  0  0  0  0
  149.3443  140.5166  155.0170 C   0  0  0  0  0  0  0  0  0  0  0  0
  142.5495  134.3710  150.4042 H   0  0  0  0  0  0  0  0  0  0  0  0
  148.5960  142.6941  157.7412 H   0  0  0  0  0  0  0  0  0  0  0  0
  148.6649  141.3144  158.8287 H   0  0  0  0  0  0  0  0  0  0  0  0
  148.4288  141.0599  157.1043 H   0  0  0  0  0  0  0  0  0  0  0  0
  150.7361  140.5302  157.8174 H   0  0  0  0  0  0  0  0  0  0  0  0
  151.0421  143.4159  158.7143 H   0  0  0  0  0  0  0  0  0  0  0  0
  152.3362  142.2312  158.5823 H   0  0  0  0  0  0  0  0  0  0  0  0
  151.0190  141.9785  159.7158 H   0  0  0  0  0  0  0  0  0  0  0  0
  150.4897  142.8015  155.8469 H   0  0  0  0  0  0  0  0  0  0  0  0
  152.0100  142.0854  156.2622 H   0  0  0  0  0  0  0  0  0  0  0  0
  152.5403  139.7620  155.5678 H   0  0  0  0  0  0  0  0  0  0  0  0
  151.1631  139.2300  156.5111 H   0  0  0  0  0  0  0  0  0  0  0  0
  151.6416  138.7534  153.5178 H   0  0  0  0  0  0  0  0  0  0  0  0
  151.7006  137.5500  154.7928 H   0  0  0  0  0  0  0  0  0  0  0  0
  149.4853  139.7674  152.9953 H   0  0  0  0  0  0  0  0  0  0  0  0
  147.1823  138.8924  154.8106 H   0  0  0  0  0  0  0  0  0  0  0  0
  147.0641  139.9003  153.3876 H   0  0  0  0  0  0  0  0  0  0  0  0
  148.2407  137.4555  152.6062 H   0  0  0  0  0  0  0  0  0  0  0  0
  147.3003  135.9799  151.6888 H   0  0  0  0  0  0  0  0  0  0  0  0
  146.3167  133.3296  151.4906 H   0  0  0  0  0  0  0  0  0  0  0  0
  143.5113  136.6146  151.0919 H   0  0  0  0  0  0  0  0  0  0  0  0
  148.9122  140.2013  155.9683 H   0  0  0  0  0  0  0  0  0  0  0  0
  148.8124  141.4213  154.7191 H   0  0  0  0  0  0  0  0  0  0  0  0
  1  2  1  0  0  0  0
  1 22  1  0  0  0  0
  1 23  1  0  0  0  0
  1 24  1  0  0  0  0
  2  3  1  0  0  0  0
  2  4  1  0  0  0  0
  2 25  1  0  0  0  0
  3 26  1  0  0  0  0
  3 27  1  0  0  0  0
  3 28  1  0  0  0  0
  4  5  1  0  0  0  0
  4 29  1  0  0  0  0
  4 30  1  0  0  0  0
  5 20  1  0  0  0  0
  5  6  1  0  0  0  0
  6  7  1  0  0  0  0
  6 31  1  0  0  0  0
  6 32  1  0  0  0  0
  7  8  1  0  0  0  0
  7 33  1  0  0  0  0
  7 34  1  0  0  0  0
  8  9  1  0  0  0  0
  9 10  1  0  0  0  0
  9 20  1  0  0  0  0
  9 35  1  0  0  0  0
 10 11  1  0  0  0  0
 10 36  1  0  0  0  0
 10 37  1  0  0  0  0
 11 12  1  0  0  0  0
 11 38  1  0  0  0  0
 12 13  2  0  0  0  0
 12 14  1  0  0  0  0
 14 15  1  0  0  0  0
 14 39  1  0  0  0  0
 15 19  2  0  0  0  0
 15 16  1  0  0  0  0
 16 17  2  0  0  0  0
 16 40  1  0  0  0  0
 17 18  1  0  0  0  0
 18 21  1  0  0  0  0
 18 19  1  0  0  0  0
 19 41  1  0  0  0  0
 20 42  1  0  0  0  0
 20 43  1  0  0  0  0
M  END
> <s_m_source_file>
AV-unprocessed.smi

> <i_m_source_file_index>
3009

> <i_lp_mmshare_version>
43012

> <i_f3d_flags>
0

> <s_epik_input>
W0NIM11bQ0hdKFtDSDNdKVtDSDJdTjFbQ0gyXVtDSDJdT1tDQEhdKFtDSDJdMSlbQ0gyXVtOSF1DKD1PKVtOSF1jMltjSF1uW25IXVtjSF0y

> <s_epik_cmdline>
J2VwaWtfcHl0aG9uJywgJy1waCcsICc3LjAnLCAnLXRuJywgJzgnLCAnLW1hJywgJzIwMCcsICctbWV0YWxfYmluZGluZycsICctaW1hZScsICc8aW5maWxlLm1hZT4nLCAnLW9tYWUnLCAnPG91dGZpbGUubWFlPic=

> <r_lp_tautomer_probability>
0.5

> <r_epik_Ionization_Penalty>
1.11801

> <r_epik_Ionization_Penalty_Charging>
0

> <r_epik_Ionization_Penalty_Neutral>
1.11801

> <r_epik_State_Penalty>
1.17654

> <r_epik_Charging_Adjusted_Penalty>
1.17654

> <i_epik_Tot_Q>
0

> <i_epik_Tot_abs_Q>
0

> <r_epik_Metal_State_Penalty>
1.17654

> <b_epik_Metal_Only>
0

> <s_lp_Force_Field>
OPLS_2005

> <r_lp_Energy>
30.4002

> <b_lp_Chiralities_Consistent>
1

> <s_lp_Variant>
AV-unprocessed.smi:3009-5

> <Gold.Version>
5.8.1

> <Gold.Id.Protein>
6NUR|6NUR_protein|mol2

> <Gold.PLP.Fitness>
43.2176

> <Gold.PLP.PLP>
-30.1200

> <Gold.PLP.part.hbond>
-3.8448

> <Gold.PLP.part.metal>
0.0000

> <Gold.PLP.part.buried>
-3.5261

> <Gold.PLP.part.nonpolar>
-23.3351

> <Gold.PLP.part.repulsive>
0.7130

> <Gold.PLP.ligand.clash>
0.0000

> <Gold.PLP.ligand.torsion>
0.5521

> <Gold.PLP.Chemscore.Hbond>
3.6832

> <Gold.PLP.Chemscore.CHOScore>
1.0000

> <Gold.PLP.Chemscore.Metal>
0.0000

> <Gold.Chemscore.Hbonds>
donor molecule, donor type, donor heavy atom, donor atom, acceptor molecule, acceptor atom, score
      L1  H    11    38       P1  7948  1.00
      L1  H    14    39       P1  7948  0.99
      L1  H    18    21       P1 10186  1.00
      P1  H  7989  7998       L1     5  0.45
      L1  C    19    41       P1 10171  1.00

> <Gold.PLP.Chemscore.Internal.Correction>
0.1521

> <Gold.Rescore>
     Score         DG    S(hbond)    S(metal)    S(lipo)     H(rot)  DE(clash)    DE(int)     intcor
     17.73     -18.37       2.89        0.00      66.02       1.76       0.01       0.63       ----

> <Gold.Chemscore.Fitness>
17.7276

> <Gold.Chemscore.DG>
-18.3693

> <Gold.Chemscore.ZeroCoef>
-5.4800

> <Gold.Chemscore.Hbond>
2.8930

> <Gold.Chemscore.Metal>
0.0000

> <Gold.Chemscore.Lipo>
66.0186

> <Gold.Chemscore.Internal_Hbond>
0.0000

> <Gold.Chemscore.DEClash>
0.0137

> <Gold.Chemscore.DEInternal>
0.6279

> <Gold.Chemscore.Rot>
1.7568

> <Gold.Chemscore.Internal.Correction>
   9.000000E+99

> <Gold.Chemscore.Hbonds>
donor molecule, donor type, donor heavy atom, donor atom, acceptor molecule, acceptor atom, score
      L1  H    11    38       P1  7948  0.93
      L1  H    14    39       P1  7948  0.94
      L1  H    18    21       P1 10186  0.60
      P1  H  7989  7998       L1     5  0.02

> <Gold.Chemscore.Hbond.Weighted>
-9.6625

> <Gold.Chemscore.Metal.Weighted>
-0.0000

> <Gold.Chemscore.Lipo.Weighted>
-7.7242

> <Gold.Chemscore.Internal_Hbond.Weighted>
0.0000

> <Gold.Chemscore.DEClash.Weighted>
0.0137

> <Gold.Chemscore.DEInternal.Weighted>
0.6279

> <Gold.Chemscore.Rot.Weighted>
4.4974

> <Gold.Chemscore.Internal.Correction.Weighted>
   9.000000E+99

> <Gold.Protein.RotatedTorsions>
[ 6907 6896 6895 6894 ] final  -40.58 input  -60.11 | X-H torsion
[ 7974 7965 7964 7962 ] final   60.10 input  175.53 | X-H torsion
[ 8008 7997 7996 7995 ] final   27.10 input   59.86 | X-H torsion
[ 10167 10162 10161 10158 ] final  -46.10 input  -65.29 | X-H torsion
[ 10718 10713 10712 10709 ] final   48.91 input   66.30 | X-H torsion
[ 10763 10752 10751 10750 ] final   51.76 input  -60.55 | X-H torsion
[ 11005 11000 10999 10996 ] final  159.99 input  -57.11 | X-H torsion

> <Gold.Protein.ActiveResidues>
 VAL166  LYS551  ARG553  GLY616  TRP617  ASP618  TYR619  PRO620  LYS621  CYS622 
 ASP623  PHE694  ASN695  SER759  ASP760  ASP761  ALA762  ILE779  LEU786  VAL792 
 PHE793  MET794  SER795  GLU796  ALA797  LYS798  CYS799  TRP800  GLU811  SER814 

> <Gold.Protein.RotatedAtoms>
  150.9767  134.9130  159.7820 H   0  0  0  0  0  0  0  0  0  0  0  0  # atno 6907 bound_to 6896
  152.5208  134.3466  159.9246 H   0  0  0  0  0  0  0  0  0  0  0  0  # atno 6908 bound_to 6896
  151.3474  133.3898  159.2711 H   0  0  0  0  0  0  0  0  0  0  0  0  # atno 6909 bound_to 6896
  145.8998  139.3573  143.0599 H   0  0  0  0  0  0  0  0  0  0  0  0  # atno 7974 bound_to 7965
  155.0377  140.3166  155.4735 H   0  0  0  0  0  0  0  0  0  0  0  0  # atno 8008 bound_to 7997
  156.2861  140.2168  156.5443 H   0  0  0  0  0  0  0  0  0  0  0  0  # atno 8009 bound_to 7997
  154.7316  140.0481  157.0719 H   0  0  0  0  0  0  0  0  0  0  0  0  # atno 8010 bound_to 7997
  140.6831  143.2847  151.3734 H   0  0  0  0  0  0  0  0  0  0  0  0  # atno 10167 bound_to 10162
  157.4734  130.8270  149.8013 H   0  0  0  0  0  0  0  0  0  0  0  0  # atno 10718 bound_to 10713
  152.9786  135.5835  154.4469 H   0  0  0  0  0  0  0  0  0  0  0  0  # atno 10763 bound_to 10752
  154.4063  135.2769  155.2067 H   0  0  0  0  0  0  0  0  0  0  0  0  # atno 10764 bound_to 10752
  154.3876  135.6132  153.5879 H   0  0  0  0  0  0  0  0  0  0  0  0  # atno 10765 bound_to 10752
  140.2015  134.8334  157.3023 H   0  0  0  0  0  0  0  0  0  0  0  0  # atno 11005 bound_to 11000
  145.8805  140.9365  143.0604 LP  0  0  0  0  0  0  0  0  0  0  0  0  # atno 17320 bound_to 7965
  144.6735  140.0773  143.7470 LP  0  0  0  0  0  0  0  0  0  0  0  0  # atno 17321 bound_to 7965
  139.6168  144.0986  152.2353 LP  0  0  0  0  0  0  0  0  0  0  0  0  # atno 17342 bound_to 10162
  140.0418  144.6001  150.7405 LP  0  0  0  0  0  0  0  0  0  0  0  0  # atno 17343 bound_to 10162
  156.0085  130.3844  150.2347 LP  0  0  0  0  0  0  0  0  0  0  0  0  # atno 17370 bound_to 10713
  157.0531  131.0068  151.3247 LP  0  0  0  0  0  0  0  0  0  0  0  0  # atno 17371 bound_to 10713
  140.2049  134.4210  155.7643 LP  0  0  0  0  0  0  0  0  0  0  0  0  # atno 17394 bound_to 11000
  141.2227  133.7090  156.8243 LP  0  0  0  0  0  0  0  0  0  0  0  0  # atno 17395 bound_to 11000

$$$$
