AV-unprocessed.smi:1803|AV-procd|sdf|7292|dock8
  -GOLD-   22720 8553D 1   1.00000     0.00000
 Structure written by MMmdl.
 35 37  0  0  0  0  0  0  0  0  3 V2000
  151.0739  139.4258  154.8086 O   0  0  0  0  0  0  0  0  0  0  0  0
  151.9651  139.5612  155.6459 C   0  0  0  0  0  0  0  0  0  0  0  0
  153.0474  138.7443  155.7256 N   0  5  0  0  0  0  0  0  0  0  0  0
  153.1747  137.7994  156.6760 C   0  0  0  0  0  0  0  0  0  0  0  0
  152.5689  136.6038  156.5905 N   0  0  0  0  0  0  0  0  0  0  0  0
  152.8258  135.7832  157.6803 N   0  0  0  0  0  0  0  0  0  0  0  0
  153.6316  136.3792  158.5587 C   0  0  0  0  0  0  0  0  0  0  0  0
  154.1437  137.9999  158.1380 S   0  0  0  0  0  0  0  0  0  0  0  0
  151.8724  140.5669  156.5358 N   0  0  0  0  0  0  0  0  0  0  0  0
  150.7961  141.5469  156.6089 C   0  0  1  0  0  0  0  0  0  0  0  0
  149.4070  140.9361  156.8764 C   0  0  0  0  0  0  0  0  0  0  0  0
  148.7066  141.9208  157.8334 C   0  0  0  0  0  0  0  0  0  0  0  0
  149.6421  143.0524  157.9817 N   0  3  1  0  0  0  0  0  0  0  0  0
  149.5283  143.8681  159.2104 C   0  0  0  0  0  0  0  0  0  0  0  0
  150.5335  145.0360  159.1411 C   0  0  0  0  0  0  0  0  0  0  0  0
  151.9679  144.5428  158.8588 C   0  0  0  0  0  0  0  0  0  0  0  0
  152.0068  143.6249  157.6216 C   0  0  0  0  0  0  0  0  0  0  0  0
  150.9866  142.4884  157.7952 C   0  0  2  0  0  0  0  0  0  0  0  0
  153.9261  135.8618  159.4595 H   0  0  0  0  0  0  0  0  0  0  0  0
  152.6139  140.6513  157.2158 H   0  0  0  0  0  0  0  0  0  0  0  0
  150.7639  142.1331  155.6881 H   0  0  0  0  0  0  0  0  0  0  0  0
  148.8513  140.8058  155.9472 H   0  0  0  0  0  0  0  0  0  0  0  0
  149.4880  139.9560  157.3492 H   0  0  0  0  0  0  0  0  0  0  0  0
  147.7448  142.2617  157.4495 H   0  0  0  0  0  0  0  0  0  0  0  0
  148.5363  141.4441  158.8001 H   0  0  0  0  0  0  0  0  0  0  0  0
  148.5114  144.2506  159.3033 H   0  0  0  0  0  0  0  0  0  0  0  0
  149.7227  143.2484  160.0871 H   0  0  0  0  0  0  0  0  0  0  0  0
  150.2306  145.7255  158.3518 H   0  0  0  0  0  0  0  0  0  0  0  0
  150.5103  145.6047  160.0711 H   0  0  0  0  0  0  0  0  0  0  0  0
  152.6371  145.3920  158.7177 H   0  0  0  0  0  0  0  0  0  0  0  0
  152.3403  143.9968  159.7266 H   0  0  0  0  0  0  0  0  0  0  0  0
  151.7793  144.2018  156.7243 H   0  0  0  0  0  0  0  0  0  0  0  0
  153.0090  143.2167  157.4870 H   0  0  0  0  0  0  0  0  0  0  0  0
  151.2431  141.9019  158.6810 H   0  0  0  0  0  0  0  0  0  0  0  0
  149.4791  143.6643  157.1948 H   0  0  0  0  0  0  0  0  0  0  0  0
  1  2  2  0  0  0  0
  2  3  1  0  0  0  0
  2  9  1  0  0  0  0
  3  4  1  0  0  0  0
  4  8  1  0  0  0  0
  4  5  2  0  0  0  0
  5  6  1  0  0  0  0
  6  7  2  0  0  0  0
  7  8  1  0  0  0  0
  7 19  1  0  0  0  0
  9 10  1  0  0  0  0
  9 20  1  0  0  0  0
 10 18  1  0  0  0  0
 10 11  1  0  0  0  0
 10 21  1  0  0  0  0
 11 12  1  0  0  0  0
 11 22  1  0  0  0  0
 11 23  1  0  0  0  0
 12 13  1  0  0  0  0
 12 24  1  0  0  0  0
 12 25  1  0  0  0  0
 13 18  1  0  0  0  0
 13 14  1  0  0  0  0
 13 35  1  0  0  0  0
 14 15  1  0  0  0  0
 14 26  1  0  0  0  0
 14 27  1  0  0  0  0
 15 16  1  0  0  0  0
 15 28  1  0  0  0  0
 15 29  1  0  0  0  0
 16 17  1  0  0  0  0
 16 30  1  0  0  0  0
 16 31  1  0  0  0  0
 17 18  1  0  0  0  0
 17 32  1  0  0  0  0
 17 33  1  0  0  0  0
 18 34  1  0  0  0  0
M  CHG  1   3  -1
M  CHG  1  13   1
M  END
> <s_m_source_file>
AV-unprocessed.smi

> <i_m_source_file_index>
1803

> <i_lp_mmshare_version>
43012

> <i_f3d_flags>
0

> <s_epik_input>
czFbY0hdbm5jMVtOSF1DKD1PKVtOSF1bQ0BIXShbQ0gyXVtDSDJdMilbQ0BASF0oTjIzKVtDSDJdW0NIMl1bQ0gyXVtDSDJdMw==

> <s_epik_cmdline>
J2VwaWtfcHl0aG9uJywgJy1waCcsICc3LjAnLCAnLXRuJywgJzgnLCAnLW1hJywgJzIwMCcsICctbWV0YWxfYmluZGluZycsICctaW1hZScsICc8aW5maWxlLm1hZT4nLCAnLW9tYWUnLCAnPG91dGZpbGUubWFlPic=

> <r_lp_tautomer_probability>
1

> <r_epik_Ionization_Penalty>
3.78828

> <r_epik_Ionization_Penalty_Charging>
3.7591

> <r_epik_Ionization_Penalty_Neutral>
0.0291838

> <r_epik_State_Penalty>
3.757

> <r_epik_Charging_Adjusted_Penalty>
7.51609

> <i_epik_Tot_Q>
0

> <i_epik_Tot_abs_Q>
2

> <r_epik_Metal_State_Penalty>
0.558016

> <b_epik_Metal_Only>
1

> <s_lp_Force_Field>
OPLS_2005

> <r_lp_Energy>
28.5802

> <b_lp_Chiralities_Consistent>
1

> <s_lp_Variant>
AV-unprocessed.smi:1803-14

> <Gold.Version>
5.8.1

> <Gold.Id.Protein>
6NUR|6NUR_protein|mol2

> <Gold.PLP.Fitness>
43.0350

> <Gold.PLP.PLP>
-28.5202

> <Gold.PLP.part.hbond>
-4.5854

> <Gold.PLP.part.metal>
0.0000

> <Gold.PLP.part.buried>
-4.0655

> <Gold.PLP.part.nonpolar>
-21.1897

> <Gold.PLP.part.repulsive>
0.2822

> <Gold.PLP.ligand.clash>
0.0000

> <Gold.PLP.ligand.torsion>
1.4376

> <Gold.PLP.Chemscore.Hbond>
5.7920

> <Gold.PLP.Chemscore.CHOScore>
0.0000

> <Gold.PLP.Chemscore.Metal>
0.0000

> <Gold.Chemscore.Hbonds>
donor molecule, donor type, donor heavy atom, donor atom, acceptor molecule, acceptor atom, score
      L1  H    13    35       P1  8028  2.00
      P1  H  7989  7998       L1     1  0.95
      P1  H  7997  8008       L1     3  1.70
      P1  H 10752 10763       L1     5  1.00

> <Gold.PLP.Chemscore.Internal.Correction>
0.0140

> <Gold.Rescore>
     Score         DG    S(hbond)    S(metal)    S(lipo)     H(rot)  DE(clash)    DE(int)     intcor
     15.94     -18.51       2.31        0.00      67.46       1.00       0.41       2.16       ----

> <Gold.Chemscore.Fitness>
15.9417

> <Gold.Chemscore.DG>
-18.5147

> <Gold.Chemscore.ZeroCoef>
-5.4800

> <Gold.Chemscore.Hbond>
2.3060

> <Gold.Chemscore.Metal>
0.0000

> <Gold.Chemscore.Lipo>
67.4589

> <Gold.Chemscore.Internal_Hbond>
0.0000

> <Gold.Chemscore.DEClash>
0.4087

> <Gold.Chemscore.DEInternal>
2.1642

> <Gold.Chemscore.Rot>
1.0000

> <Gold.Chemscore.Internal.Correction>
   9.000000E+99

> <Gold.Chemscore.Hbonds>
donor molecule, donor type, donor heavy atom, donor atom, acceptor molecule, acceptor atom, score
      L1  H    13    35       P1  8028  0.74
      P1  H  7989  7998       L1     1  0.20
      P1  H  7997  8008       L1     3  0.08
      P1  H 10752 10763       L1     5  0.29

> <Gold.Chemscore.Hbond.Weighted>
-7.7020

> <Gold.Chemscore.Metal.Weighted>
-0.0000

> <Gold.Chemscore.Lipo.Weighted>
-7.8927

> <Gold.Chemscore.Internal_Hbond.Weighted>
0.0000

> <Gold.Chemscore.DEClash.Weighted>
0.4087

> <Gold.Chemscore.DEInternal.Weighted>
2.1642

> <Gold.Chemscore.Rot.Weighted>
2.5600

> <Gold.Chemscore.Internal.Correction.Weighted>
   9.000000E+99

> <Gold.Protein.RotatedTorsions>
[ 6907 6896 6895 6894 ] final    4.60 input  -60.11 | X-H torsion
[ 7974 7965 7964 7962 ] final   57.07 input  175.53 | X-H torsion
[ 8008 7997 7996 7995 ] final  -32.78 input   59.86 | X-H torsion
[ 10167 10162 10161 10158 ] final   48.23 input  -65.29 | X-H torsion
[ 10718 10713 10712 10709 ] final  -49.67 input   66.30 | X-H torsion
[ 10763 10752 10751 10750 ] final   90.15 input  -60.55 | X-H torsion
[ 11005 11000 10999 10996 ] final   95.24 input  -57.11 | X-H torsion

> <Gold.Protein.ActiveResidues>
 VAL166  LYS551  ARG553  GLY616  TRP617  ASP618  TYR619  PRO620  LYS621  CYS622 
 ASP623  PHE694  ASN695  SER759  ASP760  ASP761  ALA762  ILE779  LEU786  VAL792 
 PHE793  MET794  SER795  GLU796  ALA797  LYS798  CYS799  TRP800  GLU811  SER814 

> <Gold.Protein.RotatedAtoms>
  151.6440  135.1009  160.0146 H   0  0  0  0  0  0  0  0  0  0  0  0  # atno 6907 bound_to 6896
  152.4038  133.6854  159.6347 H   0  0  0  0  0  0  0  0  0  0  0  0  # atno 6908 bound_to 6896
  150.7935  133.8661  159.3286 H   0  0  0  0  0  0  0  0  0  0  0  0  # atno 6909 bound_to 6896
  145.9330  139.3824  143.0409 H   0  0  0  0  0  0  0  0  0  0  0  0  # atno 7974 bound_to 7965
  154.4169  140.1728  156.1783 H   0  0  0  0  0  0  0  0  0  0  0  0  # atno 8008 bound_to 7997
  155.9703  140.3386  155.6546 H   0  0  0  0  0  0  0  0  0  0  0  0  # atno 8009 bound_to 7997
  155.6633  140.0703  157.2537 H   0  0  0  0  0  0  0  0  0  0  0  0  # atno 8010 bound_to 7997
  140.2955  144.2996  150.6231 H   0  0  0  0  0  0  0  0  0  0  0  0  # atno 10167 bound_to 10162
  156.1872  130.4152  149.9423 H   0  0  0  0  0  0  0  0  0  0  0  0  # atno 10718 bound_to 10713
  153.1945  135.4444  155.0191 H   0  0  0  0  0  0  0  0  0  0  0  0  # atno 10763 bound_to 10752
  154.8110  135.3294  154.7306 H   0  0  0  0  0  0  0  0  0  0  0  0  # atno 10764 bound_to 10752
  153.7757  135.6981  153.4953 H   0  0  0  0  0  0  0  0  0  0  0  0  # atno 10765 bound_to 10752
  139.8791  134.8888  156.3982 H   0  0  0  0  0  0  0  0  0  0  0  0  # atno 11005 bound_to 11000
  145.8400  140.9585  143.0804 LP  0  0  0  0  0  0  0  0  0  0  0  0  # atno 17320 bound_to 7965
  144.6767  140.0273  143.7483 LP  0  0  0  0  0  0  0  0  0  0  0  0  # atno 17321 bound_to 7965
  140.5696  143.2182  151.7623 LP  0  0  0  0  0  0  0  0  0  0  0  0  # atno 17342 bound_to 10162
  139.4927  144.4235  151.9951 LP  0  0  0  0  0  0  0  0  0  0  0  0  # atno 17343 bound_to 10162
  156.7175  130.8994  151.3615 LP  0  0  0  0  0  0  0  0  0  0  0  0  # atno 17370 bound_to 10713
  157.6906  130.9230  150.0504 LP  0  0  0  0  0  0  0  0  0  0  0  0  # atno 17371 bound_to 10713
  140.9285  133.7595  155.9995 LP  0  0  0  0  0  0  0  0  0  0  0  0  # atno 17394 bound_to 11000
  140.8357  134.3125  157.5332 LP  0  0  0  0  0  0  0  0  0  0  0  0  # atno 17395 bound_to 11000

$$$$
