AV-unprocessed.smi:3193|AV-procd|sdf|12202|dock7
  -GOLD-   2272018 33D 1   1.00000     0.00000
 Structure written by MMmdl.
 40 41  0  0  0  0  0  0  0  0  2 V2000
  153.2180  141.5666  158.8410 C   0  0  0  0  0  0  0  0  0  0  0  0
  151.8872  142.1728  159.3317 C   0  0  1  0  0  0  0  0  0  0  0  0
  152.1053  143.1384  160.5161 C   0  0  0  0  0  0  0  0  0  0  0  0
  152.7431  144.4677  160.0784 C   0  0  0  0  0  0  0  0  0  0  0  0
  151.9205  145.1392  158.9695 C   0  0  0  0  0  0  0  0  0  0  0  0
  151.7053  144.1935  157.7774 C   0  0  0  0  0  0  0  0  0  0  0  0
  151.0533  142.8636  158.2191 C   0  0  1  0  0  0  0  0  0  0  0  0
  150.7593  141.9282  157.0288 C   0  0  0  0  0  0  0  0  0  0  0  0
  149.3271  141.9379  156.6689 N   0  3  0  0  0  0  0  0  0  0  0  0
  148.9601  140.9459  155.6400 C   0  0  0  0  0  0  0  0  0  0  0  0
  150.0496  140.8372  154.5649 C   0  0  0  0  0  0  0  0  0  0  0  0
  150.6731  139.5295  154.5723 N   0  0  0  0  0  0  0  0  0  0  0  0
  150.3879  138.4597  153.7338 C   0  0  0  0  0  0  0  0  0  0  0  0
  151.2291  137.4349  154.1047 C   0  0  0  0  0  0  0  0  0  0  0  0
  152.0357  137.8502  155.1618 N   0  0  0  0  0  0  0  0  0  0  0  0
  151.6486  139.0994  155.3842 C   0  0  0  0  0  0  0  0  0  0  0  0
  153.8698  142.3136  158.3888 H   0  0  0  0  0  0  0  0  0  0  0  0
  153.0541  140.7802  158.1045 H   0  0  0  0  0  0  0  0  0  0  0  0
  153.7657  141.1144  159.6681 H   0  0  0  0  0  0  0  0  0  0  0  0
  151.2954  141.3391  159.7126 H   0  0  0  0  0  0  0  0  0  0  0  0
  151.1447  143.3466  160.9897 H   0  0  0  0  0  0  0  0  0  0  0  0
  152.7200  142.6652  161.2825 H   0  0  0  0  0  0  0  0  0  0  0  0
  152.8244  145.1374  160.9350 H   0  0  0  0  0  0  0  0  0  0  0  0
  153.7614  144.2959  159.7288 H   0  0  0  0  0  0  0  0  0  0  0  0
  150.9535  145.4460  159.3702 H   0  0  0  0  0  0  0  0  0  0  0  0
  152.4189  146.0502  158.6370 H   0  0  0  0  0  0  0  0  0  0  0  0
  151.0789  144.6948  157.0392 H   0  0  0  0  0  0  0  0  0  0  0  0
  152.6584  144.0014  157.2838 H   0  0  0  0  0  0  0  0  0  0  0  0
  150.0904  143.1121  158.6695 H   0  0  0  0  0  0  0  0  0  0  0  0
  151.3497  142.2151  156.1578 H   0  0  0  0  0  0  0  0  0  0  0  0
  151.0410  140.9062  157.2864 H   0  0  0  0  0  0  0  0  0  0  0  0
  148.7867  141.7516  157.5016 H   0  0  0  0  0  0  0  0  0  0  0  0
  148.8047  139.9761  156.1149 H   0  0  0  0  0  0  0  0  0  0  0  0
  148.0132  141.2374  155.1832 H   0  0  0  0  0  0  0  0  0  0  0  0
  149.6297  141.0164  153.5739 H   0  0  0  0  0  0  0  0  0  0  0  0
  150.8226  141.5901  154.7245 H   0  0  0  0  0  0  0  0  0  0  0  0
  149.6322  138.5123  152.9640 H   0  0  0  0  0  0  0  0  0  0  0  0
  151.3158  136.4392  153.6954 H   0  0  0  0  0  0  0  0  0  0  0  0
  152.0874  139.7166  156.1547 H   0  0  0  0  0  0  0  0  0  0  0  0
  149.0895  142.8589  156.3286 H   0  0  0  0  0  0  0  0  0  0  0  0
  1  2  1  0  0  0  0
  1 17  1  0  0  0  0
  1 18  1  0  0  0  0
  1 19  1  0  0  0  0
  2  7  1  0  0  0  0
  2  3  1  0  0  0  0
  2 20  1  0  0  0  0
  3  4  1  0  0  0  0
  3 21  1  0  0  0  0
  3 22  1  0  0  0  0
  4  5  1  0  0  0  0
  4 23  1  0  0  0  0
  4 24  1  0  0  0  0
  5  6  1  0  0  0  0
  5 25  1  0  0  0  0
  5 26  1  0  0  0  0
  6  7  1  0  0  0  0
  6 27  1  0  0  0  0
  6 28  1  0  0  0  0
  7  8  1  0  0  0  0
  7 29  1  0  0  0  0
  8  9  1  0  0  0  0
  8 30  1  0  0  0  0
  8 31  1  0  0  0  0
  9 10  1  0  0  0  0
  9 32  1  0  0  0  0
  9 40  1  0  0  0  0
 10 11  1  0  0  0  0
 10 33  1  0  0  0  0
 10 34  1  0  0  0  0
 11 12  1  0  0  0  0
 11 35  1  0  0  0  0
 11 36  1  0  0  0  0
 12 16  1  0  0  0  0
 12 13  1  0  0  0  0
 13 14  2  0  0  0  0
 13 37  1  0  0  0  0
 14 15  1  0  0  0  0
 14 38  1  0  0  0  0
 15 16  2  0  0  0  0
 16 39  1  0  0  0  0
M  CHG  1   9   1
M  END
> <s_m_source_file>
AV-unprocessed.smi

> <i_m_source_file_index>
3193

> <i_lp_mmshare_version>
43012

> <i_f3d_flags>
0

> <s_epik_input>
W0NIM11bQ0BASF0xW0NIMl1bQ0gyXVtDSDJdW0NIMl1bQ0BIXTFbQ0gyXVtOSF1bQ0gyXVtDSDJdbjJbY0hdW2NIXW5bY0hdMg==

> <s_epik_cmdline>
J2VwaWtfcHl0aG9uJywgJy1waCcsICc3LjAnLCAnLXRuJywgJzgnLCAnLW1hJywgJzIwMCcsICctbWV0YWxfYmluZGluZycsICctaW1hZScsICc8aW5maWxlLm1hZT4nLCAnLW9tYWUnLCAnPG91dGZpbGUubWFlPic=

> <r_lp_tautomer_probability>
1

> <r_epik_Ionization_Penalty>
0.0503046

> <r_epik_Ionization_Penalty_Charging>
0.0503046

> <r_epik_Ionization_Penalty_Neutral>
0

> <r_epik_State_Penalty>
0.0981804

> <r_epik_Charging_Adjusted_Penalty>
0.148485

> <i_epik_Tot_Q>
1

> <i_epik_Tot_abs_Q>
1

> <r_epik_Metal_State_Penalty>
0.000105854

> <b_epik_Metal_Only>
0

> <s_lp_Force_Field>
OPLS_2005

> <r_lp_Energy>
20.219

> <b_lp_Chiralities_Consistent>
1

> <s_lp_Variant>
AV-unprocessed.smi:3193-2

> <Gold.Version>
5.8.1

> <Gold.Id.Protein>
6NUR|6NUR_protein|mol2

> <Gold.PLP.Fitness>
45.9882

> <Gold.PLP.PLP>
-35.5353

> <Gold.PLP.part.hbond>
-1.0000

> <Gold.PLP.part.metal>
0.0000

> <Gold.PLP.part.buried>
0.3544

> <Gold.PLP.part.nonpolar>
-33.8971

> <Gold.PLP.part.repulsive>
0.0433

> <Gold.PLP.ligand.clash>
0.0000

> <Gold.PLP.ligand.torsion>
1.4430

> <Gold.PLP.Chemscore.Hbond>
2.0000

> <Gold.PLP.Chemscore.CHOScore>
2.4287

> <Gold.PLP.Chemscore.Metal>
0.0000

> <Gold.Chemscore.Hbonds>
donor molecule, donor type, donor heavy atom, donor atom, acceptor molecule, acceptor atom, score
      L1  H     9    40       P1  8028  2.00
      L1  C    13    37       P1  7948  0.63
      L1  C    13    37       P1  7957  0.92
      L1  C    14    38       P1  7949  0.88

> <Gold.PLP.Chemscore.Internal.Correction>
0.0530

> <Gold.Rescore>
     Score         DG    S(hbond)    S(metal)    S(lipo)     H(rot)  DE(clash)    DE(int)     intcor
     14.37     -17.65       1.00        0.00     116.90       1.89       1.80       1.48       ----

> <Gold.Chemscore.Fitness>
14.3716

> <Gold.Chemscore.DG>
-17.6541

> <Gold.Chemscore.ZeroCoef>
-5.4800

> <Gold.Chemscore.Hbond>
0.9981

> <Gold.Chemscore.Metal>
0.0000

> <Gold.Chemscore.Lipo>
116.9014

> <Gold.Chemscore.Internal_Hbond>
0.0000

> <Gold.Chemscore.DEClash>
1.7982

> <Gold.Chemscore.DEInternal>
1.4843

> <Gold.Chemscore.Rot>
1.8895

> <Gold.Chemscore.Internal.Correction>
   9.000000E+99

> <Gold.Chemscore.Hbonds>
donor molecule, donor type, donor heavy atom, donor atom, acceptor molecule, acceptor atom, score
      L1  H     9    40       P1  8028  0.97

> <Gold.Chemscore.Hbond.Weighted>
-3.3337

> <Gold.Chemscore.Metal.Weighted>
-0.0000

> <Gold.Chemscore.Lipo.Weighted>
-13.6775

> <Gold.Chemscore.Internal_Hbond.Weighted>
0.0000

> <Gold.Chemscore.DEClash.Weighted>
1.7982

> <Gold.Chemscore.DEInternal.Weighted>
1.4843

> <Gold.Chemscore.Rot.Weighted>
4.8371

> <Gold.Chemscore.Internal.Correction.Weighted>
   9.000000E+99

> <Gold.Protein.RotatedTorsions>
[ 6907 6896 6895 6894 ] final  -56.80 input  -60.11 | X-H torsion
[ 7974 7965 7964 7962 ] final -147.50 input  175.53 | X-H torsion
[ 8008 7997 7996 7995 ] final -116.84 input   59.86 | X-H torsion
[ 10167 10162 10161 10158 ] final  152.29 input  -65.29 | X-H torsion
[ 10718 10713 10712 10709 ] final -163.86 input   66.30 | X-H torsion
[ 10763 10752 10751 10750 ] final   68.49 input  -60.55 | X-H torsion
[ 11005 11000 10999 10996 ] final   26.05 input  -57.11 | X-H torsion

> <Gold.Protein.ActiveResidues>
 VAL166  LYS551  ARG553  GLY616  TRP617  ASP618  TYR619  PRO620  LYS621  CYS622 
 ASP623  PHE694  ASN695  SER759  ASP760  ASP761  ALA762  ILE779  LEU786  VAL792 
 PHE793  MET794  SER795  GLU796  ALA797  LYS798  CYS799  TRP800  GLU811  SER814 

> <Gold.Protein.RotatedAtoms>
  150.8138  134.7308  159.6711 H   0  0  0  0  0  0  0  0  0  0  0  0  # atno 6907 bound_to 6896
  152.4257  134.5869  159.9973 H   0  0  0  0  0  0  0  0  0  0  0  0  # atno 6908 bound_to 6896
  151.6072  133.3313  159.3096 H   0  0  0  0  0  0  0  0  0  0  0  0  # atno 6909 bound_to 6896
  144.8089  140.5318  143.5656 H   0  0  0  0  0  0  0  0  0  0  0  0  # atno 7974 bound_to 7965
  155.0742  140.0393  157.2618 H   0  0  0  0  0  0  0  0  0  0  0  0  # atno 8008 bound_to 7997
  154.6958  140.2663  155.6743 H   0  0  0  0  0  0  0  0  0  0  0  0  # atno 8009 bound_to 7997
  156.2744  140.2750  156.1552 H   0  0  0  0  0  0  0  0  0  0  0  0  # atno 8010 bound_to 7997
  139.4834  144.5370  151.7628 H   0  0  0  0  0  0  0  0  0  0  0  0  # atno 10167 bound_to 10162
  156.6307  130.8928  151.2977 H   0  0  0  0  0  0  0  0  0  0  0  0  # atno 10718 bound_to 10713
  153.0238  135.5245  154.7142 H   0  0  0  0  0  0  0  0  0  0  0  0  # atno 10763 bound_to 10752
  154.6216  135.2889  155.0322 H   0  0  0  0  0  0  0  0  0  0  0  0  # atno 10764 bound_to 10752
  154.1306  135.6593  153.4974 H   0  0  0  0  0  0  0  0  0  0  0  0  # atno 10765 bound_to 10752
  140.3412  134.2330  155.7690 H   0  0  0  0  0  0  0  0  0  0  0  0  # atno 11005 bound_to 11000
  145.5371  139.1475  143.3467 LP  0  0  0  0  0  0  0  0  0  0  0  0  # atno 17320 bound_to 7965
  146.2385  140.5511  142.8944 LP  0  0  0  0  0  0  0  0  0  0  0  0  # atno 17321 bound_to 7965
  140.4904  144.1318  150.5949 LP  0  0  0  0  0  0  0  0  0  0  0  0  # atno 17342 bound_to 10162
  140.4177  143.2626  151.9754 LP  0  0  0  0  0  0  0  0  0  0  0  0  # atno 17343 bound_to 10162
  157.7200  130.9547  150.1403 LP  0  0  0  0  0  0  0  0  0  0  0  0  # atno 17370 bound_to 10713
  156.2237  130.3676  149.8526 LP  0  0  0  0  0  0  0  0  0  0  0  0  # atno 17371 bound_to 10713
  141.2038  133.7903  157.0322 LP  0  0  0  0  0  0  0  0  0  0  0  0  # atno 17394 bound_to 11000
  140.0779  134.9665  157.1576 LP  0  0  0  0  0  0  0  0  0  0  0  0  # atno 17395 bound_to 11000

$$$$
