AV-unprocessed.smi:2575|AV-procd|sdf|10116|dock7
  -GOLD-   2272014133D 1   1.00000     0.00000
 Structure written by MMmdl.
 31 32  0  0  0  0  0  0  0  0  1 V2000
  154.8702  137.2565  164.4563 C   0  0  0  0  0  0  0  0  0  0  0  0
  155.4776  136.0398  163.7546 C   0  0  0  0  0  0  0  0  0  0  0  0
  155.0421  136.0218  162.4057 O   0  0  0  0  0  0  0  0  0  0  0  0
  153.6315  136.1018  162.2841 C   0  0  0  0  0  0  0  0  0  0  0  0
  153.2747  136.9985  161.0893 C   0  0  2  0  0  0  0  0  0  0  0  0
  153.3051  136.2097  159.9154 O   0  0  0  0  0  0  0  0  0  0  0  0
  154.2339  138.1966  160.9426 C   0  0  0  0  0  0  0  0  0  0  0  0
  153.7428  139.1912  160.0047 N   0  0  0  0  0  0  0  0  0  0  0  0
  153.6066  138.8598  158.6897 N   0  0  0  0  0  0  0  0  0  0  0  0
  153.1643  139.8967  158.0428 N   0  0  0  0  0  0  0  0  0  0  0  0
  153.0089  140.9325  158.9488 C   0  0  0  0  0  0  0  0  0  0  0  0
  152.5692  142.2656  158.7891 C   0  0  0  0  0  0  0  0  0  0  0  0
  152.5041  143.1341  159.9009 C   0  0  0  0  0  0  0  0  0  0  0  0
  151.9607  144.7572  159.6656 Cl  0  0  0  0  0  0  0  0  0  0  0  0
  152.8799  142.6772  161.1874 C   0  0  0  0  0  0  0  0  0  0  0  0
  152.8091  143.7270  162.5577 Cl  0  0  0  0  0  0  0  0  0  0  0  0
  153.3201  141.3500  161.3611 C   0  0  0  0  0  0  0  0  0  0  0  0
  153.3769  140.5021  160.2420 C   0  0  0  0  0  0  0  0  0  0  0  0
  155.1870  137.3035  165.4983 H   0  0  0  0  0  0  0  0  0  0  0  0
  153.7810  137.2151  164.4393 H   0  0  0  0  0  0  0  0  0  0  0  0
  155.1787  138.1825  163.9706 H   0  0  0  0  0  0  0  0  0  0  0  0
  156.5666  136.0912  163.7972 H   0  0  0  0  0  0  0  0  0  0  0  0
  155.1698  135.1249  164.2633 H   0  0  0  0  0  0  0  0  0  0  0  0
  153.2008  135.1070  162.1579 H   0  0  0  0  0  0  0  0  0  0  0  0
  153.2178  136.5232  163.2021 H   0  0  0  0  0  0  0  0  0  0  0  0
  152.2535  137.3617  161.2125 H   0  0  0  0  0  0  0  0  0  0  0  0
  154.1935  136.1823  159.5942 H   0  0  0  0  0  0  0  0  0  0  0  0
  154.3863  138.6805  161.9087 H   0  0  0  0  0  0  0  0  0  0  0  0
  155.2161  137.8600  160.6080 H   0  0  0  0  0  0  0  0  0  0  0  0
  152.2826  142.6204  157.8102 H   0  0  0  0  0  0  0  0  0  0  0  0
  153.6114  140.9897  162.3368 H   0  0  0  0  0  0  0  0  0  0  0  0
  1  2  1  0  0  0  0
  1 19  1  0  0  0  0
  1 20  1  0  0  0  0
  1 21  1  0  0  0  0
  2  3  1  0  0  0  0
  2 22  1  0  0  0  0
  2 23  1  0  0  0  0
  3  4  1  0  0  0  0
  4  5  1  0  0  0  0
  4 24  1  0  0  0  0
  4 25  1  0  0  0  0
  5  6  1  0  0  0  0
  5  7  1  0  0  0  0
  5 26  1  0  0  0  0
  6 27  1  0  0  0  0
  7  8  1  0  0  0  0
  7 28  1  0  0  0  0
  7 29  1  0  0  0  0
  8 18  1  0  0  0  0
  8  9  1  0  0  0  0
  9 10  2  0  0  0  0
 10 11  1  0  0  0  0
 11 18  2  0  0  0  0
 11 12  1  0  0  0  0
 12 13  2  0  0  0  0
 12 30  1  0  0  0  0
 13 14  1  0  0  0  0
 13 15  1  0  0  0  0
 15 16  1  0  0  0  0
 15 17  2  0  0  0  0
 17 18  1  0  0  0  0
 17 31  1  0  0  0  0
M  END
> <s_m_source_file>
AV-unprocessed.smi

> <i_m_source_file_index>
2575

> <i_lp_mmshare_version>
43012

> <i_f3d_flags>
0

> <s_epik_input>
W0NIM11bQ0gyXU9bQ0gyXVtDQEhdKFtPSF0pW0NIMl1uKG5uMSljKGMxMilbY0hdYyhDbCljKENsKVtjSF0y

> <s_epik_cmdline>
J2VwaWtfcHl0aG9uJywgJy1waCcsICc3LjAnLCAnLXRuJywgJzgnLCAnLW1hJywgJzIwMCcsICctbWV0YWxfYmluZGluZycsICctaW1hZScsICc8aW5maWxlLm1hZT4nLCAnLW9tYWUnLCAnPG91dGZpbGUubWFlPic=

> <r_lp_tautomer_probability>
1

> <r_epik_Ionization_Penalty>
2.39516e-06

> <r_epik_Ionization_Penalty_Charging>
0

> <r_epik_Ionization_Penalty_Neutral>
2.39516e-06

> <r_epik_State_Penalty>
-0

> <r_epik_Charging_Adjusted_Penalty>
0

> <i_epik_Tot_Q>
0

> <i_epik_Tot_abs_Q>
0

> <r_epik_Metal_State_Penalty>
-0

> <b_epik_Metal_Only>
0

> <s_lp_Force_Field>
OPLS_2005

> <r_lp_Energy>
6.35742

> <b_lp_Chiralities_Consistent>
1

> <s_lp_Variant>
AV-unprocessed.smi:2575-1

> <Gold.Version>
5.8.1

> <Gold.Id.Protein>
6NUR|6NUR_protein|mol2

> <Gold.PLP.Fitness>
44.6484

> <Gold.PLP.PLP>
-39.9458

> <Gold.PLP.part.hbond>
-1.9501

> <Gold.PLP.part.metal>
0.0000

> <Gold.PLP.part.buried>
-4.6230

> <Gold.PLP.part.nonpolar>
-33.6564

> <Gold.PLP.part.repulsive>
0.0011

> <Gold.PLP.ligand.clash>
0.0000

> <Gold.PLP.ligand.torsion>
0.6245

> <Gold.PLP.Chemscore.Hbond>
1.9750

> <Gold.PLP.Chemscore.CHOScore>
0.0000

> <Gold.PLP.Chemscore.Metal>
0.0000

> <Gold.Chemscore.Hbonds>
donor molecule, donor type, donor heavy atom, donor atom, acceptor molecule, acceptor atom, score
      P1  H  6896  6908       L1     6  1.00
      P1  H  7997  8009       L1    10  0.90

> <Gold.PLP.Chemscore.Internal.Correction>
0.0267

> <Gold.Rescore>
     Score         DG    S(hbond)    S(metal)    S(lipo)     H(rot)  DE(clash)    DE(int)     intcor
     18.56     -20.18       1.82        0.00     121.57       2.19       0.10       1.52       ----

> <Gold.Chemscore.Fitness>
18.5575

> <Gold.Chemscore.DG>
-20.1781

> <Gold.Chemscore.ZeroCoef>
-5.4800

> <Gold.Chemscore.Hbond>
1.8207

> <Gold.Chemscore.Metal>
0.0000

> <Gold.Chemscore.Lipo>
121.5677

> <Gold.Chemscore.Internal_Hbond>
0.0000

> <Gold.Chemscore.DEClash>
0.1046

> <Gold.Chemscore.DEInternal>
1.5159

> <Gold.Chemscore.Rot>
2.1901

> <Gold.Chemscore.Internal.Correction>
   9.000000E+99

> <Gold.Chemscore.Hbonds>
donor molecule, donor type, donor heavy atom, donor atom, acceptor molecule, acceptor atom, score
      P1  H  6896  6908       L1     6  0.74
      P1  H  7997  8009       L1    10  0.16

> <Gold.Chemscore.Hbond.Weighted>
-6.0812

> <Gold.Chemscore.Metal.Weighted>
-0.0000

> <Gold.Chemscore.Lipo.Weighted>
-14.2234

> <Gold.Chemscore.Internal_Hbond.Weighted>
0.0000

> <Gold.Chemscore.DEClash.Weighted>
0.1046

> <Gold.Chemscore.DEInternal.Weighted>
1.5159

> <Gold.Chemscore.Rot.Weighted>
5.6066

> <Gold.Chemscore.Internal.Correction.Weighted>
   9.000000E+99

> <Gold.Protein.RotatedTorsions>
[ 6907 6896 6895 6894 ] final  -80.65 input  -60.11 | X-H torsion
[ 7974 7965 7964 7962 ] final  -25.96 input  175.53 | X-H torsion
[ 8008 7997 7996 7995 ] final  164.13 input   59.86 | X-H torsion
[ 10167 10162 10161 10158 ] final  111.01 input  -65.29 | X-H torsion
[ 10718 10713 10712 10709 ] final  -80.49 input   66.30 | X-H torsion
[ 10763 10752 10751 10750 ] final   91.54 input  -60.55 | X-H torsion
[ 11005 11000 10999 10996 ] final  171.79 input  -57.11 | X-H torsion

> <Gold.Protein.ActiveResidues>
 VAL166  LYS551  ARG553  GLY616  TRP617  ASP618  TYR619  PRO620  LYS621  CYS622 
 ASP623  PHE694  ASN695  SER759  ASP760  ASP761  ALA762  ILE779  LEU786  VAL792 
 PHE793  MET794  SER795  GLU796  ALA797  LYS798  CYS799  TRP800  GLU811  SER814 

> <Gold.Protein.RotatedAtoms>
  150.6925  134.3937  159.5087 H   0  0  0  0  0  0  0  0  0  0  0  0  # atno 6907 bound_to 6896
  152.1721  134.8823  160.0542 H   0  0  0  0  0  0  0  0  0  0  0  0  # atno 6908 bound_to 6896
  151.9845  133.3734  159.4157 H   0  0  0  0  0  0  0  0  0  0  0  0  # atno 6909 bound_to 6896
  146.1457  140.4957  142.8633 H   0  0  0  0  0  0  0  0  0  0  0  0  # atno 7974 bound_to 7965
  156.1904  140.1705  156.8103 H   0  0  0  0  0  0  0  0  0  0  0  0  # atno 8008 bound_to 7997
  154.5464  140.0726  156.8628 H   0  0  0  0  0  0  0  0  0  0  0  0  # atno 8009 bound_to 7997
  155.3114  140.3368  155.4246 H   0  0  0  0  0  0  0  0  0  0  0  0  # atno 8010 bound_to 7997
  139.6644  144.7128  151.1804 H   0  0  0  0  0  0  0  0  0  0  0  0  # atno 10167 bound_to 10162
  156.0069  130.4576  150.3809 H   0  0  0  0  0  0  0  0  0  0  0  0  # atno 10718 bound_to 10713
  153.2093  135.4394  155.0361 H   0  0  0  0  0  0  0  0  0  0  0  0  # atno 10763 bound_to 10752
  154.8191  135.3329  154.7093 H   0  0  0  0  0  0  0  0  0  0  0  0  # atno 10764 bound_to 10752
  153.7532  135.6997  153.4997 H   0  0  0  0  0  0  0  0  0  0  0  0  # atno 10765 bound_to 10752
  140.3227  134.7424  157.4076 H   0  0  0  0  0  0  0  0  0  0  0  0  # atno 11005 bound_to 11000
  144.7843  140.5904  143.6584 LP  0  0  0  0  0  0  0  0  0  0  0  0  # atno 17320 bound_to 7965
  145.4944  139.1487  143.3692 LP  0  0  0  0  0  0  0  0  0  0  0  0  # atno 17321 bound_to 7965
  140.7593  143.5942  150.8765 LP  0  0  0  0  0  0  0  0  0  0  0  0  # atno 17342 bound_to 10162
  139.9603  143.6172  152.3004 LP  0  0  0  0  0  0  0  0  0  0  0  0  # atno 17343 bound_to 10162
  157.1889  131.0410  151.2710 LP  0  0  0  0  0  0  0  0  0  0  0  0  # atno 17370 bound_to 10713
  157.4079  130.7369  149.6816 LP  0  0  0  0  0  0  0  0  0  0  0  0  # atno 17371 bound_to 10713
  140.0928  134.5578  155.8428 LP  0  0  0  0  0  0  0  0  0  0  0  0  # atno 17394 bound_to 11000
  141.2082  133.6672  156.6359 LP  0  0  0  0  0  0  0  0  0  0  0  0  # atno 17395 bound_to 11000

$$$$
