AV-unprocessed.smi:2603|AV-procd|sdf|10187|dock3
  -GOLD-   2272014203D 1   1.00000     0.00000
 Structure written by MMmdl.
 35 36  0  0  0  0  0  0  0  0  1 V2000
  151.0775  144.3953  158.5927 C   0  0  0  0  0  0  0  0  0  0  0  0
  152.2774  144.1463  159.5095 C   0  0  0  0  0  0  0  0  0  0  0  0
  152.0394  142.9765  160.2712 O   0  0  0  0  0  0  0  0  0  0  0  0
  153.2442  142.3549  160.6891 C   0  0  2  0  0  0  0  0  0  0  0  0
  154.1495  141.9616  159.5556 C   0  0  0  0  0  0  0  0  0  0  0  0
  153.3426  140.9001  160.2829 C   0  0  2  0  0  0  0  0  0  0  0  0
  152.2365  140.3225  159.5920 N   0  0  0  0  0  0  0  0  0  0  0  0
  152.2797  139.7397  158.3852 C   0  0  0  0  0  0  0  0  0  0  0  0
  153.2964  139.6746  157.6948 O   0  0  0  0  0  0  0  0  0  0  0  0
  150.9715  139.1261  157.8826 C   0  0  0  0  0  0  0  0  0  0  0  0
  150.6375  139.6708  156.5151 C   0  0  0  0  0  0  0  0  0  0  0  0
  149.5469  140.5124  156.1515 C   0  0  0  0  0  0  0  0  0  0  0  0
  148.4571  141.0643  157.0248 C   0  0  0  0  0  0  0  0  0  0  0  0
  149.5575  140.8061  154.8623 N   0  0  0  0  0  0  0  0  0  0  0  0
  150.6788  140.1616  154.3317 O   0  0  0  0  0  0  0  0  0  0  0  0
  151.3054  139.4946  155.3334 C   0  0  0  0  0  0  0  0  0  0  0  0
  152.5410  138.7477  154.9597 C   0  0  0  0  0  0  0  0  0  0  0  0
  151.2164  145.3050  158.0085 H   0  0  0  0  0  0  0  0  0  0  0  0
  150.1593  144.5049  159.1704 H   0  0  0  0  0  0  0  0  0  0  0  0
  150.9387  143.5692  157.8955 H   0  0  0  0  0  0  0  0  0  0  0  0
  153.1846  144.0296  158.9147 H   0  0  0  0  0  0  0  0  0  0  0  0
  152.4229  145.0006  160.1721 H   0  0  0  0  0  0  0  0  0  0  0  0
  153.6456  142.6696  161.6510 H   0  0  0  0  0  0  0  0  0  0  0  0
  153.8434  142.2352  158.5475 H   0  0  0  0  0  0  0  0  0  0  0  0
  155.2216  141.9891  159.7393 H   0  0  0  0  0  0  0  0  0  0  0  0
  153.9065  140.2512  160.9514 H   0  0  0  0  0  0  0  0  0  0  0  0
  151.3547  140.3160  160.0837 H   0  0  0  0  0  0  0  0  0  0  0  0
  151.0768  138.0409  157.8681 H   0  0  0  0  0  0  0  0  0  0  0  0
  150.1762  139.3416  158.5971 H   0  0  0  0  0  0  0  0  0  0  0  0
  148.7924  141.1694  158.0569 H   0  0  0  0  0  0  0  0  0  0  0  0
  147.5869  140.4080  157.0234 H   0  0  0  0  0  0  0  0  0  0  0  0
  148.1335  142.0488  156.6849 H   0  0  0  0  0  0  0  0  0  0  0  0
  152.9914  138.2687  155.8288 H   0  0  0  0  0  0  0  0  0  0  0  0
  153.2811  139.4207  154.5278 H   0  0  0  0  0  0  0  0  0  0  0  0
  152.3173  137.9741  154.2251 H   0  0  0  0  0  0  0  0  0  0  0  0
  1  2  1  0  0  0  0
  1 18  1  0  0  0  0
  1 19  1  0  0  0  0
  1 20  1  0  0  0  0
  2  3  1  0  0  0  0
  2 21  1  0  0  0  0
  2 22  1  0  0  0  0
  3  4  1  0  0  0  0
  4  6  1  0  0  0  0
  4  5  1  0  0  0  0
  4 23  1  0  0  0  0
  5  6  1  0  0  0  0
  5 24  1  0  0  0  0
  5 25  1  0  0  0  0
  6  7  1  0  0  0  0
  6 26  1  0  0  0  0
  7  8  1  0  0  0  0
  7 27  1  0  0  0  0
  8  9  2  0  0  0  0
  8 10  1  0  0  0  0
 10 11  1  0  0  0  0
 10 28  1  0  0  0  0
 10 29  1  0  0  0  0
 11 16  2  0  0  0  0
 11 12  1  0  0  0  0
 12 13  1  0  0  0  0
 12 14  2  0  0  0  0
 13 30  1  0  0  0  0
 13 31  1  0  0  0  0
 13 32  1  0  0  0  0
 14 15  1  0  0  0  0
 15 16  1  0  0  0  0
 16 17  1  0  0  0  0
 17 33  1  0  0  0  0
 17 34  1  0  0  0  0
 17 35  1  0  0  0  0
M  END
> <s_m_source_file>
AV-unprocessed.smi

> <i_m_source_file_index>
2603

> <i_lp_mmshare_version>
43012

> <i_f3d_flags>
0

> <s_epik_input>
W0NIM11bQ0gyXU9bQ0BASF0xW0NIMl1bQ0BIXTFbTkhdQyg9TylbQ0gyXWMyYyhbQ0gzXSlub2MyW0NIM10=

> <s_epik_cmdline>
J2VwaWtfcHl0aG9uJywgJy1waCcsICc3LjAnLCAnLXRuJywgJzgnLCAnLW1hJywgJzIwMCcsICctbWV0YWxfYmluZGluZycsICctaW1hZScsICc8aW5maWxlLm1hZT4nLCAnLW9tYWUnLCAnPG91dGZpbGUubWFlPic=

> <r_lp_tautomer_probability>
1

> <r_epik_Ionization_Penalty>
2.37325e-08

> <r_epik_Ionization_Penalty_Charging>
0

> <r_epik_Ionization_Penalty_Neutral>
2.37325e-08

> <r_epik_State_Penalty>
-0

> <r_epik_Charging_Adjusted_Penalty>
0

> <i_epik_Tot_Q>
0

> <i_epik_Tot_abs_Q>
0

> <r_epik_Metal_State_Penalty>
-0

> <b_epik_Metal_Only>
0

> <s_lp_Force_Field>
OPLS_2005

> <r_lp_Energy>
11.1697

> <b_lp_Chiralities_Consistent>
1

> <s_lp_Variant>
AV-unprocessed.smi:2603-3

> <Gold.Version>
5.8.1

> <Gold.Id.Protein>
6NUR|6NUR_protein|mol2

> <Gold.PLP.Fitness>
38.3998

> <Gold.PLP.PLP>
-33.0413

> <Gold.PLP.part.hbond>
-1.7454

> <Gold.PLP.part.metal>
0.0000

> <Gold.PLP.part.buried>
-4.7795

> <Gold.PLP.part.nonpolar>
-26.0449

> <Gold.PLP.part.repulsive>
0.4493

> <Gold.PLP.ligand.clash>
0.0000

> <Gold.PLP.ligand.torsion>
0.6081

> <Gold.PLP.Chemscore.Hbond>
1.9600

> <Gold.PLP.Chemscore.CHOScore>
0.0000

> <Gold.PLP.Chemscore.Metal>
0.0000

> <Gold.Chemscore.Hbonds>
donor molecule, donor type, donor heavy atom, donor atom, acceptor molecule, acceptor atom, score
      P1  H  7989  7998       L1    15  0.80
      P1  H  7997  8008       L1     9  0.89

> <Gold.PLP.Chemscore.Internal.Correction>
0.6948

> <Gold.Rescore>
     Score         DG    S(hbond)    S(metal)    S(lipo)     H(rot)  DE(clash)    DE(int)     intcor
     15.88     -16.87       1.79        0.00      83.39       1.69       0.00       0.99       ----

> <Gold.Chemscore.Fitness>
15.8770

> <Gold.Chemscore.DG>
-16.8670

> <Gold.Chemscore.ZeroCoef>
-5.4800

> <Gold.Chemscore.Hbond>
1.7860

> <Gold.Chemscore.Metal>
0.0000

> <Gold.Chemscore.Lipo>
83.3895

> <Gold.Chemscore.Internal_Hbond>
0.0000

> <Gold.Chemscore.DEClash>
0.0000

> <Gold.Chemscore.DEInternal>
0.9900

> <Gold.Chemscore.Rot>
1.6933

> <Gold.Chemscore.Internal.Correction>
   9.000000E+99

> <Gold.Chemscore.Hbonds>
donor molecule, donor type, donor heavy atom, donor atom, acceptor molecule, acceptor atom, score
      P1  H  7989  7998       L1    15  0.63
      P1  H  7997  8008       L1     9  0.87

> <Gold.Chemscore.Hbond.Weighted>
-5.9652

> <Gold.Chemscore.Metal.Weighted>
-0.0000

> <Gold.Chemscore.Lipo.Weighted>
-9.7566

> <Gold.Chemscore.Internal_Hbond.Weighted>
0.0000

> <Gold.Chemscore.DEClash.Weighted>
0.0000

> <Gold.Chemscore.DEInternal.Weighted>
0.9900

> <Gold.Chemscore.Rot.Weighted>
4.3348

> <Gold.Chemscore.Internal.Correction.Weighted>
   9.000000E+99

> <Gold.Protein.RotatedTorsions>
[ 6907 6896 6895 6894 ] final  136.52 input  -60.11 | X-H torsion
[ 7974 7965 7964 7962 ] final -174.97 input  175.53 | X-H torsion
[ 8008 7997 7996 7995 ] final  -80.87 input   59.86 | X-H torsion
[ 10167 10162 10161 10158 ] final    2.04 input  -65.29 | X-H torsion
[ 10718 10713 10712 10709 ] final  -37.79 input   66.30 | X-H torsion
[ 10763 10752 10751 10750 ] final   41.38 input  -60.55 | X-H torsion
[ 11005 11000 10999 10996 ] final   64.73 input  -57.11 | X-H torsion

> <Gold.Protein.ActiveResidues>
 VAL166  LYS551  ARG553  GLY616  TRP617  ASP618  TYR619  PRO620  LYS621  CYS622 
 ASP623  PHE694  ASN695  SER759  ASP760  ASP761  ALA762  ILE779  LEU786  VAL792 
 PHE793  MET794  SER795  GLU796  ALA797  LYS798  CYS799  TRP800  GLU811  SER814 

> <Gold.Protein.RotatedAtoms>
  152.2885  133.5538  159.5541 H   0  0  0  0  0  0  0  0  0  0  0  0  # atno 6907 bound_to 6896
  150.7225  134.0463  159.3792 H   0  0  0  0  0  0  0  0  0  0  0  0  # atno 6908 bound_to 6896
  151.8370  135.0603  160.0494 H   0  0  0  0  0  0  0  0  0  0  0  0  # atno 6909 bound_to 6896
  144.7130  140.1392  143.6393 H   0  0  0  0  0  0  0  0  0  0  0  0  # atno 7974 bound_to 7965
  154.5926  140.0656  156.9260 H   0  0  0  0  0  0  0  0  0  0  0  0  # atno 8008 bound_to 7997
  155.2268  140.3334  155.4290 H   0  0  0  0  0  0  0  0  0  0  0  0  # atno 8009 bound_to 7997
  156.2266  140.1822  156.7332 H   0  0  0  0  0  0  0  0  0  0  0  0  # atno 8010 bound_to 7997
  140.6654  143.7193  150.7817 H   0  0  0  0  0  0  0  0  0  0  0  0  # atno 10167 bound_to 10162
  156.3111  130.4252  149.8049 H   0  0  0  0  0  0  0  0  0  0  0  0  # atno 10718 bound_to 10713
  152.9910  135.6163  154.2778 H   0  0  0  0  0  0  0  0  0  0  0  0  # atno 10763 bound_to 10752
  154.2508  135.2785  155.2819 H   0  0  0  0  0  0  0  0  0  0  0  0  # atno 10764 bound_to 10752
  154.5289  135.5793  153.6800 H   0  0  0  0  0  0  0  0  0  0  0  0  # atno 10765 bound_to 10752
  139.9940  134.6547  156.0042 H   0  0  0  0  0  0  0  0  0  0  0  0  # atno 11005 bound_to 11000
  145.9217  139.2550  143.1377 LP  0  0  0  0  0  0  0  0  0  0  0  0  # atno 17320 bound_to 7965
  145.9613  140.8833  143.0209 LP  0  0  0  0  0  0  0  0  0  0  0  0  # atno 17321 bound_to 7965
  140.0869  143.4915  152.2500 LP  0  0  0  0  0  0  0  0  0  0  0  0  # atno 17342 bound_to 10162
  139.5901  144.7547  151.3421 LP  0  0  0  0  0  0  0  0  0  0  0  0  # atno 17343 bound_to 10162
  156.5392  130.8292  151.3263 LP  0  0  0  0  0  0  0  0  0  0  0  0  # atno 17370 bound_to 10713
  157.7391  130.9825  150.2293 LP  0  0  0  0  0  0  0  0  0  0  0  0  # atno 17371 bound_to 10713
  141.1589  133.6540  156.4253 LP  0  0  0  0  0  0  0  0  0  0  0  0  # atno 17394 bound_to 11000
  140.4854  134.6625  157.5188 LP  0  0  0  0  0  0  0  0  0  0  0  0  # atno 17395 bound_to 11000

$$$$
