AV-unprocessed.smi:2059|AV-procd|sdf|8350|dock2
  -GOLD-   2272011 23D 1   1.00000     0.00000
 Structure written by MMmdl.
 29 30  0  0  0  0  0  0  0  0  2 V2000
  146.0503  132.9455  161.9884 C   0  0  0  0  0  0  0  0  0  0  0  0
  146.6341  134.2980  161.7604 C   0  0  0  0  0  0  0  0  0  0  0  0
  147.1926  134.8949  160.6661 C   0  0  0  0  0  0  0  0  0  0  0  0
  147.5390  136.1887  161.1423 C   0  0  0  0  0  0  0  0  0  0  0  0
  148.1195  137.1634  160.4203 N   0  5  0  0  0  0  0  0  0  0  0  0
  148.9595  136.9109  159.3815 C   0  0  0  0  0  0  0  0  0  0  0  0
  149.0978  135.7952  158.8814 O   0  0  0  0  0  0  0  0  0  0  0  0
  149.6697  137.9407  158.8819 N   0  0  0  0  0  0  0  0  0  0  0  0
  150.6279  137.8740  157.7833 C   0  0  2  0  0  0  0  0  0  0  0  0
  151.5328  139.1196  157.7700 C   0  0  0  0  0  0  0  0  0  0  0  0
  152.2623  139.1843  156.4227 C   0  0  0  0  0  0  0  0  0  0  0  0
  151.1280  138.4301  155.1957 S   0  0  0  0  0  0  0  0  0  0  0  0
  150.4854  139.4895  154.4030 O   0  0  0  0  0  0  0  0  0  0  0  0
  151.8154  137.3071  154.5401 O   0  0  0  0  0  0  0  0  0  0  0  0
  149.9269  137.7839  156.4183 C   0  0  0  0  0  0  0  0  0  0  0  0
  147.2110  136.3647  162.4115 N   0  0  0  0  0  0  0  0  0  0  0  0
  146.6351  135.1549  162.8169 O   0  0  0  0  0  0  0  0  0  0  0  0
  145.0898  132.8516  161.4815 H   0  0  0  0  0  0  0  0  0  0  0  0
  145.8914  132.7593  163.0508 H   0  0  0  0  0  0  0  0  0  0  0  0
  146.7125  132.1692  161.6053 H   0  0  0  0  0  0  0  0  0  0  0  0
  147.3322  134.4750  159.6813 H   0  0  0  0  0  0  0  0  0  0  0  0
  149.5310  138.8453  159.3078 H   0  0  0  0  0  0  0  0  0  0  0  0
  151.2671  136.9982  157.9088 H   0  0  0  0  0  0  0  0  0  0  0  0
  150.9139  140.0123  157.8735 H   0  0  0  0  0  0  0  0  0  0  0  0
  152.2336  139.1208  158.6055 H   0  0  0  0  0  0  0  0  0  0  0  0
  152.5186  140.2012  156.1258 H   0  0  0  0  0  0  0  0  0  0  0  0
  153.1739  138.5871  156.4487 H   0  0  0  0  0  0  0  0  0  0  0  0
  149.6324  136.7670  156.1581 H   0  0  0  0  0  0  0  0  0  0  0  0
  149.0419  138.4204  156.3869 H   0  0  0  0  0  0  0  0  0  0  0  0
  1  2  1  0  0  0  0
  1 18  1  0  0  0  0
  1 19  1  0  0  0  0
  1 20  1  0  0  0  0
  2 17  1  0  0  0  0
  2  3  2  0  0  0  0
  3  4  1  0  0  0  0
  3 21  1  0  0  0  0
  4  5  1  0  0  0  0
  4 16  2  0  0  0  0
  5  6  1  0  0  0  0
  6  7  2  0  0  0  0
  6  8  1  0  0  0  0
  8  9  1  0  0  0  0
  8 22  1  0  0  0  0
  9 15  1  0  0  0  0
  9 10  1  0  0  0  0
  9 23  1  0  0  0  0
 10 11  1  0  0  0  0
 10 24  1  0  0  0  0
 10 25  1  0  0  0  0
 11 12  1  0  0  0  0
 11 26  1  0  0  0  0
 11 27  1  0  0  0  0
 12 13  2  0  0  0  0
 12 14  2  0  0  0  0
 12 15  1  0  0  0  0
 15 28  1  0  0  0  0
 15 29  1  0  0  0  0
 16 17  1  0  0  0  0
M  CHG  1   5  -1
M  END
> <s_m_source_file>
AV-unprocessed.smi

> <i_m_source_file_index>
2059

> <i_lp_mmshare_version>
43012

> <i_f3d_flags>
0

> <s_epik_input>
W0NIM11jMVtjSF1jKG5vMSlbTkhdQyg9TylbTkhdW0NAQEhdKFtDSDJdMilbQ0gyXVtDSDJdUzIoPU8pPU8=

> <s_epik_cmdline>
J2VwaWtfcHl0aG9uJywgJy1waCcsICc3LjAnLCAnLXRuJywgJzgnLCAnLW1hJywgJzIwMCcsICctbWV0YWxfYmluZGluZycsICctaW1hZScsICc8aW5maWxlLm1hZT4nLCAnLW9tYWUnLCAnPG91dGZpbGUubWFlPic=

> <r_lp_tautomer_probability>
1

> <r_epik_Ionization_Penalty>
6.15571

> <r_epik_Ionization_Penalty_Charging>
6.1556

> <r_epik_Ionization_Penalty_Neutral>
0.000110918

> <r_epik_State_Penalty>
6.15558

> <r_epik_Charging_Adjusted_Penalty>
12.3112

> <i_epik_Tot_Q>
-1

> <i_epik_Tot_abs_Q>
1

> <r_epik_Metal_State_Penalty>
2.1059

> <b_epik_Metal_Only>
1

> <s_lp_Force_Field>
OPLS_2005

> <r_lp_Energy>
-1.67492

> <b_lp_Chiralities_Consistent>
1

> <s_lp_Variant>
AV-unprocessed.smi:2059-3

> <Gold.Version>
5.8.1

> <Gold.Id.Protein>
6NUR|6NUR_protein|mol2

> <Gold.PLP.Fitness>
40.7381

> <Gold.PLP.PLP>
-24.7800

> <Gold.PLP.part.hbond>
-5.0000

> <Gold.PLP.part.metal>
0.0000

> <Gold.PLP.part.buried>
-5.9866

> <Gold.PLP.part.nonpolar>
-15.6160

> <Gold.PLP.part.repulsive>
0.4830

> <Gold.PLP.ligand.clash>
0.0000

> <Gold.PLP.ligand.torsion>
0.4298

> <Gold.PLP.Chemscore.Hbond>
5.6058

> <Gold.PLP.Chemscore.CHOScore>
0.0000

> <Gold.PLP.Chemscore.Metal>
0.0000

> <Gold.Chemscore.Hbonds>
donor molecule, donor type, donor heavy atom, donor atom, acceptor molecule, acceptor atom, score
      P1  H  6896  6907       L1     7  0.83
      P1  H  6931  6943       L1     5  1.41
      P1  H  6934  6947       L1     5  1.03
      P1  H  7989  7998       L1    13  1.00
      P1  H 10752 10765       L1    14  1.00

> <Gold.PLP.Chemscore.Internal.Correction>
0.0005

> <Gold.Rescore>
     Score         DG    S(hbond)    S(metal)    S(lipo)     H(rot)  DE(clash)    DE(int)     intcor
     16.50     -18.37       3.31        0.00      37.44       1.00       0.01       1.86       ----

> <Gold.Chemscore.Fitness>
16.5049

> <Gold.Chemscore.DG>
-18.3712

> <Gold.Chemscore.ZeroCoef>
-5.4800

> <Gold.Chemscore.Hbond>
3.3146

> <Gold.Chemscore.Metal>
0.0000

> <Gold.Chemscore.Lipo>
37.4398

> <Gold.Chemscore.Internal_Hbond>
0.0000

> <Gold.Chemscore.DEClash>
0.0089

> <Gold.Chemscore.DEInternal>
1.8574

> <Gold.Chemscore.Rot>
1.0000

> <Gold.Chemscore.Internal.Correction>
   9.000000E+99

> <Gold.Chemscore.Hbonds>
donor molecule, donor type, donor heavy atom, donor atom, acceptor molecule, acceptor atom, score
      P1  H  6896  6907       L1     7  0.79
      P1  H  6931  6943       L1     5  0.18
      P1  H  6934  6947       L1     5  0.36
      P1  H  7989  7998       L1    13  0.93
      P1  H 10752 10765       L1    14  0.91

> <Gold.Chemscore.Hbond.Weighted>
-11.0707

> <Gold.Chemscore.Metal.Weighted>
-0.0000

> <Gold.Chemscore.Lipo.Weighted>
-4.3805

> <Gold.Chemscore.Internal_Hbond.Weighted>
0.0000

> <Gold.Chemscore.DEClash.Weighted>
0.0089

> <Gold.Chemscore.DEInternal.Weighted>
1.8574

> <Gold.Chemscore.Rot.Weighted>
2.5600

> <Gold.Chemscore.Internal.Correction.Weighted>
   9.000000E+99

> <Gold.Protein.RotatedTorsions>
[ 6907 6896 6895 6894 ] final  -69.77 input  -60.11 | X-H torsion
[ 7974 7965 7964 7962 ] final -112.27 input  175.53 | X-H torsion
[ 8008 7997 7996 7995 ] final -144.10 input   59.86 | X-H torsion
[ 10167 10162 10161 10158 ] final  105.73 input  -65.29 | X-H torsion
[ 10718 10713 10712 10709 ] final   20.13 input   66.30 | X-H torsion
[ 10763 10752 10751 10750 ] final  167.74 input  -60.55 | X-H torsion
[ 11005 11000 10999 10996 ] final -151.36 input  -57.11 | X-H torsion

> <Gold.Protein.ActiveResidues>
 VAL166  LYS551  ARG553  GLY616  TRP617  ASP618  TYR619  PRO620  LYS621  CYS622 
 ASP623  PHE694  ASN695  SER759  ASP760  ASP761  ALA762  ILE779  LEU786  VAL792 
 PHE793  MET794  SER795  GLU796  ALA797  LYS798  CYS799  TRP800  GLU811  SER814 

> <Gold.Protein.RotatedAtoms>
  150.7289  134.5549  159.5812 H   0  0  0  0  0  0  0  0  0  0  0  0  # atno 6907 bound_to 6896
  152.3027  134.7589  160.0363 H   0  0  0  0  0  0  0  0  0  0  0  0  # atno 6908 bound_to 6896
  151.8164  133.3353  159.3607 H   0  0  0  0  0  0  0  0  0  0  0  0  # atno 6909 bound_to 6896
  145.1460  140.8803  143.3674 H   0  0  0  0  0  0  0  0  0  0  0  0  # atno 7974 bound_to 7965
  155.5214  140.0592  157.2906 H   0  0  0  0  0  0  0  0  0  0  0  0  # atno 8008 bound_to 7997
  154.4516  140.1952  156.0448 H   0  0  0  0  0  0  0  0  0  0  0  0  # atno 8009 bound_to 7997
  156.0716  140.3259  155.7586 H   0  0  0  0  0  0  0  0  0  0  0  0  # atno 8010 bound_to 7997
  139.7068  144.7085  151.1093 H   0  0  0  0  0  0  0  0  0  0  0  0  # atno 10167 bound_to 10162
  157.1202  130.6546  149.5922 H   0  0  0  0  0  0  0  0  0  0  0  0  # atno 10718 bound_to 10713
  154.3583  135.2753  155.2334 H   0  0  0  0  0  0  0  0  0  0  0  0  # atno 10763 bound_to 10752
  154.4534  135.5925  153.6210 H   0  0  0  0  0  0  0  0  0  0  0  0  # atno 10764 bound_to 10752
  152.9845  135.6047  154.3800 H   0  0  0  0  0  0  0  0  0  0  0  0  # atno 10765 bound_to 10752
  140.7303  134.3628  157.5168 H   0  0  0  0  0  0  0  0  0  0  0  0  # atno 11005 bound_to 11000
  145.0481  139.3204  143.5942 LP  0  0  0  0  0  0  0  0  0  0  0  0  # atno 17320 bound_to 7965
  146.3500  139.9880  142.8688 LP  0  0  0  0  0  0  0  0  0  0  0  0  # atno 17321 bound_to 7965
  140.7723  143.5347  150.9381 LP  0  0  0  0  0  0  0  0  0  0  0  0  # atno 17342 bound_to 10162
  139.9031  143.6811  152.3128 LP  0  0  0  0  0  0  0  0  0  0  0  0  # atno 17343 bound_to 10162
  155.9830  130.4847  150.6911 LP  0  0  0  0  0  0  0  0  0  0  0  0  # atno 17370 bound_to 10713
  157.4483  131.0869  151.0873 LP  0  0  0  0  0  0  0  0  0  0  0  0  # atno 17371 bound_to 10713
  139.8828  134.9014  156.2810 LP  0  0  0  0  0  0  0  0  0  0  0  0  # atno 17394 bound_to 11000
  140.9926  133.7199  156.0837 LP  0  0  0  0  0  0  0  0  0  0  0  0  # atno 17395 bound_to 11000

$$$$
