AV-unprocessed.smi:2739|AV-procd|sdf|10552|dock8
  -GOLD-   2272015 03D 1   1.00000     0.00000
 Structure written by MMmdl.
 35 35  0  0  0  0  0  0  0  0  1 V2000
  152.7980  142.5698  162.0088 C   0  0  0  0  0  0  0  0  0  0  0  0
  152.6635  142.3182  160.4999 C   0  0  0  0  0  0  0  0  0  0  0  0
  152.8048  143.5886  159.6381 C   0  0  2  0  0  0  0  0  0  0  0  0
  152.0340  144.7703  160.2426 C   0  0  0  0  0  0  0  0  0  0  0  0
  152.3219  143.3502  158.2793 N   0  0  0  0  0  0  0  0  0  0  0  0
  151.2182  142.6637  157.9416 C   0  0  0  0  0  0  0  0  0  0  0  0
  150.4522  142.1543  158.7590 O   0  0  0  0  0  0  0  0  0  0  0  0
  150.9320  142.5345  156.4454 C   0  0  0  0  0  0  0  0  0  0  0  0
  150.9628  141.1449  156.0267 N   0  0  0  0  0  0  0  0  0  0  0  0
  151.9699  140.2200  156.2004 C   0  0  0  0  0  0  0  0  0  0  0  0
  151.5479  139.0503  155.6370 C   0  0  0  0  0  0  0  0  0  0  0  0
  150.2517  139.3566  155.1320 C   0  0  0  0  0  0  0  0  0  0  0  0
  149.3040  138.4341  154.4094 C   0  0  1  0  0  0  0  0  0  0  0  0
  147.9899  138.2552  155.1821 C   0  0  0  0  0  0  0  0  0  0  0  0
  149.0007  138.8883  153.1057 O   0  0  0  0  0  0  0  0  0  0  0  0
  149.9074  140.6153  155.3715 N   0  0  0  0  0  0  0  0  0  0  0  0
  152.6275  141.6511  162.5703 H   0  0  0  0  0  0  0  0  0  0  0  0
  152.0719  143.3078  162.3505 H   0  0  0  0  0  0  0  0  0  0  0  0
  153.7925  142.9324  162.2685 H   0  0  0  0  0  0  0  0  0  0  0  0
  153.4019  141.5772  160.1909 H   0  0  0  0  0  0  0  0  0  0  0  0
  151.6880  141.8680  160.3121 H   0  0  0  0  0  0  0  0  0  0  0  0
  153.8594  143.8685  159.6171 H   0  0  0  0  0  0  0  0  0  0  0  0
  152.3893  144.9975  161.2479 H   0  0  0  0  0  0  0  0  0  0  0  0
  150.9662  144.5580  160.3072 H   0  0  0  0  0  0  0  0  0  0  0  0
  152.1591  145.6700  159.6391 H   0  0  0  0  0  0  0  0  0  0  0  0
  152.8830  143.7278  157.5291 H   0  0  0  0  0  0  0  0  0  0  0  0
  149.9485  142.9471  156.2167 H   0  0  0  0  0  0  0  0  0  0  0  0
  151.6621  143.1080  155.8717 H   0  0  0  0  0  0  0  0  0  0  0  0
  152.8925  140.4698  156.7038 H   0  0  0  0  0  0  0  0  0  0  0  0
  152.0849  138.1146  155.5917 H   0  0  0  0  0  0  0  0  0  0  0  0
  149.7733  137.4558  154.3007 H   0  0  0  0  0  0  0  0  0  0  0  0
  148.1754  137.8581  156.1806 H   0  0  0  0  0  0  0  0  0  0  0  0
  147.3231  137.5608  154.6702 H   0  0  0  0  0  0  0  0  0  0  0  0
  147.4617  139.2029  155.2940 H   0  0  0  0  0  0  0  0  0  0  0  0
  148.7890  138.1386  152.5709 H   0  0  0  0  0  0  0  0  0  0  0  0
  1  2  1  0  0  0  0
  1 17  1  0  0  0  0
  1 18  1  0  0  0  0
  1 19  1  0  0  0  0
  2  3  1  0  0  0  0
  2 20  1  0  0  0  0
  2 21  1  0  0  0  0
  3  4  1  0  0  0  0
  3  5  1  0  0  0  0
  3 22  1  0  0  0  0
  4 23  1  0  0  0  0
  4 24  1  0  0  0  0
  4 25  1  0  0  0  0
  5  6  1  0  0  0  0
  5 26  1  0  0  0  0
  6  7  2  0  0  0  0
  6  8  1  0  0  0  0
  8  9  1  0  0  0  0
  8 27  1  0  0  0  0
  8 28  1  0  0  0  0
  9 16  1  0  0  0  0
  9 10  1  0  0  0  0
 10 11  2  0  0  0  0
 10 29  1  0  0  0  0
 11 12  1  0  0  0  0
 11 30  1  0  0  0  0
 12 13  1  0  0  0  0
 12 16  2  0  0  0  0
 13 14  1  0  0  0  0
 13 15  1  0  0  0  0
 13 31  1  0  0  0  0
 14 32  1  0  0  0  0
 14 33  1  0  0  0  0
 14 34  1  0  0  0  0
 15 35  1  0  0  0  0
M  END
> <s_m_source_file>
AV-unprocessed.smi

> <i_m_source_file_index>
2739

> <i_lp_mmshare_version>
43012

> <i_f3d_flags>
0

> <s_epik_input>
W0NIM11bQ0gyXVtDQEhdKFtDSDNdKVtOSF1DKD1PKVtDSDJdbjFbY0hdW2NIXWMobjEpW0NASF0oW0NIM10pW09IXQ==

> <s_epik_cmdline>
J2VwaWtfcHl0aG9uJywgJy1waCcsICc3LjAnLCAnLXRuJywgJzgnLCAnLW1hJywgJzIwMCcsICctbWV0YWxfYmluZGluZycsICctaW1hZScsICc8aW5maWxlLm1hZT4nLCAnLW9tYWUnLCAnPG91dGZpbGUubWFlPic=

> <r_lp_tautomer_probability>
1

> <r_epik_Ionization_Penalty>
5.22246e-06

> <r_epik_Ionization_Penalty_Charging>
0

> <r_epik_Ionization_Penalty_Neutral>
5.22246e-06

> <r_epik_State_Penalty>
-0

> <r_epik_Charging_Adjusted_Penalty>
0

> <i_epik_Tot_Q>
0

> <i_epik_Tot_abs_Q>
0

> <r_epik_Metal_State_Penalty>
-0

> <b_epik_Metal_Only>
0

> <s_lp_Force_Field>
OPLS_2005

> <r_lp_Energy>
1.64389

> <b_lp_Chiralities_Consistent>
1

> <s_lp_Variant>
AV-unprocessed.smi:2739-3

> <Gold.Version>
5.8.1

> <Gold.Id.Protein>
6NUR|6NUR_protein|mol2

> <Gold.PLP.Fitness>
38.5349

> <Gold.PLP.PLP>
-36.3909

> <Gold.PLP.part.hbond>
-2.0723

> <Gold.PLP.part.metal>
0.0000

> <Gold.PLP.part.buried>
-3.8820

> <Gold.PLP.part.nonpolar>
-30.6198

> <Gold.PLP.part.repulsive>
0.1133

> <Gold.PLP.ligand.clash>
0.0000

> <Gold.PLP.ligand.torsion>
0.4445

> <Gold.PLP.Chemscore.Hbond>
1.0000

> <Gold.PLP.Chemscore.CHOScore>
0.0000

> <Gold.PLP.Chemscore.Metal>
0.0000

> <Gold.Chemscore.Hbonds>
donor molecule, donor type, donor heavy atom, donor atom, acceptor molecule, acceptor atom, score
      L1  H    15    35       P1  7948  1.00

> <Gold.PLP.Chemscore.Internal.Correction>
0.0331

> <Gold.Rescore>
     Score         DG    S(hbond)    S(metal)    S(lipo)     H(rot)  DE(clash)    DE(int)     intcor
     10.21     -12.64       0.99        0.00      84.21       2.34       0.50       1.92       ----

> <Gold.Chemscore.Fitness>
10.2145

> <Gold.Chemscore.DG>
-12.6418

> <Gold.Chemscore.ZeroCoef>
-5.4800

> <Gold.Chemscore.Hbond>
0.9916

> <Gold.Chemscore.Metal>
0.0000

> <Gold.Chemscore.Lipo>
84.2095

> <Gold.Chemscore.Internal_Hbond>
0.0000

> <Gold.Chemscore.DEClash>
0.5037

> <Gold.Chemscore.DEInternal>
1.9236

> <Gold.Chemscore.Rot>
2.3448

> <Gold.Chemscore.Internal.Correction>
   9.000000E+99

> <Gold.Chemscore.Hbonds>
donor molecule, donor type, donor heavy atom, donor atom, acceptor molecule, acceptor atom, score
      L1  H    15    35       P1  7948  0.94

> <Gold.Chemscore.Hbond.Weighted>
-3.3120

> <Gold.Chemscore.Metal.Weighted>
-0.0000

> <Gold.Chemscore.Lipo.Weighted>
-9.8525

> <Gold.Chemscore.Internal_Hbond.Weighted>
0.0000

> <Gold.Chemscore.DEClash.Weighted>
0.5037

> <Gold.Chemscore.DEInternal.Weighted>
1.9236

> <Gold.Chemscore.Rot.Weighted>
6.0027

> <Gold.Chemscore.Internal.Correction.Weighted>
   9.000000E+99

> <Gold.Protein.RotatedTorsions>
[ 6907 6896 6895 6894 ] final -171.99 input  -60.11 | X-H torsion
[ 7974 7965 7964 7962 ] final -137.30 input  175.53 | X-H torsion
[ 8008 7997 7996 7995 ] final  -87.85 input   59.86 | X-H torsion
[ 10167 10162 10161 10158 ] final  109.84 input  -65.29 | X-H torsion
[ 10718 10713 10712 10709 ] final   39.23 input   66.30 | X-H torsion
[ 10763 10752 10751 10750 ] final    9.75 input  -60.55 | X-H torsion
[ 11005 11000 10999 10996 ] final  131.75 input  -57.11 | X-H torsion

> <Gold.Protein.ActiveResidues>
 VAL166  LYS551  ARG553  GLY616  TRP617  ASP618  TYR619  PRO620  LYS621  CYS622 
 ASP623  PHE694  ASN695  SER759  ASP760  ASP761  ALA762  ILE779  LEU786  VAL792 
 PHE793  MET794  SER795  GLU796  ALA797  LYS798  CYS799  TRP800  GLU811  SER814 

> <Gold.Protein.RotatedAtoms>
  151.5328  133.3446  159.2920 H   0  0  0  0  0  0  0  0  0  0  0  0  # atno 6907 bound_to 6896
  150.8583  134.7930  159.7074 H   0  0  0  0  0  0  0  0  0  0  0  0  # atno 6908 bound_to 6896
  152.4610  134.5192  159.9829 H   0  0  0  0  0  0  0  0  0  0  0  0  # atno 6909 bound_to 6896
  144.8854  140.6567  143.5179 H   0  0  0  0  0  0  0  0  0  0  0  0  # atno 7974 bound_to 7965
  154.6680  140.0561  157.0134 H   0  0  0  0  0  0  0  0  0  0  0  0  # atno 8008 bound_to 7997
  155.1131  140.3240  155.4498 H   0  0  0  0  0  0  0  0  0  0  0  0  # atno 8009 bound_to 7997
  156.2646  140.2011  156.6255 H   0  0  0  0  0  0  0  0  0  0  0  0  # atno 8010 bound_to 7997
  139.6735  144.7124  151.1645 H   0  0  0  0  0  0  0  0  0  0  0  0  # atno 10167 bound_to 10162
  157.3682  130.7686  149.7098 H   0  0  0  0  0  0  0  0  0  0  0  0  # atno 10718 bound_to 10713
  153.2106  135.6868  153.8119 H   0  0  0  0  0  0  0  0  0  0  0  0  # atno 10763 bound_to 10752
  153.7353  135.3246  155.3295 H   0  0  0  0  0  0  0  0  0  0  0  0  # atno 10764 bound_to 10752
  154.8220  135.4645  154.0912 H   0  0  0  0  0  0  0  0  0  0  0  0  # atno 10765 bound_to 10752
  139.9749  134.9566  156.9483 H   0  0  0  0  0  0  0  0  0  0  0  0  # atno 11005 bound_to 11000
  145.3879  139.1623  143.4245 LP  0  0  0  0  0  0  0  0  0  0  0  0  # atno 17320 bound_to 7965
  146.3021  140.3965  142.8700 LP  0  0  0  0  0  0  0  0  0  0  0  0  # atno 17321 bound_to 7965
  140.7627  143.5808  150.8897 LP  0  0  0  0  0  0  0  0  0  0  0  0  # atno 17342 bound_to 10162
  139.9475  143.6311  152.3038 LP  0  0  0  0  0  0  0  0  0  0  0  0  # atno 17343 bound_to 10162
  155.9750  130.4095  150.3880 LP  0  0  0  0  0  0  0  0  0  0  0  0  # atno 17370 bound_to 10713
  157.1967  131.0428  151.2672 LP  0  0  0  0  0  0  0  0  0  0  0  0  # atno 17371 bound_to 10713
  140.5216  134.0902  155.7293 LP  0  0  0  0  0  0  0  0  0  0  0  0  # atno 17394 bound_to 11000
  141.1426  133.9111  157.2289 LP  0  0  0  0  0  0  0  0  0  0  0  0  # atno 17395 bound_to 11000

$$$$
