AV-unprocessed.smi:758|AV-procd|sdf|3618|dock6
  -GOLD-   22720 1 13D 1   1.00000     0.00000
 Structure written by MMmdl.
 47 48  0  0  0  0  0  0  0  0  1 V2000
  152.1078  141.4770  158.4993 C   0  0  0  0  0  0  0  0  0  0  0  0
  150.9819  141.2356  157.4698 C   0  0  0  0  0  0  0  0  0  0  0  0
  149.7796  140.6005  158.2034 C   0  0  0  0  0  0  0  0  0  0  0  0
  150.5060  142.6060  156.9376 C   0  0  0  0  0  0  0  0  0  0  0  0
  151.4459  140.3216  156.2821 C   0  0  2  0  0  0  0  0  0  0  0  0
  150.3140  139.9353  155.2939 C   0  0  0  0  0  0  0  0  0  0  0  0
  150.8258  139.0876  154.1140 C   0  0  0  0  0  0  0  0  0  0  0  0
  151.5792  137.8188  154.5677 C   0  0  2  0  0  0  0  0  0  0  0  0
  152.1649  137.2673  153.4032 O   0  0  0  0  0  0  0  0  0  0  0  0
  150.6079  136.7442  155.1249 C   0  0  0  0  0  0  0  0  0  0  0  0
  150.4001  135.6358  154.1949 N   0  0  0  0  0  0  0  0  0  0  0  0
  150.7158  134.3496  154.4168 C   0  0  0  0  0  0  0  0  0  0  0  0
  151.2194  133.9397  155.4623 O   0  0  0  0  0  0  0  0  0  0  0  0
  150.4264  133.3722  153.2769 C   0  0  0  0  0  0  0  0  0  0  0  0
  149.2851  132.5293  153.5835 N   0  0  0  0  0  0  0  0  0  0  0  0
  148.7508  131.5106  152.9071 C   0  0  0  0  0  0  0  0  0  0  0  0
  147.6926  130.9722  153.4967 N   0  0  0  0  0  0  0  0  0  0  0  0
  147.6256  131.7620  154.6097 C   0  0  0  0  0  0  0  0  0  0  0  0
  148.5567  132.7106  154.7103 N   0  0  0  0  0  0  0  0  0  0  0  0
  152.7169  138.2280  155.5294 C   0  0  0  0  0  0  0  0  0  0  0  0
  152.1989  139.0408  156.7270 C   0  0  0  0  0  0  0  0  0  0  0  0
  151.7567  142.1013  159.3216 H   0  0  0  0  0  0  0  0  0  0  0  0
  152.9629  141.9892  158.0589 H   0  0  0  0  0  0  0  0  0  0  0  0
  152.4680  140.5472  158.9383 H   0  0  0  0  0  0  0  0  0  0  0  0
  150.0583  139.6961  158.7438 H   0  0  0  0  0  0  0  0  0  0  0  0
  148.9793  140.3424  157.5089 H   0  0  0  0  0  0  0  0  0  0  0  0
  149.3603  141.2830  158.9436 H   0  0  0  0  0  0  0  0  0  0  0  0
  150.0702  143.2109  157.7338 H   0  0  0  0  0  0  0  0  0  0  0  0
  149.7454  142.4916  156.1644 H   0  0  0  0  0  0  0  0  0  0  0  0
  151.3217  143.1937  156.5183 H   0  0  0  0  0  0  0  0  0  0  0  0
  152.1609  140.9106  155.7051 H   0  0  0  0  0  0  0  0  0  0  0  0
  149.5212  139.3986  155.8127 H   0  0  0  0  0  0  0  0  0  0  0  0
  149.8492  140.8268  154.8756 H   0  0  0  0  0  0  0  0  0  0  0  0
  149.9919  138.8213  153.4633 H   0  0  0  0  0  0  0  0  0  0  0  0
  151.4901  139.7094  153.5111 H   0  0  0  0  0  0  0  0  0  0  0  0
  151.4805  137.1022  152.7726 H   0  0  0  0  0  0  0  0  0  0  0  0
  150.9729  136.3640  156.0786 H   0  0  0  0  0  0  0  0  0  0  0  0
  149.6372  137.1902  155.3449 H   0  0  0  0  0  0  0  0  0  0  0  0
  149.9994  135.8738  153.2993 H   0  0  0  0  0  0  0  0  0  0  0  0
  150.2247  133.9202  152.3555 H   0  0  0  0  0  0  0  0  0  0  0  0
  151.2995  132.7441  153.0919 H   0  0  0  0  0  0  0  0  0  0  0  0
  149.1421  131.1574  151.9642 H   0  0  0  0  0  0  0  0  0  0  0  0
  146.8677  131.6342  155.3686 H   0  0  0  0  0  0  0  0  0  0  0  0
  153.2703  137.3571  155.8808 H   0  0  0  0  0  0  0  0  0  0  0  0
  153.4447  138.8365  154.9906 H   0  0  0  0  0  0  0  0  0  0  0  0
  153.0545  139.2906  157.3521 H   0  0  0  0  0  0  0  0  0  0  0  0
  151.5512  138.4092  157.3333 H   0  0  0  0  0  0  0  0  0  0  0  0
  1  2  1  0  0  0  0
  1 22  1  0  0  0  0
  1 23  1  0  0  0  0
  1 24  1  0  0  0  0
  2  3  1  0  0  0  0
  2  4  1  0  0  0  0
  2  5  1  0  0  0  0
  3 25  1  0  0  0  0
  3 26  1  0  0  0  0
  3 27  1  0  0  0  0
  4 28  1  0  0  0  0
  4 29  1  0  0  0  0
  4 30  1  0  0  0  0
  5 21  1  0  0  0  0
  5  6  1  0  0  0  0
  5 31  1  0  0  0  0
  6  7  1  0  0  0  0
  6 32  1  0  0  0  0
  6 33  1  0  0  0  0
  7  8  1  0  0  0  0
  7 34  1  0  0  0  0
  7 35  1  0  0  0  0
  8  9  1  0  0  0  0
  8 10  1  0  0  0  0
  8 20  1  0  0  0  0
  9 36  1  0  0  0  0
 10 11  1  0  0  0  0
 10 37  1  0  0  0  0
 10 38  1  0  0  0  0
 11 12  1  0  0  0  0
 11 39  1  0  0  0  0
 12 13  2  0  0  0  0
 12 14  1  0  0  0  0
 14 15  1  0  0  0  0
 14 40  1  0  0  0  0
 14 41  1  0  0  0  0
 15 19  1  0  0  0  0
 15 16  1  0  0  0  0
 16 17  2  0  0  0  0
 16 42  1  0  0  0  0
 17 18  1  0  0  0  0
 18 19  2  0  0  0  0
 18 43  1  0  0  0  0
 20 21  1  0  0  0  0
 20 44  1  0  0  0  0
 20 45  1  0  0  0  0
 21 46  1  0  0  0  0
 21 47  1  0  0  0  0
M  END
> <s_m_source_file>
AV-unprocessed.smi

> <i_m_source_file_index>
758

> <i_lp_mmshare_version>
43012

> <i_f3d_flags>
0

> <s_epik_input>
W0NIM11DKFtDSDNdKShbQ0gzXSlbQ0BASF0oW0NIMl1bQ0gyXTEpW0NIMl1bQ0gyXVtDQEBdMShbT0hdKVtDSDJdW05IXUMoPU8pW0NIMl1uMltjSF1uW2NIXW4y

> <s_epik_cmdline>
J2VwaWtfcHl0aG9uJywgJy1waCcsICc3LjAnLCAnLXRuJywgJzgnLCAnLW1hJywgJzIwMCcsICctbWV0YWxfYmluZGluZycsICctaW1hZScsICc8aW5maWxlLm1hZT4nLCAnLW9tYWUnLCAnPG91dGZpbGUubWFlPic=

> <r_lp_tautomer_probability>
1

> <r_epik_Ionization_Penalty>
1.04836e-05

> <r_epik_Ionization_Penalty_Charging>
0

> <r_epik_Ionization_Penalty_Neutral>
1.04836e-05

> <r_epik_State_Penalty>
-0

> <r_epik_Charging_Adjusted_Penalty>
0

> <i_epik_Tot_Q>
0

> <i_epik_Tot_abs_Q>
0

> <r_epik_Metal_State_Penalty>
-0

> <b_epik_Metal_Only>
0

> <s_lp_Force_Field>
OPLS_2005

> <r_lp_Energy>
24.1988

> <b_lp_Chiralities_Consistent>
1

> <s_lp_Variant>
AV-unprocessed.smi:758-2

> <Gold.Version>
5.8.1

> <Gold.Id.Protein>
6NUR|6NUR_protein|mol2

> <Gold.PLP.Fitness>
44.3167

> <Gold.PLP.PLP>
-32.6235

> <Gold.PLP.part.hbond>
-2.9360

> <Gold.PLP.part.metal>
0.0000

> <Gold.PLP.part.buried>
-4.3101

> <Gold.PLP.part.nonpolar>
-26.8575

> <Gold.PLP.part.repulsive>
0.2724

> <Gold.PLP.ligand.clash>
0.0000

> <Gold.PLP.ligand.torsion>
1.3282

> <Gold.PLP.Chemscore.Hbond>
2.7600

> <Gold.PLP.Chemscore.CHOScore>
1.9997

> <Gold.PLP.Chemscore.Metal>
0.0000

> <Gold.Chemscore.Hbonds>
donor molecule, donor type, donor heavy atom, donor atom, acceptor molecule, acceptor atom, score
      L1  H     9    36       P1  7949  0.75
      L1  H    11    39       P1  7948  0.30
      P1  H 10752 10764       L1     9  1.00
      L1  C    16    42       P1 10747  0.15

> <Gold.PLP.Chemscore.Internal.Correction>
0.0704

> <Gold.Rescore>
     Score         DG    S(hbond)    S(metal)    S(lipo)     H(rot)  DE(clash)    DE(int)     intcor
     10.84     -13.25       2.12        0.00      75.17       3.17       0.11       2.31       ----

> <Gold.Chemscore.Fitness>
10.8369

> <Gold.Chemscore.DG>
-13.2541

> <Gold.Chemscore.ZeroCoef>
-5.4800

> <Gold.Chemscore.Hbond>
2.1212

> <Gold.Chemscore.Metal>
0.0000

> <Gold.Chemscore.Lipo>
75.1699

> <Gold.Chemscore.Internal_Hbond>
0.0000

> <Gold.Chemscore.DEClash>
0.1113

> <Gold.Chemscore.DEInternal>
2.3058

> <Gold.Chemscore.Rot>
3.1663

> <Gold.Chemscore.Internal.Correction>
   9.000000E+99

> <Gold.Chemscore.Hbonds>
donor molecule, donor type, donor heavy atom, donor atom, acceptor molecule, acceptor atom, score
      L1  H     9    36       P1  7949  0.67
      P1  H 10752 10764       L1     9  0.68

> <Gold.Chemscore.Hbond.Weighted>
-7.0848

> <Gold.Chemscore.Metal.Weighted>
-0.0000

> <Gold.Chemscore.Lipo.Weighted>
-8.7949

> <Gold.Chemscore.Internal_Hbond.Weighted>
0.0000

> <Gold.Chemscore.DEClash.Weighted>
0.1113

> <Gold.Chemscore.DEInternal.Weighted>
2.3058

> <Gold.Chemscore.Rot.Weighted>
8.1056

> <Gold.Chemscore.Internal.Correction.Weighted>
   9.000000E+99

> <Gold.Protein.RotatedTorsions>
[ 6907 6896 6895 6894 ] final  167.38 input  -60.11 | X-H torsion
[ 7974 7965 7964 7962 ] final   65.99 input  175.53 | X-H torsion
[ 8008 7997 7996 7995 ] final  112.73 input   59.86 | X-H torsion
[ 10167 10162 10161 10158 ] final -131.71 input  -65.29 | X-H torsion
[ 10718 10713 10712 10709 ] final   49.26 input   66.30 | X-H torsion
[ 10763 10752 10751 10750 ] final -109.94 input  -60.55 | X-H torsion
[ 11005 11000 10999 10996 ] final  -98.84 input  -57.11 | X-H torsion

> <Gold.Protein.ActiveResidues>
 VAL166  LYS551  ARG553  GLY616  TRP617  ASP618  TYR619  PRO620  LYS621  CYS622 
 ASP623  PHE694  ASN695  SER759  ASP760  ASP761  ALA762  ILE779  LEU786  VAL792 
 PHE793  MET794  SER795  GLU796  ALA797  LYS798  CYS799  TRP800  GLU811  SER814 

> <Gold.Protein.RotatedAtoms>
  151.8642  133.3463  159.3713 H   0  0  0  0  0  0  0  0  0  0  0  0  # atno 6907 bound_to 6896
  150.7170  134.5176  159.5647 H   0  0  0  0  0  0  0  0  0  0  0  0  # atno 6908 bound_to 6896
  152.2696  134.7948  160.0467 H   0  0  0  0  0  0  0  0  0  0  0  0  # atno 6909 bound_to 6896
  145.8319  139.3144  143.0982 H   0  0  0  0  0  0  0  0  0  0  0  0  # atno 7974 bound_to 7965
  156.2212  140.2993  155.9956 H   0  0  0  0  0  0  0  0  0  0  0  0  # atno 8008 bound_to 7997
  155.2477  140.0425  157.3000 H   0  0  0  0  0  0  0  0  0  0  0  0  # atno 8009 bound_to 7997
  154.5843  140.2384  155.8017 H   0  0  0  0  0  0  0  0  0  0  0  0  # atno 8010 bound_to 7997
  139.9160  143.6438  152.2564 H   0  0  0  0  0  0  0  0  0  0  0  0  # atno 10167 bound_to 10162
  157.4769  130.8290  149.8050 H   0  0  0  0  0  0  0  0  0  0  0  0  # atno 10718 bound_to 10713
  154.8221  135.4582  154.0809 H   0  0  0  0  0  0  0  0  0  0  0  0  # atno 10763 bound_to 10752
  153.2154  135.6887  153.8070 H   0  0  0  0  0  0  0  0  0  0  0  0  # atno 10764 bound_to 10752
  153.7506  135.3299  155.3297 H   0  0  0  0  0  0  0  0  0  0  0  0  # atno 10765 bound_to 10752
  141.1330  133.8276  157.0893 H   0  0  0  0  0  0  0  0  0  0  0  0  # atno 11005 bound_to 11000
  145.9561  140.8871  143.0234 LP  0  0  0  0  0  0  0  0  0  0  0  0  # atno 17320 bound_to 7965
  144.6739  140.1748  143.7411 LP  0  0  0  0  0  0  0  0  0  0  0  0  # atno 17321 bound_to 7965
  139.6902  144.7647  151.1453 LP  0  0  0  0  0  0  0  0  0  0  0  0  # atno 17342 bound_to 10162
  140.7674  143.5600  150.9109 LP  0  0  0  0  0  0  0  0  0  0  0  0  # atno 17343 bound_to 10162
  156.0101  130.3837  150.2293 LP  0  0  0  0  0  0  0  0  0  0  0  0  # atno 17370 bound_to 10713
  157.0478  131.0054  151.3263 LP  0  0  0  0  0  0  0  0  0  0  0  0  # atno 17371 bound_to 10713
  140.0402  134.9858  157.0948 LP  0  0  0  0  0  0  0  0  0  0  0  0  # atno 17394 bound_to 11000
  140.4147  134.1944  155.7163 LP  0  0  0  0  0  0  0  0  0  0  0  0  # atno 17395 bound_to 11000

$$$$
