AV-unprocessed.smi:3290|AV-procd|sdf|12618|dock5
  -GOLD-   2272018553D 1   1.00000     0.00000
 Structure written by MMmdl.
 43 44  0  0  0  0  0  0  0  0  2 V2000
  151.3285  145.5580  160.1348 C   0  0  0  0  0  0  0  0  0  0  0  0
  152.1641  144.2874  159.8955 C   0  0  1  0  0  0  0  0  0  0  0  0
  152.5207  143.6436  161.2523 C   0  0  0  0  0  0  0  0  0  0  0  0
  153.4023  142.3989  161.0863 C   0  0  0  0  0  0  0  0  0  0  0  0
  152.7275  141.3732  160.1692 C   0  0  0  0  0  0  0  0  0  0  0  0
  152.3788  142.0003  158.8122 C   0  0  0  0  0  0  0  0  0  0  0  0
  151.4797  143.2488  158.9570 C   0  0  2  0  0  0  0  0  0  0  0  0
  151.1461  143.8051  157.5539 C   0  0  0  0  0  0  0  0  0  0  0  0
  150.2564  142.9039  156.7946 N   0  3  0  0  0  0  0  0  0  0  0  0
  150.9656  141.9484  155.9205 C   0  0  0  0  0  0  0  0  0  0  0  0
  149.9951  140.9323  155.2934 C   0  0  1  0  0  0  0  0  0  0  0  0
  149.4977  141.4665  154.0814 O   0  0  0  0  0  0  0  0  0  0  0  0
  150.6702  139.5865  155.0804 C   0  0  0  0  0  0  0  0  0  0  0  0
  149.9245  138.4728  154.6409 C   0  0  0  0  0  0  0  0  0  0  0  0
  150.5906  137.2438  154.4613 C   0  0  0  0  0  0  0  0  0  0  0  0
  151.9101  137.0752  154.6913 N   0  0  0  0  0  0  0  0  0  0  0  0
  152.6192  138.1433  155.1138 C   0  0  0  0  0  0  0  0  0  0  0  0
  152.0502  139.4150  155.3245 C   0  0  0  0  0  0  0  0  0  0  0  0
  150.3336  145.3155  160.5092 H   0  0  0  0  0  0  0  0  0  0  0  0
  151.2176  146.1468  159.2248 H   0  0  0  0  0  0  0  0  0  0  0  0
  151.8071  146.2080  160.8680 H   0  0  0  0  0  0  0  0  0  0  0  0
  153.0989  144.6005  159.4276 H   0  0  0  0  0  0  0  0  0  0  0  0
  153.0389  144.3656  161.8846 H   0  0  0  0  0  0  0  0  0  0  0  0
  151.6069  143.3721  161.7829 H   0  0  0  0  0  0  0  0  0  0  0  0
  154.3691  142.6854  160.6703 H   0  0  0  0  0  0  0  0  0  0  0  0
  153.6037  141.9521  162.0604 H   0  0  0  0  0  0  0  0  0  0  0  0
  153.3840  140.5145  160.0253 H   0  0  0  0  0  0  0  0  0  0  0  0
  151.8213  140.9945  160.6439 H   0  0  0  0  0  0  0  0  0  0  0  0
  153.2988  142.2669  158.2894 H   0  0  0  0  0  0  0  0  0  0  0  0
  151.8822  141.2510  158.1945 H   0  0  0  0  0  0  0  0  0  0  0  0
  150.5498  142.9194  159.4242 H   0  0  0  0  0  0  0  0  0  0  0  0
  150.6990  144.7969  157.6363 H   0  0  0  0  0  0  0  0  0  0  0  0
  152.0589  143.9214  156.9681 H   0  0  0  0  0  0  0  0  0  0  0  0
  149.6817  142.3879  157.4454 H   0  0  0  0  0  0  0  0  0  0  0  0
  151.4991  142.4941  155.1404 H   0  0  0  0  0  0  0  0  0  0  0  0
  151.7160  141.4254  156.5152 H   0  0  0  0  0  0  0  0  0  0  0  0
  149.1429  140.7892  155.9595 H   0  0  0  0  0  0  0  0  0  0  0  0
  148.5911  141.2125  153.9920 H   0  0  0  0  0  0  0  0  0  0  0  0
  148.8654  138.5518  154.4438 H   0  0  0  0  0  0  0  0  0  0  0  0
  150.0481  136.3728  154.1247 H   0  0  0  0  0  0  0  0  0  0  0  0
  153.6720  137.9798  155.2910 H   0  0  0  0  0  0  0  0  0  0  0  0
  152.6635  140.2360  155.6661 H   0  0  0  0  0  0  0  0  0  0  0  0
  149.6547  143.4696  156.2122 H   0  0  0  0  0  0  0  0  0  0  0  0
  1  2  1  0  0  0  0
  1 19  1  0  0  0  0
  1 20  1  0  0  0  0
  1 21  1  0  0  0  0
  2  7  1  0  0  0  0
  2  3  1  0  0  0  0
  2 22  1  0  0  0  0
  3  4  1  0  0  0  0
  3 23  1  0  0  0  0
  3 24  1  0  0  0  0
  4  5  1  0  0  0  0
  4 25  1  0  0  0  0
  4 26  1  0  0  0  0
  5  6  1  0  0  0  0
  5 27  1  0  0  0  0
  5 28  1  0  0  0  0
  6  7  1  0  0  0  0
  6 29  1  0  0  0  0
  6 30  1  0  0  0  0
  7  8  1  0  0  0  0
  7 31  1  0  0  0  0
  8  9  1  0  0  0  0
  8 32  1  0  0  0  0
  8 33  1  0  0  0  0
  9 10  1  0  0  0  0
  9 34  1  0  0  0  0
  9 43  1  0  0  0  0
 10 11  1  0  0  0  0
 10 35  1  0  0  0  0
 10 36  1  0  0  0  0
 11 12  1  0  0  0  0
 11 13  1  0  0  0  0
 11 37  1  0  0  0  0
 12 38  1  0  0  0  0
 13 18  1  0  0  0  0
 13 14  2  0  0  0  0
 14 15  1  0  0  0  0
 14 39  1  0  0  0  0
 15 16  2  0  0  0  0
 15 40  1  0  0  0  0
 16 17  1  0  0  0  0
 17 18  2  0  0  0  0
 17 41  1  0  0  0  0
 18 42  1  0  0  0  0
M  CHG  1   9   1
M  END
> <s_m_source_file>
AV-unprocessed.smi

> <i_m_source_file_index>
3290

> <i_lp_mmshare_version>
43012

> <i_f3d_flags>
0

> <s_epik_input>
W0NIM11bQ0BASF0xW0NIMl1bQ0gyXVtDSDJdW0NIMl1bQ0BIXTFbQ0gyXVtOSF1bQ0gyXVtDQEhdKFtPSF0pYzJbY0hdW2NIXW5bY0hdW2NIXTI=

> <s_epik_cmdline>
J2VwaWtfcHl0aG9uJywgJy1waCcsICc3LjAnLCAnLXRuJywgJzgnLCAnLW1hJywgJzIwMCcsICctbWV0YWxfYmluZGluZycsICctaW1hZScsICc8aW5maWxlLm1hZT4nLCAnLW9tYWUnLCAnPG91dGZpbGUubWFlPic=

> <r_lp_tautomer_probability>
1

> <r_epik_Ionization_Penalty>
0.00420552

> <r_epik_Ionization_Penalty_Charging>
0.00207255

> <r_epik_Ionization_Penalty_Neutral>
0.00213297

> <r_epik_State_Penalty>
-0

> <r_epik_Charging_Adjusted_Penalty>
0.00207255

> <i_epik_Tot_Q>
1

> <i_epik_Tot_abs_Q>
1

> <r_epik_Metal_State_Penalty>
-0

> <b_epik_Metal_Only>
0

> <s_lp_Force_Field>
OPLS_2005

> <r_lp_Energy>
17.3555

> <b_lp_Chiralities_Consistent>
1

> <s_lp_Variant>
AV-unprocessed.smi:3290-8

> <Gold.Version>
5.8.1

> <Gold.Id.Protein>
6NUR|6NUR_protein|mol2

> <Gold.PLP.Fitness>
58.4697

> <Gold.PLP.PLP>
-46.2977

> <Gold.PLP.part.hbond>
-4.2836

> <Gold.PLP.part.metal>
0.0000

> <Gold.PLP.part.buried>
-1.3721

> <Gold.PLP.part.nonpolar>
-39.7671

> <Gold.PLP.part.repulsive>
0.1594

> <Gold.PLP.ligand.clash>
0.0000

> <Gold.PLP.ligand.torsion>
0.7218

> <Gold.PLP.Chemscore.Hbond>
3.6720

> <Gold.PLP.Chemscore.CHOScore>
0.8410

> <Gold.PLP.Chemscore.Metal>
0.0000

> <Gold.Chemscore.Hbonds>
donor molecule, donor type, donor heavy atom, donor atom, acceptor molecule, acceptor atom, score
      L1  H     9    43       P1  8028  2.00
      P1  H  8011  8017       L1    12  0.67
      P1  H 10752 10763       L1    16  1.00
      L1  C    15    40       P1  7948  0.85

> <Gold.PLP.Chemscore.Internal.Correction>
0.0766

> <Gold.Rescore>
     Score         DG    S(hbond)    S(metal)    S(lipo)     H(rot)  DE(clash)    DE(int)     intcor
     22.95     -23.85       2.16        0.00     140.15       2.05       0.20       0.70       ----

> <Gold.Chemscore.Fitness>
22.9475

> <Gold.Chemscore.DG>
-23.8453

> <Gold.Chemscore.ZeroCoef>
-5.4800

> <Gold.Chemscore.Hbond>
2.1601

> <Gold.Chemscore.Metal>
0.0000

> <Gold.Chemscore.Lipo>
140.1538

> <Gold.Chemscore.Internal_Hbond>
0.0000

> <Gold.Chemscore.DEClash>
0.2005

> <Gold.Chemscore.DEInternal>
0.6972

> <Gold.Chemscore.Rot>
2.0498

> <Gold.Chemscore.Internal.Correction>
   9.000000E+99

> <Gold.Chemscore.Hbonds>
donor molecule, donor type, donor heavy atom, donor atom, acceptor molecule, acceptor atom, score
      L1  H     9    43       P1  8028  0.96
      P1  H  8011  8017       L1    12  0.19
      P1  H 10752 10763       L1    16  0.78

> <Gold.Chemscore.Hbond.Weighted>
-7.2148

> <Gold.Chemscore.Metal.Weighted>
-0.0000

> <Gold.Chemscore.Lipo.Weighted>
-16.3980

> <Gold.Chemscore.Internal_Hbond.Weighted>
0.0000

> <Gold.Chemscore.DEClash.Weighted>
0.2005

> <Gold.Chemscore.DEInternal.Weighted>
0.6972

> <Gold.Chemscore.Rot.Weighted>
5.2475

> <Gold.Chemscore.Internal.Correction.Weighted>
   9.000000E+99

> <Gold.Protein.RotatedTorsions>
[ 6907 6896 6895 6894 ] final   -7.27 input  -60.11 | X-H torsion
[ 7974 7965 7964 7962 ] final   40.25 input  175.53 | X-H torsion
[ 8008 7997 7996 7995 ] final -141.74 input   59.86 | X-H torsion
[ 10167 10162 10161 10158 ] final   63.25 input  -65.29 | X-H torsion
[ 10718 10713 10712 10709 ] final  -76.91 input   66.30 | X-H torsion
[ 10763 10752 10751 10750 ] final   49.09 input  -60.55 | X-H torsion
[ 11005 11000 10999 10996 ] final  -35.39 input  -57.11 | X-H torsion

> <Gold.Protein.ActiveResidues>
 VAL166  LYS551  ARG553  GLY616  TRP617  ASP618  TYR619  PRO620  LYS621  CYS622 
 ASP623  PHE694  ASN695  SER759  ASP760  ASP761  ALA762  ILE779  LEU786  VAL792 
 PHE793  MET794  SER795  GLU796  ALA797  LYS798  CYS799  TRP800  GLU811  SER814 

> <Gold.Protein.RotatedAtoms>
  151.4522  135.1031  159.9700 H   0  0  0  0  0  0  0  0  0  0  0  0  # atno 6907 bound_to 6896
  152.4884  133.8429  159.7172 H   0  0  0  0  0  0  0  0  0  0  0  0  # atno 6908 bound_to 6896
  150.9014  133.7054  159.2905 H   0  0  0  0  0  0  0  0  0  0  0  0  # atno 6909 bound_to 6896
  146.0920  139.5555  142.9470 H   0  0  0  0  0  0  0  0  0  0  0  0  # atno 7974 bound_to 7965
  155.4827  140.0561  157.2965 H   0  0  0  0  0  0  0  0  0  0  0  0  # atno 8008 bound_to 7997
  154.4654  140.2016  156.0085 H   0  0  0  0  0  0  0  0  0  0  0  0  # atno 8009 bound_to 7997
  156.0964  140.3225  155.7888 H   0  0  0  0  0  0  0  0  0  0  0  0  # atno 8010 bound_to 7997
  140.1351  144.4606  150.6842 H   0  0  0  0  0  0  0  0  0  0  0  0  # atno 10167 bound_to 10162
  156.0160  130.4478  150.3266 H   0  0  0  0  0  0  0  0  0  0  0  0  # atno 10718 bound_to 10713
  152.9788  135.5923  154.4032 H   0  0  0  0  0  0  0  0  0  0  0  0  # atno 10763 bound_to 10752
  154.3675  135.2767  155.2287 H   0  0  0  0  0  0  0  0  0  0  0  0  # atno 10764 bound_to 10752
  154.4257  135.6048  153.6092 H   0  0  0  0  0  0  0  0  0  0  0  0  # atno 10765 bound_to 10752
  140.9793  133.7065  156.1655 H   0  0  0  0  0  0  0  0  0  0  0  0  # atno 11005 bound_to 11000
  145.6021  141.0353  143.2012 LP  0  0  0  0  0  0  0  0  0  0  0  0  # atno 17320 bound_to 7965
  144.7367  139.7566  143.7326 LP  0  0  0  0  0  0  0  0  0  0  0  0  # atno 17321 bound_to 7965
  140.6794  143.2319  151.5424 LP  0  0  0  0  0  0  0  0  0  0  0  0  # atno 17342 bound_to 10162
  139.5500  144.2421  152.1513 LP  0  0  0  0  0  0  0  0  0  0  0  0  # atno 17343 bound_to 10162
  157.1365  131.0285  151.2947 LP  0  0  0  0  0  0  0  0  0  0  0  0  # atno 17370 bound_to 10713
  157.4508  130.7597  149.7149 LP  0  0  0  0  0  0  0  0  0  0  0  0  # atno 17371 bound_to 10713
  140.7211  134.4357  157.5574 LP  0  0  0  0  0  0  0  0  0  0  0  0  # atno 17394 bound_to 11000
  139.8943  134.8709  156.2182 LP  0  0  0  0  0  0  0  0  0  0  0  0  # atno 17395 bound_to 11000

$$$$
