#       Name:                AV-unprocessed.smi:3202
#       Creating user name   scv26
#       Creation time:       Fri Mar 27 18:07:48 2020


#       File generated by GOLD software.
#

@<TRIPOS>MOLECULE
AV-unprocessed.smi:3202
    44    45     1
SMALL
NO_CHARGES


@<TRIPOS>ATOM
      1 ****        -6.1563  -0.1602  -0.9387 C.3            1 S1                 0.0000
      2 ****        -4.7815  -0.7144  -0.7770 C.2            1 S1                 0.0000
      3 ****        -3.5510  -0.1510  -0.9667 C.2            1 S1                 0.0000
      4 ****        -2.6321  -1.1950  -0.6525 C.2            1 S1                 0.0000
      5 ****        -1.1282  -1.1411  -0.6858 C.3            1 S1                 0.0000
      6 ****        -0.4944  -0.6884   0.6483 C.3            1 S1                 0.0000
      7 ****        -0.8448  -1.6139   1.8253 C.3            1 S1                 0.0000
      8 ****         0.9786  -0.6210   0.5147 N.4            1 S1                 1.0000
      9 ****         1.5574   0.7349   0.3641 C.3            1 S1                 0.0000
     10 ****         1.2293   1.4080  -0.9743 C.3            1 S1                 0.0000
     11 ****         2.3395   2.4448  -1.1859 C.3            1 S1                 0.0000
     12 ****         3.4219   2.1431  -0.1368 C.3            1 S1                 0.0000
     13 ****         3.0988   0.7548   0.4472 C.3            1 S1                 0.0000
     14 ****         3.5937   0.6316   1.9007 C.3            1 S1                 0.0000
     15 ****         3.7606  -0.3432  -0.4183 C.3            1 S1                 0.0000
     16 ****        -3.2444  -2.3150  -0.2944 N.2            1 S1                 0.0000
     17 ****        -4.5529  -2.0098  -0.3742 N.pl3          1 S1                 0.0000
     18 ****        -5.2699  -2.6878  -0.1568 H              1 S1                 0.0000
     19 ****        -6.1310   0.9263  -1.0245 H              1 S1                 0.0000
     20 ****        -6.7825  -0.4151  -0.0833 H              1 S1                 0.0000
     21 ****        -6.6301  -0.5579  -1.8363 H              1 S1                 0.0000
     22 ****        -3.3376   0.8586  -1.2853 H              1 S1                 0.0000
     23 ****        -0.7313  -2.1193  -0.9616 H              1 S1                 0.0000
     24 ****        -0.8216  -0.4678  -1.4855 H              1 S1                 0.0000
     25 ****        -0.8740   0.3046   0.8948 H              1 S1                 0.0000
     26 ****        -1.9132  -1.6034   2.0410 H              1 S1                 0.0000
     27 ****        -0.3337  -1.2990   2.7360 H              1 S1                 0.0000
     28 ****        -0.5546  -2.6450   1.6209 H              1 S1                 0.0000
     29 ****         1.3687  -1.0081   1.3622 H              1 S1                 0.0000
     30 ****         1.1666   1.3643   1.1661 H              1 S1                 0.0000
     31 ****         1.2592   0.6800  -1.7859 H              1 S1                 0.0000
     32 ****         0.2370   1.8607  -0.9763 H              1 S1                 0.0000
     33 ****         2.7409   2.3686  -2.1973 H              1 S1                 0.0000
     34 ****         1.9606   3.4600  -1.0619 H              1 S1                 0.0000
     35 ****         4.4279   2.2009  -0.5547 H              1 S1                 0.0000
     36 ****         3.3651   2.9002   0.6470 H              1 S1                 0.0000
     37 ****         4.6786   0.7281   1.9563 H              1 S1                 0.0000
     38 ****         3.3265  -0.3348   2.3293 H              1 S1                 0.0000
     39 ****         3.1636   1.4034   2.5400 H              1 S1                 0.0000
     40 ****         4.8463  -0.2417  -0.4139 H              1 S1                 0.0000
     41 ****         3.4381  -0.2976  -1.4586 H              1 S1                 0.0000
     42 ****         3.5336  -1.3427  -0.0466 H              1 S1                 0.0000
     43 ****         1.2707  -1.2006  -0.2591 H              1 S1                 0.0000
     44 ****        -2.8301  -3.1849  -0.0270 LP             1 S1                 0.0000
@<TRIPOS>BOND
    1    1    2 1     
    2    1   19 1     
    3    1   20 1     
    4    1   21 1     
    5    2   17 1     
    6    2    3 2     
    7    3    4 1     
    8    3   22 1     
    9    4    5 1     
   10    4   16 2     
   11    5    6 1     
   12    5   23 1     
   13    5   24 1     
   14    6    7 1     
   15    6    8 1     
   16    6   25 1     
   17    7   26 1     
   18    7   27 1     
   19    7   28 1     
   20    8    9 1     
   21    8   29 1     
   22    8   43 1     
   23    9   13 1     
   24    9   10 1     
   25    9   30 1     
   26   10   11 1     
   27   10   31 1     
   28   10   32 1     
   29   11   12 1     
   30   11   33 1     
   31   11   34 1     
   32   12   13 1     
   33   12   35 1     
   34   12   36 1     
   35   13   14 1     
   36   13   15 1     
   37   14   37 1     
   38   14   38 1     
   39   14   39 1     
   40   15   40 1     
   41   15   41 1     
   42   15   42 1     
   43   16   17 1     
   44   17   18 1     
   45   16   44 1     
@<TRIPOS>SUBSTRUCTURE
      1 S1             1
@<TRIPOS>SET
LONE_PAIRS      STATIC     ATOMS    <user>   **** ""
1 44
DONOR_HYDROGENS      STATIC     ATOMS    <user>   **** ""
3 29 43 18
ATOM$BLUE        STATIC     ATOMS    COLORGROUP SYSTEM
1 44
ATOM$RED        STATIC     ATOMS    COLORGROUP SYSTEM
3 29 43 18
