AV-unprocessed.smi:3334|AV-procd|sdf|12836|dock8
  -GOLD-   2272019223D 1   1.00000     0.00000
 Structure written by MMmdl.
 41 42  0  0  0  0  0  0  0  0  1 V2000
  152.3704  144.0074  161.7499 C   0  0  0  0  0  0  0  0  0  0  0  0
  152.3583  144.0700  160.2157 C   0  0  0  0  0  0  0  0  0  0  0  0
  151.2993  145.0409  159.6776 C   0  0  0  0  0  0  0  0  0  0  0  0
  152.2326  142.7115  159.5985 C   0  0  0  0  0  0  0  0  0  0  0  0
  151.1797  142.3373  158.8675 N   0  0  0  0  0  0  0  0  0  0  0  0
  151.2811  141.0238  158.3974 C   0  0  0  0  0  0  0  0  0  0  0  0
  150.1582  140.4324  157.5914 C   0  0  0  0  0  0  0  0  0  0  0  0
  149.7816  141.2731  156.3566 C   0  0  0  0  0  0  0  0  0  0  0  0
  148.3372  141.4601  156.2563 N   0  0  0  0  0  0  0  0  0  0  0  0
  147.5958  141.1923  155.1722 C   0  0  0  0  0  0  0  0  0  0  0  0
  148.0746  140.9202  154.0711 O   0  0  0  0  0  0  0  0  0  0  0  0
  146.0770  141.1923  155.3744 C   0  0  0  0  0  0  0  0  0  0  0  0
  145.5342  142.5436  155.8912 C   0  0  1  0  0  0  0  0  0  0  0  0
  144.4151  143.1179  155.0541 C   0  0  0  0  0  0  0  0  0  0  0  0
  143.3496  143.4492  155.7786 C   0  0  0  0  0  0  0  0  0  0  0  0
  143.5343  143.1545  157.2410 C   0  0  0  0  0  0  0  0  0  0  0  0
  144.9098  142.4535  157.3071 C   0  0  0  0  0  0  0  0  0  0  0  0
  152.4322  140.3943  158.8000 C   0  0  0  0  0  0  0  0  0  0  0  0
  153.4262  141.4288  159.7893 S   0  0  0  0  0  0  0  0  0  0  0  0
  153.1713  143.3605  162.1095 H   0  0  0  0  0  0  0  0  0  0  0  0
  151.4286  143.6221  162.1414 H   0  0  0  0  0  0  0  0  0  0  0  0
  152.5270  144.9963  162.1812 H   0  0  0  0  0  0  0  0  0  0  0  0
  153.3289  144.4662  159.9135 H   0  0  0  0  0  0  0  0  0  0  0  0
  151.3596  145.1225  158.5918 H   0  0  0  0  0  0  0  0  0  0  0  0
  151.4355  146.0402  160.0911 H   0  0  0  0  0  0  0  0  0  0  0  0
  150.2926  144.7108  159.9344 H   0  0  0  0  0  0  0  0  0  0  0  0
  150.4373  139.4313  157.2597 H   0  0  0  0  0  0  0  0  0  0  0  0
  149.2760  140.2960  158.2175 H   0  0  0  0  0  0  0  0  0  0  0  0
  150.2794  142.2427  156.3858 H   0  0  0  0  0  0  0  0  0  0  0  0
  150.1495  140.7581  155.4676 H   0  0  0  0  0  0  0  0  0  0  0  0
  147.8519  141.6851  157.1130 H   0  0  0  0  0  0  0  0  0  0  0  0
  145.5857  140.9355  154.4342 H   0  0  0  0  0  0  0  0  0  0  0  0
  145.8263  140.3999  156.0802 H   0  0  0  0  0  0  0  0  0  0  0  0
  146.3388  143.2805  155.9013 H   0  0  0  0  0  0  0  0  0  0  0  0
  144.5009  143.2554  153.9859 H   0  0  0  0  0  0  0  0  0  0  0  0
  142.4441  143.8896  155.3881 H   0  0  0  0  0  0  0  0  0  0  0  0
  143.5271  144.0850  157.8093 H   0  0  0  0  0  0  0  0  0  0  0  0
  142.7334  142.5128  157.6092 H   0  0  0  0  0  0  0  0  0  0  0  0
  144.7711  141.4126  157.6022 H   0  0  0  0  0  0  0  0  0  0  0  0
  145.5559  142.9121  158.0562 H   0  0  0  0  0  0  0  0  0  0  0  0
  152.7454  139.3822  158.5913 H   0  0  0  0  0  0  0  0  0  0  0  0
  1  2  1  0  0  0  0
  1 20  1  0  0  0  0
  1 21  1  0  0  0  0
  1 22  1  0  0  0  0
  2  3  1  0  0  0  0
  2  4  1  0  0  0  0
  2 23  1  0  0  0  0
  3 24  1  0  0  0  0
  3 25  1  0  0  0  0
  3 26  1  0  0  0  0
  4 19  1  0  0  0  0
  4  5  2  0  0  0  0
  5  6  1  0  0  0  0
  6  7  1  0  0  0  0
  6 18  2  0  0  0  0
  7  8  1  0  0  0  0
  7 27  1  0  0  0  0
  7 28  1  0  0  0  0
  8  9  1  0  0  0  0
  8 29  1  0  0  0  0
  8 30  1  0  0  0  0
  9 10  1  0  0  0  0
  9 31  1  0  0  0  0
 10 11  2  0  0  0  0
 10 12  1  0  0  0  0
 12 13  1  0  0  0  0
 12 32  1  0  0  0  0
 12 33  1  0  0  0  0
 13 17  1  0  0  0  0
 13 14  1  0  0  0  0
 13 34  1  0  0  0  0
 14 15  2  0  0  0  0
 14 35  1  0  0  0  0
 15 16  1  0  0  0  0
 15 36  1  0  0  0  0
 16 17  1  0  0  0  0
 16 37  1  0  0  0  0
 16 38  1  0  0  0  0
 17 39  1  0  0  0  0
 17 40  1  0  0  0  0
 18 19  1  0  0  0  0
 18 41  1  0  0  0  0
M  END
> <s_m_source_file>
AV-unprocessed.smi

> <i_m_source_file_index>
3334

> <i_lp_mmshare_version>
43012

> <i_f3d_flags>
0

> <s_epik_input>
W0NIM11bQ0hdKFtDSDNdKWMxbmMoW2NIXXMxKVtDSDJdW0NIMl1bTkhdQyg9TylbQ0gyXVtDQEBIXTJbQ0hdPVtDSF1bQ0gyXVtDSDJdMg==

> <s_epik_cmdline>
J2VwaWtfcHl0aG9uJywgJy1waCcsICc3LjAnLCAnLXRuJywgJzgnLCAnLW1hJywgJzIwMCcsICctbWV0YWxfYmluZGluZycsICctaW1hZScsICc8aW5maWxlLm1hZT4nLCAnLW9tYWUnLCAnPG91dGZpbGUubWFlPic=

> <r_epik_Ionization_Penalty>
0.000771592

> <r_epik_Ionization_Penalty_Charging>
0

> <r_epik_Ionization_Penalty_Neutral>
0.000771592

> <r_epik_State_Penalty>
0.000494253

> <r_epik_Charging_Adjusted_Penalty>
0.000494253

> <i_epik_Tot_Q>
0

> <i_epik_Tot_abs_Q>
0

> <r_epik_Metal_State_Penalty>
-0

> <b_epik_Metal_Only>
0

> <s_lp_Force_Field>
OPLS_2005

> <r_lp_Energy>
5.93023

> <b_lp_Chiralities_Consistent>
1

> <s_lp_Variant>
AV-unprocessed.smi:3334-2

> <Gold.Version>
5.8.1

> <Gold.Id.Protein>
6NUR|6NUR_protein|mol2

> <Gold.PLP.Fitness>
44.6982

> <Gold.PLP.PLP>
-44.1191

> <Gold.PLP.part.hbond>
-3.0000

> <Gold.PLP.part.metal>
0.0000

> <Gold.PLP.part.buried>
-5.5473

> <Gold.PLP.part.nonpolar>
-40.1475

> <Gold.PLP.part.repulsive>
4.4855

> <Gold.PLP.ligand.clash>
0.0000

> <Gold.PLP.ligand.torsion>
1.2652

> <Gold.PLP.Chemscore.Hbond>
1.0000

> <Gold.PLP.Chemscore.CHOScore>
0.0000

> <Gold.PLP.Chemscore.Metal>
0.0000

> <Gold.PLP.Chemscore.Internal.Correction>
0.1096

> <Gold.Rescore>
     Score         DG    S(hbond)    S(metal)    S(lipo)     H(rot)  DE(clash)    DE(int)     intcor
     15.55     -18.37       0.95        0.00     116.20       1.52       1.63       1.19       ----

> <Gold.Chemscore.Fitness>
15.5503

> <Gold.Chemscore.DG>
-18.3732

> <Gold.Chemscore.ZeroCoef>
-5.4800

> <Gold.Chemscore.Hbond>
0.9518

> <Gold.Chemscore.Metal>
0.0000

> <Gold.Chemscore.Lipo>
116.2022

> <Gold.Chemscore.Internal_Hbond>
0.0000

> <Gold.Chemscore.DEClash>
1.6291

> <Gold.Chemscore.DEInternal>
1.1939

> <Gold.Chemscore.Rot>
1.5162

> <Gold.Chemscore.Internal.Correction>
   9.000000E+99

> <Gold.Chemscore.Hbond.Weighted>
-3.1791

> <Gold.Chemscore.Metal.Weighted>
-0.0000

> <Gold.Chemscore.Lipo.Weighted>
-13.5957

> <Gold.Chemscore.Internal_Hbond.Weighted>
0.0000

> <Gold.Chemscore.DEClash.Weighted>
1.6291

> <Gold.Chemscore.DEInternal.Weighted>
1.1939

> <Gold.Chemscore.Rot.Weighted>
3.8815

> <Gold.Chemscore.Internal.Correction.Weighted>
   9.000000E+99

> <Gold.Protein.RotatedTorsions>
[ 6907 6896 6895 6894 ] final  -48.24 input  -60.11 | X-H torsion
[ 7974 7965 7964 7962 ] final   59.59 input  175.53 | X-H torsion
[ 8008 7997 7996 7995 ] final  -61.76 input   59.86 | X-H torsion
[ 10167 10162 10161 10158 ] final   55.86 input  -65.29 | X-H torsion
[ 10718 10713 10712 10709 ] final -143.39 input   66.30 | X-H torsion
[ 10763 10752 10751 10750 ] final -171.65 input  -60.55 | X-H torsion
[ 11005 11000 10999 10996 ] final  146.20 input  -57.11 | X-H torsion

> <Gold.Protein.ActiveResidues>
 VAL166  LYS551  ARG553  GLY616  TRP617  ASP618  TYR619  PRO620  LYS621  CYS622 
 ASP623  PHE694  ASN695  SER759  ASP760  ASP761  ALA762  ILE779  LEU786  VAL792 
 PHE793  MET794  SER795  GLU796  ALA797  LYS798  CYS799  TRP800  GLU811  SER814 

> <Gold.Protein.RotatedAtoms>
  150.8926  134.8331  159.7303 H   0  0  0  0  0  0  0  0  0  0  0  0  # atno 6907 bound_to 6896
  152.4846  134.4625  159.9619 H   0  0  0  0  0  0  0  0  0  0  0  0  # atno 6908 bound_to 6896
  151.4685  133.3536  159.2855 H   0  0  0  0  0  0  0  0  0  0  0  0  # atno 6909 bound_to 6896
  145.9054  139.3613  143.0567 H   0  0  0  0  0  0  0  0  0  0  0  0  # atno 7974 bound_to 7965
  154.4464  140.1011  156.6481 H   0  0  0  0  0  0  0  0  0  0  0  0  # atno 8008 bound_to 7997
  155.5428  140.3484  155.4432 H   0  0  0  0  0  0  0  0  0  0  0  0  # atno 8009 bound_to 7997
  156.0585  140.1321  156.9958 H   0  0  0  0  0  0  0  0  0  0  0  0  # atno 8010 bound_to 7997
  140.2149  144.3849  150.6473 H   0  0  0  0  0  0  0  0  0  0  0  0  # atno 10167 bound_to 10162
  156.3574  130.7720  151.1882 H   0  0  0  0  0  0  0  0  0  0  0  0  # atno 10718 bound_to 10713
  154.6282  135.2883  155.0248 H   0  0  0  0  0  0  0  0  0  0  0  0  # atno 10763 bound_to 10752
  154.1418  135.6517  153.4948 H   0  0  0  0  0  0  0  0  0  0  0  0  # atno 10764 bound_to 10752
  153.0267  135.5334  154.7098 H   0  0  0  0  0  0  0  0  0  0  0  0  # atno 10765 bound_to 10752
  140.0773  134.9117  157.1444 H   0  0  0  0  0  0  0  0  0  0  0  0  # atno 11005 bound_to 11000
  145.8738  140.9404  143.0637 LP  0  0  0  0  0  0  0  0  0  0  0  0  # atno 17320 bound_to 7965
  144.6739  140.0690  143.7473 LP  0  0  0  0  0  0  0  0  0  0  0  0  # atno 17321 bound_to 7965
  140.6296  143.2186  151.6523 LP  0  0  0  0  0  0  0  0  0  0  0  0  # atno 17342 bound_to 10162
  139.5166  144.3343  152.0798 LP  0  0  0  0  0  0  0  0  0  0  0  0  # atno 17343 bound_to 10162
  157.7469  131.0410  150.4625 LP  0  0  0  0  0  0  0  0  0  0  0  0  # atno 17370 bound_to 10713
  156.4830  130.4078  149.6450 LP  0  0  0  0  0  0  0  0  0  0  0  0  # atno 17371 bound_to 10713
  140.3538  134.2569  155.7195 LP  0  0  0  0  0  0  0  0  0  0  0  0  # atno 17394 bound_to 11000
  141.2034  133.7912  157.0340 LP  0  0  0  0  0  0  0  0  0  0  0  0  # atno 17395 bound_to 11000

$$$$
