AV-unprocessed.smi:126|AV-procd|sdf|1151|dock8
  -GOLD-   2262018283D 1   1.00000     0.00000
 Structure written by MMmdl.
 40 42  0  0  0  0  0  0  0  0  1 V2000
  151.7454  140.5916  158.0295 O   0  0  0  0  0  0  0  0  0  0  0  0
  151.4985  141.7663  157.7529 C   0  0  0  0  0  0  0  0  0  0  0  0
  150.9510  142.1410  156.3666 C   0  0  0  0  0  0  0  0  0  0  0  0
  150.4381  140.9831  155.6019 N   0  0  0  0  0  0  0  0  0  0  0  0
  151.3086  139.8962  155.3401 C   0  0  0  0  0  0  0  0  0  0  0  0
  152.4770  139.9046  155.7300 O   0  0  0  0  0  0  0  0  0  0  0  0
  150.7241  138.7868  154.5950 C   0  0  0  0  0  0  0  0  0  0  0  0
  151.4786  137.7160  154.2950 F   0  0  0  0  0  0  0  0  0  0  0  0
  149.4345  138.8169  154.2001 C   0  0  0  0  0  0  0  0  0  0  0  0
  148.5933  139.8806  154.4723 N   0  0  0  0  0  0  0  0  0  0  0  0
  147.1446  139.8913  154.0352 C   0  0  2  0  0  0  0  0  0  0  0  0
  146.3770  138.7255  154.6831 C   0  0  0  0  0  0  0  0  0  0  0  0
  145.6588  138.1063  153.5013 C   0  0  0  0  0  0  0  0  0  0  0  0
  146.6235  138.3992  152.3619 C   0  0  0  0  0  0  0  0  0  0  0  0
  147.0651  139.7201  152.6484 O   0  0  0  0  0  0  0  0  0  0  0  0
  149.0849  140.9931  155.1883 C   0  0  0  0  0  0  0  0  0  0  0  0
  148.3477  141.9456  155.4524 O   0  0  0  0  0  0  0  0  0  0  0  0
  151.7067  142.8044  158.5832 N   0  0  0  0  0  0  0  0  0  0  0  0
  152.1819  142.7886  159.9224 C   0  0  0  0  0  0  0  0  0  0  0  0
  153.0407  141.7317  160.2911 C   0  0  0  0  0  0  0  0  0  0  0  0
  153.5666  141.6599  161.5954 C   0  0  0  0  0  0  0  0  0  0  0  0
  153.2456  142.6527  162.5399 C   0  0  0  0  0  0  0  0  0  0  0  0
  152.4037  143.7205  162.1766 C   0  0  0  0  0  0  0  0  0  0  0  0
  151.8765  143.7940  160.8724 C   0  0  0  0  0  0  0  0  0  0  0  0
  150.1695  142.8937  156.4863 H   0  0  0  0  0  0  0  0  0  0  0  0
  151.7375  142.6632  155.8198 H   0  0  0  0  0  0  0  0  0  0  0  0
  149.0638  137.9650  153.6514 H   0  0  0  0  0  0  0  0  0  0  0  0
  146.7592  140.8790  154.2943 H   0  0  0  0  0  0  0  0  0  0  0  0
  147.0764  138.0107  155.1199 H   0  0  0  0  0  0  0  0  0  0  0  0
  145.7026  139.0835  155.4615 H   0  0  0  0  0  0  0  0  0  0  0  0
  145.4596  137.0424  153.6309 H   0  0  0  0  0  0  0  0  0  0  0  0
  144.7100  138.6158  153.3286 H   0  0  0  0  0  0  0  0  0  0  0  0
  147.4667  137.7076  152.3814 H   0  0  0  0  0  0  0  0  0  0  0  0
  146.1508  138.3385  151.3813 H   0  0  0  0  0  0  0  0  0  0  0  0
  151.5586  143.7214  158.1875 H   0  0  0  0  0  0  0  0  0  0  0  0
  153.2964  140.9654  159.5737 H   0  0  0  0  0  0  0  0  0  0  0  0
  154.2180  140.8437  161.8707 H   0  0  0  0  0  0  0  0  0  0  0  0
  153.6501  142.5993  163.5399 H   0  0  0  0  0  0  0  0  0  0  0  0
  152.1657  144.4887  162.8974 H   0  0  0  0  0  0  0  0  0  0  0  0
  151.2530  144.6377  160.6198 H   0  0  0  0  0  0  0  0  0  0  0  0
  1  2  2  0  0  0  0
  2  3  1  0  0  0  0
  2 18  1  0  0  0  0
  3  4  1  0  0  0  0
  3 25  1  0  0  0  0
  3 26  1  0  0  0  0
  4 16  1  0  0  0  0
  4  5  1  0  0  0  0
  5  6  2  0  0  0  0
  5  7  1  0  0  0  0
  7  8  1  0  0  0  0
  7  9  2  0  0  0  0
  9 10  1  0  0  0  0
  9 27  1  0  0  0  0
 10 11  1  0  0  0  0
 10 16  1  0  0  0  0
 11 15  1  0  0  0  0
 11 12  1  0  0  0  0
 11 28  1  0  0  0  0
 12 13  1  0  0  0  0
 12 29  1  0  0  0  0
 12 30  1  0  0  0  0
 13 14  1  0  0  0  0
 13 31  1  0  0  0  0
 13 32  1  0  0  0  0
 14 15  1  0  0  0  0
 14 33  1  0  0  0  0
 14 34  1  0  0  0  0
 16 17  2  0  0  0  0
 18 19  1  0  0  0  0
 18 35  1  0  0  0  0
 19 24  1  0  0  0  0
 19 20  2  0  0  0  0
 20 21  1  0  0  0  0
 20 36  1  0  0  0  0
 21 22  2  0  0  0  0
 21 37  1  0  0  0  0
 22 23  1  0  0  0  0
 22 38  1  0  0  0  0
 23 24  2  0  0  0  0
 23 39  1  0  0  0  0
 24 40  1  0  0  0  0
M  END
> <s_m_source_file>
AV-unprocessed.smi

> <i_m_source_file_index>
126

> <i_lp_mmshare_version>
43012

> <i_f3d_flags>
0

> <s_epik_input>
W2NIXTFbY0hdW2NIXVtjSF1bY0hdYzFbTkhdQyg9TylbQ0gyXW4yYyg9TyljKEYpW2NIXW4oYzI9TylbQ0BASF0zW0NIMl1bQ0gyXVtDSDJdTzM=

> <s_epik_cmdline>
J2VwaWtfcHl0aG9uJywgJy1waCcsICc3LjAnLCAnLXRuJywgJzgnLCAnLW1hJywgJzIwMCcsICctbWV0YWxfYmluZGluZycsICctaW1hZScsICc8aW5maWxlLm1hZT4nLCAnLW9tYWUnLCAnPG91dGZpbGUubWFlPic=

> <r_lp_tautomer_probability>
1

> <r_epik_Ionization_Penalty>
1.86934e-06

> <r_epik_Ionization_Penalty_Charging>
3.88729e-08

> <r_epik_Ionization_Penalty_Neutral>
1.83046e-06

> <r_epik_State_Penalty>
-0

> <r_epik_Charging_Adjusted_Penalty>
3.88729e-08

> <i_epik_Tot_Q>
0

> <i_epik_Tot_abs_Q>
0

> <r_epik_Metal_State_Penalty>
-0

> <b_epik_Metal_Only>
0

> <s_epik_Chemistry_Notes>
This compound contains an acetal/aminal-like group ( X-CH(R)-Y where X, Y are N, S, or O) that may be acid/base labile, releasing an aldehyde.

> <s_lp_Force_Field>
OPLS_2005

> <r_lp_Energy>
33.0924

> <b_lp_Chiralities_Consistent>
1

> <s_lp_Variant>
AV-unprocessed.smi:126-1

> <Gold.Version>
5.8.1

> <Gold.Id.Protein>
6NUR|6NUR_protein|mol2

> <Gold.PLP.Fitness>
56.2270

> <Gold.PLP.PLP>
-50.9189

> <Gold.PLP.part.hbond>
-1.1524

> <Gold.PLP.part.metal>
0.0000

> <Gold.PLP.part.buried>
-4.3800

> <Gold.PLP.part.nonpolar>
-46.8299

> <Gold.PLP.part.repulsive>
3.2141

> <Gold.PLP.ligand.clash>
0.0000

> <Gold.PLP.ligand.torsion>
0.3536

> <Gold.PLP.Chemscore.Hbond>
1.0000

> <Gold.PLP.Chemscore.CHOScore>
1.0000

> <Gold.PLP.Chemscore.Metal>
0.0000

> <Gold.Chemscore.Hbonds>
donor molecule, donor type, donor heavy atom, donor atom, acceptor molecule, acceptor atom, score
      P1  H  7997  8008       L1     6  1.00
      L1  C     9    27       P1  7948  1.00

> <Gold.PLP.Chemscore.Internal.Correction>
0.0153

> <Gold.Rescore>
     Score         DG    S(hbond)    S(metal)    S(lipo)     H(rot)  DE(clash)    DE(int)     intcor
      7.29     -15.13       0.71        0.00      98.63       1.66       1.93       5.91       ----

> <Gold.Chemscore.Fitness>
7.2930

> <Gold.Chemscore.DG>
-15.1301

> <Gold.Chemscore.ZeroCoef>
-5.4800

> <Gold.Chemscore.Hbond>
0.7080

> <Gold.Chemscore.Metal>
0.0000

> <Gold.Chemscore.Lipo>
98.6349

> <Gold.Chemscore.Internal_Hbond>
0.0000

> <Gold.Chemscore.DEClash>
1.9274

> <Gold.Chemscore.DEInternal>
5.9097

> <Gold.Chemscore.Rot>
1.6621

> <Gold.Chemscore.Internal.Correction>
   9.000000E+99

> <Gold.Chemscore.Hbonds>
donor molecule, donor type, donor heavy atom, donor atom, acceptor molecule, acceptor atom, score
      P1  H  7997  8008       L1     6  0.99

> <Gold.Chemscore.Hbond.Weighted>
-2.3648

> <Gold.Chemscore.Metal.Weighted>
-0.0000

> <Gold.Chemscore.Lipo.Weighted>
-11.5403

> <Gold.Chemscore.Internal_Hbond.Weighted>
0.0000

> <Gold.Chemscore.DEClash.Weighted>
1.9274

> <Gold.Chemscore.DEInternal.Weighted>
5.9097

> <Gold.Chemscore.Rot.Weighted>
4.2550

> <Gold.Chemscore.Internal.Correction.Weighted>
   9.000000E+99

> <Gold.Protein.RotatedTorsions>
[ 6907 6896 6895 6894 ] final   27.19 input  -60.11 | X-H torsion
[ 7974 7965 7964 7962 ] final  174.05 input  175.53 | X-H torsion
[ 8008 7997 7996 7995 ] final  -33.05 input   59.86 | X-H torsion
[ 10167 10162 10161 10158 ] final -167.51 input  -65.29 | X-H torsion
[ 10718 10713 10712 10709 ] final   24.84 input   66.30 | X-H torsion
[ 10763 10752 10751 10750 ] final  -61.65 input  -60.55 | X-H torsion
[ 11005 11000 10999 10996 ] final   -1.85 input  -57.11 | X-H torsion

> <Gold.Protein.ActiveResidues>
 VAL166  LYS551  ARG553  GLY616  TRP617  ASP618  TYR619  PRO620  LYS621  CYS622 
 ASP623  PHE694  ASN695  SER759  ASP760  ASP761  ALA762  ILE779  LEU786  VAL792 
 PHE793  MET794  SER795  GLU796  ALA797  LYS798  CYS799  TRP800  GLU811  SER814 

> <Gold.Protein.RotatedAtoms>
  151.9985  134.9941  160.0563 H   0  0  0  0  0  0  0  0  0  0  0  0  # atno 6907 bound_to 6896
  152.1541  133.4535  159.4836 H   0  0  0  0  0  0  0  0  0  0  0  0  # atno 6908 bound_to 6896
  150.6879  134.2070  159.4387 H   0  0  0  0  0  0  0  0  0  0  0  0  # atno 6909 bound_to 6896
  144.7230  139.9740  143.6437 H   0  0  0  0  0  0  0  0  0  0  0  0  # atno 7974 bound_to 7965
  154.4161  140.1721  156.1826 H   0  0  0  0  0  0  0  0  0  0  0  0  # atno 8008 bound_to 7997
  155.9670  140.3389  155.6517 H   0  0  0  0  0  0  0  0  0  0  0  0  # atno 8009 bound_to 7997
  155.6675  140.0708  157.2523 H   0  0  0  0  0  0  0  0  0  0  0  0  # atno 8010 bound_to 7997
  139.6044  144.0942  152.1778 H   0  0  0  0  0  0  0  0  0  0  0  0  # atno 10167 bound_to 10162
  157.1853  130.6821  149.6128 H   0  0  0  0  0  0  0  0  0  0  0  0  # atno 10718 bound_to 10713
  154.2879  135.6259  153.5373 H   0  0  0  0  0  0  0  0  0  0  0  0  # atno 10763 bound_to 10752
  152.9856  135.5648  154.5423 H   0  0  0  0  0  0  0  0  0  0  0  0  # atno 10764 bound_to 10752
  154.5027  135.2873  155.1383 H   0  0  0  0  0  0  0  0  0  0  0  0  # atno 10765 bound_to 10752
  140.6519  133.9397  155.8385 H   0  0  0  0  0  0  0  0  0  0  0  0  # atno 11005 bound_to 11000
  146.0540  139.3539  143.0622 LP  0  0  0  0  0  0  0  0  0  0  0  0  # atno 17320 bound_to 7965
  145.8178  140.9694  143.0915 LP  0  0  0  0  0  0  0  0  0  0  0  0  # atno 17321 bound_to 7965
  140.0546  144.5905  150.7309 LP  0  0  0  0  0  0  0  0  0  0  0  0  # atno 17342 bound_to 10162
  140.7274  143.2651  151.4072 LP  0  0  0  0  0  0  0  0  0  0  0  0  # atno 17343 bound_to 10162
  155.9719  130.4633  150.6177 LP  0  0  0  0  0  0  0  0  0  0  0  0  # atno 17370 bound_to 10713
  157.3913  131.0796  151.1391 LP  0  0  0  0  0  0  0  0  0  0  0  0  # atno 17371 bound_to 10713
  141.0530  134.0457  157.3759 LP  0  0  0  0  0  0  0  0  0  0  0  0  # atno 17394 bound_to 11000
  139.9043  135.0175  156.7413 LP  0  0  0  0  0  0  0  0  0  0  0  0  # atno 17395 bound_to 11000

$$$$
