AV-unprocessed.smi:153|AV-procd|sdf|1255|dock1
  -GOLD-   2262018493D 1   1.00000     0.00000
 Structure written by MMmdl.
 60 63  0  0  0  0  0  0  0  0  2 V2000
  149.4183  144.2760  159.2815 C   0  0  0  0  0  0  0  0  0  0  0  0
  150.6318  144.1957  158.3407 C   0  0  1  0  0  0  0  0  0  0  0  0
  151.6336  145.0804  158.8382 O   0  0  0  0  0  0  0  0  0  0  0  0
  152.9119  144.5252  158.5844 C   0  0  0  0  0  0  0  0  0  0  0  0
  152.6812  143.0456  158.8407 C   0  0  0  0  0  0  0  0  0  0  0  0
  151.3124  142.8049  158.2042 C   0  0  1  0  0  0  0  0  0  0  0  0
  150.6478  141.7963  158.9457 O   0  0  0  0  0  0  0  0  0  0  0  0
  151.3772  142.3601  156.7178 C   0  0  0  0  0  0  0  0  0  0  0  0
  150.1454  141.7721  156.2111 N   0  0  0  0  0  0  0  0  0  0  0  0
  148.8651  142.2001  156.4730 C   0  0  0  0  0  0  0  0  0  0  0  0
  147.9218  141.5142  155.8902 N   0  0  0  0  0  0  0  0  0  0  0  0
  148.5938  140.5177  155.1891 C   0  0  0  0  0  0  0  0  0  0  0  0
  148.1938  139.4412  154.3371 C   0  0  0  0  0  0  0  0  0  0  0  0
  146.9076  139.1373  154.0013 N   0  0  0  0  0  0  0  0  0  0  0  0
  145.8031  139.8211  154.6634 C   0  0  0  0  0  0  0  0  0  0  0  0
  146.6408  138.4823  152.7184 C   0  0  0  0  0  0  0  0  0  0  0  0
  145.2713  137.7729  152.6889 C   0  0  1  0  0  0  0  0  0  0  0  0
  144.3207  138.6592  152.1308 O   0  0  0  0  0  0  0  0  0  0  0  0
  145.3075  136.5132  151.8002 C   0  0  0  0  0  0  0  0  0  0  0  0
  146.2934  135.5059  152.2698 N   0  3  0  0  0  0  0  0  0  0  0  0
  146.2272  135.2885  153.7347 C   0  0  0  0  0  0  0  0  0  0  0  0
  147.3097  134.2912  154.1806 C   0  0  0  0  0  0  0  0  0  0  0  0
  147.1528  133.0689  153.4709 O   0  0  0  0  0  0  0  0  0  0  0  0
  147.2992  133.2463  152.0677 C   0  0  0  0  0  0  0  0  0  0  0  0
  146.2167  134.2094  151.5513 C   0  0  0  0  0  0  0  0  0  0  0  0
  149.1861  138.6690  153.8191 N   0  0  0  0  0  0  0  0  0  0  0  0
  150.4671  138.9147  154.1040 C   0  0  0  0  0  0  0  0  0  0  0  0
  150.9786  139.8774  154.8696 N   0  0  0  0  0  0  0  0  0  0  0  0
  149.9978  140.6658  155.3923 C   0  0  0  0  0  0  0  0  0  0  0  0
  148.6080  143.6327  158.9378 H   0  0  0  0  0  0  0  0  0  0  0  0
  149.0321  145.2944  159.3283 H   0  0  0  0  0  0  0  0  0  0  0  0
  149.6823  143.9771  160.2966 H   0  0  0  0  0  0  0  0  0  0  0  0
  150.3319  144.5620  157.3577 H   0  0  0  0  0  0  0  0  0  0  0  0
  153.1989  144.7071  157.5477 H   0  0  0  0  0  0  0  0  0  0  0  0
  153.6732  144.9532  159.2369 H   0  0  0  0  0  0  0  0  0  0  0  0
  153.4840  142.4178  158.4578 H   0  0  0  0  0  0  0  0  0  0  0  0
  152.6341  142.8859  159.9194 H   0  0  0  0  0  0  0  0  0  0  0  0
  150.0784  141.3193  158.3616 H   0  0  0  0  0  0  0  0  0  0  0  0
  151.6359  143.2091  156.0833 H   0  0  0  0  0  0  0  0  0  0  0  0
  152.1745  141.6284  156.5805 H   0  0  0  0  0  0  0  0  0  0  0  0
  148.6517  143.0524  157.1021 H   0  0  0  0  0  0  0  0  0  0  0  0
  145.9305  139.8090  155.7462 H   0  0  0  0  0  0  0  0  0  0  0  0
  144.8550  139.3302  154.4430 H   0  0  0  0  0  0  0  0  0  0  0  0
  145.7301  140.8556  154.3268 H   0  0  0  0  0  0  0  0  0  0  0  0
  146.7542  139.1625  151.8733 H   0  0  0  0  0  0  0  0  0  0  0  0
  147.4250  137.7373  152.5812 H   0  0  0  0  0  0  0  0  0  0  0  0
  144.9714  137.5119  153.7032 H   0  0  0  0  0  0  0  0  0  0  0  0
  144.5239  138.7795  151.2151 H   0  0  0  0  0  0  0  0  0  0  0  0
  144.3104  136.0693  151.7884 H   0  0  0  0  0  0  0  0  0  0  0  0
  145.5336  136.7795  150.7663 H   0  0  0  0  0  0  0  0  0  0  0  0
  146.3663  136.2355  154.2578 H   0  0  0  0  0  0  0  0  0  0  0  0
  145.2386  134.9137  154.0051 H   0  0  0  0  0  0  0  0  0  0  0  0
  148.3084  134.6982  154.0141 H   0  0  0  0  0  0  0  0  0  0  0  0
  147.2207  134.0932  155.2488 H   0  0  0  0  0  0  0  0  0  0  0  0
  148.2974  133.6231  151.8382 H   0  0  0  0  0  0  0  0  0  0  0  0
  147.2047  132.2773  151.5773 H   0  0  0  0  0  0  0  0  0  0  0  0
  145.2287  133.7684  151.6937 H   0  0  0  0  0  0  0  0  0  0  0  0
  146.3503  134.3541  150.4800 H   0  0  0  0  0  0  0  0  0  0  0  0
  151.1845  138.2470  153.6500 H   0  0  0  0  0  0  0  0  0  0  0  0
  147.2062  135.8965  152.0824 H   0  0  0  0  0  0  0  0  0  0  0  0
  1  2  1  0  0  0  0
  1 30  1  0  0  0  0
  1 31  1  0  0  0  0
  1 32  1  0  0  0  0
  2  6  1  0  0  0  0
  2  3  1  0  0  0  0
  2 33  1  0  0  0  0
  3  4  1  0  0  0  0
  4  5  1  0  0  0  0
  4 34  1  0  0  0  0
  4 35  1  0  0  0  0
  5  6  1  0  0  0  0
  5 36  1  0  0  0  0
  5 37  1  0  0  0  0
  6  7  1  0  0  0  0
  6  8  1  0  0  0  0
  7 38  1  0  0  0  0
  8  9  1  0  0  0  0
  8 39  1  0  0  0  0
  8 40  1  0  0  0  0
  9 29  1  0  0  0  0
  9 10  1  0  0  0  0
 10 11  2  0  0  0  0
 10 41  1  0  0  0  0
 11 12  1  0  0  0  0
 12 29  2  0  0  0  0
 12 13  1  0  0  0  0
 13 14  1  0  0  0  0
 13 26  2  0  0  0  0
 14 15  1  0  0  0  0
 14 16  1  0  0  0  0
 15 42  1  0  0  0  0
 15 43  1  0  0  0  0
 15 44  1  0  0  0  0
 16 17  1  0  0  0  0
 16 45  1  0  0  0  0
 16 46  1  0  0  0  0
 17 18  1  0  0  0  0
 17 19  1  0  0  0  0
 17 47  1  0  0  0  0
 18 48  1  0  0  0  0
 19 20  1  0  0  0  0
 19 49  1  0  0  0  0
 19 50  1  0  0  0  0
 20 25  1  0  0  0  0
 20 21  1  0  0  0  0
 20 60  1  0  0  0  0
 21 22  1  0  0  0  0
 21 51  1  0  0  0  0
 21 52  1  0  0  0  0
 22 23  1  0  0  0  0
 22 53  1  0  0  0  0
 22 54  1  0  0  0  0
 23 24  1  0  0  0  0
 24 25  1  0  0  0  0
 24 55  1  0  0  0  0
 24 56  1  0  0  0  0
 25 57  1  0  0  0  0
 25 58  1  0  0  0  0
 26 27  1  0  0  0  0
 27 28  2  0  0  0  0
 27 59  1  0  0  0  0
 28 29  1  0  0  0  0
M  CHG  1  20   1
M  END
> <s_m_source_file>
AV-unprocessed.smi

> <i_m_source_file_index>
153

> <i_lp_mmshare_version>
43012

> <i_f3d_flags>
0

> <s_epik_input>
W0NIMl0xW0NIMl1PW0NAQEhdKFtDSDNdKVtDQEBdMShbT0hdKVtDSDJdbihbY0hdbjIpYyhjMjMpbltjSF1uYzNOKFtDSDNdKVtDSDJdW0NASF0oW09IXSlbQ0gyXU40W0NIMl1bQ0gyXU9bQ0gyXVtDSDJdNA==

> <s_epik_cmdline>
J2VwaWtfcHl0aG9uJywgJy1waCcsICc3LjAnLCAnLXRuJywgJzgnLCAnLW1hJywgJzIwMCcsICctbWV0YWxfYmluZGluZycsICctaW1hZScsICc8aW5maWxlLm1hZT4nLCAnLW9tYWUnLCAnPG91dGZpbGUubWFlPic=

> <r_lp_tautomer_probability>
1

> <r_epik_Ionization_Penalty>
0.403509

> <r_epik_Ionization_Penalty_Charging>
0.40072

> <r_epik_Ionization_Penalty_Neutral>
0.00278876

> <r_epik_State_Penalty>
0.400058

> <r_epik_Charging_Adjusted_Penalty>
0.800778

> <i_epik_Tot_Q>
1

> <i_epik_Tot_abs_Q>
1

> <r_epik_Metal_State_Penalty>
0.400321

> <b_epik_Metal_Only>
0

> <s_lp_Force_Field>
OPLS_2005

> <r_lp_Energy>
46.896

> <b_lp_Chiralities_Consistent>
1

> <s_lp_Variant>
AV-unprocessed.smi:153-6

> <Gold.Version>
5.8.1

> <Gold.Id.Protein>
6NUR|6NUR_protein|mol2

> <Gold.PLP.Fitness>
50.3366

> <Gold.PLP.PLP>
-39.3381

> <Gold.PLP.part.hbond>
-3.8870

> <Gold.PLP.part.metal>
0.0000

> <Gold.PLP.part.buried>
-4.3820

> <Gold.PLP.part.nonpolar>
-32.6390

> <Gold.PLP.part.repulsive>
1.0637

> <Gold.PLP.ligand.clash>
0.0000

> <Gold.PLP.ligand.torsion>
1.4802

> <Gold.PLP.Chemscore.Hbond>
3.8500

> <Gold.PLP.Chemscore.CHOScore>
0.3983

> <Gold.PLP.Chemscore.Metal>
0.0000

> <Gold.Chemscore.Hbonds>
donor molecule, donor type, donor heavy atom, donor atom, acceptor molecule, acceptor atom, score
      L1  H    18    48       P1 10171  0.80
      L1  H    20    60       P1  7948  2.00
      P1  H  7989  7998       L1    28  0.80
      L1  C    10    41       P1  8028  0.44

> <Gold.PLP.Chemscore.Internal.Correction>
1.2142

> <Gold.Rescore>
     Score         DG    S(hbond)    S(metal)    S(lipo)     H(rot)  DE(clash)    DE(int)     intcor
      9.99     -14.70       2.11        0.00      97.88       3.62       2.31       2.40       ----

> <Gold.Chemscore.Fitness>
9.9927

> <Gold.Chemscore.DG>
-14.7023

> <Gold.Chemscore.ZeroCoef>
-5.4800

> <Gold.Chemscore.Hbond>
2.1056

> <Gold.Chemscore.Metal>
0.0000

> <Gold.Chemscore.Lipo>
97.8824

> <Gold.Chemscore.Internal_Hbond>
0.0000

> <Gold.Chemscore.DEClash>
2.3050

> <Gold.Chemscore.DEInternal>
2.4046

> <Gold.Chemscore.Rot>
3.6182

> <Gold.Chemscore.Internal.Correction>
   9.000000E+99

> <Gold.Chemscore.Hbonds>
donor molecule, donor type, donor heavy atom, donor atom, acceptor molecule, acceptor atom, score
      L1  H    18    48       P1 10171  0.75
      L1  H    20    60       P1  7948  1.00
      P1  H  7989  7998       L1    28  0.05

> <Gold.Chemscore.Hbond.Weighted>
-7.0325

> <Gold.Chemscore.Metal.Weighted>
-0.0000

> <Gold.Chemscore.Lipo.Weighted>
-11.4522

> <Gold.Chemscore.Internal_Hbond.Weighted>
0.0000

> <Gold.Chemscore.DEClash.Weighted>
2.3050

> <Gold.Chemscore.DEInternal.Weighted>
2.4046

> <Gold.Chemscore.Rot.Weighted>
9.2625

> <Gold.Chemscore.Internal.Correction.Weighted>
   9.000000E+99

> <Gold.Protein.RotatedTorsions>
[ 6907 6896 6895 6894 ] final -152.24 input  -60.11 | X-H torsion
[ 7974 7965 7964 7962 ] final  -15.89 input  175.53 | X-H torsion
[ 8008 7997 7996 7995 ] final -119.77 input   59.86 | X-H torsion
[ 10167 10162 10161 10158 ] final -108.00 input  -65.29 | X-H torsion
[ 10718 10713 10712 10709 ] final -171.34 input   66.30 | X-H torsion
[ 10763 10752 10751 10750 ] final -126.74 input  -60.55 | X-H torsion
[ 11005 11000 10999 10996 ] final  -46.27 input  -57.11 | X-H torsion

> <Gold.Protein.ActiveResidues>
 VAL166  LYS551  ARG553  GLY616  TRP617  ASP618  TYR619  PRO620  LYS621  CYS622 
 ASP623  PHE694  ASN695  SER759  ASP760  ASP761  ALA762  ILE779  LEU786  VAL792 
 PHE793  MET794  SER795  GLU796  ALA797  LYS798  CYS799  TRP800  GLU811  SER814 

> <Gold.Protein.RotatedAtoms>
  151.2248  133.4482  159.2601 H   0  0  0  0  0  0  0  0  0  0  0  0  # atno 6907 bound_to 6896
  151.0850  134.9881  159.8385 H   0  0  0  0  0  0  0  0  0  0  0  0  # atno 6908 bound_to 6896
  152.5428  134.2186  159.8831 H   0  0  0  0  0  0  0  0  0  0  0  0  # atno 6909 bound_to 6896
  146.2012  140.3557  142.8422 H   0  0  0  0  0  0  0  0  0  0  0  0  # atno 7974 bound_to 7965
  155.1211  140.0398  157.2750 H   0  0  0  0  0  0  0  0  0  0  0  0  # atno 8008 bound_to 7997
  154.6613  140.2591  155.7080 H   0  0  0  0  0  0  0  0  0  0  0  0  # atno 8009 bound_to 7997
  156.2620  140.2816  156.1086 H   0  0  0  0  0  0  0  0  0  0  0  0  # atno 8010 bound_to 7997
  140.1708  143.4044  152.1355 H   0  0  0  0  0  0  0  0  0  0  0  0  # atno 10167 bound_to 10162
  156.7394  130.9337  151.3109 H   0  0  0  0  0  0  0  0  0  0  0  0  # atno 10718 bound_to 10713
  154.8748  135.3985  154.3479 H   0  0  0  0  0  0  0  0  0  0  0  0  # atno 10763 bound_to 10752
  153.4269  135.7024  153.6262 H   0  0  0  0  0  0  0  0  0  0  0  0  # atno 10764 bound_to 10752
  153.4900  135.3750  155.2456 H   0  0  0  0  0  0  0  0  0  0  0  0  # atno 10765 bound_to 10752
  141.0568  133.6723  156.3131 H   0  0  0  0  0  0  0  0  0  0  0  0  # atno 11005 bound_to 11000
  144.8688  140.7243  143.6060 LP  0  0  0  0  0  0  0  0  0  0  0  0  # atno 17320 bound_to 7965
  145.3477  139.1715  143.4451 LP  0  0  0  0  0  0  0  0  0  0  0  0  # atno 17321 bound_to 7965
  139.5338  144.7188  151.4962 LP  0  0  0  0  0  0  0  0  0  0  0  0  # atno 17342 bound_to 10162
  140.6583  143.8553  150.6859 LP  0  0  0  0  0  0  0  0  0  0  0  0  # atno 17343 bound_to 10162
  157.6825  130.9153  150.0302 LP  0  0  0  0  0  0  0  0  0  0  0  0  # atno 17370 bound_to 10713
  156.1474  130.3642  149.9489 LP  0  0  0  0  0  0  0  0  0  0  0  0  # atno 17371 bound_to 10713
  140.5948  134.5614  157.5506 LP  0  0  0  0  0  0  0  0  0  0  0  0  # atno 17394 bound_to 11000
  139.9397  134.7809  156.0710 LP  0  0  0  0  0  0  0  0  0  0  0  0  # atno 17395 bound_to 11000

$$$$
