AV-unprocessed.smi:556|AV-procd|sdf|2913|dock7
  -GOLD-   2262023403D 1   1.00000     0.00000
 Structure written by MMmdl.
 38 39  0  0  0  0  0  0  0  0  1 V2000
  152.3639  138.0825  153.7480 C   0  0  0  0  0  0  0  0  0  0  0  0
  151.2309  137.9918  154.7847 C   0  0  1  0  0  0  0  0  0  0  0  0
  151.0300  136.5683  155.3460 C   0  0  0  0  0  0  0  0  0  0  0  0
  152.0623  136.2233  156.2567 O   0  0  0  0  0  0  0  0  0  0  0  0
  152.0880  137.0997  157.3718 C   0  0  0  0  0  0  0  0  0  0  0  0
  152.4085  138.5207  156.8887 C   0  0  0  0  0  0  0  0  0  0  0  0
  151.4338  138.9690  155.8795 N   0  0  0  0  0  0  0  0  0  0  0  0
  150.8548  140.1963  155.9643 C   0  0  0  0  0  0  0  0  0  0  0  0
  150.3286  140.7644  155.0059 O   0  0  0  0  0  0  0  0  0  0  0  0
  150.8710  140.7485  157.1902 N   0  0  0  0  0  0  0  0  0  0  0  0
  150.3016  142.0444  157.5399 C   0  0  0  0  0  0  0  0  0  0  0  0
  151.3854  143.1285  157.6566 C   0  0  0  0  0  0  0  0  0  0  0  0
  151.9383  143.2027  159.0521 C   0  0  0  0  0  0  0  0  0  0  0  0
  151.8226  144.2740  159.9832 C   0  0  0  0  0  0  0  0  0  0  0  0
  152.4335  144.0269  161.1306 N   0  0  0  0  0  0  0  0  0  0  0  0
  152.9559  142.7931  160.9739 N   0  0  0  0  0  0  0  0  0  0  0  0
  153.7111  142.1951  162.0540 C   0  0  0  0  0  0  0  0  0  0  0  0
  152.6725  142.2709  159.7303 C   0  0  0  0  0  0  0  0  0  0  0  0
  152.1768  137.4149  152.9068 H   0  0  0  0  0  0  0  0  0  0  0  0
  153.3266  137.8055  154.1778 H   0  0  0  0  0  0  0  0  0  0  0  0
  152.4538  139.0939  153.3506 H   0  0  0  0  0  0  0  0  0  0  0  0
  150.3069  138.1979  154.2444 H   0  0  0  0  0  0  0  0  0  0  0  0
  150.0646  136.4933  155.8494 H   0  0  0  0  0  0  0  0  0  0  0  0
  151.0129  135.8387  154.5364 H   0  0  0  0  0  0  0  0  0  0  0  0
  151.1360  137.0700  157.9047 H   0  0  0  0  0  0  0  0  0  0  0  0
  152.8541  136.7595  158.0686 H   0  0  0  0  0  0  0  0  0  0  0  0
  152.4502  139.1753  157.7602 H   0  0  0  0  0  0  0  0  0  0  0  0
  153.4059  138.5467  156.4493 H   0  0  0  0  0  0  0  0  0  0  0  0
  151.3074  140.2270  157.9365 H   0  0  0  0  0  0  0  0  0  0  0  0
  149.5479  142.3315  156.8047 H   0  0  0  0  0  0  0  0  0  0  0  0
  149.7813  141.9364  158.4922 H   0  0  0  0  0  0  0  0  0  0  0  0
  152.1815  142.9199  156.9410 H   0  0  0  0  0  0  0  0  0  0  0  0
  150.9705  144.0938  157.3641 H   0  0  0  0  0  0  0  0  0  0  0  0
  151.3175  145.2203  159.8584 H   0  0  0  0  0  0  0  0  0  0  0  0
  153.8839  141.1383  161.8488 H   0  0  0  0  0  0  0  0  0  0  0  0
  153.1592  142.2873  162.9901 H   0  0  0  0  0  0  0  0  0  0  0  0
  154.6727  142.6996  162.1530 H   0  0  0  0  0  0  0  0  0  0  0  0
  153.0152  141.2912  159.4310 H   0  0  0  0  0  0  0  0  0  0  0  0
  1  2  1  0  0  0  0
  1 19  1  0  0  0  0
  1 20  1  0  0  0  0
  1 21  1  0  0  0  0
  2  7  1  0  0  0  0
  2  3  1  0  0  0  0
  2 22  1  0  0  0  0
  3  4  1  0  0  0  0
  3 23  1  0  0  0  0
  3 24  1  0  0  0  0
  4  5  1  0  0  0  0
  5  6  1  0  0  0  0
  5 25  1  0  0  0  0
  5 26  1  0  0  0  0
  6  7  1  0  0  0  0
  6 27  1  0  0  0  0
  6 28  1  0  0  0  0
  7  8  1  0  0  0  0
  8  9  2  0  0  0  0
  8 10  1  0  0  0  0
 10 11  1  0  0  0  0
 10 29  1  0  0  0  0
 11 12  1  0  0  0  0
 11 30  1  0  0  0  0
 11 31  1  0  0  0  0
 12 13  1  0  0  0  0
 12 32  1  0  0  0  0
 12 33  1  0  0  0  0
 13 18  2  0  0  0  0
 13 14  1  0  0  0  0
 14 15  2  0  0  0  0
 14 34  1  0  0  0  0
 15 16  1  0  0  0  0
 16 17  1  0  0  0  0
 16 18  1  0  0  0  0
 17 35  1  0  0  0  0
 17 36  1  0  0  0  0
 17 37  1  0  0  0  0
 18 38  1  0  0  0  0
M  END
> <s_m_source_file>
AV-unprocessed.smi

> <i_m_source_file_index>
556

> <i_lp_mmshare_version>
43012

> <i_f3d_flags>
0

> <s_epik_input>
W0NIM11bQ0BASF0xW0NIMl1PW0NIMl1bQ0gyXU4xQyg9TylbTkhdW0NIMl1bQ0gyXWMyW2NIXW5uKFtDSDNdKVtjSF0y

> <s_epik_cmdline>
J2VwaWtfcHl0aG9uJywgJy1waCcsICc3LjAnLCAnLXRuJywgJzgnLCAnLW1hJywgJzIwMCcsICctbWV0YWxfYmluZGluZycsICctaW1hZScsICc8aW5maWxlLm1hZT4nLCAnLW9tYWUnLCAnPG91dGZpbGUubWFlPic=

> <r_lp_tautomer_probability>
1

> <r_epik_Ionization_Penalty>
0.000536334

> <r_epik_Ionization_Penalty_Charging>
0

> <r_epik_Ionization_Penalty_Neutral>
0.000536334

> <r_epik_State_Penalty>
-0

> <r_epik_Charging_Adjusted_Penalty>
0

> <i_epik_Tot_Q>
0

> <i_epik_Tot_abs_Q>
0

> <r_epik_Metal_State_Penalty>
-0

> <b_epik_Metal_Only>
0

> <s_lp_Force_Field>
OPLS_2005

> <r_lp_Energy>
28.9332

> <b_lp_Chiralities_Consistent>
1

> <s_lp_Variant>
AV-unprocessed.smi:556-2

> <Gold.Version>
5.8.1

> <Gold.Id.Protein>
6NUR|6NUR_protein|mol2

> <Gold.PLP.Fitness>
39.5006

> <Gold.PLP.PLP>
-36.0007

> <Gold.PLP.part.hbond>
-2.0000

> <Gold.PLP.part.metal>
0.0000

> <Gold.PLP.part.buried>
-5.5051

> <Gold.PLP.part.nonpolar>
-28.9634

> <Gold.PLP.part.repulsive>
0.2708

> <Gold.PLP.ligand.clash>
0.9568

> <Gold.PLP.ligand.torsion>
0.5014

> <Gold.PLP.Chemscore.Hbond>
1.8160

> <Gold.PLP.Chemscore.CHOScore>
0.0000

> <Gold.PLP.Chemscore.Metal>
0.0000

> <Gold.Chemscore.Hbonds>
donor molecule, donor type, donor heavy atom, donor atom, acceptor molecule, acceptor atom, score
      P1  H  7989  7998       L1     9  0.85
      P1  H 10752 10765       L1     4  1.00

> <Gold.PLP.Chemscore.Internal.Correction>
0.0115

> <Gold.Rescore>
     Score         DG    S(hbond)    S(metal)    S(lipo)     H(rot)  DE(clash)    DE(int)     intcor
     14.59     -16.28       1.06        0.00      92.71       1.40       1.23       0.47       ----

> <Gold.Chemscore.Fitness>
14.5905

> <Gold.Chemscore.DG>
-16.2845

> <Gold.Chemscore.ZeroCoef>
-5.4800

> <Gold.Chemscore.Hbond>
1.0603

> <Gold.Chemscore.Metal>
0.0000

> <Gold.Chemscore.Lipo>
92.7133

> <Gold.Chemscore.Internal_Hbond>
0.0000

> <Gold.Chemscore.DEClash>
1.2278

> <Gold.Chemscore.DEInternal>
0.4663

> <Gold.Chemscore.Rot>
1.4001

> <Gold.Chemscore.Internal.Correction>
   9.000000E+99

> <Gold.Chemscore.Hbonds>
donor molecule, donor type, donor heavy atom, donor atom, acceptor molecule, acceptor atom, score
      P1  H  7989  7998       L1     9  0.60
      P1  H 10752 10765       L1     4  0.58

> <Gold.Chemscore.Hbond.Weighted>
-3.5413

> <Gold.Chemscore.Metal.Weighted>
-0.0000

> <Gold.Chemscore.Lipo.Weighted>
-10.8475

> <Gold.Chemscore.Internal_Hbond.Weighted>
0.0000

> <Gold.Chemscore.DEClash.Weighted>
1.2278

> <Gold.Chemscore.DEInternal.Weighted>
0.4663

> <Gold.Chemscore.Rot.Weighted>
3.5842

> <Gold.Chemscore.Internal.Correction.Weighted>
   9.000000E+99

> <Gold.Protein.RotatedTorsions>
[ 6907 6896 6895 6894 ] final  136.63 input  -60.11 | X-H torsion
[ 7974 7965 7964 7962 ] final  -82.00 input  175.53 | X-H torsion
[ 8008 7997 7996 7995 ] final   -6.16 input   59.86 | X-H torsion
[ 10167 10162 10161 10158 ] final   81.34 input  -65.29 | X-H torsion
[ 10718 10713 10712 10709 ] final  149.02 input   66.30 | X-H torsion
[ 10763 10752 10751 10750 ] final -129.51 input  -60.55 | X-H torsion
[ 11005 11000 10999 10996 ] final -169.67 input  -57.11 | X-H torsion

> <Gold.Protein.ActiveResidues>
 VAL166  LYS551  ARG553  GLY616  TRP617  ASP618  TYR619  PRO620  LYS621  CYS622 
 ASP623  PHE694  ASN695  SER759  ASP760  ASP761  ALA762  ILE779  LEU786  VAL792 
 PHE793  MET794  SER795  GLU796  ALA797  LYS798  CYS799  TRP800  GLU811  SER814 

> <Gold.Protein.RotatedAtoms>
  152.2872  133.5527  159.5534 H   0  0  0  0  0  0  0  0  0  0  0  0  # atno 6907 bound_to 6896
  150.7220  134.0480  159.3797 H   0  0  0  0  0  0  0  0  0  0  0  0  # atno 6908 bound_to 6896
  151.8387  135.0597  160.0496 H   0  0  0  0  0  0  0  0  0  0  0  0  # atno 6909 bound_to 6896
  145.5391  140.9512  143.1561 H   0  0  0  0  0  0  0  0  0  0  0  0  # atno 7974 bound_to 7965
  154.5966  140.2440  155.7849 H   0  0  0  0  0  0  0  0  0  0  0  0  # atno 8008 bound_to 7997
  156.2283  140.2975  156.0076 H   0  0  0  0  0  0  0  0  0  0  0  0  # atno 8009 bound_to 7997
  155.2283  140.0402  157.2949 H   0  0  0  0  0  0  0  0  0  0  0  0  # atno 8010 bound_to 7997
  139.9403  144.6094  150.8258 H   0  0  0  0  0  0  0  0  0  0  0  0  # atno 10167 bound_to 10162
  157.3013  131.0871  151.1387 H   0  0  0  0  0  0  0  0  0  0  0  0  # atno 10718 bound_to 10713
  154.8757  135.3893  154.3931 H   0  0  0  0  0  0  0  0  0  0  0  0  # atno 10763 bound_to 10752
  153.4665  135.7029  153.6024 H   0  0  0  0  0  0  0  0  0  0  0  0  # atno 10764 bound_to 10752
  153.4500  135.3836  155.2246 H   0  0  0  0  0  0  0  0  0  0  0  0  # atno 10765 bound_to 10752
  140.5281  134.5643  157.5067 H   0  0  0  0  0  0  0  0  0  0  0  0  # atno 11005 bound_to 11000
  144.7586  139.7012  143.7244 LP  0  0  0  0  0  0  0  0  0  0  0  0  # atno 17320 bound_to 7965
  146.1993  139.5278  142.9754 LP  0  0  0  0  0  0  0  0  0  0  0  0  # atno 17321 bound_to 7965
  140.7613  143.3170  151.2709 LP  0  0  0  0  0  0  0  0  0  0  0  0  # atno 17342 bound_to 10162
  139.6710  144.0020  152.2753 LP  0  0  0  0  0  0  0  0  0  0  0  0  # atno 17343 bound_to 10162
  157.2745  130.6720  149.6036 LP  0  0  0  0  0  0  0  0  0  0  0  0  # atno 17370 bound_to 10713
  155.9672  130.4469  150.5558 LP  0  0  0  0  0  0  0  0  0  0  0  0  # atno 17371 bound_to 10713
  139.9569  134.7519  156.0322 LP  0  0  0  0  0  0  0  0  0  0  0  0  # atno 17394 bound_to 11000
  141.1297  133.6590  156.3431 LP  0  0  0  0  0  0  0  0  0  0  0  0  # atno 17395 bound_to 11000

$$$$
