AV-unprocessed.smi:1205|AV-procd|sdf|5041|dock3
  -GOLD-   22720 4 63D 1   1.00000     0.00000
 Structure written by MMmdl.
 49 50  0  0  0  0  0  0  0  0  2 V2000
  151.0253  142.3387  156.3765 C   0  0  0  0  0  0  0  0  0  0  0  0
  150.7167  141.0967  155.5939 C   0  0  0  0  0  0  0  0  0  0  0  0
  149.4644  140.6932  155.0459 C   0  0  0  0  0  0  0  0  0  0  0  0
  149.7674  139.5002  154.4484 C   0  0  0  0  0  0  0  0  0  0  0  0
  148.9505  138.6531  153.7673 N   0  0  0  0  0  0  0  0  0  0  0  0
  147.6133  138.5355  153.8432 C   0  0  0  0  0  0  0  0  0  0  0  0
  146.8749  139.2089  154.5624 O   0  0  0  0  0  0  0  0  0  0  0  0
  147.1620  137.5731  153.0259 N   0  0  0  0  0  0  0  0  0  0  0  0
  145.7591  137.1979  152.8780 C   0  0  0  0  0  0  0  0  0  0  0  0
  145.5149  136.2683  151.6657 C   0  0  2  0  0  0  0  0  0  0  0  0
  144.0189  136.1360  151.3067 C   0  0  0  0  0  0  0  0  0  0  0  0
  146.1845  134.9505  151.8692 N   0  3  2  0  0  0  0  0  0  0  0  0
  145.8694  133.9547  150.8112 C   0  0  0  0  0  0  0  0  0  0  0  0
  146.7960  132.7334  150.9189 C   0  0  0  0  0  0  0  0  0  0  0  0
  146.7231  132.1046  152.3182 C   0  0  0  0  0  0  0  0  0  0  0  0
  146.9787  133.1512  153.4197 C   0  0  1  0  0  0  0  0  0  0  0  0
  148.4584  133.5605  153.5225 C   0  0  0  0  0  0  0  0  0  0  0  0
  146.0491  134.3677  153.2334 C   0  0  0  0  0  0  0  0  0  0  0  0
  151.1048  139.2337  154.6403 N   0  0  0  0  0  0  0  0  0  0  0  0
  151.8898  138.0965  154.2015 C   0  0  0  0  0  0  0  0  0  0  0  0
  151.6880  140.2243  155.3494 N   0  0  0  0  0  0  0  0  0  0  0  0
  150.1326  142.9493  156.5137 H   0  0  0  0  0  0  0  0  0  0  0  0
  151.7703  142.9497  155.8663 H   0  0  0  0  0  0  0  0  0  0  0  0
  151.4137  142.0933  157.3654 H   0  0  0  0  0  0  0  0  0  0  0  0
  148.5169  141.2079  155.0967 H   0  0  0  0  0  0  0  0  0  0  0  0
  149.4172  138.0349  153.1201 H   0  0  0  0  0  0  0  0  0  0  0  0
  147.8331  137.0676  152.4657 H   0  0  0  0  0  0  0  0  0  0  0  0
  145.4107  136.7231  153.7970 H   0  0  0  0  0  0  0  0  0  0  0  0
  145.1902  138.1215  152.7765 H   0  0  0  0  0  0  0  0  0  0  0  0
  146.0075  136.7381  150.8134 H   0  0  0  0  0  0  0  0  0  0  0  0
  143.5962  137.1000  151.0223 H   0  0  0  0  0  0  0  0  0  0  0  0
  143.4317  135.7623  152.1455 H   0  0  0  0  0  0  0  0  0  0  0  0
  143.8656  135.4633  150.4630 H   0  0  0  0  0  0  0  0  0  0  0  0
  144.8273  133.6427  150.8920 H   0  0  0  0  0  0  0  0  0  0  0  0
  145.9911  134.4033  149.8246 H   0  0  0  0  0  0  0  0  0  0  0  0
  146.5230  131.9932  150.1661 H   0  0  0  0  0  0  0  0  0  0  0  0
  147.8218  133.0295  150.6963 H   0  0  0  0  0  0  0  0  0  0  0  0
  145.7328  131.6698  152.4601 H   0  0  0  0  0  0  0  0  0  0  0  0
  147.4321  131.2799  152.4008 H   0  0  0  0  0  0  0  0  0  0  0  0
  146.7224  132.6868  154.3730 H   0  0  0  0  0  0  0  0  0  0  0  0
  148.8070  134.0615  152.6195 H   0  0  0  0  0  0  0  0  0  0  0  0
  149.0948  132.6902  153.6853 H   0  0  0  0  0  0  0  0  0  0  0  0
  148.6179  134.2422  154.3585 H   0  0  0  0  0  0  0  0  0  0  0  0
  146.2715  135.1125  153.9968 H   0  0  0  0  0  0  0  0  0  0  0  0
  145.0162  134.0561  153.3947 H   0  0  0  0  0  0  0  0  0  0  0  0
  151.7721  137.9627  153.1256 H   0  0  0  0  0  0  0  0  0  0  0  0
  151.5468  137.1970  154.7133 H   0  0  0  0  0  0  0  0  0  0  0  0
  152.9468  138.2503  154.4236 H   0  0  0  0  0  0  0  0  0  0  0  0
  147.1690  135.1443  151.7532 H   0  0  0  0  0  0  0  0  0  0  0  0
  1  2  1  0  0  0  0
  1 22  1  0  0  0  0
  1 23  1  0  0  0  0
  1 24  1  0  0  0  0
  2 21  2  0  0  0  0
  2  3  1  0  0  0  0
  3  4  2  0  0  0  0
  3 25  1  0  0  0  0
  4  5  1  0  0  0  0
  4 19  1  0  0  0  0
  5  6  1  0  0  0  0
  5 26  1  0  0  0  0
  6  7  2  0  0  0  0
  6  8  1  0  0  0  0
  8  9  1  0  0  0  0
  8 27  1  0  0  0  0
  9 10  1  0  0  0  0
  9 28  1  0  0  0  0
  9 29  1  0  0  0  0
 10 11  1  0  0  0  0
 10 12  1  0  0  0  0
 10 30  1  0  0  0  0
 11 31  1  0  0  0  0
 11 32  1  0  0  0  0
 11 33  1  0  0  0  0
 12 18  1  0  0  0  0
 12 13  1  0  0  0  0
 12 49  1  0  0  0  0
 13 14  1  0  0  0  0
 13 34  1  0  0  0  0
 13 35  1  0  0  0  0
 14 15  1  0  0  0  0
 14 36  1  0  0  0  0
 14 37  1  0  0  0  0
 15 16  1  0  0  0  0
 15 38  1  0  0  0  0
 15 39  1  0  0  0  0
 16 17  1  0  0  0  0
 16 18  1  0  0  0  0
 16 40  1  0  0  0  0
 17 41  1  0  0  0  0
 17 42  1  0  0  0  0
 17 43  1  0  0  0  0
 18 44  1  0  0  0  0
 18 45  1  0  0  0  0
 19 20  1  0  0  0  0
 19 21  1  0  0  0  0
 20 46  1  0  0  0  0
 20 47  1  0  0  0  0
 20 48  1  0  0  0  0
M  CHG  1  12   1
M  END
> <s_m_source_file>
AV-unprocessed.smi

> <i_m_source_file_index>
1205

> <i_lp_mmshare_version>
43012

> <i_f3d_flags>
0

> <s_epik_input>
W0NIM11jMVtjSF1jKG4objEpW0NIM10pW05IXUMoPU8pW05IXVtDSDJdW0NASF0oW0NIM10pTjJbQ0gyXVtDSDJdW0NIMl1bQ0BASF0oW0NIM10pW0NIMl0y

> <s_epik_cmdline>
J2VwaWtfcHl0aG9uJywgJy1waCcsICc3LjAnLCAnLXRuJywgJzgnLCAnLW1hJywgJzIwMCcsICctbWV0YWxfYmluZGluZycsICctaW1hZScsICc8aW5maWxlLm1hZT4nLCAnLW9tYWUnLCAnPG91dGZpbGUubWFlPic=

> <r_lp_tautomer_probability>
1

> <r_epik_Ionization_Penalty>
0.0020309

> <r_epik_Ionization_Penalty_Charging>
0.00195276

> <r_epik_Ionization_Penalty_Neutral>
7.81448e-05

> <r_epik_State_Penalty>
0.00133177

> <r_epik_Charging_Adjusted_Penalty>
0.00328452

> <i_epik_Tot_Q>
1

> <i_epik_Tot_abs_Q>
1

> <r_epik_Metal_State_Penalty>
-0

> <b_epik_Metal_Only>
0

> <s_lp_Force_Field>
OPLS_2005

> <r_lp_Energy>
24.2768

> <b_lp_Chiralities_Consistent>
1

> <s_lp_Variant>
AV-unprocessed.smi:1205-3

> <Gold.Version>
5.8.1

> <Gold.Id.Protein>
6NUR|6NUR_protein|mol2

> <Gold.PLP.Fitness>
44.7327

> <Gold.PLP.PLP>
-35.4871

> <Gold.PLP.part.hbond>
-4.6443

> <Gold.PLP.part.metal>
0.0000

> <Gold.PLP.part.buried>
1.4077

> <Gold.PLP.part.nonpolar>
-31.4678

> <Gold.PLP.part.repulsive>
0.2109

> <Gold.PLP.ligand.clash>
0.0000

> <Gold.PLP.ligand.torsion>
0.4923

> <Gold.PLP.Chemscore.Hbond>
3.3683

> <Gold.PLP.Chemscore.CHOScore>
0.0000

> <Gold.PLP.Chemscore.Metal>
0.0000

> <Gold.Chemscore.Hbonds>
donor molecule, donor type, donor heavy atom, donor atom, acceptor molecule, acceptor atom, score
      L1  H     5    26       P1  7948  0.45
      L1  H     8    27       P1  7948  0.96
      L1  H    12    49       P1  7948  1.92

> <Gold.PLP.Chemscore.Internal.Correction>
0.1256

> <Gold.Rescore>
     Score         DG    S(hbond)    S(metal)    S(lipo)     H(rot)  DE(clash)    DE(int)     intcor
     18.18     -19.96       2.99        0.00      70.56       1.47       0.22       1.56       ----

> <Gold.Chemscore.Fitness>
18.1797

> <Gold.Chemscore.DG>
-19.9566

> <Gold.Chemscore.ZeroCoef>
-5.4800

> <Gold.Chemscore.Hbond>
2.9861

> <Gold.Chemscore.Metal>
0.0000

> <Gold.Chemscore.Lipo>
70.5595

> <Gold.Chemscore.Internal_Hbond>
0.0000

> <Gold.Chemscore.DEClash>
0.2196

> <Gold.Chemscore.DEInternal>
1.5573

> <Gold.Chemscore.Rot>
1.4658

> <Gold.Chemscore.Internal.Correction>
   9.000000E+99

> <Gold.Chemscore.Hbonds>
donor molecule, donor type, donor heavy atom, donor atom, acceptor molecule, acceptor atom, score
      L1  H     5    26       P1  7948  0.40
      L1  H     8    27       P1  7948  0.91
      L1  H    12    49       P1  7948  0.86

> <Gold.Chemscore.Hbond.Weighted>
-9.9737

> <Gold.Chemscore.Metal.Weighted>
-0.0000

> <Gold.Chemscore.Lipo.Weighted>
-8.2555

> <Gold.Chemscore.Internal_Hbond.Weighted>
0.0000

> <Gold.Chemscore.DEClash.Weighted>
0.2196

> <Gold.Chemscore.DEInternal.Weighted>
1.5573

> <Gold.Chemscore.Rot.Weighted>
3.7526

> <Gold.Chemscore.Internal.Correction.Weighted>
   9.000000E+99

> <Gold.Protein.RotatedTorsions>
[ 6907 6896 6895 6894 ] final  142.19 input  -60.11 | X-H torsion
[ 7974 7965 7964 7962 ] final  155.61 input  175.53 | X-H torsion
[ 8008 7997 7996 7995 ] final -146.34 input   59.86 | X-H torsion
[ 10167 10162 10161 10158 ] final -155.09 input  -65.29 | X-H torsion
[ 10718 10713 10712 10709 ] final -176.86 input   66.30 | X-H torsion
[ 10763 10752 10751 10750 ] final -108.69 input  -60.55 | X-H torsion
[ 11005 11000 10999 10996 ] final  -41.54 input  -57.11 | X-H torsion

> <Gold.Protein.ActiveResidues>
 VAL166  LYS551  ARG553  GLY616  TRP617  ASP618  TYR619  PRO620  LYS621  CYS622 
 ASP623  PHE694  ASN695  SER759  ASP760  ASP761  ALA762  ILE779  LEU786  VAL792 
 PHE793  MET794  SER795  GLU796  ALA797  LYS798  CYS799  TRP800  GLU811  SER814 

> <Gold.Protein.RotatedAtoms>
  152.2217  133.4989  159.5165 H   0  0  0  0  0  0  0  0  0  0  0  0  # atno 6907 bound_to 6896
  150.7014  134.1333  159.4087 H   0  0  0  0  0  0  0  0  0  0  0  0  # atno 6908 bound_to 6896
  151.9254  135.0280  160.0576 H   0  0  0  0  0  0  0  0  0  0  0  0  # atno 6909 bound_to 6896
  144.8014  139.7092  143.6180 H   0  0  0  0  0  0  0  0  0  0  0  0  # atno 7974 bound_to 7965
  155.5578  140.0622  157.2835 H   0  0  0  0  0  0  0  0  0  0  0  0  # atno 8008 bound_to 7997
  154.4400  140.1891  156.0797 H   0  0  0  0  0  0  0  0  0  0  0  0  # atno 8009 bound_to 7997
  156.0469  140.3289  155.7310 H   0  0  0  0  0  0  0  0  0  0  0  0  # atno 8010 bound_to 7997
  139.6959  143.9342  152.2407 H   0  0  0  0  0  0  0  0  0  0  0  0  # atno 10167 bound_to 10162
  156.8209  130.9619  151.3112 H   0  0  0  0  0  0  0  0  0  0  0  0  # atno 10718 bound_to 10713
  154.8150  135.4628  154.0619 H   0  0  0  0  0  0  0  0  0  0  0  0  # atno 10763 bound_to 10752
  153.2019  135.6870  153.8227 H   0  0  0  0  0  0  0  0  0  0  0  0  # atno 10764 bound_to 10752
  153.7708  135.3270  155.3329 H   0  0  0  0  0  0  0  0  0  0  0  0  # atno 10765 bound_to 10752
  141.0253  133.6844  156.2471 H   0  0  0  0  0  0  0  0  0  0  0  0  # atno 11005 bound_to 11000
  146.2296  139.5788  142.9564 LP  0  0  0  0  0  0  0  0  0  0  0  0  # atno 17320 bound_to 7965
  145.5545  141.0410  143.2260 LP  0  0  0  0  0  0  0  0  0  0  0  0  # atno 17321 bound_to 7965
  139.9172  144.6821  150.8500 LP  0  0  0  0  0  0  0  0  0  0  0  0  # atno 17342 bound_to 10162
  140.7696  143.3401  151.2226 LP  0  0  0  0  0  0  0  0  0  0  0  0  # atno 17343 bound_to 10162
  157.6457  130.8842  149.9534 LP  0  0  0  0  0  0  0  0  0  0  0  0  # atno 17370 bound_to 10713
  156.0989  130.3657  150.0255 LP  0  0  0  0  0  0  0  0  0  0  0  0  # atno 17371 bound_to 10713
  140.6502  134.5075  157.5577 LP  0  0  0  0  0  0  0  0  0  0  0  0  # atno 17394 bound_to 11000
  139.9172  134.8222  156.1328 LP  0  0  0  0  0  0  0  0  0  0  0  0  # atno 17395 bound_to 11000

$$$$
