AV-unprocessed.smi:863|AV-procd|sdf|3984|dock1
  -GOLD-   22720 1463D 1   1.00000     0.00000
 Structure written by MMmdl.
 42 44  0  0  0  0  0  0  0  0  1 V2000
  152.5613  139.4634  155.0134 O   0  0  0  0  0  0  0  0  0  0  0  0
  151.3371  139.4744  155.1427 C   0  0  0  0  0  0  0  0  0  0  0  0
  150.4649  138.5997  154.2414 C   0  0  0  0  0  0  0  0  0  0  0  0
  149.1600  139.2909  153.9517 C   0  0  0  0  0  0  0  0  0  0  0  0
  147.9398  138.7182  153.4960 C   0  0  0  0  0  0  0  0  0  0  0  0
  147.0994  139.7895  153.4014 C   0  0  0  0  0  0  0  0  0  0  0  0
  147.7409  140.9296  153.7618 O   0  0  0  0  0  0  0  0  0  0  0  0
  149.0568  140.6022  154.1088 N   0  0  0  0  0  0  0  0  0  0  0  0
  150.6950  140.2281  156.0494 N   0  0  0  0  0  0  0  0  0  0  0  0
  151.3373  141.1230  157.0071 C   0  0  2  0  0  0  0  0  0  0  0  0
  151.9130  140.3098  158.1716 C   0  0  0  0  0  0  0  0  0  0  0  0
  152.4900  141.2416  159.2458 C   0  0  0  0  0  0  0  0  0  0  0  0
  151.4996  142.1687  159.6868 O   0  0  0  0  0  0  0  0  0  0  0  0
  150.9322  143.0254  158.6870 C   0  0  0  0  0  0  0  0  0  0  0  0
  149.7948  143.8026  159.3907 C   0  0  0  0  0  0  0  0  0  0  0  0
  150.3122  144.7590  160.4795 C   0  0  0  0  0  0  0  0  0  0  0  0
  151.3504  145.7383  159.9155 C   0  0  0  0  0  0  0  0  0  0  0  0
  152.5003  144.9846  159.2333 C   0  0  0  0  0  0  0  0  0  0  0  0
  151.9743  144.0391  158.1410 C   0  0  0  0  0  0  0  0  0  0  0  0
  150.3317  142.1487  157.5608 C   0  0  0  0  0  0  0  0  0  0  0  0
  151.0002  138.3707  153.3185 H   0  0  0  0  0  0  0  0  0  0  0  0
  150.2850  137.6453  154.7373 H   0  0  0  0  0  0  0  0  0  0  0  0
  147.7175  137.6847  153.2758 H   0  0  0  0  0  0  0  0  0  0  0  0
  146.0663  139.8982  153.1061 H   0  0  0  0  0  0  0  0  0  0  0  0
  149.6875  140.1703  156.0851 H   0  0  0  0  0  0  0  0  0  0  0  0
  152.1571  141.6413  156.5075 H   0  0  0  0  0  0  0  0  0  0  0  0
  151.1315  139.6920  158.6165 H   0  0  0  0  0  0  0  0  0  0  0  0
  152.6857  139.6283  157.8140 H   0  0  0  0  0  0  0  0  0  0  0  0
  152.8161  140.6548  160.1046 H   0  0  0  0  0  0  0  0  0  0  0  0
  153.3750  141.7609  158.8790 H   0  0  0  0  0  0  0  0  0  0  0  0
  149.2360  144.3788  158.6517 H   0  0  0  0  0  0  0  0  0  0  0  0
  149.0823  143.1052  159.8330 H   0  0  0  0  0  0  0  0  0  0  0  0
  149.4784  145.3126  160.9122 H   0  0  0  0  0  0  0  0  0  0  0  0
  150.7555  144.1850  161.2943 H   0  0  0  0  0  0  0  0  0  0  0  0
  150.8725  146.4056  159.1970 H   0  0  0  0  0  0  0  0  0  0  0  0
  151.7399  146.3702  160.7140 H   0  0  0  0  0  0  0  0  0  0  0  0
  153.2030  145.6965  158.7999 H   0  0  0  0  0  0  0  0  0  0  0  0
  153.0587  144.4141  159.9766 H   0  0  0  0  0  0  0  0  0  0  0  0
  152.8147  143.5376  157.6637 H   0  0  0  0  0  0  0  0  0  0  0  0
  151.5117  144.6374  157.3549 H   0  0  0  0  0  0  0  0  0  0  0  0
  149.9535  142.7815  156.7568 H   0  0  0  0  0  0  0  0  0  0  0  0
  149.4669  141.6105  157.9523 H   0  0  0  0  0  0  0  0  0  0  0  0
  1  2  2  0  0  0  0
  2  3  1  0  0  0  0
  2  9  1  0  0  0  0
  3  4  1  0  0  0  0
  3 21  1  0  0  0  0
  3 22  1  0  0  0  0
  4  8  2  0  0  0  0
  4  5  1  0  0  0  0
  5  6  2  0  0  0  0
  5 23  1  0  0  0  0
  6  7  1  0  0  0  0
  6 24  1  0  0  0  0
  7  8  1  0  0  0  0
  9 10  1  0  0  0  0
  9 25  1  0  0  0  0
 10 20  1  0  0  0  0
 10 11  1  0  0  0  0
 10 26  1  0  0  0  0
 11 12  1  0  0  0  0
 11 27  1  0  0  0  0
 11 28  1  0  0  0  0
 12 13  1  0  0  0  0
 12 29  1  0  0  0  0
 12 30  1  0  0  0  0
 13 14  1  0  0  0  0
 14 19  1  0  0  0  0
 14 15  1  0  0  0  0
 14 20  1  0  0  0  0
 15 16  1  0  0  0  0
 15 31  1  0  0  0  0
 15 32  1  0  0  0  0
 16 17  1  0  0  0  0
 16 33  1  0  0  0  0
 16 34  1  0  0  0  0
 17 18  1  0  0  0  0
 17 35  1  0  0  0  0
 17 36  1  0  0  0  0
 18 19  1  0  0  0  0
 18 37  1  0  0  0  0
 18 38  1  0  0  0  0
 19 39  1  0  0  0  0
 19 40  1  0  0  0  0
 20 41  1  0  0  0  0
 20 42  1  0  0  0  0
M  END
> <s_m_source_file>
AV-unprocessed.smi

> <i_m_source_file_index>
863

> <i_lp_mmshare_version>
43012

> <i_f3d_flags>
0

> <s_epik_input>
bjFvW2NIXVtjSF1jMVtDSDJdQyg9TylbTkhdW0NAQEhdKFtDSDJdMilbQ0gyXVtDSDJdT0MyM1tDSDJdW0NIMl1bQ0gyXVtDSDJdW0NIMl0z

> <s_epik_cmdline>
J2VwaWtfcHl0aG9uJywgJy1waCcsICc3LjAnLCAnLXRuJywgJzgnLCAnLW1hJywgJzIwMCcsICctbWV0YWxfYmluZGluZycsICctaW1hZScsICc8aW5maWxlLm1hZT4nLCAnLW9tYWUnLCAnPG91dGZpbGUubWFlPic=

> <r_lp_tautomer_probability>
1

> <r_epik_Ionization_Penalty>
1.10177e-07

> <r_epik_Ionization_Penalty_Charging>
0

> <r_epik_Ionization_Penalty_Neutral>
1.10177e-07

> <r_epik_State_Penalty>
-0

> <r_epik_Charging_Adjusted_Penalty>
0

> <i_epik_Tot_Q>
0

> <i_epik_Tot_abs_Q>
0

> <r_epik_Metal_State_Penalty>
-0

> <b_epik_Metal_Only>
0

> <s_lp_Force_Field>
OPLS_2005

> <r_lp_Energy>
15.5763

> <b_lp_Chiralities_Consistent>
1

> <s_lp_Variant>
AV-unprocessed.smi:863-1

> <Gold.Version>
5.8.1

> <Gold.Id.Protein>
6NUR|6NUR_protein|mol2

> <Gold.PLP.Fitness>
40.1682

> <Gold.PLP.PLP>
-37.2359

> <Gold.PLP.part.hbond>
-1.8961

> <Gold.PLP.part.metal>
0.0000

> <Gold.PLP.part.buried>
-1.8482

> <Gold.PLP.part.nonpolar>
-33.7744

> <Gold.PLP.part.repulsive>
0.8830

> <Gold.PLP.ligand.clash>
0.0000

> <Gold.PLP.ligand.torsion>
0.8851

> <Gold.PLP.Chemscore.Hbond>
0.5688

> <Gold.PLP.Chemscore.CHOScore>
0.9979

> <Gold.PLP.Chemscore.Metal>
0.0000

> <Gold.Chemscore.Hbonds>
donor molecule, donor type, donor heavy atom, donor atom, acceptor molecule, acceptor atom, score
      P1  H  7997  8008       L1     1  0.57
      L1  C     6    24       P1 10175  1.00

> <Gold.PLP.Chemscore.Internal.Correction>
0.0026

> <Gold.Rescore>
     Score         DG    S(hbond)    S(metal)    S(lipo)     H(rot)  DE(clash)    DE(int)     intcor
     17.64     -18.56       0.95        0.00     115.62       1.42       0.15       0.77       ----

> <Gold.Chemscore.Fitness>
17.6416

> <Gold.Chemscore.DG>
-18.5650

> <Gold.Chemscore.ZeroCoef>
-5.4800

> <Gold.Chemscore.Hbond>
0.9531

> <Gold.Chemscore.Metal>
0.0000

> <Gold.Chemscore.Lipo>
115.6211

> <Gold.Chemscore.Internal_Hbond>
0.0000

> <Gold.Chemscore.DEClash>
0.1546

> <Gold.Chemscore.DEInternal>
0.7688

> <Gold.Chemscore.Rot>
1.4164

> <Gold.Chemscore.Internal.Correction>
   9.000000E+99

> <Gold.Chemscore.Hbonds>
donor molecule, donor type, donor heavy atom, donor atom, acceptor molecule, acceptor atom, score
      P1  H  7997  8008       L1     1  0.56

> <Gold.Chemscore.Hbond.Weighted>
-3.1832

> <Gold.Chemscore.Metal.Weighted>
-0.0000

> <Gold.Chemscore.Lipo.Weighted>
-13.5277

> <Gold.Chemscore.Internal_Hbond.Weighted>
0.0000

> <Gold.Chemscore.DEClash.Weighted>
0.1546

> <Gold.Chemscore.DEInternal.Weighted>
0.7688

> <Gold.Chemscore.Rot.Weighted>
3.6259

> <Gold.Chemscore.Internal.Correction.Weighted>
   9.000000E+99

> <Gold.Protein.RotatedTorsions>
[ 6907 6896 6895 6894 ] final  131.06 input  -60.11 | X-H torsion
[ 7974 7965 7964 7962 ] final -102.37 input  175.53 | X-H torsion
[ 8008 7997 7996 7995 ] final  -23.71 input   59.86 | X-H torsion
[ 10167 10162 10161 10158 ] final  -75.63 input  -65.29 | X-H torsion
[ 10718 10713 10712 10709 ] final -123.45 input   66.30 | X-H torsion
[ 10763 10752 10751 10750 ] final  -58.29 input  -60.55 | X-H torsion
[ 11005 11000 10999 10996 ] final  -32.42 input  -57.11 | X-H torsion

> <Gold.Protein.ActiveResidues>
 VAL166  LYS551  ARG553  GLY616  TRP617  ASP618  TYR619  PRO620  LYS621  CYS622 
 ASP623  PHE694  ASN695  SER759  ASP760  ASP761  ALA762  ILE779  LEU786  VAL792 
 PHE793  MET794  SER795  GLU796  ALA797  LYS798  CYS799  TRP800  GLU811  SER814 

> <Gold.Protein.RotatedAtoms>
  152.3464  133.6127  159.5912 H   0  0  0  0  0  0  0  0  0  0  0  0  # atno 6907 bound_to 6896
  150.7510  133.9642  159.3534 H   0  0  0  0  0  0  0  0  0  0  0  0  # atno 6908 bound_to 6896
  151.7500  135.0835  160.0380 H   0  0  0  0  0  0  0  0  0  0  0  0  # atno 6909 bound_to 6896
  145.2695  140.9294  143.2994 H   0  0  0  0  0  0  0  0  0  0  0  0  # atno 7974 bound_to 7965
  154.4570  140.1973  156.0352 H   0  0  0  0  0  0  0  0  0  0  0  0  # atno 8008 bound_to 7997
  156.0765  140.3277  155.7613 H   0  0  0  0  0  0  0  0  0  0  0  0  # atno 8009 bound_to 7997
  155.5179  140.0567  157.2903 H   0  0  0  0  0  0  0  0  0  0  0  0  # atno 8010 bound_to 7997
  140.4926  143.2377  151.7882 H   0  0  0  0  0  0  0  0  0  0  0  0  # atno 10167 bound_to 10162
  156.1503  130.6530  150.9904 H   0  0  0  0  0  0  0  0  0  0  0  0  # atno 10718 bound_to 10713
  154.2358  135.6352  153.5190 H   0  0  0  0  0  0  0  0  0  0  0  0  # atno 10763 bound_to 10752
  152.9940  135.5530  154.5964 H   0  0  0  0  0  0  0  0  0  0  0  0  # atno 10764 bound_to 10752
  154.5457  135.2898  155.1029 H   0  0  0  0  0  0  0  0  0  0  0  0  # atno 10765 bound_to 10752
  140.9550  133.7198  156.1280 H   0  0  0  0  0  0  0  0  0  0  0  0  # atno 11005 bound_to 11000
  144.9347  139.4258  143.6478 LP  0  0  0  0  0  0  0  0  0  0  0  0  # atno 17320 bound_to 7965
  146.3251  139.8276  142.8914 LP  0  0  0  0  0  0  0  0  0  0  0  0  # atno 17321 bound_to 7965
  139.4854  144.4628  151.9520 LP  0  0  0  0  0  0  0  0  0  0  0  0  # atno 17342 bound_to 10162
  140.3715  144.2849  150.5919 LP  0  0  0  0  0  0  0  0  0  0  0  0  # atno 17343 bound_to 10162
  157.6651  131.0873  150.7746 LP  0  0  0  0  0  0  0  0  0  0  0  0  # atno 17370 bound_to 10713
  156.7815  130.4861  149.5400 LP  0  0  0  0  0  0  0  0  0  0  0  0  # atno 17371 bound_to 10713
  140.7548  134.4004  157.5535 LP  0  0  0  0  0  0  0  0  0  0  0  0  # atno 17394 bound_to 11000
  139.8859  134.8923  156.2614 LP  0  0  0  0  0  0  0  0  0  0  0  0  # atno 17395 bound_to 11000

$$$$
