AV-unprocessed.smi:2770|AV-procd|sdf|10660|dock6
  -GOLD-   2272015103D 1   1.00000     0.00000
 Structure written by MMmdl.
 35 36  0  0  0  0  0  0  0  0  2 V2000
  150.1692  135.5054  154.5155 C   0  0  0  0  0  0  0  0  0  0  0  0
  150.0627  136.9536  154.6028 N   0  0  0  0  0  0  0  0  0  0  0  0
  151.0687  137.8034  154.3470 C   0  0  0  0  0  0  0  0  0  0  0  0
  152.1899  137.4272  154.0029 O   0  0  0  0  0  0  0  0  0  0  0  0
  150.7551  139.3000  154.4830 C   0  0  2  0  0  0  0  0  0  0  0  0
  151.2140  139.8787  155.8409 C   0  0  0  0  0  0  0  0  0  0  0  0
  150.8042  141.2716  155.9627 N   0  0  0  0  0  0  0  0  0  0  0  0
  151.2802  141.8764  157.1332 C   0  0  0  0  0  0  0  0  0  0  0  0
  152.1384  141.2293  158.0528 C   0  0  0  0  0  0  0  0  0  0  0  0
  152.5695  141.9248  159.2012 C   0  0  0  0  0  0  0  0  0  0  0  0
  152.1378  143.2506  159.4093 C   0  0  0  0  0  0  0  0  0  0  0  0
  151.2838  143.8517  158.4607 C   0  0  0  0  0  0  0  0  0  0  0  0
  150.7777  145.2706  158.6097 C   0  0  0  0  0  0  0  0  0  0  0  0
  150.8939  143.1494  157.3734 N   0  3  0  0  0  0  0  0  0  0  0  0
  149.3756  141.4587  155.7483 C   0  0  0  0  0  0  0  0  0  0  0  0
  148.9691  140.8607  154.3922 C   0  0  0  0  0  0  0  0  0  0  0  0
  149.3447  139.4875  154.3512 O   0  0  0  0  0  0  0  0  0  0  0  0
  149.2207  135.0453  154.7921 H   0  0  0  0  0  0  0  0  0  0  0  0
  150.9394  135.1306  155.1906 H   0  0  0  0  0  0  0  0  0  0  0  0
  150.4154  135.1950  153.4994 H   0  0  0  0  0  0  0  0  0  0  0  0
  149.1694  137.3371  154.8772 H   0  0  0  0  0  0  0  0  0  0  0  0
  151.2636  139.8190  153.6684 H   0  0  0  0  0  0  0  0  0  0  0  0
  150.7876  139.2985  156.6612 H   0  0  0  0  0  0  0  0  0  0  0  0
  152.2995  139.8149  155.9305 H   0  0  0  0  0  0  0  0  0  0  0  0
  152.4678  140.2145  157.8830 H   0  0  0  0  0  0  0  0  0  0  0  0
  153.2255  141.4471  159.9140 H   0  0  0  0  0  0  0  0  0  0  0  0
  152.4604  143.7960  160.2845 H   0  0  0  0  0  0  0  0  0  0  0  0
  151.2143  145.7539  159.4843 H   0  0  0  0  0  0  0  0  0  0  0  0
  149.6933  145.2769  158.7223 H   0  0  0  0  0  0  0  0  0  0  0  0
  151.0365  145.8612  157.7304 H   0  0  0  0  0  0  0  0  0  0  0  0
  148.8115  140.9758  156.5471 H   0  0  0  0  0  0  0  0  0  0  0  0
  149.1338  142.5219  155.7768 H   0  0  0  0  0  0  0  0  0  0  0  0
  147.8907  140.9387  154.2540 H   0  0  0  0  0  0  0  0  0  0  0  0
  149.4372  141.4031  153.5690 H   0  0  0  0  0  0  0  0  0  0  0  0
  150.2764  143.6036  156.7000 H   0  0  0  0  0  0  0  0  0  0  0  0
  1  2  1  0  0  0  0
  1 18  1  0  0  0  0
  1 19  1  0  0  0  0
  1 20  1  0  0  0  0
  2  3  1  0  0  0  0
  2 21  1  0  0  0  0
  3  4  2  0  0  0  0
  3  5  1  0  0  0  0
  5 17  1  0  0  0  0
  5  6  1  0  0  0  0
  5 22  1  0  0  0  0
  6  7  1  0  0  0  0
  6 23  1  0  0  0  0
  6 24  1  0  0  0  0
  7  8  1  0  0  0  0
  7 15  1  0  0  0  0
  8 14  1  0  0  0  0
  8  9  2  0  0  0  0
  9 10  1  0  0  0  0
  9 25  1  0  0  0  0
 10 11  2  0  0  0  0
 10 26  1  0  0  0  0
 11 12  1  0  0  0  0
 11 27  1  0  0  0  0
 12 13  1  0  0  0  0
 12 14  2  0  0  0  0
 13 28  1  0  0  0  0
 13 29  1  0  0  0  0
 13 30  1  0  0  0  0
 14 35  1  0  0  0  0
 15 16  1  0  0  0  0
 15 31  1  0  0  0  0
 15 32  1  0  0  0  0
 16 17  1  0  0  0  0
 16 33  1  0  0  0  0
 16 34  1  0  0  0  0
M  CHG  1  14   1
M  END
> <s_m_source_file>
AV-unprocessed.smi

> <i_m_source_file_index>
2770

> <i_lp_mmshare_version>
43012

> <i_f3d_flags>
0

> <s_epik_input>
W0NIM11bTkhdQyg9TylbQ0BASF0xW0NIMl1OKFtDSDJdW0NIMl1PMSljMltjSF1bY0hdW2NIXWMobjIpW0NIM10=

> <s_epik_cmdline>
J2VwaWtfcHl0aG9uJywgJy1waCcsICc3LjAnLCAnLXRuJywgJzgnLCAnLW1hJywgJzIwMCcsICctbWV0YWxfYmluZGluZycsICctaW1hZScsICc8aW5maWxlLm1hZT4nLCAnLW9tYWUnLCAnPG91dGZpbGUubWFlPic=

> <r_lp_tautomer_probability>
0.999994

> <r_epik_Ionization_Penalty>
2.33902

> <r_epik_Ionization_Penalty_Charging>
2.33902

> <r_epik_Ionization_Penalty_Neutral>
5.66859e-08

> <r_epik_State_Penalty>
2.4925

> <r_epik_Charging_Adjusted_Penalty>
4.83152

> <i_epik_Tot_Q>
1

> <i_epik_Tot_abs_Q>
1

> <r_epik_Metal_State_Penalty>
2.50392

> <b_epik_Metal_Only>
0

> <s_lp_Force_Field>
OPLS_2005

> <r_lp_Energy>
23.5554

> <b_lp_Chiralities_Consistent>
1

> <s_lp_Variant>
AV-unprocessed.smi:2770-3

> <Gold.Version>
5.8.1

> <Gold.Id.Protein>
6NUR|6NUR_protein|mol2

> <Gold.PLP.Fitness>
40.7753

> <Gold.PLP.PLP>
-33.7970

> <Gold.PLP.part.hbond>
-2.5302

> <Gold.PLP.part.metal>
0.0000

> <Gold.PLP.part.buried>
-3.3988

> <Gold.PLP.part.nonpolar>
-27.9816

> <Gold.PLP.part.repulsive>
0.3939

> <Gold.PLP.ligand.clash>
0.0000

> <Gold.PLP.ligand.torsion>
0.8064

> <Gold.PLP.Chemscore.Hbond>
2.8305

> <Gold.PLP.Chemscore.CHOScore>
0.0000

> <Gold.PLP.Chemscore.Metal>
0.0000

> <Gold.Chemscore.Hbonds>
donor molecule, donor type, donor heavy atom, donor atom, acceptor molecule, acceptor atom, score
      L1  H    14    35       P1  8028  1.89
      P1  H 10752 10763       L1     4  0.88

> <Gold.PLP.Chemscore.Internal.Correction>
0.0995

> <Gold.Rescore>
     Score         DG    S(hbond)    S(metal)    S(lipo)     H(rot)  DE(clash)    DE(int)     intcor
     17.37     -18.31       1.89        0.00      84.04       1.30       0.14       0.80       ----

> <Gold.Chemscore.Fitness>
17.3699

> <Gold.Chemscore.DG>
-18.3122

> <Gold.Chemscore.ZeroCoef>
-5.4800

> <Gold.Chemscore.Hbond>
1.8917

> <Gold.Chemscore.Metal>
0.0000

> <Gold.Chemscore.Lipo>
84.0365

> <Gold.Chemscore.Internal_Hbond>
0.0000

> <Gold.Chemscore.DEClash>
0.1439

> <Gold.Chemscore.DEInternal>
0.7984

> <Gold.Chemscore.Rot>
1.2963

> <Gold.Chemscore.Internal.Correction>
   9.000000E+99

> <Gold.Chemscore.Hbonds>
donor molecule, donor type, donor heavy atom, donor atom, acceptor molecule, acceptor atom, score
      L1  H    14    35       P1  8028  0.90
      P1  H 10752 10763       L1     4  0.86

> <Gold.Chemscore.Hbond.Weighted>
-6.3184

> <Gold.Chemscore.Metal.Weighted>
-0.0000

> <Gold.Chemscore.Lipo.Weighted>
-9.8323

> <Gold.Chemscore.Internal_Hbond.Weighted>
0.0000

> <Gold.Chemscore.DEClash.Weighted>
0.1439

> <Gold.Chemscore.DEInternal.Weighted>
0.7984

> <Gold.Chemscore.Rot.Weighted>
3.3185

> <Gold.Chemscore.Internal.Correction.Weighted>
   9.000000E+99

> <Gold.Protein.RotatedTorsions>
[ 6907 6896 6895 6894 ] final   12.42 input  -60.11 | X-H torsion
[ 7974 7965 7964 7962 ] final   68.82 input  175.53 | X-H torsion
[ 8008 7997 7996 7995 ] final  173.91 input   59.86 | X-H torsion
[ 10167 10162 10161 10158 ] final  -44.53 input  -65.29 | X-H torsion
[ 10718 10713 10712 10709 ] final   66.94 input   66.30 | X-H torsion
[ 10763 10752 10751 10750 ] final   27.10 input  -60.55 | X-H torsion
[ 11005 11000 10999 10996 ] final  -69.11 input  -57.11 | X-H torsion

> <Gold.Protein.ActiveResidues>
 VAL166  LYS551  ARG553  GLY616  TRP617  ASP618  TYR619  PRO620  LYS621  CYS622 
 ASP623  PHE694  ASN695  SER759  ASP760  ASP761  ALA762  ILE779  LEU786  VAL792 
 PHE793  MET794  SER795  GLU796  ALA797  LYS798  CYS799  TRP800  GLU811  SER814 

> <Gold.Protein.RotatedAtoms>
  151.7700  135.0789  160.0358 H   0  0  0  0  0  0  0  0  0  0  0  0  # atno 6907 bound_to 6896
  152.3295  133.5938  159.5808 H   0  0  0  0  0  0  0  0  0  0  0  0  # atno 6908 bound_to 6896
  150.7414  133.9806  159.3617 H   0  0  0  0  0  0  0  0  0  0  0  0  # atno 6909 bound_to 6896
  145.7979  139.2967  143.1172 H   0  0  0  0  0  0  0  0  0  0  0  0  # atno 7974 bound_to 7965
  156.1028  140.1448  156.9445 H   0  0  0  0  0  0  0  0  0  0  0  0  # atno 8008 bound_to 7997
  154.4713  140.0909  156.7197 H   0  0  0  0  0  0  0  0  0  0  0  0  # atno 8009 bound_to 7997
  155.4731  140.3442  155.4331 H   0  0  0  0  0  0  0  0  0  0  0  0  # atno 8010 bound_to 7997
  140.6893  143.2926  151.3508 H   0  0  0  0  0  0  0  0  0  0  0  0  # atno 10167 bound_to 10162
  157.6200  130.9294  150.0175 H   0  0  0  0  0  0  0  0  0  0  0  0  # atno 10718 bound_to 10713
  153.0578  135.6545  154.0534 H   0  0  0  0  0  0  0  0  0  0  0  0  # atno 10763 bound_to 10752
  154.0209  135.2920  155.3382 H   0  0  0  0  0  0  0  0  0  0  0  0  # atno 10764 bound_to 10752
  154.6902  135.5285  153.8450 H   0  0  0  0  0  0  0  0  0  0  0  0  # atno 10765 bound_to 10752
  141.1547  133.6756  156.6548 H   0  0  0  0  0  0  0  0  0  0  0  0  # atno 11005 bound_to 11000
  145.9909  140.8604  143.0067 LP  0  0  0  0  0  0  0  0  0  0  0  0  # atno 17320 bound_to 7965
  144.6772  140.2214  143.7366 LP  0  0  0  0  0  0  0  0  0  0  0  0  # atno 17321 bound_to 7965
  139.6281  144.0775  152.2452 LP  0  0  0  0  0  0  0  0  0  0  0  0  # atno 17342 bound_to 10162
  140.0241  144.6131  150.7542 LP  0  0  0  0  0  0  0  0  0  0  0  0  # atno 17343 bound_to 10162
  156.1340  130.3643  149.9686 LP  0  0  0  0  0  0  0  0  0  0  0  0  # atno 17370 bound_to 10713
  156.7741  130.9197  151.3645 LP  0  0  0  0  0  0  0  0  0  0  0  0  # atno 17371 bound_to 10713
  140.3292  134.7943  157.4313 LP  0  0  0  0  0  0  0  0  0  0  0  0  # atno 17394 bound_to 11000
  140.1031  134.5446  155.8334 LP  0  0  0  0  0  0  0  0  0  0  0  0  # atno 17395 bound_to 11000

$$$$
