AV-unprocessed.smi:1691|AV-procd|sdf|6774|dock3
  -GOLD-   22720 7533D 1   1.00000     0.00000
 Structure written by MMmdl.
 44 45  0  0  0  0  0  0  0  0  2 V2000
  148.8674  141.0664  156.0951 C   0  0  0  0  0  0  0  0  0  0  0  0
  148.9379  140.8902  154.5658 C   0  0  0  0  0  0  0  0  0  0  0  0
  147.7928  141.6964  153.9201 C   0  0  0  0  0  0  0  0  0  0  0  0
  148.9200  139.3973  154.1227 C   0  0  2  0  0  0  0  0  0  0  0  0
  147.4926  138.7801  154.1579 C   0  0  0  0  0  0  0  0  0  0  0  0
  147.3263  137.6569  153.2396 N   0  0  0  0  0  0  0  0  0  0  0  0
  146.1635  137.0636  152.9345 C   0  0  0  0  0  0  0  0  0  0  0  0
  145.0788  137.4075  153.4032 O   0  0  0  0  0  0  0  0  0  0  0  0
  146.3452  136.0512  152.0717 N   0  0  0  0  0  0  0  0  0  0  0  0
  145.3531  135.1864  151.5459 C   0  0  0  0  0  0  0  0  0  0  0  0
  145.4120  133.7807  151.3144 C   0  0  0  0  0  0  0  0  0  0  0  0
  144.2734  133.3304  150.8075 N   0  0  0  0  0  0  0  0  0  0  0  0
  143.4908  134.4289  150.7152 N   0  0  0  0  0  0  0  0  0  0  0  0
  144.1082  135.5793  151.1539 C   0  0  0  0  0  0  0  0  0  0  0  0
  149.9381  138.6249  154.9035 N   0  3  0  0  0  0  0  0  0  0  0  0
  149.7873  137.1482  154.9098 C   0  0  0  0  0  0  0  0  0  0  0  0
  150.7460  136.5294  155.9402 C   0  0  0  0  0  0  0  0  0  0  0  0
  152.0816  136.9251  155.6484 O   0  0  0  0  0  0  0  0  0  0  0  0
  152.2526  138.3358  155.7235 C   0  0  0  0  0  0  0  0  0  0  0  0
  151.3507  139.0221  154.6842 C   0  0  0  0  0  0  0  0  0  0  0  0
  142.5483  134.3773  150.3550 H   0  0  0  0  0  0  0  0  0  0  0  0
  148.0039  140.5500  156.5157 H   0  0  0  0  0  0  0  0  0  0  0  0
  148.7846  142.1195  156.3658 H   0  0  0  0  0  0  0  0  0  0  0  0
  149.7619  140.6917  156.5918 H   0  0  0  0  0  0  0  0  0  0  0  0
  149.8761  141.3393  154.2386 H   0  0  0  0  0  0  0  0  0  0  0  0
  146.8197  141.2745  154.1736 H   0  0  0  0  0  0  0  0  0  0  0  0
  147.8727  141.7238  152.8334 H   0  0  0  0  0  0  0  0  0  0  0  0
  147.8009  142.7324  154.2605 H   0  0  0  0  0  0  0  0  0  0  0  0
  149.2442  139.3899  153.0807 H   0  0  0  0  0  0  0  0  0  0  0  0
  147.2267  138.5097  155.1809 H   0  0  0  0  0  0  0  0  0  0  0  0
  146.7553  139.5178  153.8448 H   0  0  0  0  0  0  0  0  0  0  0  0
  148.1637  137.3076  152.7966 H   0  0  0  0  0  0  0  0  0  0  0  0
  147.2904  135.8747  151.7644 H   0  0  0  0  0  0  0  0  0  0  0  0
  146.2163  133.0815  151.4888 H   0  0  0  0  0  0  0  0  0  0  0  0
  143.6220  136.5436  151.1474 H   0  0  0  0  0  0  0  0  0  0  0  0
  148.7613  136.8717  155.1513 H   0  0  0  0  0  0  0  0  0  0  0  0
  150.0082  136.7367  153.9263 H   0  0  0  0  0  0  0  0  0  0  0  0
  150.4770  136.8316  156.9537 H   0  0  0  0  0  0  0  0  0  0  0  0
  150.6842  135.4416  155.9048 H   0  0  0  0  0  0  0  0  0  0  0  0
  152.0249  138.6884  156.7308 H   0  0  0  0  0  0  0  0  0  0  0  0
  153.2984  138.5766  155.5308 H   0  0  0  0  0  0  0  0  0  0  0  0
  151.6809  138.7441  153.6845 H   0  0  0  0  0  0  0  0  0  0  0  0
  151.4540  140.1042  154.7698 H   0  0  0  0  0  0  0  0  0  0  0  0
  149.7602  138.9037  155.8579 H   0  0  0  0  0  0  0  0  0  0  0  0
  1  2  1  0  0  0  0
  1 22  1  0  0  0  0
  1 23  1  0  0  0  0
  1 24  1  0  0  0  0
  2  3  1  0  0  0  0
  2  4  1  0  0  0  0
  2 25  1  0  0  0  0
  3 26  1  0  0  0  0
  3 27  1  0  0  0  0
  3 28  1  0  0  0  0
  4  5  1  0  0  0  0
  4 15  1  0  0  0  0
  4 29  1  0  0  0  0
  5  6  1  0  0  0  0
  5 30  1  0  0  0  0
  5 31  1  0  0  0  0
  6  7  1  0  0  0  0
  6 32  1  0  0  0  0
  7  8  2  0  0  0  0
  7  9  1  0  0  0  0
  9 10  1  0  0  0  0
  9 33  1  0  0  0  0
 10 14  2  0  0  0  0
 10 11  1  0  0  0  0
 11 12  2  0  0  0  0
 11 34  1  0  0  0  0
 12 13  1  0  0  0  0
 13 21  1  0  0  0  0
 13 14  1  0  0  0  0
 14 35  1  0  0  0  0
 15 20  1  0  0  0  0
 15 16  1  0  0  0  0
 15 44  1  0  0  0  0
 16 17  1  0  0  0  0
 16 36  1  0  0  0  0
 16 37  1  0  0  0  0
 17 18  1  0  0  0  0
 17 38  1  0  0  0  0
 17 39  1  0  0  0  0
 18 19  1  0  0  0  0
 19 20  1  0  0  0  0
 19 40  1  0  0  0  0
 19 41  1  0  0  0  0
 20 42  1  0  0  0  0
 20 43  1  0  0  0  0
M  CHG  1  15   1
M  END
> <s_m_source_file>
AV-unprocessed.smi

> <i_m_source_file_index>
1691

> <i_lp_mmshare_version>
43012

> <i_f3d_flags>
0

> <s_epik_input>
W0NIMl0xW0NIMl1PW0NIMl1bQ0gyXU4xW0NASF0oW0NIXShbQ0gzXSlbQ0gzXSlbQ0gyXVtOSF1DKD1PKVtOSF1jMltjSF1uW25IXVtjSF0y

> <s_epik_cmdline>
J2VwaWtfcHl0aG9uJywgJy1waCcsICc3LjAnLCAnLXRuJywgJzgnLCAnLW1hJywgJzIwMCcsICctbWV0YWxfYmluZGluZycsICctaW1hZScsICc8aW5maWxlLm1hZT4nLCAnLW9tYWUnLCAnPG91dGZpbGUubWFlPic=

> <r_lp_tautomer_probability>
0.5

> <r_epik_Ionization_Penalty>
0.363378

> <r_epik_Ionization_Penalty_Charging>
0.363339

> <r_epik_Ionization_Penalty_Neutral>
3.97246e-05

> <r_epik_State_Penalty>
0.36031

> <r_epik_Charging_Adjusted_Penalty>
0.723649

> <i_epik_Tot_Q>
1

> <i_epik_Tot_abs_Q>
1

> <r_epik_Metal_State_Penalty>
0.360311

> <b_epik_Metal_Only>
0

> <s_lp_Force_Field>
OPLS_2005

> <r_lp_Energy>
33.682

> <b_lp_Chiralities_Consistent>
1

> <s_lp_Variant>
AV-unprocessed.smi:1691-1

> <Gold.Version>
5.8.1

> <Gold.Id.Protein>
6NUR|6NUR_protein|mol2

> <Gold.PLP.Fitness>
42.4238

> <Gold.PLP.PLP>
-29.1727

> <Gold.PLP.part.hbond>
-4.0000

> <Gold.PLP.part.metal>
0.0000

> <Gold.PLP.part.buried>
-3.5115

> <Gold.PLP.part.nonpolar>
-22.0141

> <Gold.PLP.part.repulsive>
0.4693

> <Gold.PLP.ligand.clash>
0.0000

> <Gold.PLP.ligand.torsion>
1.0193

> <Gold.PLP.Chemscore.Hbond>
4.0000

> <Gold.PLP.Chemscore.CHOScore>
1.0000

> <Gold.PLP.Chemscore.Metal>
0.0000

> <Gold.Chemscore.Hbonds>
donor molecule, donor type, donor heavy atom, donor atom, acceptor molecule, acceptor atom, score
      L1  H     6    32       P1  7948  1.00
      L1  H     9    33       P1  7948  1.00
      L1  H    13    21       P1 10186  1.00
      P1  H 10752 10764       L1    18  1.00
      L1  C    14    35       P1 10171  1.00

> <Gold.PLP.Chemscore.Internal.Correction>
0.2897

> <Gold.Rescore>
     Score         DG    S(hbond)    S(metal)    S(lipo)     H(rot)  DE(clash)    DE(int)     intcor
     19.03     -21.12       3.80        0.00      65.61       1.84       0.01       2.07       ----

> <Gold.Chemscore.Fitness>
19.0328

> <Gold.Chemscore.DG>
-21.1183

> <Gold.Chemscore.ZeroCoef>
-5.4800

> <Gold.Chemscore.Hbond>
3.7959

> <Gold.Chemscore.Metal>
0.0000

> <Gold.Chemscore.Lipo>
65.6149

> <Gold.Chemscore.Internal_Hbond>
0.0000

> <Gold.Chemscore.DEClash>
0.0147

> <Gold.Chemscore.DEInternal>
2.0708

> <Gold.Chemscore.Rot>
1.8425

> <Gold.Chemscore.Internal.Correction>
   9.000000E+99

> <Gold.Chemscore.Hbonds>
donor molecule, donor type, donor heavy atom, donor atom, acceptor molecule, acceptor atom, score
      L1  H     6    32       P1  7948  0.96
      L1  H     9    33       P1  7948  0.95
      L1  H    13    21       P1 10186  0.65
      P1  H 10752 10764       L1    18  0.74

> <Gold.Chemscore.Hbond.Weighted>
-12.6782

> <Gold.Chemscore.Metal.Weighted>
-0.0000

> <Gold.Chemscore.Lipo.Weighted>
-7.6769

> <Gold.Chemscore.Internal_Hbond.Weighted>
0.0000

> <Gold.Chemscore.DEClash.Weighted>
0.0147

> <Gold.Chemscore.DEInternal.Weighted>
2.0708

> <Gold.Chemscore.Rot.Weighted>
4.7168

> <Gold.Chemscore.Internal.Correction.Weighted>
   9.000000E+99

> <Gold.Protein.RotatedTorsions>
[ 6907 6896 6895 6894 ] final  -89.82 input  -60.11 | X-H torsion
[ 7974 7965 7964 7962 ] final   -4.07 input  175.53 | X-H torsion
[ 8008 7997 7996 7995 ] final   71.08 input   59.86 | X-H torsion
[ 10167 10162 10161 10158 ] final -112.53 input  -65.29 | X-H torsion
[ 10718 10713 10712 10709 ] final   -1.98 input   66.30 | X-H torsion
[ 10763 10752 10751 10750 ] final  -45.87 input  -60.55 | X-H torsion
[ 11005 11000 10999 10996 ] final  -65.40 input  -57.11 | X-H torsion

> <Gold.Protein.ActiveResidues>
 VAL166  LYS551  ARG553  GLY616  TRP617  ASP618  TYR619  PRO620  LYS621  CYS622 
 ASP623  PHE694  ASN695  SER759  ASP760  ASP761  ALA762  ILE779  LEU786  VAL792 
 PHE793  MET794  SER795  GLU796  ALA797  LYS798  CYS799  TRP800  GLU811  SER814 

> <Gold.Protein.RotatedAtoms>
  150.6876  134.2528  159.4517 H   0  0  0  0  0  0  0  0  0  0  0  0  # atno 6907 bound_to 6896
  152.0464  134.9677  160.0583 H   0  0  0  0  0  0  0  0  0  0  0  0  # atno 6908 bound_to 6896
  152.1159  133.4291  159.4689 H   0  0  0  0  0  0  0  0  0  0  0  0  # atno 6909 bound_to 6896
  146.2379  140.1817  142.8332 H   0  0  0  0  0  0  0  0  0  0  0  0  # atno 7974 bound_to 7965
  155.7485  140.3489  155.5138 H   0  0  0  0  0  0  0  0  0  0  0  0  # atno 8008 bound_to 7997
  155.9027  140.1037  157.1359 H   0  0  0  0  0  0  0  0  0  0  0  0  # atno 8009 bound_to 7997
  154.4046  140.1283  156.4444 H   0  0  0  0  0  0  0  0  0  0  0  0  # atno 8010 bound_to 7997
  140.1218  143.4437  152.1686 H   0  0  0  0  0  0  0  0  0  0  0  0  # atno 10167 bound_to 10162
  156.7977  130.5382  149.5726 H   0  0  0  0  0  0  0  0  0  0  0  0  # atno 10718 bound_to 10713
  154.0356  135.6651  153.4785 H   0  0  0  0  0  0  0  0  0  0  0  0  # atno 10763 bound_to 10752
  153.0522  135.5077  154.7891 H   0  0  0  0  0  0  0  0  0  0  0  0  # atno 10764 bound_to 10752
  154.6851  135.3051  154.9524 H   0  0  0  0  0  0  0  0  0  0  0  0  # atno 10765 bound_to 10752
  141.1453  133.6681  156.5981 H   0  0  0  0  0  0  0  0  0  0  0  0  # atno 11005 bound_to 11000
  144.9929  140.8563  143.5328 LP  0  0  0  0  0  0  0  0  0  0  0  0  # atno 17320 bound_to 7965
  145.1825  139.2344  143.5285 LP  0  0  0  0  0  0  0  0  0  0  0  0  # atno 17321 bound_to 7965
  139.5565  144.7376  151.4280 LP  0  0  0  0  0  0  0  0  0  0  0  0  # atno 17342 bound_to 10162
  140.6868  143.7955  150.7197 LP  0  0  0  0  0  0  0  0  0  0  0  0  # atno 17343 bound_to 10162
  156.1120  130.6047  151.0062 LP  0  0  0  0  0  0  0  0  0  0  0  0  # atno 17370 bound_to 10713
  157.6569  131.0888  150.7926 LP  0  0  0  0  0  0  0  0  0  0  0  0  # atno 17371 bound_to 10713
  140.3710  134.7605  157.4598 LP  0  0  0  0  0  0  0  0  0  0  0  0  # atno 17394 bound_to 11000
  140.0710  134.5862  155.8641 LP  0  0  0  0  0  0  0  0  0  0  0  0  # atno 17395 bound_to 11000

$$$$
