AV-unprocessed.smi:2825|AV-procd|sdf|10891|dock6
  -GOLD-   2272015333D 1   1.00000     0.00000
 Structure written by MMmdl.
 49 50  0  0  0  0  0  0  0  0  2 V2000
  146.0266  134.3011  162.2304 C   0  0  0  0  0  0  0  0  0  0  0  0
  147.4732  134.4239  161.7408 C   0  0  0  0  0  0  0  0  0  0  0  0
  147.5648  134.5689  160.2150 C   0  0  0  0  0  0  0  0  0  0  0  0
  147.5697  136.3405  159.6958 S   0  0  0  0  0  0  0  0  0  0  0  0
  146.3956  136.5948  158.8473 O   0  0  0  0  0  0  0  0  0  0  0  0
  147.8094  137.1705  160.8867 O   0  0  0  0  0  0  0  0  0  0  0  0
  148.9743  136.4391  158.6800 N   0  0  0  0  0  0  0  0  0  0  0  0
  148.8881  135.8987  157.3190 C   0  0  0  0  0  0  0  0  0  0  0  0
  149.8739  137.5931  158.8275 C   0  0  0  0  0  0  0  0  0  0  0  0
  149.6992  138.5883  157.6580 C   0  0  1  0  0  0  0  0  0  0  0  0
  148.7294  139.5461  158.0288 O   0  0  0  0  0  0  0  0  0  0  0  0
  150.9848  139.3588  157.2961 C   0  0  0  0  0  0  0  0  0  0  0  0
  150.7499  140.8001  157.1284 N   0  0  0  0  0  0  0  0  0  0  0  0
  150.1353  141.4585  156.1084 C   0  0  0  0  0  0  0  0  0  0  0  0
  150.1744  142.7889  156.3939 N   0  3  0  0  0  0  0  0  0  0  0  0
  150.8184  142.9838  157.6170 C   0  0  0  0  0  0  0  0  0  0  0  0
  151.1004  144.1493  158.3194 C   0  0  0  0  0  0  0  0  0  0  0  0
  151.7813  144.0122  159.5498 C   0  0  0  0  0  0  0  0  0  0  0  0
  152.1071  145.2670  160.3422 C   0  0  0  0  0  0  0  0  0  0  0  0
  152.1561  142.7338  160.0380 C   0  0  0  0  0  0  0  0  0  0  0  0
  152.8919  142.5978  161.3602 C   0  0  0  0  0  0  0  0  0  0  0  0
  151.8575  141.5601  159.3098 C   0  0  0  0  0  0  0  0  0  0  0  0
  151.1869  141.7117  158.0978 C   0  0  0  0  0  0  0  0  0  0  0  0
  145.9904  134.1991  163.3152 H   0  0  0  0  0  0  0  0  0  0  0  0
  145.5381  133.4274  161.7980 H   0  0  0  0  0  0  0  0  0  0  0  0
  145.4428  135.1813  161.9597 H   0  0  0  0  0  0  0  0  0  0  0  0
  147.9432  135.2807  162.2240 H   0  0  0  0  0  0  0  0  0  0  0  0
  148.0322  133.5432  162.0578 H   0  0  0  0  0  0  0  0  0  0  0  0
  148.4557  134.0819  159.8203 H   0  0  0  0  0  0  0  0  0  0  0  0
  146.7029  134.0944  159.7457 H   0  0  0  0  0  0  0  0  0  0  0  0
  149.8847  135.7114  156.9180 H   0  0  0  0  0  0  0  0  0  0  0  0
  148.3726  136.6040  156.6664 H   0  0  0  0  0  0  0  0  0  0  0  0
  148.3388  134.9583  157.3104 H   0  0  0  0  0  0  0  0  0  0  0  0
  149.7200  138.0941  159.7849 H   0  0  0  0  0  0  0  0  0  0  0  0
  150.8893  137.2030  158.8649 H   0  0  0  0  0  0  0  0  0  0  0  0
  149.3398  138.0791  156.7637 H   0  0  0  0  0  0  0  0  0  0  0  0
  148.8479  140.3177  157.4965 H   0  0  0  0  0  0  0  0  0  0  0  0
  151.7159  139.2555  158.0994 H   0  0  0  0  0  0  0  0  0  0  0  0
  151.4566  138.9519  156.4022 H   0  0  0  0  0  0  0  0  0  0  0  0
  149.7063  141.0070  155.2253 H   0  0  0  0  0  0  0  0  0  0  0  0
  150.8136  145.1195  157.9401 H   0  0  0  0  0  0  0  0  0  0  0  0
  153.1854  145.3742  160.4628 H   0  0  0  0  0  0  0  0  0  0  0  0
  151.6493  145.2259  161.3309 H   0  0  0  0  0  0  0  0  0  0  0  0
  151.7371  146.1622  159.8415 H   0  0  0  0  0  0  0  0  0  0  0  0
  153.1250  141.5560  161.5825 H   0  0  0  0  0  0  0  0  0  0  0  0
  152.2837  142.9845  162.1780 H   0  0  0  0  0  0  0  0  0  0  0  0
  153.8316  143.1501  161.3350 H   0  0  0  0  0  0  0  0  0  0  0  0
  152.1495  140.5901  159.6831 H   0  0  0  0  0  0  0  0  0  0  0  0
  149.7931  143.5087  155.7935 H   0  0  0  0  0  0  0  0  0  0  0  0
  1  2  1  0  0  0  0
  1 24  1  0  0  0  0
  1 25  1  0  0  0  0
  1 26  1  0  0  0  0
  2  3  1  0  0  0  0
  2 27  1  0  0  0  0
  2 28  1  0  0  0  0
  3  4  1  0  0  0  0
  3 29  1  0  0  0  0
  3 30  1  0  0  0  0
  4  5  2  0  0  0  0
  4  6  2  0  0  0  0
  4  7  1  0  0  0  0
  7  8  1  0  0  0  0
  7  9  1  0  0  0  0
  8 31  1  0  0  0  0
  8 32  1  0  0  0  0
  8 33  1  0  0  0  0
  9 10  1  0  0  0  0
  9 34  1  0  0  0  0
  9 35  1  0  0  0  0
 10 11  1  0  0  0  0
 10 12  1  0  0  0  0
 10 36  1  0  0  0  0
 11 37  1  0  0  0  0
 12 13  1  0  0  0  0
 12 38  1  0  0  0  0
 12 39  1  0  0  0  0
 13 23  1  0  0  0  0
 13 14  1  0  0  0  0
 14 15  2  0  0  0  0
 14 40  1  0  0  0  0
 15 16  1  0  0  0  0
 15 49  1  0  0  0  0
 16 23  2  0  0  0  0
 16 17  1  0  0  0  0
 17 18  2  0  0  0  0
 17 41  1  0  0  0  0
 18 19  1  0  0  0  0
 18 20  1  0  0  0  0
 19 42  1  0  0  0  0
 19 43  1  0  0  0  0
 19 44  1  0  0  0  0
 20 21  1  0  0  0  0
 20 22  2  0  0  0  0
 21 45  1  0  0  0  0
 21 46  1  0  0  0  0
 21 47  1  0  0  0  0
 22 23  1  0  0  0  0
 22 48  1  0  0  0  0
M  CHG  1  15   1
M  END
> <s_m_source_file>
AV-unprocessed.smi

> <i_m_source_file_index>
2825

> <i_lp_mmshare_version>
43012

> <i_f3d_flags>
0

> <s_epik_input>
W0NIM11bQ0gyXVtDSDJdUyg9TykoPU8pTihbQ0gzXSlbQ0gyXVtDQEhdKFtPSF0pW0NIMl1uKFtjSF1uMSljKGMxMilbY0hdYyhbQ0gzXSljKFtjSF0yKVtDSDNd

> <s_epik_cmdline>
J2VwaWtfcHl0aG9uJywgJy1waCcsICc3LjAnLCAnLXRuJywgJzgnLCAnLW1hJywgJzIwMCcsICctbWV0YWxfYmluZGluZycsICctaW1hZScsICc8aW5maWxlLm1hZT4nLCAnLW9tYWUnLCAnPG91dGZpbGUubWFlPic=

> <r_epik_Ionization_Penalty>
1.0773

> <r_epik_Ionization_Penalty_Charging>
1.0773

> <r_epik_Ionization_Penalty_Neutral>
1.44651e-06

> <r_epik_State_Penalty>
1.13242

> <r_epik_Charging_Adjusted_Penalty>
2.20972

> <i_epik_Tot_Q>
1

> <i_epik_Tot_abs_Q>
1

> <r_epik_Metal_State_Penalty>
5.13045

> <b_epik_Metal_Only>
0

> <s_lp_Force_Field>
OPLS_2005

> <r_lp_Energy>
14.1853

> <b_lp_Chiralities_Consistent>
1

> <s_lp_Variant>
AV-unprocessed.smi:2825-4

> <Gold.Version>
5.8.1

> <Gold.Id.Protein>
6NUR|6NUR_protein|mol2

> <Gold.PLP.Fitness>
55.9501

> <Gold.PLP.PLP>
-48.3504

> <Gold.PLP.part.hbond>
-3.4438

> <Gold.PLP.part.metal>
0.0000

> <Gold.PLP.part.buried>
-6.3244

> <Gold.PLP.part.nonpolar>
-39.0083

> <Gold.PLP.part.repulsive>
0.0749

> <Gold.PLP.ligand.clash>
0.0000

> <Gold.PLP.ligand.torsion>
2.8195

> <Gold.PLP.Chemscore.Hbond>
3.5520

> <Gold.PLP.Chemscore.CHOScore>
0.0000

> <Gold.PLP.Chemscore.Metal>
0.0000

> <Gold.Chemscore.Hbonds>
donor molecule, donor type, donor heavy atom, donor atom, acceptor molecule, acceptor atom, score
      L1  H    15    49       P1  8028  1.84
      P1  H  6931  6943       L1     6  0.88
      P1  H  6934  6947       L1     6  0.85

> <Gold.PLP.Chemscore.Internal.Correction>
2.5827

> <Gold.Rescore>
     Score         DG    S(hbond)    S(metal)    S(lipo)     H(rot)  DE(clash)    DE(int)     intcor
     18.36     -21.25       2.53        0.00     117.37       2.51       0.01       2.88       ----

> <Gold.Chemscore.Fitness>
18.3631

> <Gold.Chemscore.DG>
-21.2494

> <Gold.Chemscore.ZeroCoef>
-5.4800

> <Gold.Chemscore.Hbond>
2.5342

> <Gold.Chemscore.Metal>
0.0000

> <Gold.Chemscore.Lipo>
117.3691

> <Gold.Chemscore.Internal_Hbond>
0.0000

> <Gold.Chemscore.DEClash>
0.0073

> <Gold.Chemscore.DEInternal>
2.8790

> <Gold.Chemscore.Rot>
2.5106

> <Gold.Chemscore.Internal.Correction>
   9.000000E+99

> <Gold.Chemscore.Hbonds>
donor molecule, donor type, donor heavy atom, donor atom, acceptor molecule, acceptor atom, score
      L1  H    15    49       P1  8028  0.84
      P1  H  6931  6943       L1     6  0.86
      P1  H  6934  6947       L1     6  0.80

> <Gold.Chemscore.Hbond.Weighted>
-8.4643

> <Gold.Chemscore.Metal.Weighted>
-0.0000

> <Gold.Chemscore.Lipo.Weighted>
-13.7322

> <Gold.Chemscore.Internal_Hbond.Weighted>
0.0000

> <Gold.Chemscore.DEClash.Weighted>
0.0073

> <Gold.Chemscore.DEInternal.Weighted>
2.8790

> <Gold.Chemscore.Rot.Weighted>
6.4271

> <Gold.Chemscore.Internal.Correction.Weighted>
   9.000000E+99

> <Gold.Protein.RotatedTorsions>
[ 6907 6896 6895 6894 ] final  -40.16 input  -60.11 | X-H torsion
[ 7974 7965 7964 7962 ] final   -9.26 input  175.53 | X-H torsion
[ 8008 7997 7996 7995 ] final   83.57 input   59.86 | X-H torsion
[ 10167 10162 10161 10158 ] final  139.96 input  -65.29 | X-H torsion
[ 10718 10713 10712 10709 ] final  103.57 input   66.30 | X-H torsion
[ 10763 10752 10751 10750 ] final    4.25 input  -60.55 | X-H torsion
[ 11005 11000 10999 10996 ] final   33.36 input  -57.11 | X-H torsion

> <Gold.Protein.ActiveResidues>
 VAL166  LYS551  ARG553  GLY616  TRP617  ASP618  TYR619  PRO620  LYS621  CYS622 
 ASP623  PHE694  ASN695  SER759  ASP760  ASP761  ALA762  ILE779  LEU786  VAL792 
 PHE793  MET794  SER795  GLU796  ALA797  LYS798  CYS799  TRP800  GLU811  SER814 

> <Gold.Protein.RotatedAtoms>
  150.9817  134.9171  159.7848 H   0  0  0  0  0  0  0  0  0  0  0  0  # atno 6907 bound_to 6896
  152.5224  134.3401  159.9224 H   0  0  0  0  0  0  0  0  0  0  0  0  # atno 6908 bound_to 6896
  151.3408  133.3922  159.2705 H   0  0  0  0  0  0  0  0  0  0  0  0  # atno 6909 bound_to 6896
  146.2257  140.2591  142.8351 H   0  0  0  0  0  0  0  0  0  0  0  0  # atno 7974 bound_to 7965
  155.9257  140.3418  155.6208 H   0  0  0  0  0  0  0  0  0  0  0  0  # atno 8008 bound_to 7997
  155.7219  140.0784  157.2345 H   0  0  0  0  0  0  0  0  0  0  0  0  # atno 8009 bound_to 7997
  154.4076  140.1604  156.2399 H   0  0  0  0  0  0  0  0  0  0  0  0  # atno 8010 bound_to 7997
  139.5063  144.6263  151.5928 H   0  0  0  0  0  0  0  0  0  0  0  0  # atno 10167 bound_to 10162
  157.6768  131.0782  150.5575 H   0  0  0  0  0  0  0  0  0  0  0  0  # atno 10718 bound_to 10713
  153.2735  135.6934  153.7457 H   0  0  0  0  0  0  0  0  0  0  0  0  # atno 10763 bound_to 10752
  153.6472  135.3383  155.3090 H   0  0  0  0  0  0  0  0  0  0  0  0  # atno 10764 bound_to 10752
  154.8472  135.4445  154.1765 H   0  0  0  0  0  0  0  0  0  0  0  0  # atno 10765 bound_to 10752
  140.2639  134.3160  155.7849 H   0  0  0  0  0  0  0  0  0  0  0  0  # atno 11005 bound_to 11000
  144.9353  140.8020  143.5664 LP  0  0  0  0  0  0  0  0  0  0  0  0  # atno 17320 bound_to 7965
  145.2538  139.2021  143.4928 LP  0  0  0  0  0  0  0  0  0  0  0  0  # atno 17321 bound_to 7965
  140.5981  143.9659  150.6368 LP  0  0  0  0  0  0  0  0  0  0  0  0  # atno 17342 bound_to 10162
  140.2861  143.3356  152.1106 LP  0  0  0  0  0  0  0  0  0  0  0  0  # atno 17343 bound_to 10162
  156.5879  130.4321  149.5949 LP  0  0  0  0  0  0  0  0  0  0  0  0  # atno 17370 bound_to 10713
  156.2608  130.6961  151.1729 LP  0  0  0  0  0  0  0  0  0  0  0  0  # atno 17371 bound_to 10713
  141.2187  133.7426  156.9229 LP  0  0  0  0  0  0  0  0  0  0  0  0  # atno 17394 bound_to 11000
  140.1438  134.9276  157.2502 LP  0  0  0  0  0  0  0  0  0  0  0  0  # atno 17395 bound_to 11000

$$$$
