#       Name:                AV-unprocessed.smi:1336
#       Creating user name   scv26
#       Creation time:       Fri Mar 27 05:07:43 2020


#       File generated by GOLD software.
#

@<TRIPOS>MOLECULE
AV-unprocessed.smi:1336
    48    48     1
SMALL
NO_CHARGES


@<TRIPOS>ATOM
      1 ****        -5.0158   0.7674   0.8838 C.3            1 S1                 0.0000
      2 ****        -4.7835   0.4683  -0.6039 C.3            1 S1                 0.0000
      3 ****        -3.2981   0.3810  -0.9887 C.3            1 S1                 0.0000
      4 ****        -2.6389  -0.7238  -0.3002 N.am           1 S1                 0.0000
      5 ****        -1.4723  -0.6520   0.3580 C.2            1 S1                 0.0000
      6 ****        -0.8044   0.3802   0.4458 O.2            1 S1                 0.0000
      7 ****        -1.0032  -1.9492   1.0383 C.3            1 S1                 0.0000
      8 ****        -1.3940  -1.8721   2.5235 C.3            1 S1                 0.0000
      9 ****         0.4509  -2.0639   0.9592 N.am           1 S1                 0.0000
     10 ****         1.1378  -2.5461  -0.0902 C.2            1 S1                 0.0000
     11 ****         0.5995  -3.0366  -1.0826 O.2            1 S1                 0.0000
     12 ****         2.6653  -2.4552  -0.0140 C.3            1 S1                 0.0000
     13 ****         3.1005  -1.0452   0.2762 C.2            1 S1                 0.0000
     14 ****         3.7123  -0.5923   1.4189 C.2            1 S1                 0.0000
     15 ****         3.9990   1.1253   1.3664 S.3            1 S1                 0.0000
     16 ****         3.2727   1.1687  -0.2363 C.2            1 S1                 0.0000
     17 ****         3.1085   2.4256  -1.0304 C.3            1 S1                 0.0000
     18 ****         1.6290   2.7648  -1.2663 C.3            1 S1                 0.0000
     19 ****         3.9362   2.4055  -2.3234 C.3            1 S1                 0.0000
     20 ****         2.8763  -0.0333  -0.6637 N.2            1 S1                 0.0000
     21 ****        -6.0806   0.8641   1.0968 H              1 S1                 0.0000
     22 ****        -4.5315   1.6989   1.1778 H              1 S1                 0.0000
     23 ****        -4.6245  -0.0285   1.5179 H              1 S1                 0.0000
     24 ****        -5.2875  -0.4617  -0.8695 H              1 S1                 0.0000
     25 ****        -5.2570   1.2497  -1.1993 H              1 S1                 0.0000
     26 ****        -3.2056   0.2145  -2.0622 H              1 S1                 0.0000
     27 ****        -2.8114   1.3352  -0.7807 H              1 S1                 0.0000
     28 ****        -3.1141  -1.6144  -0.3170 H              1 S1                 0.0000
     29 ****        -1.4780  -2.8169   0.5758 H              1 S1                 0.0000
     30 ****        -2.4746  -1.7850   2.6446 H              1 S1                 0.0000
     31 ****        -0.9331  -1.0179   3.0220 H              1 S1                 0.0000
     32 ****        -1.0807  -2.7715   3.0548 H              1 S1                 0.0000
     33 ****         0.9774  -1.6775   1.7292 H              1 S1                 0.0000
     34 ****         3.0182  -3.1380   0.7596 H              1 S1                 0.0000
     35 ****         3.0975  -2.8005  -0.9540 H              1 S1                 0.0000
     36 ****         3.9980  -1.1603   2.2917 H              1 S1                 0.0000
     37 ****         3.5149   3.2309  -0.4173 H              1 S1                 0.0000
     38 ****         1.0903   2.8485  -0.3219 H              1 S1                 0.0000
     39 ****         1.1356   1.9959  -1.8620 H              1 S1                 0.0000
     40 ****         1.5223   3.7130  -1.7936 H              1 S1                 0.0000
     41 ****         4.9923   2.2370  -2.1102 H              1 S1                 0.0000
     42 ****         3.8540   3.3529  -2.8567 H              1 S1                 0.0000
     43 ****         3.6013   1.6155  -2.9962 H              1 S1                 0.0000
     44 ****        -1.1262   1.2223   0.0129 LP             1 S1                 0.0000
     45 ****         0.0592   0.3755   0.9499 LP             1 S1                 0.0000
     46 ****        -0.3977  -3.0907  -1.1352 LP             1 S1                 0.0000
     47 ****         1.1593  -3.3810  -1.8362 LP             1 S1                 0.0000
     48 ****         2.4631  -0.1929  -1.5603 LP             1 S1                 0.0000
@<TRIPOS>BOND
    1    1    2 1     
    2    1   21 1     
    3    1   22 1     
    4    1   23 1     
    5    2    3 1     
    6    2   24 1     
    7    2   25 1     
    8    3    4 1     
    9    3   26 1     
   10    3   27 1     
   11    4    5 am    
   12    4   28 1     
   13    5    6 2     
   14    5    7 1     
   15    7    8 1     
   16    7    9 1     
   17    7   29 1     
   18    8   30 1     
   19    8   31 1     
   20    8   32 1     
   21    9   10 am    
   22    9   33 1     
   23   10   11 2     
   24   10   12 1     
   25   12   13 1     
   26   12   34 1     
   27   12   35 1     
   28   13   20 1     
   29   13   14 2     
   30   14   15 1     
   31   14   36 1     
   32   15   16 1     
   33   16   17 1     
   34   16   20 2     
   35   17   18 1     
   36   17   19 1     
   37   17   37 1     
   38   18   38 1     
   39   18   39 1     
   40   18   40 1     
   41   19   41 1     
   42   19   42 1     
   43   19   43 1     
   44    6   44 1     
   45    6   45 1     
   46   11   46 1     
   47   11   47 1     
   48   20   48 1     
@<TRIPOS>SUBSTRUCTURE
      1 S1             1
@<TRIPOS>SET
LONE_PAIRS      STATIC     ATOMS    <user>   **** ""
5 44 45 46 47 48
DONOR_HYDROGENS      STATIC     ATOMS    <user>   **** ""
2 28 33
ATOM$BLUE        STATIC     ATOMS    COLORGROUP SYSTEM
5 44 45 46 47 48
ATOM$RED        STATIC     ATOMS    COLORGROUP SYSTEM
2 28 33
