#       Name:                AV-unprocessed.smi:243
#       Creating user name   scv26
#       Creation time:       Thu Mar 26 20:48:53 2020


#       File generated by GOLD software.
#

@<TRIPOS>MOLECULE
AV-unprocessed.smi:243
    65    68     1
SMALL
NO_CHARGES


@<TRIPOS>ATOM
      1 ****        -3.8103  -6.2262   0.3619 C.3            1 S1                 0.0000
      2 ****        -2.6197  -5.6663  -0.4302 C.3            1 S1                 0.0000
      3 ****        -2.4684  -4.1975  -0.2715 N.4            1 S1                 1.0000
      4 ****        -1.7013  -3.5921  -1.3901 C.3            1 S1                 0.0000
      5 ****        -1.6409  -2.0560  -1.2832 C.3            1 S1                 0.0000
      6 ****        -1.2089  -1.5268   0.1007 C.3            1 S1                 0.0000
      7 ****         0.2527  -1.4276   0.2675 N.pl3          1 S1                 0.0000
      8 ****         1.1361  -2.5829   0.4137 C.3            1 S1                 0.0000
      9 ****         0.7523  -0.2290   0.6664 C.ar           1 S1                 0.0000
     10 ****         1.5660  -0.1819   1.7546 N.ar           1 S1                 0.0000
     11 ****         2.0545   0.9857   2.1822 C.ar           1 S1                 0.0000
     12 ****         1.8636   2.2052   1.6762 N.ar           1 S1                 0.0000
     13 ****         1.0622   2.1644   0.5736 C.ar           1 S1                 0.0000
     14 ****         0.4694   1.0010   0.0060 C.ar           1 S1                 0.0000
     15 ****        -0.2745   1.3496  -1.1154 N.2            1 S1                 0.0000
     16 ****        -0.1402   2.6451  -1.1973 C.2            1 S1                 0.0000
     17 ****         0.6516   3.2166  -0.2267 N.pl3          1 S1                 0.0000
     18 ****         0.9645   4.6302  -0.0784 C.3            1 S1                 0.0000
     19 ****         2.0813   5.1239  -1.0285 C.3            1 S1                 0.0000
     20 ****         1.6437   4.9823  -2.3695 O.3            1 S1                 0.0000
     21 ****         2.4482   6.5854  -0.7988 C.3            1 S1                 0.0000
     22 ****         3.9155   6.6334  -1.2030 C.3            1 S1                 0.0000
     23 ****         4.4204   5.4101  -0.6961 O.3            1 S1                 0.0000
     24 ****         3.4347   4.3974  -0.8755 C.3            1 S1                 0.0000
     25 ****        -1.9544  -2.2740   1.2342 C.3            1 S1                 0.0000
     26 ****        -1.5371  -1.8321   2.6474 C.3            1 S1                 0.0000
     27 ****        -1.9205  -3.8041   1.0536 C.3            1 S1                 0.0000
     28 ****        -3.9494  -7.2854   0.1440 H              1 S1                 0.0000
     29 ****        -4.7355  -5.7121   0.0991 H              1 S1                 0.0000
     30 ****        -3.6679  -6.1363   1.4383 H              1 S1                 0.0000
     31 ****        -1.6949  -6.1713  -0.1471 H              1 S1                 0.0000
     32 ****        -2.7869  -5.8981  -1.4830 H              1 S1                 0.0000
     33 ****        -0.7067  -4.0301  -1.4372 H              1 S1                 0.0000
     34 ****        -2.1823  -3.8510  -2.3343 H              1 S1                 0.0000
     35 ****        -1.0026  -1.6437  -2.0658 H              1 S1                 0.0000
     36 ****        -2.6412  -1.6728  -1.4889 H              1 S1                 0.0000
     37 ****        -1.5977  -0.5102   0.1516 H              1 S1                 0.0000
     38 ****         2.1662  -2.3105   0.1793 H              1 S1                 0.0000
     39 ****         0.8678  -3.3932  -0.2560 H              1 S1                 0.0000
     40 ****         1.1143  -2.9619   1.4354 H              1 S1                 0.0000
     41 ****         2.6881   0.9359   3.0556 H              1 S1                 0.0000
     42 ****        -0.6151   3.2237  -1.9764 H              1 S1                 0.0000
     43 ****         0.0493   5.2004  -0.2435 H              1 S1                 0.0000
     44 ****         1.2503   4.8090   0.9590 H              1 S1                 0.0000
     45 ****         2.3368   5.2734  -2.9425 H              1 S1                 0.0000
     46 ****         1.8260   7.2889  -1.3539 H              1 S1                 0.0000
     47 ****         2.3654   6.8350   0.2600 H              1 S1                 0.0000
     48 ****         4.0242   6.6547  -2.2886 H              1 S1                 0.0000
     49 ****         4.4424   7.4912  -0.7846 H              1 S1                 0.0000
     50 ****         3.4610   3.7415  -0.0063 H              1 S1                 0.0000
     51 ****         3.6788   3.7909  -1.7492 H              1 S1                 0.0000
     52 ****        -3.0034  -1.9888   1.1374 H              1 S1                 0.0000
     53 ****        -0.5197  -2.1402   2.8868 H              1 S1                 0.0000
     54 ****        -2.1949  -2.2652   3.4014 H              1 S1                 0.0000
     55 ****        -1.5895  -0.7478   2.7506 H              1 S1                 0.0000
     56 ****        -2.5165  -4.2566   1.8452 H              1 S1                 0.0000
     57 ****        -0.9109  -4.1965   1.1704 H              1 S1                 0.0000
     58 ****        -3.3987  -3.8082  -0.3291 H              1 S1                 0.0000
     59 ****         1.8001  -1.0257   2.2375 LP             1 S1                 0.0000
     60 ****         2.2577   3.0419   2.0566 LP             1 S1                 0.0000
     61 ****        -0.7935   0.7460  -1.7206 LP             1 S1                 0.0000
     62 ****         0.8265   5.5390  -2.5185 LP             1 S1                 0.0000
     63 ****         1.4321   4.0229  -2.5560 LP             1 S1                 0.0000
     64 ****         4.6271   5.5094   0.2772 LP             1 S1                 0.0000
     65 ****         5.2532   5.1598  -1.1899 LP             1 S1                 0.0000
@<TRIPOS>BOND
    1    1    2 1     
    2    1   28 1     
    3    1   29 1     
    4    1   30 1     
    5    2    3 1     
    6    2   31 1     
    7    2   32 1     
    8    3   27 1     
    9    3    4 1     
   10    3   58 1     
   11    4    5 1     
   12    4   33 1     
   13    4   34 1     
   14    5    6 1     
   15    5   35 1     
   16    5   36 1     
   17    6    7 1     
   18    6   25 1     
   19    6   37 1     
   20    7    8 1     
   21    7    9 1     
   22    8   38 1     
   23    8   39 1     
   24    8   40 1     
   25    9   14 ar    
   26    9   10 ar    
   27   10   11 ar    
   28   11   12 ar    
   29   11   41 1     
   30   12   13 ar    
   31   13   17 1     
   32   13   14 ar    
   33   14   15 1     
   34   15   16 2     
   35   16   17 1     
   36   16   42 1     
   37   17   18 1     
   38   18   19 1     
   39   18   43 1     
   40   18   44 1     
   41   19   24 1     
   42   19   20 1     
   43   19   21 1     
   44   20   45 1     
   45   21   22 1     
   46   21   46 1     
   47   21   47 1     
   48   22   23 1     
   49   22   48 1     
   50   22   49 1     
   51   23   24 1     
   52   24   50 1     
   53   24   51 1     
   54   25   26 1     
   55   25   27 1     
   56   25   52 1     
   57   26   53 1     
   58   26   54 1     
   59   26   55 1     
   60   27   56 1     
   61   27   57 1     
   62   10   59 1     
   63   12   60 1     
   64   15   61 1     
   65   20   62 1     
   66   20   63 1     
   67   23   64 1     
   68   23   65 1     
@<TRIPOS>SUBSTRUCTURE
      1 S1             1
@<TRIPOS>SET
LONE_PAIRS      STATIC     ATOMS    <user>   **** ""
7 59 60 61 62 63 64 65
DONOR_HYDROGENS      STATIC     ATOMS    <user>   **** ""
2 58 45
ATOM$BLUE        STATIC     ATOMS    COLORGROUP SYSTEM
7 59 60 61 62 63 64 65
ATOM$RED        STATIC     ATOMS    COLORGROUP SYSTEM
2 58 45
