AV-unprocessed.smi:288|AV-procd|sdf|2209|dock8
  -GOLD-   2262022 43D 1   1.00000     0.00000
 Structure written by MMmdl.
 33 34  0  0  0  0  0  0  0  0  1 V2000
  152.9928  136.8555  159.8202 O   0  0  0  0  0  0  0  0  0  0  0  0
  152.9636  138.0797  159.6824 C   0  0  0  0  0  0  0  0  0  0  0  0
  151.8700  138.7888  159.0286 C   0  0  0  0  0  0  0  0  0  0  0  0
  150.8320  138.0943  158.5321 F   0  0  0  0  0  0  0  0  0  0  0  0
  151.8758  140.1349  158.9180 C   0  0  0  0  0  0  0  0  0  0  0  0
  152.8977  140.9325  159.4121 N   0  0  0  0  0  0  0  0  0  0  0  0
  152.9132  142.4419  159.2677 C   0  0  2  0  0  0  0  0  0  0  0  0
  152.8919  143.2319  160.5797 C   0  0  0  0  0  0  0  0  0  0  0  0
  152.3742  144.5586  160.0759 C   0  0  0  0  0  0  0  0  0  0  0  0
  151.3229  144.1072  159.0630 C   0  0  0  0  0  0  0  0  0  0  0  0
  151.7553  142.8319  158.5900 O   0  0  0  0  0  0  0  0  0  0  0  0
  153.9897  140.3275  160.0752 C   0  0  0  0  0  0  0  0  0  0  0  0
  154.8926  141.0145  160.5590 O   0  0  0  0  0  0  0  0  0  0  0  0
  153.9969  138.9163  160.1694 N   0  0  0  0  0  0  0  0  0  0  0  0
  155.1199  138.2825  160.8413 C   0  0  0  0  0  0  0  0  0  0  0  0
  155.2271  138.6553  162.3370 C   0  0  2  0  0  0  0  0  0  0  0  0
  156.1935  139.6790  162.4772 O   0  0  0  0  0  0  0  0  0  0  0  0
  155.6684  137.4638  163.2097 C   0  0  0  0  0  0  0  0  0  0  0  0
  156.7692  136.9055  162.7056 F   0  0  0  0  0  0  0  0  0  0  0  0
  155.9555  137.8959  164.4378 F   0  0  0  0  0  0  0  0  0  0  0  0
  154.7013  136.5492  163.2950 F   0  0  0  0  0  0  0  0  0  0  0  0
  151.0204  140.5776  158.4349 H   0  0  0  0  0  0  0  0  0  0  0  0
  153.7990  142.6693  158.6710 H   0  0  0  0  0  0  0  0  0  0  0  0
  152.1611  142.8206  161.2761 H   0  0  0  0  0  0  0  0  0  0  0  0
  153.8772  143.2770  161.0442 H   0  0  0  0  0  0  0  0  0  0  0  0
  151.9633  145.1891  160.8648 H   0  0  0  0  0  0  0  0  0  0  0  0
  153.1726  145.1089  159.5756 H   0  0  0  0  0  0  0  0  0  0  0  0
  150.3515  143.9868  159.5442 H   0  0  0  0  0  0  0  0  0  0  0  0
  151.2092  144.8170  158.2433 H   0  0  0  0  0  0  0  0  0  0  0  0
  154.9886  137.2071  160.7103 H   0  0  0  0  0  0  0  0  0  0  0  0
  156.0338  138.5027  160.2867 H   0  0  0  0  0  0  0  0  0  0  0  0
  154.2713  139.0257  162.7099 H   0  0  0  0  0  0  0  0  0  0  0  0
  155.9987  140.1705  163.2605 H   0  0  0  0  0  0  0  0  0  0  0  0
  1  2  2  0  0  0  0
  2 14  1  0  0  0  0
  2  3  1  0  0  0  0
  3  4  1  0  0  0  0
  3  5  2  0  0  0  0
  5  6  1  0  0  0  0
  5 22  1  0  0  0  0
  6  7  1  0  0  0  0
  6 12  1  0  0  0  0
  7 11  1  0  0  0  0
  7  8  1  0  0  0  0
  7 23  1  0  0  0  0
  8  9  1  0  0  0  0
  8 24  1  0  0  0  0
  8 25  1  0  0  0  0
  9 10  1  0  0  0  0
  9 26  1  0  0  0  0
  9 27  1  0  0  0  0
 10 11  1  0  0  0  0
 10 28  1  0  0  0  0
 10 29  1  0  0  0  0
 12 13  2  0  0  0  0
 12 14  1  0  0  0  0
 14 15  1  0  0  0  0
 15 16  1  0  0  0  0
 15 30  1  0  0  0  0
 15 31  1  0  0  0  0
 16 17  1  0  0  0  0
 16 18  1  0  0  0  0
 16 32  1  0  0  0  0
 17 33  1  0  0  0  0
 18 19  1  0  0  0  0
 18 20  1  0  0  0  0
 18 21  1  0  0  0  0
M  END
> <s_m_source_file>
AV-unprocessed.smi

> <i_m_source_file_index>
288

> <i_lp_mmshare_version>
43012

> <i_f3d_flags>
0

> <s_epik_input>
TzFbQ0gyXVtDSDJdW0NIMl1bQ0BIXTFuKFtjSF1jKEYpYzI9TyljKD1PKW4yW0NIMl1bQ0BIXShbT0hdKUMoRikoRilG

> <s_epik_cmdline>
J2VwaWtfcHl0aG9uJywgJy1waCcsICc3LjAnLCAnLXRuJywgJzgnLCAnLW1hJywgJzIwMCcsICctbWV0YWxfYmluZGluZycsICctaW1hZScsICc8aW5maWxlLm1hZT4nLCAnLW9tYWUnLCAnPG91dGZpbGUubWFlPic=

> <r_lp_tautomer_probability>
1

> <r_epik_Ionization_Penalty>
0.000551119

> <r_epik_Ionization_Penalty_Charging>
2.51184e-08

> <r_epik_Ionization_Penalty_Neutral>
0.000551094

> <r_epik_State_Penalty>
0.000345115

> <r_epik_Charging_Adjusted_Penalty>
0.00034514

> <i_epik_Tot_Q>
0

> <i_epik_Tot_abs_Q>
0

> <r_epik_Metal_State_Penalty>
-0

> <b_epik_Metal_Only>
0

> <s_epik_Chemistry_Notes>
This compound contains an acetal/aminal-like group ( X-CH(R)-Y where X, Y are N, S, or O) that may be acid/base labile, releasing an aldehyde.

> <s_lp_Force_Field>
OPLS_2005

> <r_lp_Energy>
36.863

> <b_lp_Chiralities_Consistent>
1

> <s_lp_Variant>
AV-unprocessed.smi:288-1

> <Gold.Version>
5.8.1

> <Gold.Id.Protein>
6NUR|6NUR_protein|mol2

> <Gold.PLP.Fitness>
43.4524

> <Gold.PLP.PLP>
-41.8394

> <Gold.PLP.part.hbond>
-1.6075

> <Gold.PLP.part.metal>
0.0000

> <Gold.PLP.part.buried>
-6.8710

> <Gold.PLP.part.nonpolar>
-34.0833

> <Gold.PLP.part.repulsive>
0.0261

> <Gold.PLP.ligand.clash>
0.0000

> <Gold.PLP.ligand.torsion>
0.6993

> <Gold.PLP.Chemscore.Hbond>
1.0000

> <Gold.PLP.Chemscore.CHOScore>
0.0000

> <Gold.PLP.Chemscore.Metal>
0.0000

> <Gold.Chemscore.Hbonds>
donor molecule, donor type, donor heavy atom, donor atom, acceptor molecule, acceptor atom, score
      P1  H  6896  6907       L1     1  0.94

> <Gold.PLP.Chemscore.Internal.Correction>
0.0116

> <Gold.Rescore>
     Score         DG    S(hbond)    S(metal)    S(lipo)     H(rot)  DE(clash)    DE(int)     intcor
      8.21      -9.97       0.99        0.00      66.24       2.57       0.01       1.76       ----

> <Gold.Chemscore.Fitness>
8.2068

> <Gold.Chemscore.DG>
-9.9746

> <Gold.Chemscore.ZeroCoef>
-5.4800

> <Gold.Chemscore.Hbond>
0.9918

> <Gold.Chemscore.Metal>
0.0000

> <Gold.Chemscore.Lipo>
66.2393

> <Gold.Chemscore.Internal_Hbond>
0.0000

> <Gold.Chemscore.DEClash>
0.0075

> <Gold.Chemscore.DEInternal>
1.7604

> <Gold.Chemscore.Rot>
2.5656

> <Gold.Chemscore.Internal.Correction>
   9.000000E+99

> <Gold.Chemscore.Hbonds>
donor molecule, donor type, donor heavy atom, donor atom, acceptor molecule, acceptor atom, score
      P1  H  6896  6907       L1     1  0.90

> <Gold.Chemscore.Hbond.Weighted>
-3.3125

> <Gold.Chemscore.Metal.Weighted>
-0.0000

> <Gold.Chemscore.Lipo.Weighted>
-7.7500

> <Gold.Chemscore.Internal_Hbond.Weighted>
0.0000

> <Gold.Chemscore.DEClash.Weighted>
0.0075

> <Gold.Chemscore.DEInternal.Weighted>
1.7604

> <Gold.Chemscore.Rot.Weighted>
6.5679

> <Gold.Chemscore.Internal.Correction.Weighted>
   9.000000E+99

> <Gold.Protein.RotatedTorsions>
[ 6907 6896 6895 6894 ] final   24.82 input  -60.11 | X-H torsion
[ 7974 7965 7964 7962 ] final  120.55 input  175.53 | X-H torsion
[ 8008 7997 7996 7995 ] final  103.83 input   59.86 | X-H torsion
[ 10167 10162 10161 10158 ] final -123.20 input  -65.29 | X-H torsion
[ 10718 10713 10712 10709 ] final   -7.30 input   66.30 | X-H torsion
[ 10763 10752 10751 10750 ] final -170.77 input  -60.55 | X-H torsion
[ 11005 11000 10999 10996 ] final -133.29 input  -57.11 | X-H torsion

> <Gold.Protein.ActiveResidues>
 VAL166  LYS551  ARG553  GLY616  TRP617  ASP618  TYR619  PRO620  LYS621  CYS622 
 ASP623  PHE694  ASN695  SER759  ASP760  ASP761  ALA762  ILE779  LEU786  VAL792 
 PHE793  MET794  SER795  GLU796  ALA797  LYS798  CYS799  TRP800  GLU811  SER814 

> <Gold.Protein.RotatedAtoms>
  151.9632  135.0113  160.0548 H   0  0  0  0  0  0  0  0  0  0  0  0  # atno 6907 bound_to 6896
  152.1850  133.4728  159.4986 H   0  0  0  0  0  0  0  0  0  0  0  0  # atno 6908 bound_to 6896
  150.6924  134.1703  159.4252 H   0  0  0  0  0  0  0  0  0  0  0  0  # atno 6909 bound_to 6896
  145.1299  139.3334  143.4670 H   0  0  0  0  0  0  0  0  0  0  0  0  # atno 7974 bound_to 7965
  156.1519  140.3158  155.8661 H   0  0  0  0  0  0  0  0  0  0  0  0  # atno 8008 bound_to 7997
  155.3955  140.0496  157.3056 H   0  0  0  0  0  0  0  0  0  0  0  0  # atno 8009 bound_to 7997
  154.5066  140.2149  155.9251 H   0  0  0  0  0  0  0  0  0  0  0  0  # atno 8010 bound_to 7997
  140.0061  143.5490  152.2283 H   0  0  0  0  0  0  0  0  0  0  0  0  # atno 10167 bound_to 10162
  156.7193  130.5146  149.5872 H   0  0  0  0  0  0  0  0  0  0  0  0  # atno 10718 bound_to 10713
  154.6378  135.2895  155.0139 H   0  0  0  0  0  0  0  0  0  0  0  0  # atno 10763 bound_to 10752
  154.1277  135.6538  153.4919 H   0  0  0  0  0  0  0  0  0  0  0  0  # atno 10764 bound_to 10752
  153.0311  135.5303  154.7233 H   0  0  0  0  0  0  0  0  0  0  0  0  # atno 10765 bound_to 10752
  140.9094  134.1587  157.4401 H   0  0  0  0  0  0  0  0  0  0  0  0  # atno 11005 bound_to 11000
  146.3515  140.1293  142.8597 LP  0  0  0  0  0  0  0  0  0  0  0  0  # atno 17320 bound_to 7965
  145.0647  140.9113  143.4917 LP  0  0  0  0  0  0  0  0  0  0  0  0  # atno 17321 bound_to 7965
  139.6238  144.7633  151.2683 LP  0  0  0  0  0  0  0  0  0  0  0  0  # atno 17342 bound_to 10162
  140.7400  143.6601  150.8172 LP  0  0  0  0  0  0  0  0  0  0  0  0  # atno 17343 bound_to 10162
  156.1606  130.6371  151.0713 LP  0  0  0  0  0  0  0  0  0  0  0  0  # atno 17370 bound_to 10713
  157.6904  131.0811  150.7122 LP  0  0  0  0  0  0  0  0  0  0  0  0  # atno 17371 bound_to 10713
  139.8755  134.9930  156.5622 LP  0  0  0  0  0  0  0  0  0  0  0  0  # atno 17394 bound_to 11000
  140.8129  133.8414  155.8826 LP  0  0  0  0  0  0  0  0  0  0  0  0  # atno 17395 bound_to 11000

$$$$
