#       Name:                AV-unprocessed.smi:657
#       Creating user name   scv26
#       Creation time:       Fri Mar 27 00:16:23 2020


#       File generated by GOLD software.
#

@<TRIPOS>MOLECULE
AV-unprocessed.smi:657
    50    51     1
SMALL
NO_CHARGES


@<TRIPOS>ATOM
      1 ****        -2.1267   1.5309   1.3023 C.3            1 S1                 0.0000
      2 ****        -1.7425   2.0860  -0.0846 C.3            1 S1                 0.0000
      3 ****        -2.0881   3.5815  -0.2132 C.3            1 S1                 0.0000
      4 ****        -2.3000   1.3015  -1.2099 N.3            1 S1                 0.0000
      5 ****        -3.7729   1.2543  -1.2182 C.3            1 S1                 0.0000
      6 ****        -4.3010   0.6891  -2.5476 C.3            1 S1                 0.0000
      7 ****        -3.7627  -0.7213  -2.7946 C.3            1 S1                 0.0000
      8 ****        -2.2345  -0.6938  -2.7241 C.3            1 S1                 0.0000
      9 ****        -1.7461  -0.0812  -1.3904 C.3            1 S1                 0.0000
     10 ****        -0.2093  -0.1786  -1.3205 C.2            1 S1                 0.0000
     11 ****         0.4839   0.2330  -2.2514 O.2            1 S1                 0.0000
     12 ****         0.3057  -0.7016  -0.1976 N.am           1 S1                 0.0000
     13 ****         1.7280  -0.8519   0.0782 C.3            1 S1                 0.0000
     14 ****         1.9776  -0.9212   1.5906 C.3            1 S1                 0.0000
     15 ****         3.4378  -1.0986   1.8997 C.2            1 S1                 0.0000
     16 ****         4.4203  -0.0856   2.0919 C.2            1 S1                 0.0000
     17 ****         5.6228  -0.5762   2.3455 N.2            1 S1                 0.0000
     18 ****         5.4510  -1.9138   2.3234 N.pl3          1 S1                 0.0000
     19 ****         6.5837  -2.7823   2.5621 C.3            1 S1                 0.0000
     20 ****         4.1430  -2.2582   2.0585 C.2            1 S1                 0.0000
     21 ****        -1.6160   2.0856   2.0897 H              1 S1                 0.0000
     22 ****        -1.8451   0.4847   1.4163 H              1 S1                 0.0000
     23 ****        -3.1962   1.6149   1.4946 H              1 S1                 0.0000
     24 ****        -0.6560   2.0681  -0.1509 H              1 S1                 0.0000
     25 ****        -1.4923   4.1712   0.4840 H              1 S1                 0.0000
     26 ****        -3.1329   3.7928   0.0122 H              1 S1                 0.0000
     27 ****        -1.8744   3.9530  -1.2158 H              1 S1                 0.0000
     28 ****        -4.1398   0.6443  -0.3918 H              1 S1                 0.0000
     29 ****        -4.2027   2.2458  -1.0900 H              1 S1                 0.0000
     30 ****        -5.3912   0.6697  -2.5356 H              1 S1                 0.0000
     31 ****        -4.0117   1.3464  -3.3688 H              1 S1                 0.0000
     32 ****        -4.1575  -1.4069  -2.0438 H              1 S1                 0.0000
     33 ****        -4.0922  -1.0905  -3.7663 H              1 S1                 0.0000
     34 ****        -1.8495  -1.7078  -2.8423 H              1 S1                 0.0000
     35 ****        -1.8490  -0.1170  -3.5667 H              1 S1                 0.0000
     36 ****        -2.1384  -0.7075  -0.5868 H              1 S1                 0.0000
     37 ****        -0.3351  -1.0098   0.5192 H              1 S1                 0.0000
     38 ****         2.0853  -1.7609  -0.4077 H              1 S1                 0.0000
     39 ****         2.2886  -0.0177  -0.3474 H              1 S1                 0.0000
     40 ****         1.5976  -0.0122   2.0589 H              1 S1                 0.0000
     41 ****         1.3960  -1.7396   2.0170 H              1 S1                 0.0000
     42 ****         4.2956   0.9866   2.0521 H              1 S1                 0.0000
     43 ****         6.2728  -3.8259   2.5060 H              1 S1                 0.0000
     44 ****         6.9963  -2.5878   3.5525 H              1 S1                 0.0000
     45 ****         7.3524  -2.6008   1.8103 H              1 S1                 0.0000
     46 ****         3.8248  -3.2889   2.0025 H              1 S1                 0.0000
     47 ****        -1.9842   1.8287  -1.9988 LP             1 S1                 0.0000
     48 ****         0.0503   0.6332  -3.0588 LP             1 S1                 0.0000
     49 ****         1.4804   0.1669  -2.2000 LP             1 S1                 0.0000
     50 ****         6.4681  -0.0696   2.5152 LP             1 S1                 0.0000
@<TRIPOS>BOND
    1    1    2 1     
    2    1   21 1     
    3    1   22 1     
    4    1   23 1     
    5    2    3 1     
    6    2    4 1     
    7    2   24 1     
    8    3   25 1     
    9    3   26 1     
   10    3   27 1     
   11    4    9 1     
   12    4    5 1     
   13    5    6 1     
   14    5   28 1     
   15    5   29 1     
   16    6    7 1     
   17    6   30 1     
   18    6   31 1     
   19    7    8 1     
   20    7   32 1     
   21    7   33 1     
   22    8    9 1     
   23    8   34 1     
   24    8   35 1     
   25    9   10 1     
   26    9   36 1     
   27   10   11 2     
   28   10   12 am    
   29   12   13 1     
   30   12   37 1     
   31   13   14 1     
   32   13   38 1     
   33   13   39 1     
   34   14   15 1     
   35   14   40 1     
   36   14   41 1     
   37   15   20 2     
   38   15   16 1     
   39   16   17 2     
   40   16   42 1     
   41   17   18 1     
   42   18   19 1     
   43   18   20 1     
   44   19   43 1     
   45   19   44 1     
   46   19   45 1     
   47   20   46 1     
   48    4   47 1     
   49   11   48 1     
   50   11   49 1     
   51   17   50 1     
@<TRIPOS>SUBSTRUCTURE
      1 S1             1
@<TRIPOS>SET
LONE_PAIRS      STATIC     ATOMS    <user>   **** ""
4 47 48 49 50
DONOR_HYDROGENS      STATIC     ATOMS    <user>   **** ""
1 37
ATOM$BLUE        STATIC     ATOMS    COLORGROUP SYSTEM
4 47 48 49 50
ATOM$RED        STATIC     ATOMS    COLORGROUP SYSTEM
1 37
