AV-unprocessed.smi:3249|AV-procd|sdf|12419|dock10
  -GOLD-   2272018303D 1   1.00000     0.00000
 Structure written by MMmdl.
 44 45  0  0  0  0  0  0  0  0  2 V2000
  152.1570  145.2935  158.4692 C   0  0  0  0  0  0  0  0  0  0  0  0
  151.8538  143.8254  158.3829 C   0  0  0  0  0  0  0  0  0  0  0  0
  152.0548  142.8306  159.3809 C   0  0  0  0  0  0  0  0  0  0  0  0
  151.6703  141.6266  158.9903 N   0  0  0  0  0  0  0  0  0  0  0  0
  151.2275  141.8027  157.7265 N   0  0  0  0  0  0  0  0  0  0  0  0
  150.6882  140.6669  156.9863 C   0  0  2  0  0  0  0  0  0  0  0  0
  151.7206  139.5240  156.9612 C   0  0  0  0  0  0  0  0  0  0  0  0
  150.2152  141.1077  155.5765 C   0  0  1  0  0  0  0  0  0  0  0  0
  150.1358  139.9323  154.5836 C   0  0  0  0  0  0  0  0  0  0  0  0
  148.8936  141.7710  155.6770 N   0  3  0  0  0  0  0  0  0  0  0  0
  148.0967  141.7928  154.4325 C   0  0  0  0  0  0  0  0  0  0  0  0
  146.6476  142.2230  154.7060 C   0  0  2  0  0  0  0  0  0  0  0  0
  146.1639  143.3312  153.7475 C   0  0  0  0  0  0  0  0  0  0  0  0
  144.7516  143.7920  154.1255 C   0  0  0  0  0  0  0  0  0  0  0  0
  144.7140  144.1824  155.6065 C   0  0  0  0  0  0  0  0  0  0  0  0
  145.2734  143.0436  156.4732 C   0  0  0  0  0  0  0  0  0  0  0  0
  146.5904  142.7093  156.0448 O   0  0  0  0  0  0  0  0  0  0  0  0
  151.3175  143.1253  157.3401 C   0  0  0  0  0  0  0  0  0  0  0  0
  152.7737  145.5300  159.3365 H   0  0  0  0  0  0  0  0  0  0  0  0
  151.2464  145.8870  158.5510 H   0  0  0  0  0  0  0  0  0  0  0  0
  152.6936  145.6468  157.5885 H   0  0  0  0  0  0  0  0  0  0  0  0
  152.4606  142.9486  160.3750 H   0  0  0  0  0  0  0  0  0  0  0  0
  149.8193  140.2999  157.5365 H   0  0  0  0  0  0  0  0  0  0  0  0
  151.2894  138.5998  156.5774 H   0  0  0  0  0  0  0  0  0  0  0  0
  152.0869  139.3077  157.9654 H   0  0  0  0  0  0  0  0  0  0  0  0
  152.5816  139.7735  156.3403 H   0  0  0  0  0  0  0  0  0  0  0  0
  150.9338  141.8353  155.1948 H   0  0  0  0  0  0  0  0  0  0  0  0
  151.1122  139.4781  154.4188 H   0  0  0  0  0  0  0  0  0  0  0  0
  149.7762  140.2539  153.6065 H   0  0  0  0  0  0  0  0  0  0  0  0
  149.4622  139.1543  154.9441 H   0  0  0  0  0  0  0  0  0  0  0  0
  148.3603  141.3314  156.4135 H   0  0  0  0  0  0  0  0  0  0  0  0
  148.5563  142.5014  153.7420 H   0  0  0  0  0  0  0  0  0  0  0  0
  148.1154  140.8171  153.9470 H   0  0  0  0  0  0  0  0  0  0  0  0
  145.9976  141.3494  154.6252 H   0  0  0  0  0  0  0  0  0  0  0  0
  146.8470  144.1805  153.7918 H   0  0  0  0  0  0  0  0  0  0  0  0
  146.1716  142.9777  152.7160 H   0  0  0  0  0  0  0  0  0  0  0  0
  144.4449  144.6324  153.5020 H   0  0  0  0  0  0  0  0  0  0  0  0
  144.0397  142.9869  153.9394 H   0  0  0  0  0  0  0  0  0  0  0  0
  145.3075  145.0837  155.7641 H   0  0  0  0  0  0  0  0  0  0  0  0
  143.6942  144.4217  155.9089 H   0  0  0  0  0  0  0  0  0  0  0  0
  145.3114  143.3525  157.5178 H   0  0  0  0  0  0  0  0  0  0  0  0
  144.6288  142.1646  156.4250 H   0  0  0  0  0  0  0  0  0  0  0  0
  150.9931  143.4580  156.3649 H   0  0  0  0  0  0  0  0  0  0  0  0
  149.0613  142.7327  155.9385 H   0  0  0  0  0  0  0  0  0  0  0  0
  1  2  1  0  0  0  0
  1 19  1  0  0  0  0
  1 20  1  0  0  0  0
  1 21  1  0  0  0  0
  2 18  2  0  0  0  0
  2  3  1  0  0  0  0
  3  4  2  0  0  0  0
  3 22  1  0  0  0  0
  4  5  1  0  0  0  0
  5  6  1  0  0  0  0
  5 18  1  0  0  0  0
  6  7  1  0  0  0  0
  6  8  1  0  0  0  0
  6 23  1  0  0  0  0
  7 24  1  0  0  0  0
  7 25  1  0  0  0  0
  7 26  1  0  0  0  0
  8  9  1  0  0  0  0
  8 10  1  0  0  0  0
  8 27  1  0  0  0  0
  9 28  1  0  0  0  0
  9 29  1  0  0  0  0
  9 30  1  0  0  0  0
 10 11  1  0  0  0  0
 10 31  1  0  0  0  0
 10 44  1  0  0  0  0
 11 12  1  0  0  0  0
 11 32  1  0  0  0  0
 11 33  1  0  0  0  0
 12 17  1  0  0  0  0
 12 13  1  0  0  0  0
 12 34  1  0  0  0  0
 13 14  1  0  0  0  0
 13 35  1  0  0  0  0
 13 36  1  0  0  0  0
 14 15  1  0  0  0  0
 14 37  1  0  0  0  0
 14 38  1  0  0  0  0
 15 16  1  0  0  0  0
 15 39  1  0  0  0  0
 15 40  1  0  0  0  0
 16 17  1  0  0  0  0
 16 41  1  0  0  0  0
 16 42  1  0  0  0  0
 18 43  1  0  0  0  0
M  CHG  1  10   1
M  END
> <s_m_source_file>
AV-unprocessed.smi

> <i_m_source_file_index>
3249

> <i_lp_mmshare_version>
43012

> <i_f3d_flags>
0

> <s_epik_input>
W0NIM11jMVtjSF1ubihbY0hdMSlbQ0BIXShbQ0gzXSlbQ0BIXShbQ0gzXSlbTkhdW0NIMl1bQ0BASF0yW0NIMl1bQ0gyXVtDSDJdW0NIMl1PMg==

> <s_epik_cmdline>
J2VwaWtfcHl0aG9uJywgJy1waCcsICc3LjAnLCAnLXRuJywgJzgnLCAnLW1hJywgJzIwMCcsICctbWV0YWxfYmluZGluZycsICctaW1hZScsICc8aW5maWxlLm1hZT4nLCAnLW9tYWUnLCAnPG91dGZpbGUubWFlPic=

> <r_lp_tautomer_probability>
1

> <r_epik_Ionization_Penalty>
0.00659207

> <r_epik_Ionization_Penalty_Charging>
0.00656881

> <r_epik_Ionization_Penalty_Neutral>
2.32662e-05

> <r_epik_State_Penalty>
0.0048654

> <r_epik_Charging_Adjusted_Penalty>
0.0114342

> <i_epik_Tot_Q>
1

> <i_epik_Tot_abs_Q>
1

> <r_epik_Metal_State_Penalty>
-0

> <b_epik_Metal_Only>
0

> <s_lp_Force_Field>
OPLS_2005

> <r_lp_Energy>
18.0919

> <b_lp_Chiralities_Consistent>
1

> <s_lp_Variant>
AV-unprocessed.smi:3249-3

> <Gold.Version>
5.8.1

> <Gold.Id.Protein>
6NUR|6NUR_protein|mol2

> <Gold.PLP.Fitness>
44.6157

> <Gold.PLP.PLP>
-38.5331

> <Gold.PLP.part.hbond>
-1.0000

> <Gold.PLP.part.metal>
0.0000

> <Gold.PLP.part.buried>
-3.3333

> <Gold.PLP.part.nonpolar>
-34.7062

> <Gold.PLP.part.repulsive>
0.4088

> <Gold.PLP.ligand.clash>
0.0000

> <Gold.PLP.ligand.torsion>
1.4805

> <Gold.PLP.Chemscore.Hbond>
1.9840

> <Gold.PLP.Chemscore.CHOScore>
1.0000

> <Gold.PLP.Chemscore.Metal>
0.0000

> <Gold.Chemscore.Hbonds>
donor molecule, donor type, donor heavy atom, donor atom, acceptor molecule, acceptor atom, score
      L1  H    10    44       P1  8028  2.00
      L1  C    18    43       P1  8028  0.97

> <Gold.PLP.Chemscore.Internal.Correction>
0.0917

> <Gold.Rescore>
     Score         DG    S(hbond)    S(metal)    S(lipo)     H(rot)  DE(clash)    DE(int)     intcor
     15.18     -16.95       1.00        0.00     103.13       1.53       0.10       1.68       ----

> <Gold.Chemscore.Fitness>
15.1832

> <Gold.Chemscore.DG>
-16.9550

> <Gold.Chemscore.ZeroCoef>
-5.4800

> <Gold.Chemscore.Hbond>
0.9982

> <Gold.Chemscore.Metal>
0.0000

> <Gold.Chemscore.Lipo>
103.1284

> <Gold.Chemscore.Internal_Hbond>
0.0000

> <Gold.Chemscore.DEClash>
0.0967

> <Gold.Chemscore.DEInternal>
1.6750

> <Gold.Chemscore.Rot>
1.5333

> <Gold.Chemscore.Internal.Correction>
   9.000000E+99

> <Gold.Chemscore.Hbonds>
donor molecule, donor type, donor heavy atom, donor atom, acceptor molecule, acceptor atom, score
      L1  H    10    44       P1  8028  0.92

> <Gold.Chemscore.Hbond.Weighted>
-3.3341

> <Gold.Chemscore.Metal.Weighted>
-0.0000

> <Gold.Chemscore.Lipo.Weighted>
-12.0660

> <Gold.Chemscore.Internal_Hbond.Weighted>
0.0000

> <Gold.Chemscore.DEClash.Weighted>
0.0967

> <Gold.Chemscore.DEInternal.Weighted>
1.6750

> <Gold.Chemscore.Rot.Weighted>
3.9252

> <Gold.Chemscore.Internal.Correction.Weighted>
   9.000000E+99

> <Gold.Protein.RotatedTorsions>
[ 6907 6896 6895 6894 ] final  108.10 input  -60.11 | X-H torsion
[ 7974 7965 7964 7962 ] final  148.52 input  175.53 | X-H torsion
[ 8008 7997 7996 7995 ] final -179.17 input   59.86 | X-H torsion
[ 10167 10162 10161 10158 ] final  -34.90 input  -65.29 | X-H torsion
[ 10718 10713 10712 10709 ] final  107.65 input   66.30 | X-H torsion
[ 10763 10752 10751 10750 ] final -123.44 input  -60.55 | X-H torsion
[ 11005 11000 10999 10996 ] final -102.72 input  -57.11 | X-H torsion

> <Gold.Protein.ActiveResidues>
 VAL166  LYS551  ARG553  GLY616  TRP617  ASP618  TYR619  PRO620  LYS621  CYS622 
 ASP623  PHE694  ASN695  SER759  ASP760  ASP761  ALA762  ILE779  LEU786  VAL792 
 PHE793  MET794  SER795  GLU796  ALA797  LYS798  CYS799  TRP800  GLU811  SER814 

> <Gold.Protein.RotatedAtoms>
  152.5126  133.9137  159.7500 H   0  0  0  0  0  0  0  0  0  0  0  0  # atno 6907 bound_to 6896
  150.9525  133.6525  159.2776 H   0  0  0  0  0  0  0  0  0  0  0  0  # atno 6908 bound_to 6896
  151.3799  135.0943  159.9545 H   0  0  0  0  0  0  0  0  0  0  0  0  # atno 6909 bound_to 6896
  144.8508  139.6164  143.5975 H   0  0  0  0  0  0  0  0  0  0  0  0  # atno 7974 bound_to 7965
  156.0274  140.1274  157.0294 H   0  0  0  0  0  0  0  0  0  0  0  0  # atno 8008 bound_to 7997
  154.4336  140.1056  156.6120 H   0  0  0  0  0  0  0  0  0  0  0  0  # atno 8009 bound_to 7997
  155.5857  140.3468  155.4555 H   0  0  0  0  0  0  0  0  0  0  0  0  # atno 8010 bound_to 7997
  140.7176  143.3515  151.2145 H   0  0  0  0  0  0  0  0  0  0  0  0  # atno 10167 bound_to 10162
  157.6619  131.0877  150.6188 H   0  0  0  0  0  0  0  0  0  0  0  0  # atno 10718 bound_to 10713
  154.8708  135.4098  154.2944 H   0  0  0  0  0  0  0  0  0  0  0  0  # atno 10763 bound_to 10752
  153.3814  135.7011  153.6568 H   0  0  0  0  0  0  0  0  0  0  0  0  # atno 10764 bound_to 10752
  153.5389  135.3652  155.2681 H   0  0  0  0  0  0  0  0  0  0  0  0  # atno 10765 bound_to 10752
  141.1177  133.8581  157.1395 H   0  0  0  0  0  0  0  0  0  0  0  0  # atno 11005 bound_to 11000
  146.2783  139.6809  142.9247 LP  0  0  0  0  0  0  0  0  0  0  0  0  # atno 17320 bound_to 7965
  145.4504  141.0428  143.2807 LP  0  0  0  0  0  0  0  0  0  0  0  0  # atno 17321 bound_to 7965
  139.7047  143.9475  152.2921 LP  0  0  0  0  0  0  0  0  0  0  0  0  # atno 17342 bound_to 10162
  139.9179  144.6817  150.8492 LP  0  0  0  0  0  0  0  0  0  0  0  0  # atno 17343 bound_to 10162
  156.6490  130.4480  149.5726 LP  0  0  0  0  0  0  0  0  0  0  0  0  # atno 17370 bound_to 10713
  156.2152  130.6703  151.1311 LP  0  0  0  0  0  0  0  0  0  0  0  0  # atno 17371 bound_to 10713
  140.0111  134.9987  157.0397 LP  0  0  0  0  0  0  0  0  0  0  0  0  # atno 17394 bound_to 11000
  140.4598  134.1496  155.7190 LP  0  0  0  0  0  0  0  0  0  0  0  0  # atno 17395 bound_to 11000

$$$$
