AV-unprocessed.smi:1433|AV-procd|sdf|5838|dock1
  -GOLD-   22720 5503D 1   1.00000     0.00000
 Structure written by MMmdl.
 44 45  0  0  0  0  0  0  0  0  1 V2000
  151.0196  141.9587  157.6511 C   0  0  0  0  0  0  0  0  0  0  0  0
  150.6849  141.5700  156.2073 C   0  0  1  0  0  0  0  0  0  0  0  0
  151.0481  140.1046  155.9015 C   0  0  0  0  0  0  0  0  0  0  0  0
  150.6675  139.6909  154.5465 N   0  0  0  0  0  0  0  0  0  0  0  0
  150.9925  138.2720  154.2687 C   0  0  1  0  0  0  0  0  0  0  0  0
  152.5062  137.9680  154.4053 C   0  0  0  0  0  0  0  0  0  0  0  0
  150.1933  137.2703  155.1541 C   0  0  0  0  0  0  0  0  0  0  0  0
  149.9880  135.9667  154.5286 N   0  0  0  0  0  0  0  0  0  0  0  0
  150.1690  134.7822  155.1332 C   0  0  0  0  0  0  0  0  0  0  0  0
  150.5352  134.6654  156.3026 O   0  0  0  0  0  0  0  0  0  0  0  0
  149.8949  133.5363  154.2906 C   0  0  0  0  0  0  0  0  0  0  0  0
  148.5572  133.5712  153.7277 N   0  0  0  0  0  0  0  0  0  0  0  0
  147.9727  132.6789  152.8530 C   0  0  0  0  0  0  0  0  0  0  0  0
  146.7063  133.1247  152.6032 C   0  0  0  0  0  0  0  0  0  0  0  0
  146.6081  134.3144  153.3778 C   0  0  0  0  0  0  0  0  0  0  0  0
  147.7170  134.5791  154.0502 N   0  0  0  0  0  0  0  0  0  0  0  0
  149.2405  139.9828  154.3698 C   0  0  0  0  0  0  0  0  0  0  0  0
  148.8811  141.4484  154.6807 C   0  0  1  0  0  0  0  0  0  0  0  0
  147.3754  141.7112  154.5722 C   0  0  0  0  0  0  0  0  0  0  0  0
  149.2901  141.7573  156.0069 O   0  0  0  0  0  0  0  0  0  0  0  0
  152.0853  141.8448  157.8506 H   0  0  0  0  0  0  0  0  0  0  0  0
  150.4772  141.3368  158.3637 H   0  0  0  0  0  0  0  0  0  0  0  0
  150.7542  142.9979  157.8462 H   0  0  0  0  0  0  0  0  0  0  0  0
  151.2319  142.2304  155.5321 H   0  0  0  0  0  0  0  0  0  0  0  0
  152.1231  140.0137  156.0417 H   0  0  0  0  0  0  0  0  0  0  0  0
  150.5744  139.4489  156.6338 H   0  0  0  0  0  0  0  0  0  0  0  0
  150.7227  138.0683  153.2313 H   0  0  0  0  0  0  0  0  0  0  0  0
  152.7356  136.9151  154.2469 H   0  0  0  0  0  0  0  0  0  0  0  0
  152.8744  138.2378  155.3955 H   0  0  0  0  0  0  0  0  0  0  0  0
  153.1032  138.4996  153.6659 H   0  0  0  0  0  0  0  0  0  0  0  0
  150.7138  137.1142  156.0997 H   0  0  0  0  0  0  0  0  0  0  0  0
  149.2034  137.6489  155.4059 H   0  0  0  0  0  0  0  0  0  0  0  0
  149.6907  135.9662  153.5635 H   0  0  0  0  0  0  0  0  0  0  0  0
  150.6172  133.4812  153.4754 H   0  0  0  0  0  0  0  0  0  0  0  0
  150.0169  132.6304  154.8872 H   0  0  0  0  0  0  0  0  0  0  0  0
  148.5019  131.8121  152.4852 H   0  0  0  0  0  0  0  0  0  0  0  0
  145.9641  132.6715  151.9631 H   0  0  0  0  0  0  0  0  0  0  0  0
  145.7697  134.9887  153.4708 H   0  0  0  0  0  0  0  0  0  0  0  0
  148.9361  139.7917  153.3423 H   0  0  0  0  0  0  0  0  0  0  0  0
  148.6487  139.3208  155.0040 H   0  0  0  0  0  0  0  0  0  0  0  0
  149.4022  142.1081  153.9847 H   0  0  0  0  0  0  0  0  0  0  0  0
  147.0099  141.4987  153.5672 H   0  0  0  0  0  0  0  0  0  0  0  0
  147.1456  142.7532  154.7958 H   0  0  0  0  0  0  0  0  0  0  0  0
  146.8152  141.0895  155.2713 H   0  0  0  0  0  0  0  0  0  0  0  0
  1  2  1  0  0  0  0
  1 21  1  0  0  0  0
  1 22  1  0  0  0  0
  1 23  1  0  0  0  0
  2 20  1  0  0  0  0
  2  3  1  0  0  0  0
  2 24  1  0  0  0  0
  3  4  1  0  0  0  0
  3 25  1  0  0  0  0
  3 26  1  0  0  0  0
  4  5  1  0  0  0  0
  4 17  1  0  0  0  0
  5  6  1  0  0  0  0
  5  7  1  0  0  0  0
  5 27  1  0  0  0  0
  6 28  1  0  0  0  0
  6 29  1  0  0  0  0
  6 30  1  0  0  0  0
  7  8  1  0  0  0  0
  7 31  1  0  0  0  0
  7 32  1  0  0  0  0
  8  9  1  0  0  0  0
  8 33  1  0  0  0  0
  9 10  2  0  0  0  0
  9 11  1  0  0  0  0
 11 12  1  0  0  0  0
 11 34  1  0  0  0  0
 11 35  1  0  0  0  0
 12 16  1  0  0  0  0
 12 13  1  0  0  0  0
 13 14  2  0  0  0  0
 13 36  1  0  0  0  0
 14 15  1  0  0  0  0
 14 37  1  0  0  0  0
 15 16  2  0  0  0  0
 15 38  1  0  0  0  0
 17 18  1  0  0  0  0
 17 39  1  0  0  0  0
 17 40  1  0  0  0  0
 18 19  1  0  0  0  0
 18 20  1  0  0  0  0
 18 41  1  0  0  0  0
 19 42  1  0  0  0  0
 19 43  1  0  0  0  0
 19 44  1  0  0  0  0
M  END
> <s_m_source_file>
AV-unprocessed.smi

> <i_m_source_file_index>
1433

> <i_lp_mmshare_version>
43012

> <i_f3d_flags>
0

> <s_epik_input>
W0NIM11bQ0BASF0xW0NIMl1OKFtDSDJdW0NASF0oTzEpW0NIM10pW0NASF0oW0NIM10pW0NIMl1bTkhdQyg9TylbQ0gyXW4yW2NIXVtjSF1bY0hdbjI=

> <s_epik_cmdline>
J2VwaWtfcHl0aG9uJywgJy1waCcsICc3LjAnLCAnLXRuJywgJzgnLCAnLW1hJywgJzIwMCcsICctbWV0YWxfYmluZGluZycsICctaW1hZScsICc8aW5maWxlLm1hZT4nLCAnLW9tYWUnLCAnPG91dGZpbGUubWFlPic=

> <r_lp_tautomer_probability>
1

> <r_epik_Ionization_Penalty>
0.196927

> <r_epik_Ionization_Penalty_Charging>
0

> <r_epik_Ionization_Penalty_Neutral>
0.196927

> <r_epik_State_Penalty>
0.186684

> <r_epik_Charging_Adjusted_Penalty>
0.186684

> <i_epik_Tot_Q>
0

> <i_epik_Tot_abs_Q>
0

> <r_epik_Metal_State_Penalty>
0.186682

> <b_epik_Metal_Only>
0

> <s_lp_Force_Field>
OPLS_2005

> <r_lp_Energy>
27.7845

> <b_lp_Chiralities_Consistent>
1

> <s_lp_Variant>
AV-unprocessed.smi:1433-4

> <Gold.Version>
5.8.1

> <Gold.Id.Protein>
6NUR|6NUR_protein|mol2

> <Gold.PLP.Fitness>
45.5872

> <Gold.PLP.PLP>
-37.2955

> <Gold.PLP.part.hbond>
-2.1694

> <Gold.PLP.part.metal>
0.0000

> <Gold.PLP.part.buried>
-4.8283

> <Gold.PLP.part.nonpolar>
-33.0708

> <Gold.PLP.part.repulsive>
1.7858

> <Gold.PLP.ligand.clash>
0.0000

> <Gold.PLP.ligand.torsion>
0.4097

> <Gold.PLP.Chemscore.Hbond>
2.0000

> <Gold.PLP.Chemscore.CHOScore>
1.0000

> <Gold.PLP.Chemscore.Metal>
0.0000

> <Gold.Chemscore.Hbonds>
donor molecule, donor type, donor heavy atom, donor atom, acceptor molecule, acceptor atom, score
      L1  H     8    33       P1  7948  0.90
      P1  H  7989  7998       L1     4  1.00
      L1  C    13    36       P1 10747  1.00

> <Gold.PLP.Chemscore.Internal.Correction>
0.1110

> <Gold.Rescore>
     Score         DG    S(hbond)    S(metal)    S(lipo)     H(rot)  DE(clash)    DE(int)     intcor
     12.44     -13.56       1.10        0.00      77.22       1.80       0.15       0.98       ----

> <Gold.Chemscore.Fitness>
12.4381

> <Gold.Chemscore.DG>
-13.5630

> <Gold.Chemscore.ZeroCoef>
-5.4800

> <Gold.Chemscore.Hbond>
1.0977

> <Gold.Chemscore.Metal>
0.0000

> <Gold.Chemscore.Lipo>
77.2189

> <Gold.Chemscore.Internal_Hbond>
0.0000

> <Gold.Chemscore.DEClash>
0.1465

> <Gold.Chemscore.DEInternal>
0.9785

> <Gold.Chemscore.Rot>
1.8038

> <Gold.Chemscore.Internal.Correction>
   9.000000E+99

> <Gold.Chemscore.Hbonds>
donor molecule, donor type, donor heavy atom, donor atom, acceptor molecule, acceptor atom, score
      L1  H     8    33       P1  7948  0.18
      P1  H  7989  7998       L1     4  0.22

> <Gold.Chemscore.Hbond.Weighted>
-3.6662

> <Gold.Chemscore.Metal.Weighted>
-0.0000

> <Gold.Chemscore.Lipo.Weighted>
-9.0346

> <Gold.Chemscore.Internal_Hbond.Weighted>
0.0000

> <Gold.Chemscore.DEClash.Weighted>
0.1465

> <Gold.Chemscore.DEInternal.Weighted>
0.9785

> <Gold.Chemscore.Rot.Weighted>
4.6178

> <Gold.Chemscore.Internal.Correction.Weighted>
   9.000000E+99

> <Gold.Protein.RotatedTorsions>
[ 6907 6896 6895 6894 ] final  117.81 input  -60.11 | X-H torsion
[ 7974 7965 7964 7962 ] final -134.80 input  175.53 | X-H torsion
[ 8008 7997 7996 7995 ] final  -97.18 input   59.86 | X-H torsion
[ 10167 10162 10161 10158 ] final  171.35 input  -65.29 | X-H torsion
[ 10718 10713 10712 10709 ] final  -67.89 input   66.30 | X-H torsion
[ 10763 10752 10751 10750 ] final   20.37 input  -60.55 | X-H torsion
[ 11005 11000 10999 10996 ] final   64.53 input  -57.11 | X-H torsion

> <Gold.Protein.ActiveResidues>
 VAL166  LYS551  ARG553  GLY616  TRP617  ASP618  TYR619  PRO620  LYS621  CYS622 
 ASP623  PHE694  ASN695  SER759  ASP760  ASP761  ALA762  ILE779  LEU786  VAL792 
 PHE793  MET794  SER795  GLU796  ALA797  LYS798  CYS799  TRP800  GLU811  SER814 

> <Gold.Protein.RotatedAtoms>
  152.4586  133.7775  159.6832 H   0  0  0  0  0  0  0  0  0  0  0  0  # atno 6907 bound_to 6896
  150.8522  133.7760  159.3028 H   0  0  0  0  0  0  0  0  0  0  0  0  # atno 6908 bound_to 6896
  151.5352  135.1071  159.9964 H   0  0  0  0  0  0  0  0  0  0  0  0  # atno 6909 bound_to 6896
  144.9071  140.6846  143.5049 H   0  0  0  0  0  0  0  0  0  0  0  0  # atno 7974 bound_to 7965
  154.7843  140.0465  157.1151 H   0  0  0  0  0  0  0  0  0  0  0  0  # atno 8008 bound_to 7997
  154.9667  140.3084  155.4986 H   0  0  0  0  0  0  0  0  0  0  0  0  # atno 8009 bound_to 7997
  156.2941  140.2260  156.4757 H   0  0  0  0  0  0  0  0  0  0  0  0  # atno 8010 bound_to 7997
  139.5044  144.3496  151.9936 H   0  0  0  0  0  0  0  0  0  0  0  0  # atno 10167 bound_to 10162
  156.0534  130.4285  150.1920 H   0  0  0  0  0  0  0  0  0  0  0  0  # atno 10718 bound_to 10713
  153.1083  135.6690  153.9546 H   0  0  0  0  0  0  0  0  0  0  0  0  # atno 10763 bound_to 10752
  153.9097  135.3026  155.3450 H   0  0  0  0  0  0  0  0  0  0  0  0  # atno 10764 bound_to 10752
  154.7504  135.5037  153.9355 H   0  0  0  0  0  0  0  0  0  0  0  0  # atno 10765 bound_to 10752
  139.9952  134.6528  156.0022 H   0  0  0  0  0  0  0  0  0  0  0  0  # atno 11005 bound_to 11000
  145.3518  139.1704  143.4430 LP  0  0  0  0  0  0  0  0  0  0  0  0  # atno 17320 bound_to 7965
  146.3139  140.3571  142.8661 LP  0  0  0  0  0  0  0  0  0  0  0  0  # atno 17321 bound_to 7965
  140.2933  144.3729  150.6082 LP  0  0  0  0  0  0  0  0  0  0  0  0  # atno 17342 bound_to 10162
  140.5930  143.2167  151.7217 LP  0  0  0  0  0  0  0  0  0  0  0  0  # atno 17343 bound_to 10162
  157.0000  130.9919  151.3393 LP  0  0  0  0  0  0  0  0  0  0  0  0  # atno 17370 bound_to 10713
  157.5481  130.8164  149.8111 LP  0  0  0  0  0  0  0  0  0  0  0  0  # atno 17371 bound_to 10713
  141.1599  133.6539  156.4283 LP  0  0  0  0  0  0  0  0  0  0  0  0  # atno 17394 bound_to 11000
  140.4831  134.6646  157.5179 LP  0  0  0  0  0  0  0  0  0  0  0  0  # atno 17395 bound_to 11000

$$$$
