AV-unprocessed.smi:876|AV-procd|sdf|4019|dock3
  -GOLD-   22720 1503D 1   1.00000     0.00000
 Structure written by MMmdl.
 41 42  0  0  0  0  0  0  0  0  2 V2000
  137.4791  140.9013  154.0897 C   0  0  0  0  0  0  0  0  0  0  0  0
  137.4322  139.4513  154.2253 N   0  0  0  0  0  0  0  0  0  0  0  0
  136.2134  138.7934  154.6833 C   0  0  0  0  0  0  0  0  0  0  0  0
  138.5807  138.6814  153.9403 C   0  0  0  0  0  0  0  0  0  0  0  0
  138.6554  137.2855  154.1693 C   0  0  0  0  0  0  0  0  0  0  0  0
  139.8377  136.5823  153.8587 C   0  0  0  0  0  0  0  0  0  0  0  0
  140.9421  137.2790  153.3098 C   0  0  0  0  0  0  0  0  0  0  0  0
  142.1834  136.6725  152.9764 N   0  0  0  0  0  0  0  0  0  0  0  0
  142.4834  135.3642  152.9004 C   0  0  0  0  0  0  0  0  0  0  0  0
  141.6927  134.4405  153.0908 O   0  0  0  0  0  0  0  0  0  0  0  0
  143.7681  135.1791  152.5659 N   0  0  0  0  0  0  0  0  0  0  0  0
  144.4029  133.8775  152.3898 C   0  0  2  0  0  0  0  0  0  0  0  0
  145.7230  134.0245  151.6841 C   0  0  0  0  0  0  0  0  0  0  0  0
  145.8080  133.2695  150.5911 C   0  0  0  0  0  0  0  0  0  0  0  0
  144.5578  132.4666  150.3360 C   0  0  2  0  0  0  0  0  0  0  0  0
  143.9875  132.6756  148.9226 C   0  0  0  0  0  0  0  0  0  0  0  0
  142.6945  132.1166  148.8200 O   0  0  0  0  0  0  0  0  0  0  0  0
  143.5963  132.9345  151.4582 C   0  0  0  0  0  0  0  0  0  0  0  0
  140.8212  138.6695  153.1153 C   0  0  0  0  0  0  0  0  0  0  0  0
  139.6702  139.3032  153.4266 N   0  3  0  0  0  0  0  0  0  0  0  0
  144.5834  133.4086  153.3586 H   0  0  0  0  0  0  0  0  0  0  0  0
  144.8011  131.4132  150.4823 H   0  0  0  0  0  0  0  0  0  0  0  0
  137.7067  141.1833  153.0613 H   0  0  0  0  0  0  0  0  0  0  0  0
  138.2420  141.3233  154.7445 H   0  0  0  0  0  0  0  0  0  0  0  0
  136.5247  141.3554  154.3555 H   0  0  0  0  0  0  0  0  0  0  0  0
  136.3947  138.2562  155.6150 H   0  0  0  0  0  0  0  0  0  0  0  0
  135.8568  138.0833  153.9362 H   0  0  0  0  0  0  0  0  0  0  0  0
  135.4166  139.5151  154.8638 H   0  0  0  0  0  0  0  0  0  0  0  0
  137.8234  136.7376  154.5854 H   0  0  0  0  0  0  0  0  0  0  0  0
  139.8745  135.5234  154.0617 H   0  0  0  0  0  0  0  0  0  0  0  0
  142.9201  137.3102  152.7125 H   0  0  0  0  0  0  0  0  0  0  0  0
  144.3493  135.9918  152.4214 H   0  0  0  0  0  0  0  0  0  0  0  0
  146.5073  134.6672  152.0564 H   0  0  0  0  0  0  0  0  0  0  0  0
  146.6713  133.2102  149.9447 H   0  0  0  0  0  0  0  0  0  0  0  0
  143.9217  133.7402  148.6956 H   0  0  0  0  0  0  0  0  0  0  0  0
  144.6355  132.2236  148.1704 H   0  0  0  0  0  0  0  0  0  0  0  0
  142.0587  132.8057  148.9393 H   0  0  0  0  0  0  0  0  0  0  0  0
  143.2002  132.0838  152.0137 H   0  0  0  0  0  0  0  0  0  0  0  0
  142.7365  133.4533  151.0309 H   0  0  0  0  0  0  0  0  0  0  0  0
  141.6060  139.2949  152.7149 H   0  0  0  0  0  0  0  0  0  0  0  0
  139.6187  140.3091  153.2657 H   0  0  0  0  0  0  0  0  0  0  0  0
  1  2  1  0  0  0  0
  1 23  1  0  0  0  0
  1 24  1  0  0  0  0
  1 25  1  0  0  0  0
  2  3  1  0  0  0  0
  2  4  1  0  0  0  0
  3 26  1  0  0  0  0
  3 27  1  0  0  0  0
  3 28  1  0  0  0  0
  4 20  1  0  0  0  0
  4  5  2  0  0  0  0
  5  6  1  0  0  0  0
  5 29  1  0  0  0  0
  6  7  2  0  0  0  0
  6 30  1  0  0  0  0
  7  8  1  0  0  0  0
  7 19  1  0  0  0  0
  8  9  1  0  0  0  0
  8 31  1  0  0  0  0
  9 10  2  0  0  0  0
  9 11  1  0  0  0  0
 11 12  1  0  0  0  0
 11 32  1  0  0  0  0
 12 21  1  0  0  0  0
 12 18  1  0  0  0  0
 12 13  1  0  0  0  0
 13 14  2  0  0  0  0
 13 33  1  0  0  0  0
 14 15  1  0  0  0  0
 14 34  1  0  0  0  0
 15 22  1  0  0  0  0
 15 16  1  0  0  0  0
 15 18  1  0  0  0  0
 16 17  1  0  0  0  0
 16 35  1  0  0  0  0
 16 36  1  0  0  0  0
 17 37  1  0  0  0  0
 18 38  1  0  0  0  0
 18 39  1  0  0  0  0
 19 20  2  0  0  0  0
 19 40  1  0  0  0  0
 20 41  1  0  0  0  0
M  CHG  1  20   1
M  END
> <s_m_source_file>
AV-unprocessed.smi

> <i_m_source_file_index>
876

> <i_lp_mmshare_version>
43012

> <i_f3d_flags>
0

> <s_epik_input>
W0NIM11OKFtDSDNdKWMxW2NIXVtjSF1jKFtjSF1uMSlbTkhdQyg9TylbTkhdW0NAQEhdMltDSF09W0NIXVtDQEBIXShbQ0gyXTIpW0NIMl1bT0hd

> <s_epik_cmdline>
J2VwaWtfcHl0aG9uJywgJy1waCcsICc3LjAnLCAnLXRuJywgJzgnLCAnLW1hJywgJzIwMCcsICctbWV0YWxfYmluZGluZycsICctaW1hZScsICc8aW5maWxlLm1hZT4nLCAnLW9tYWUnLCAnPG91dGZpbGUubWFlPic=

> <r_lp_tautomer_probability>
0.999994

> <r_epik_Ionization_Penalty>
0.257994

> <r_epik_Ionization_Penalty_Charging>
0.257974

> <r_epik_Ionization_Penalty_Neutral>
1.95938e-05

> <r_epik_State_Penalty>
0.249586

> <r_epik_Charging_Adjusted_Penalty>
0.50756

> <i_epik_Tot_Q>
1

> <i_epik_Tot_abs_Q>
1

> <r_epik_Metal_State_Penalty>
0.538508

> <b_epik_Metal_Only>
0

> <s_lp_Force_Field>
OPLS_2005

> <r_lp_Energy>
26.1458

> <b_lp_Chiralities_Consistent>
1

> <s_lp_Variant>
AV-unprocessed.smi:876-1

> <Gold.Version>
5.8.1

> <Gold.Id.Protein>
6NUR|6NUR_protein|mol2

> <Gold.PLP.Fitness>
45.0406

> <Gold.PLP.PLP>
-39.4947

> <Gold.PLP.part.hbond>
-4.0000

> <Gold.PLP.part.metal>
0.0000

> <Gold.PLP.part.buried>
-5.4607

> <Gold.PLP.part.nonpolar>
-29.8274

> <Gold.PLP.part.repulsive>
0.2689

> <Gold.PLP.ligand.clash>
0.0000

> <Gold.PLP.ligand.torsion>
0.2261

> <Gold.PLP.Chemscore.Hbond>
1.9913

> <Gold.PLP.Chemscore.CHOScore>
0.0000

> <Gold.PLP.Chemscore.Metal>
0.0000

> <Gold.Chemscore.Hbonds>
donor molecule, donor type, donor heavy atom, donor atom, acceptor molecule, acceptor atom, score
      L1  H    17    37       P1 10186  1.00
      P1  H 10785 10796       L1    17  0.99

> <Gold.PLP.Chemscore.Internal.Correction>
0.0243

> <Gold.Rescore>
     Score         DG    S(hbond)    S(metal)    S(lipo)     H(rot)  DE(clash)    DE(int)     intcor
     12.44     -15.06       1.65        0.00      74.68       1.82       0.01       2.60       ----

> <Gold.Chemscore.Fitness>
12.4435

> <Gold.Chemscore.DG>
-15.0560

> <Gold.Chemscore.ZeroCoef>
-5.4800

> <Gold.Chemscore.Hbond>
1.6459

> <Gold.Chemscore.Metal>
0.0000

> <Gold.Chemscore.Lipo>
74.6777

> <Gold.Chemscore.Internal_Hbond>
0.0000

> <Gold.Chemscore.DEClash>
0.0089

> <Gold.Chemscore.DEInternal>
2.6036

> <Gold.Chemscore.Rot>
1.8197

> <Gold.Chemscore.Internal.Correction>
   9.000000E+99

> <Gold.Chemscore.Hbonds>
donor molecule, donor type, donor heavy atom, donor atom, acceptor molecule, acceptor atom, score
      L1  H    17    37       P1 10186  0.96
      P1  H 10785 10796       L1    17  0.23

> <Gold.Chemscore.Hbond.Weighted>
-5.4972

> <Gold.Chemscore.Metal.Weighted>
-0.0000

> <Gold.Chemscore.Lipo.Weighted>
-8.7373

> <Gold.Chemscore.Internal_Hbond.Weighted>
0.0000

> <Gold.Chemscore.DEClash.Weighted>
0.0089

> <Gold.Chemscore.DEInternal.Weighted>
2.6036

> <Gold.Chemscore.Rot.Weighted>
4.6585

> <Gold.Chemscore.Internal.Correction.Weighted>
   9.000000E+99

> <Gold.Protein.RotatedTorsions>
[ 6907 6896 6895 6894 ] final  -76.82 input  -60.11 | X-H torsion
[ 7974 7965 7964 7962 ] final -107.31 input  175.53 | X-H torsion
[ 8008 7997 7996 7995 ] final  -45.34 input   59.86 | X-H torsion
[ 10167 10162 10161 10158 ] final   47.93 input  -65.29 | X-H torsion
[ 10718 10713 10712 10709 ] final  -89.85 input   66.30 | X-H torsion
[ 10763 10752 10751 10750 ] final    3.43 input  -60.55 | X-H torsion
[ 11005 11000 10999 10996 ] final -117.70 input  -57.11 | X-H torsion

> <Gold.Protein.ActiveResidues>
 VAL166  LYS551  ARG553  GLY616  TRP617  ASP618  TYR619  PRO620  LYS621  CYS622 
 ASP623  PHE694  ASN695  SER759  ASP760  ASP761  ALA762  ILE779  LEU786  VAL792 
 PHE793  MET794  SER795  GLU796  ALA797  LYS798  CYS799  TRP800  GLU811  SER814 

> <Gold.Protein.RotatedAtoms>
  150.7016  134.4515  159.5338 H   0  0  0  0  0  0  0  0  0  0  0  0  # atno 6907 bound_to 6896
  152.2207  134.8413  160.0495 H   0  0  0  0  0  0  0  0  0  0  0  0  # atno 6908 bound_to 6896
  151.9264  133.3564  159.3952 H   0  0  0  0  0  0  0  0  0  0  0  0  # atno 6909 bound_to 6896
  145.2070  140.9080  143.3336 H   0  0  0  0  0  0  0  0  0  0  0  0  # atno 7974 bound_to 7965
  154.4000  140.1399  156.3831 H   0  0  0  0  0  0  0  0  0  0  0  0  # atno 8008 bound_to 7997
  155.7985  140.3476  155.5369 H   0  0  0  0  0  0  0  0  0  0  0  0  # atno 8009 bound_to 7997
  155.8507  140.0941  157.1667 H   0  0  0  0  0  0  0  0  0  0  0  0  # atno 8010 bound_to 7997
  140.2986  144.2961  150.6224 H   0  0  0  0  0  0  0  0  0  0  0  0  # atno 10167 bound_to 10162
  155.9985  130.4887  150.5233 H   0  0  0  0  0  0  0  0  0  0  0  0  # atno 10718 bound_to 10713
  153.2835  135.6942  153.7362 H   0  0  0  0  0  0  0  0  0  0  0  0  # atno 10763 bound_to 10752
  153.6341  135.3405  155.3052 H   0  0  0  0  0  0  0  0  0  0  0  0  # atno 10764 bound_to 10752
  154.8502  135.4416  154.1895 H   0  0  0  0  0  0  0  0  0  0  0  0  # atno 10765 bound_to 10752
  141.0337  133.9943  157.3104 H   0  0  0  0  0  0  0  0  0  0  0  0  # atno 11005 bound_to 11000
  144.9893  139.3705  143.6223 LP  0  0  0  0  0  0  0  0  0  0  0  0  # atno 17320 bound_to 7965
  146.3406  139.9068  142.8786 LP  0  0  0  0  0  0  0  0  0  0  0  0  # atno 17321 bound_to 7965
  140.5671  143.2185  151.7665 LP  0  0  0  0  0  0  0  0  0  0  0  0  # atno 17342 bound_to 10162
  139.4920  144.4269  151.9916 LP  0  0  0  0  0  0  0  0  0  0  0  0  # atno 17343 bound_to 10162
  157.3192  131.0678  151.1945 LP  0  0  0  0  0  0  0  0  0  0  0  0  # atno 17370 bound_to 10713
  157.2864  130.6775  149.6092 LP  0  0  0  0  0  0  0  0  0  0  0  0  # atno 17371 bound_to 10713
  139.9225  135.0201  156.8117 LP  0  0  0  0  0  0  0  0  0  0  0  0  # atno 17394 bound_to 11000
  140.6361  133.9861  155.7685 LP  0  0  0  0  0  0  0  0  0  0  0  0  # atno 17395 bound_to 11000

$$$$
