AV-unprocessed.smi:1395|AV-procd|sdf|5669|dock6
  -GOLD-   22720 5293D 1   1.00000     0.00000
 Structure written by MMmdl.
 42 43  0  0  0  0  0  0  0  0  1 V2000
  150.7896  145.2901  158.6793 C   0  0  0  0  0  0  0  0  0  0  0  0
  151.4451  144.0197  159.1965 C   0  0  0  0  0  0  0  0  0  0  0  0
  152.2997  144.0907  160.3171 C   0  0  0  0  0  0  0  0  0  0  0  0
  152.9054  142.9156  160.7936 C   0  0  0  0  0  0  0  0  0  0  0  0
  152.6286  141.7110  160.1248 C   0  0  0  0  0  0  0  0  0  0  0  0
  151.8136  141.6339  159.0530 N   0  0  0  0  0  0  0  0  0  0  0  0
  151.2209  142.7592  158.5802 C   0  0  0  0  0  0  0  0  0  0  0  0
  150.3513  142.7546  157.4531 N   0  0  0  0  0  0  0  0  0  0  0  0
  149.8003  141.7017  156.8236 C   0  0  0  0  0  0  0  0  0  0  0  0
  149.9598  140.5206  157.1332 O   0  0  0  0  0  0  0  0  0  0  0  0
  149.0362  142.1000  155.7963 N   0  0  0  0  0  0  0  0  0  0  0  0
  148.2903  141.2144  154.9073 C   0  0  0  0  0  0  0  0  0  0  0  0
  147.0855  140.6233  155.6526 C   0  0  0  0  0  0  0  0  0  0  0  0
  146.3477  139.5828  154.7918 C   0  0  0  0  0  0  0  0  0  0  0  0
  147.2631  138.5040  154.3918 N   0  0  0  0  0  0  0  0  0  0  0  0
  146.5825  137.4335  153.6281 C   0  0  0  0  0  0  0  0  0  0  0  0
  146.0655  137.8641  152.2493 C   0  0  0  0  0  0  0  0  0  0  0  0
  144.7554  137.7401  152.0232 N   0  0  0  0  0  0  0  0  0  0  0  0
  146.8392  138.2997  151.3992 O   0  0  0  0  0  0  0  0  0  0  0  0
  148.3645  139.0470  153.5897 C   0  0  0  0  0  0  0  0  0  0  0  0
  149.1799  140.0653  154.4055 C   0  0  0  0  0  0  0  0  0  0  0  0
  151.0731  146.1557  159.2786 H   0  0  0  0  0  0  0  0  0  0  0  0
  149.7033  145.2005  158.7132 H   0  0  0  0  0  0  0  0  0  0  0  0
  151.0907  145.4819  157.6491 H   0  0  0  0  0  0  0  0  0  0  0  0
  152.4913  145.0336  160.8083 H   0  0  0  0  0  0  0  0  0  0  0  0
  153.5643  142.9367  161.6489 H   0  0  0  0  0  0  0  0  0  0  0  0
  153.0728  140.7848  160.4578 H   0  0  0  0  0  0  0  0  0  0  0  0
  150.1216  143.6647  157.0829 H   0  0  0  0  0  0  0  0  0  0  0  0
  148.9603  143.0903  155.6160 H   0  0  0  0  0  0  0  0  0  0  0  0
  147.9215  141.7837  154.0517 H   0  0  0  0  0  0  0  0  0  0  0  0
  147.4147  140.1527  156.5806 H   0  0  0  0  0  0  0  0  0  0  0  0
  146.3967  141.4193  155.9380 H   0  0  0  0  0  0  0  0  0  0  0  0
  145.5157  139.1918  155.3772 H   0  0  0  0  0  0  0  0  0  0  0  0
  145.9164  140.0574  153.9087 H   0  0  0  0  0  0  0  0  0  0  0  0
  147.2520  136.5774  153.5215 H   0  0  0  0  0  0  0  0  0  0  0  0
  145.7178  137.0813  154.1925 H   0  0  0  0  0  0  0  0  0  0  0  0
  144.3690  138.0093  151.1303 H   0  0  0  0  0  0  0  0  0  0  0  0
  144.1555  137.3749  152.7487 H   0  0  0  0  0  0  0  0  0  0  0  0
  149.0268  138.2393  153.2752 H   0  0  0  0  0  0  0  0  0  0  0  0
  147.9799  139.5130  152.6806 H   0  0  0  0  0  0  0  0  0  0  0  0
  149.9918  140.4585  153.7928 H   0  0  0  0  0  0  0  0  0  0  0  0
  149.6483  139.5593  155.2511 H   0  0  0  0  0  0  0  0  0  0  0  0
  1  2  1  0  0  0  0
  1 22  1  0  0  0  0
  1 23  1  0  0  0  0
  1 24  1  0  0  0  0
  2  7  1  0  0  0  0
  2  3  2  0  0  0  0
  3  4  1  0  0  0  0
  3 25  1  0  0  0  0
  4  5  2  0  0  0  0
  4 26  1  0  0  0  0
  5  6  1  0  0  0  0
  5 27  1  0  0  0  0
  6  7  2  0  0  0  0
  7  8  1  0  0  0  0
  8  9  1  0  0  0  0
  8 28  1  0  0  0  0
  9 10  2  0  0  0  0
  9 11  1  0  0  0  0
 11 12  1  0  0  0  0
 11 29  1  0  0  0  0
 12 21  1  0  0  0  0
 12 13  1  0  0  0  0
 12 30  1  0  0  0  0
 13 14  1  0  0  0  0
 13 31  1  0  0  0  0
 13 32  1  0  0  0  0
 14 15  1  0  0  0  0
 14 33  1  0  0  0  0
 14 34  1  0  0  0  0
 15 16  1  0  0  0  0
 15 20  1  0  0  0  0
 16 17  1  0  0  0  0
 16 35  1  0  0  0  0
 16 36  1  0  0  0  0
 17 18  1  0  0  0  0
 17 19  2  0  0  0  0
 18 37  1  0  0  0  0
 18 38  1  0  0  0  0
 20 21  1  0  0  0  0
 20 39  1  0  0  0  0
 20 40  1  0  0  0  0
 21 41  1  0  0  0  0
 21 42  1  0  0  0  0
M  END
> <s_m_source_file>
AV-unprocessed.smi

> <i_m_source_file_index>
1395

> <i_lp_mmshare_version>
43012

> <i_f3d_flags>
0

> <s_epik_input>
W0NIM11jMVtjSF1bY0hdW2NIXW5jMVtOSF1DKD1PKVtOSF1bQ0hdMltDSDJdW0NIMl1OKFtDSDJdW0NIMl0yKVtDSDJdQyg9TylbTkgyXQ==

> <s_epik_cmdline>
J2VwaWtfcHl0aG9uJywgJy1waCcsICc3LjAnLCAnLXRuJywgJzgnLCAnLW1hJywgJzIwMCcsICctbWV0YWxfYmluZGluZycsICctaW1hZScsICc8aW5maWxlLm1hZT4nLCAnLW9tYWUnLCAnPG91dGZpbGUubWFlPic=

> <r_epik_Ionization_Penalty>
0.164795

> <r_epik_Ionization_Penalty_Charging>
0

> <r_epik_Ionization_Penalty_Neutral>
0.164795

> <r_epik_State_Penalty>
0.154069

> <r_epik_Charging_Adjusted_Penalty>
0.154069

> <i_epik_Tot_Q>
0

> <i_epik_Tot_abs_Q>
0

> <r_epik_Metal_State_Penalty>
0.171366

> <b_epik_Metal_Only>
0

> <s_lp_Force_Field>
OPLS_2005

> <r_lp_Energy>
15.3703

> <b_lp_Chiralities_Consistent>
1

> <s_lp_Variant>
AV-unprocessed.smi:1395-1

> <Gold.Version>
5.8.1

> <Gold.Id.Protein>
6NUR|6NUR_protein|mol2

> <Gold.PLP.Fitness>
45.5822

> <Gold.PLP.PLP>
-35.7012

> <Gold.PLP.part.hbond>
-4.8083

> <Gold.PLP.part.metal>
0.0000

> <Gold.PLP.part.buried>
-4.1916

> <Gold.PLP.part.nonpolar>
-28.6442

> <Gold.PLP.part.repulsive>
1.5365

> <Gold.PLP.ligand.clash>
0.0000

> <Gold.PLP.ligand.torsion>
0.1780

> <Gold.PLP.Chemscore.Hbond>
3.4102

> <Gold.PLP.Chemscore.CHOScore>
0.0000

> <Gold.PLP.Chemscore.Metal>
0.0000

> <Gold.Chemscore.Hbonds>
donor molecule, donor type, donor heavy atom, donor atom, acceptor molecule, acceptor atom, score
      L1  H     8    28       P1  8028  0.65
      L1  H    11    29       P1  8028  1.00
      L1  H    18    37       P1 10171  0.98
      P1  H  7954  7966       L1    19  0.96

> <Gold.PLP.Chemscore.Internal.Correction>
0.0065

> <Gold.Rescore>
     Score         DG    S(hbond)    S(metal)    S(lipo)     H(rot)  DE(clash)    DE(int)     intcor
     16.49     -22.21       3.59        0.00      82.86       1.94       1.70       4.02       ----

> <Gold.Chemscore.Fitness>
16.4914

> <Gold.Chemscore.DG>
-22.2053

> <Gold.Chemscore.ZeroCoef>
-5.4800

> <Gold.Chemscore.Hbond>
3.5907

> <Gold.Chemscore.Metal>
0.0000

> <Gold.Chemscore.Lipo>
82.8595

> <Gold.Chemscore.Internal_Hbond>
0.0000

> <Gold.Chemscore.DEClash>
1.6982

> <Gold.Chemscore.DEInternal>
4.0157

> <Gold.Chemscore.Rot>
1.9383

> <Gold.Chemscore.Internal.Correction>
   9.000000E+99

> <Gold.Chemscore.Hbonds>
donor molecule, donor type, donor heavy atom, donor atom, acceptor molecule, acceptor atom, score
      L1  H     8    28       P1  8028  0.61
      L1  H    11    29       P1  8028  0.99
      L1  H    18    37       P1 10171  0.92
      P1  H  7954  7966       L1    19  0.90

> <Gold.Chemscore.Hbond.Weighted>
-11.9928

> <Gold.Chemscore.Metal.Weighted>
-0.0000

> <Gold.Chemscore.Lipo.Weighted>
-9.6946

> <Gold.Chemscore.Internal_Hbond.Weighted>
0.0000

> <Gold.Chemscore.DEClash.Weighted>
1.6982

> <Gold.Chemscore.DEInternal.Weighted>
4.0157

> <Gold.Chemscore.Rot.Weighted>
4.9620

> <Gold.Chemscore.Internal.Correction.Weighted>
   9.000000E+99

> <Gold.Protein.RotatedTorsions>
[ 6907 6896 6895 6894 ] final   18.51 input  -60.11 | X-H torsion
[ 7974 7965 7964 7962 ] final  -35.49 input  175.53 | X-H torsion
[ 8008 7997 7996 7995 ] final -168.52 input   59.86 | X-H torsion
[ 10167 10162 10161 10158 ] final  -64.99 input  -65.29 | X-H torsion
[ 10718 10713 10712 10709 ] final -115.16 input   66.30 | X-H torsion
[ 10763 10752 10751 10750 ] final -167.92 input  -60.55 | X-H torsion
[ 11005 11000 10999 10996 ] final   31.30 input  -57.11 | X-H torsion

> <Gold.Protein.ActiveResidues>
 VAL166  LYS551  ARG553  GLY616  TRP617  ASP618  TYR619  PRO620  LYS621  CYS622 
 ASP623  PHE694  ASN695  SER759  ASP760  ASP761  ALA762  ILE779  LEU786  VAL792 
 PHE793  MET794  SER795  GLU796  ALA797  LYS798  CYS799  TRP800  GLU811  SER814 

> <Gold.Protein.RotatedAtoms>
  151.8664  135.0505  160.0474 H   0  0  0  0  0  0  0  0  0  0  0  0  # atno 6907 bound_to 6896
  152.2622  133.5303  159.5397 H   0  0  0  0  0  0  0  0  0  0  0  0  # atno 6908 bound_to 6896
  150.7121  134.0730  159.3913 H   0  0  0  0  0  0  0  0  0  0  0  0  # atno 6909 bound_to 6896
  146.0742  140.6166  142.8938 H   0  0  0  0  0  0  0  0  0  0  0  0  # atno 7974 bound_to 7965
  155.8926  140.1027  157.1408 H   0  0  0  0  0  0  0  0  0  0  0  0  # atno 8008 bound_to 7997
  154.4016  140.1308  156.4398 H   0  0  0  0  0  0  0  0  0  0  0  0  # atno 8009 bound_to 7997
  155.7516  140.3465  155.5156 H   0  0  0  0  0  0  0  0  0  0  0  0  # atno 8010 bound_to 7997
  140.5762  143.2322  151.6438 H   0  0  0  0  0  0  0  0  0  0  0  0  # atno 10167 bound_to 10162
  156.0877  130.6066  150.8870 H   0  0  0  0  0  0  0  0  0  0  0  0  # atno 10718 bound_to 10713
  154.6682  135.2935  154.9777 H   0  0  0  0  0  0  0  0  0  0  0  0  # atno 10763 bound_to 10752
  154.0814  135.6604  153.4842 H   0  0  0  0  0  0  0  0  0  0  0  0  # atno 10764 bound_to 10752
  153.0470  135.5198  154.7665 H   0  0  0  0  0  0  0  0  0  0  0  0  # atno 10765 bound_to 10752
  140.2854  134.2925  155.7789 H   0  0  0  0  0  0  0  0  0  0  0  0  # atno 11005 bound_to 11000
  144.7251  140.4497  143.6979 LP  0  0  0  0  0  0  0  0  0  0  0  0  # atno 17320 bound_to 7965
  145.6337  139.1540  143.2955 LP  0  0  0  0  0  0  0  0  0  0  0  0  # atno 17321 bound_to 7965
  139.5144  144.3412  152.0738 LP  0  0  0  0  0  0  0  0  0  0  0  0  # atno 17342 bound_to 10162
  140.2556  144.4122  150.6205 LP  0  0  0  0  0  0  0  0  0  0  0  0  # atno 17343 bound_to 10162
  157.6017  131.0941  150.8948 LP  0  0  0  0  0  0  0  0  0  0  0  0  # atno 17370 bound_to 10713
  156.9104  130.5279  149.5280 LP  0  0  0  0  0  0  0  0  0  0  0  0  # atno 17371 bound_to 10713
  141.2156  133.7551  156.9543 LP  0  0  0  0  0  0  0  0  0  0  0  0  # atno 17394 bound_to 11000
  140.1245  134.9396  157.2250 LP  0  0  0  0  0  0  0  0  0  0  0  0  # atno 17395 bound_to 11000

$$$$
