AV-unprocessed.smi:2671|AV-procd|sdf|10351|dock3
  -GOLD-   2272014373D 1   1.00000     0.00000
 Structure written by MMmdl.
 29 30  0  0  0  0  0  0  0  0  1 V2000
  153.2853  139.9860  158.5584 O   0  0  0  0  0  0  0  0  0  0  0  0
  152.4237  140.8493  158.4069 C   0  0  0  0  0  0  0  0  0  0  0  0
  152.5622  142.1720  159.0287 C   0  0  0  0  0  0  0  0  0  0  0  0
  151.6014  143.1000  158.8458 C   0  0  0  0  0  0  0  0  0  0  0  0
  151.6678  144.4931  159.4509 C   0  0  0  0  0  0  0  0  0  0  0  0
  152.0599  144.4227  160.7224 F   0  0  0  0  0  0  0  0  0  0  0  0
  152.5473  145.2420  158.7866 F   0  0  0  0  0  0  0  0  0  0  0  0
  150.4830  145.1063  159.4121 F   0  0  0  0  0  0  0  0  0  0  0  0
  150.4881  142.8107  158.0736 N   0  0  0  0  0  0  0  0  0  0  0  0
  150.3799  141.5515  157.4966 C   0  0  0  0  0  0  0  0  0  0  0  0
  148.8363  141.4358  156.5455 S   0  0  0  0  0  0  0  0  0  0  0  0
  149.4186  140.6993  154.9905 C   0  0  0  0  0  0  0  0  0  0  0  0
  150.4194  139.5623  155.2368 C   0  0  1  0  0  0  0  0  0  0  0  0
  150.4409  138.4835  154.1524 C   0  0  0  0  0  0  0  0  0  0  0  0
  151.8619  137.9408  154.2068 C   0  0  0  0  0  0  0  0  0  0  0  0
  152.6103  138.9334  155.1002 C   0  0  0  0  0  0  0  0  0  0  0  0
  151.7480  140.0572  155.2002 O   0  0  0  0  0  0  0  0  0  0  0  0
  151.2729  140.6135  157.6373 N   0  0  0  0  0  0  0  0  0  0  0  0
  149.7908  143.5325  157.9587 H   0  0  0  0  0  0  0  0  0  0  0  0
  153.4313  142.3983  159.6293 H   0  0  0  0  0  0  0  0  0  0  0  0
  149.8921  141.4800  154.3947 H   0  0  0  0  0  0  0  0  0  0  0  0
  148.5639  140.3351  154.4194 H   0  0  0  0  0  0  0  0  0  0  0  0
  150.2450  139.1094  156.2148 H   0  0  0  0  0  0  0  0  0  0  0  0
  149.6873  137.7127  154.3166 H   0  0  0  0  0  0  0  0  0  0  0  0
  150.2585  138.9262  153.1722 H   0  0  0  0  0  0  0  0  0  0  0  0
  151.8968  136.9357  154.6283 H   0  0  0  0  0  0  0  0  0  0  0  0
  152.2948  137.9007  153.2067 H   0  0  0  0  0  0  0  0  0  0  0  0
  152.7654  138.5124  156.0947 H   0  0  0  0  0  0  0  0  0  0  0  0
  153.5822  139.2147  154.6945 H   0  0  0  0  0  0  0  0  0  0  0  0
  1  2  2  0  0  0  0
  2 18  1  0  0  0  0
  2  3  1  0  0  0  0
  3 20  1  0  0  0  0
  3  4  2  0  0  0  0
  4  5  1  0  0  0  0
  4  9  1  0  0  0  0
  5  6  1  0  0  0  0
  5  7  1  0  0  0  0
  5  8  1  0  0  0  0
  9 10  1  0  0  0  0
  9 19  1  0  0  0  0
 10 11  1  0  0  0  0
 10 18  2  0  0  0  0
 11 12  1  0  0  0  0
 12 13  1  0  0  0  0
 12 21  1  0  0  0  0
 12 22  1  0  0  0  0
 13 17  1  0  0  0  0
 13 14  1  0  0  0  0
 13 23  1  0  0  0  0
 14 15  1  0  0  0  0
 14 24  1  0  0  0  0
 14 25  1  0  0  0  0
 15 16  1  0  0  0  0
 15 26  1  0  0  0  0
 15 27  1  0  0  0  0
 16 17  1  0  0  0  0
 16 28  1  0  0  0  0
 16 29  1  0  0  0  0
M  END
> <s_m_source_file>
AV-unprocessed.smi

> <i_m_source_file_index>
2671

> <i_lp_mmshare_version>
43012

> <i_f3d_flags>
0

> <s_epik_input>
W09IXWMxW2NIXWMoQyhGKShGKUYpbmMobjEpU1tDSDJdW0NAQEhdMltDSDJdW0NIMl1bQ0gyXU8y

> <s_epik_cmdline>
J2VwaWtfcHl0aG9uJywgJy1waCcsICc3LjAnLCAnLXRuJywgJzgnLCAnLW1hJywgJzIwMCcsICctbWV0YWxfYmluZGluZycsICctaW1hZScsICc8aW5maWxlLm1hZT4nLCAnLW9tYWUnLCAnPG91dGZpbGUubWFlPic=

> <r_lp_tautomer_probability>
0.273662

> <r_epik_Ionization_Penalty>
1.33793

> <r_epik_Ionization_Penalty_Charging>
1.33793

> <r_epik_Ionization_Penalty_Neutral>
8.2996e-08

> <r_epik_State_Penalty>
1.59174

> <r_epik_Charging_Adjusted_Penalty>
2.92967

> <i_epik_Tot_Q>
0

> <i_epik_Tot_abs_Q>
0

> <r_epik_Metal_State_Penalty>
2.31522

> <b_epik_Metal_Only>
0

> <s_lp_Force_Field>
OPLS_2005

> <r_lp_Energy>
25.3569

> <b_lp_Chiralities_Consistent>
1

> <s_lp_Variant>
AV-unprocessed.smi:2671-6

> <Gold.Version>
5.8.1

> <Gold.Id.Protein>
6NUR|6NUR_protein|mol2

> <Gold.PLP.Fitness>
44.3921

> <Gold.PLP.PLP>
-40.8940

> <Gold.PLP.part.hbond>
-2.0000

> <Gold.PLP.part.metal>
0.0000

> <Gold.PLP.part.buried>
-7.2490

> <Gold.PLP.part.nonpolar>
-31.8102

> <Gold.PLP.part.repulsive>
0.0795

> <Gold.PLP.ligand.clash>
0.0000

> <Gold.PLP.ligand.torsion>
1.1993

> <Gold.PLP.Chemscore.Hbond>
1.9600

> <Gold.PLP.Chemscore.CHOScore>
0.0000

> <Gold.PLP.Chemscore.Metal>
0.0000

> <Gold.Chemscore.Hbonds>
donor molecule, donor type, donor heavy atom, donor atom, acceptor molecule, acceptor atom, score
      P1  H  7989  7998       L1    17  0.85
      P1  H  7997  8008       L1     1  1.00

> <Gold.PLP.Chemscore.Internal.Correction>
0.0167

> <Gold.Rescore>
     Score         DG    S(hbond)    S(metal)    S(lipo)     H(rot)  DE(clash)    DE(int)     intcor
     10.49     -15.30       1.61        0.00      74.90       1.69       0.38       4.43       ----

> <Gold.Chemscore.Fitness>
10.4920

> <Gold.Chemscore.DG>
-15.3002

> <Gold.Chemscore.ZeroCoef>
-5.4800

> <Gold.Chemscore.Hbond>
1.6137

> <Gold.Chemscore.Metal>
0.0000

> <Gold.Chemscore.Lipo>
74.8952

> <Gold.Chemscore.Internal_Hbond>
0.0000

> <Gold.Chemscore.DEClash>
0.3756

> <Gold.Chemscore.DEInternal>
4.4326

> <Gold.Chemscore.Rot>
1.6924

> <Gold.Chemscore.Internal.Correction>
   9.000000E+99

> <Gold.Chemscore.Hbonds>
donor molecule, donor type, donor heavy atom, donor atom, acceptor molecule, acceptor atom, score
      P1  H  7989  7998       L1    17  0.11
      P1  H  7997  8008       L1     1  0.63

> <Gold.Chemscore.Hbond.Weighted>
-5.3899

> <Gold.Chemscore.Metal.Weighted>
-0.0000

> <Gold.Chemscore.Lipo.Weighted>
-8.7627

> <Gold.Chemscore.Internal_Hbond.Weighted>
0.0000

> <Gold.Chemscore.DEClash.Weighted>
0.3756

> <Gold.Chemscore.DEInternal.Weighted>
4.4326

> <Gold.Chemscore.Rot.Weighted>
4.3324

> <Gold.Chemscore.Internal.Correction.Weighted>
   9.000000E+99

> <Gold.Protein.RotatedTorsions>
[ 6907 6896 6895 6894 ] final  -20.16 input  -60.11 | X-H torsion
[ 7974 7965 7964 7962 ] final  141.30 input  175.53 | X-H torsion
[ 8008 7997 7996 7995 ] final  -81.58 input   59.86 | X-H torsion
[ 10167 10162 10161 10158 ] final  127.78 input  -65.29 | X-H torsion
[ 10718 10713 10712 10709 ] final  -33.86 input   66.30 | X-H torsion
[ 10763 10752 10751 10750 ] final  112.17 input  -60.55 | X-H torsion
[ 11005 11000 10999 10996 ] final  -88.13 input  -57.11 | X-H torsion

> <Gold.Protein.ActiveResidues>
 VAL166  LYS551  ARG553  GLY616  TRP617  ASP618  TYR619  PRO620  LYS621  CYS622 
 ASP623  PHE694  ASN695  SER759  ASP760  ASP761  ALA762  ILE779  LEU786  VAL792 
 PHE793  MET794  SER795  GLU796  ALA797  LYS798  CYS799  TRP800  GLU811  SER814 

> <Gold.Protein.RotatedAtoms>
  151.2524  135.0626  159.9066 H   0  0  0  0  0  0  0  0  0  0  0  0  # atno 6907 bound_to 6896
  152.5378  134.0318  159.8038 H   0  0  0  0  0  0  0  0  0  0  0  0  # atno 6908 bound_to 6896
  151.0528  133.5560  159.2672 H   0  0  0  0  0  0  0  0  0  0  0  0  # atno 6909 bound_to 6896
  144.9108  139.5295  143.5709 H   0  0  0  0  0  0  0  0  0  0  0  0  # atno 7974 bound_to 7965
  154.5998  140.0645  156.9353 H   0  0  0  0  0  0  0  0  0  0  0  0  # atno 8008 bound_to 7997
  155.2151  140.3326  155.4305 H   0  0  0  0  0  0  0  0  0  0  0  0  # atno 8009 bound_to 7997
  156.2311  140.1841  156.7224 H   0  0  0  0  0  0  0  0  0  0  0  0  # atno 8010 bound_to 7997
  139.5561  144.6849  151.4180 H   0  0  0  0  0  0  0  0  0  0  0  0  # atno 10167 bound_to 10162
  156.3575  130.4318  149.7652 H   0  0  0  0  0  0  0  0  0  0  0  0  # atno 10718 bound_to 10713
  153.4739  135.3694  155.2406 H   0  0  0  0  0  0  0  0  0  0  0  0  # atno 10763 bound_to 10752
  154.8756  135.3938  154.3779 H   0  0  0  0  0  0  0  0  0  0  0  0  # atno 10764 bound_to 10752
  153.4372  135.7083  153.6257 H   0  0  0  0  0  0  0  0  0  0  0  0  # atno 10765 bound_to 10752
  141.1606  133.7552  156.9407 H   0  0  0  0  0  0  0  0  0  0  0  0  # atno 11005 bound_to 11000
  146.3158  139.7913  142.8985 LP  0  0  0  0  0  0  0  0  0  0  0  0  # atno 17320 bound_to 7965
  145.3457  141.0297  143.3367 LP  0  0  0  0  0  0  0  0  0  0  0  0  # atno 17321 bound_to 7965
  140.6833  143.8031  150.7152 LP  0  0  0  0  0  0  0  0  0  0  0  0  # atno 17342 bound_to 10162
  140.1491  143.4373  152.2143 LP  0  0  0  0  0  0  0  0  0  0  0  0  # atno 17343 bound_to 10162
  156.4828  130.8049  151.3062 LP  0  0  0  0  0  0  0  0  0  0  0  0  # atno 17370 bound_to 10713
  157.7469  131.0000  150.2910 LP  0  0  0  0  0  0  0  0  0  0  0  0  # atno 17371 bound_to 10713
  140.1324  134.9347  157.2355 LP  0  0  0  0  0  0  0  0  0  0  0  0  # atno 17394 bound_to 11000
  140.2937  134.3211  155.7308 LP  0  0  0  0  0  0  0  0  0  0  0  0  # atno 17395 bound_to 11000

$$$$
