#       Name:                AV-unprocessed.smi:2263
#       Creating user name   scv26
#       Creation time:       Fri Mar 27 12:34:38 2020


#       File generated by GOLD software.
#

@<TRIPOS>MOLECULE
AV-unprocessed.smi:2263
    43    44     1
SMALL
NO_CHARGES


@<TRIPOS>ATOM
      1 ****        -6.8081   0.2228  -3.3669 C.3            1 S1                 0.0000
      2 ****        -5.3204  -0.0812  -3.5084 C.2            1 S1                 0.0000
      3 ****        -4.9391  -0.9437  -4.2990 O.2            1 S1                 0.0000
      4 ****        -4.4910   0.6335  -2.7334 N.am           1 S1                 0.0000
      5 ****        -3.0399   0.4903  -2.7075 C.3            1 S1                 0.0000
      6 ****        -2.6059  -0.6974  -1.8337 C.3            1 S1                 0.0000
      7 ****        -1.1236  -0.8558  -1.7833 C.2            1 S1                 0.0000
      8 ****        -0.3437  -0.2247  -0.9017 N.2            1 S1                 0.0000
      9 ****         1.0131  -0.5124  -1.0802 C.2            1 S1                 0.0000
     10 ****         2.0346   0.0997  -0.1702 C.3            1 S1                 0.0000
     11 ****         2.1224  -0.6284   1.1807 C.3            1 S1                 0.0000
     12 ****         3.2013  -0.0508   2.1143 C.3            1 S1                 0.0000
     13 ****         3.3920  -0.8602   3.4008 C.3            1 S1                 0.0000
     14 ****         4.0333   0.1045   4.4071 C.3            1 S1                 0.0000
     15 ****         3.8128   1.5200   3.8534 C.3            1 S1                 0.0000
     16 ****         2.9042   1.3591   2.6323 C.3            1 S1                 0.0000
     17 ****         1.2511  -1.3704  -2.1249 C.2            1 S1                 0.0000
     18 ****        -0.2214  -1.8428  -2.9267 S.3            1 S1                 0.0000
     19 ****        -7.1244   0.1078  -2.3297 H              1 S1                 0.0000
     20 ****        -7.4024  -0.4548  -3.9811 H              1 S1                 0.0000
     21 ****        -7.0200   1.2446  -3.6828 H              1 S1                 0.0000
     22 ****        -4.8934   1.3221  -2.1141 H              1 S1                 0.0000
     23 ****        -2.6563   0.3791  -3.7232 H              1 S1                 0.0000
     24 ****        -2.6150   1.4148  -2.3152 H              1 S1                 0.0000
     25 ****        -2.9804  -0.5736  -0.8167 H              1 S1                 0.0000
     26 ****        -3.0363  -1.6247  -2.2133 H              1 S1                 0.0000
     27 ****         3.0131   0.0868  -0.6517 H              1 S1                 0.0000
     28 ****         1.7971   1.1512  -0.0067 H              1 S1                 0.0000
     29 ****         1.1514  -0.6034   1.6776 H              1 S1                 0.0000
     30 ****         2.3433  -1.6809   0.9979 H              1 S1                 0.0000
     31 ****         4.1564  -0.0297   1.5864 H              1 S1                 0.0000
     32 ****         2.4227  -1.1844   3.7824 H              1 S1                 0.0000
     33 ****         3.9957  -1.7542   3.2414 H              1 S1                 0.0000
     34 ****         3.5847  -0.0131   5.3944 H              1 S1                 0.0000
     35 ****         5.1007  -0.0958   4.5090 H              1 S1                 0.0000
     36 ****         3.3811   2.1924   4.5952 H              1 S1                 0.0000
     37 ****         4.7695   1.9441   3.5460 H              1 S1                 0.0000
     38 ****         3.0809   2.1303   1.8821 H              1 S1                 0.0000
     39 ****         1.8606   1.4307   2.9421 H              1 S1                 0.0000
     40 ****         2.2007  -1.7497  -2.4719 H              1 S1                 0.0000
     41 ****        -5.6052  -1.4466  -4.8500 LP             1 S1                 0.0000
     42 ****        -3.9632  -1.1418  -4.3905 LP             1 S1                 0.0000
     43 ****        -0.6921   0.3869  -0.1914 LP             1 S1                 0.0000
@<TRIPOS>BOND
    1    1    2 1     
    2    1   19 1     
    3    1   20 1     
    4    1   21 1     
    5    2    3 2     
    6    2    4 am    
    7    4    5 1     
    8    4   22 1     
    9    5    6 1     
   10    5   23 1     
   11    5   24 1     
   12    6    7 1     
   13    6   25 1     
   14    6   26 1     
   15    7   18 1     
   16    7    8 2     
   17    8    9 1     
   18    9   10 1     
   19    9   17 2     
   20   10   11 1     
   21   10   27 1     
   22   10   28 1     
   23   11   12 1     
   24   11   29 1     
   25   11   30 1     
   26   12   16 1     
   27   12   13 1     
   28   12   31 1     
   29   13   14 1     
   30   13   32 1     
   31   13   33 1     
   32   14   15 1     
   33   14   34 1     
   34   14   35 1     
   35   15   16 1     
   36   15   36 1     
   37   15   37 1     
   38   16   38 1     
   39   16   39 1     
   40   17   18 1     
   41   17   40 1     
   42    3   41 1     
   43    3   42 1     
   44    8   43 1     
@<TRIPOS>SUBSTRUCTURE
      1 S1             1
@<TRIPOS>SET
LONE_PAIRS      STATIC     ATOMS    <user>   **** ""
3 41 42 43
DONOR_HYDROGENS      STATIC     ATOMS    <user>   **** ""
1 22
ATOM$BLUE        STATIC     ATOMS    COLORGROUP SYSTEM
3 41 42 43
ATOM$RED        STATIC     ATOMS    COLORGROUP SYSTEM
1 22
