AV-unprocessed.smi:2087|AV-procd|sdf|8523|dock9
  -GOLD-   2272011243D 1   1.00000     0.00000
 Structure written by MMmdl.
 51 52  0  0  0  0  0  0  0  0  2 V2000
  152.5243  142.5642  159.2750 C   0  0  0  0  0  0  0  0  0  0  0  0
  151.5845  143.5736  158.5935 C   0  0  0  0  0  0  0  0  0  0  0  0
  151.7302  144.9599  159.2389 C   0  0  0  0  0  0  0  0  0  0  0  0
  150.1131  143.1076  158.6344 C   0  0  0  0  0  0  0  0  0  0  0  0
  149.6865  142.4221  157.3877 N   0  3  2  0  0  0  0  0  0  0  0  0
  148.2633  142.0011  157.3940 C   0  0  0  0  0  0  0  0  0  0  0  0
  147.8933  141.3375  156.0568 C   0  0  0  0  0  0  0  0  0  0  0  0
  148.7714  140.2475  155.8073 O   0  0  0  0  0  0  0  0  0  0  0  0
  150.1281  140.6664  155.6940 C   0  0  2  0  0  0  0  0  0  0  0  0
  150.9859  139.4509  155.2959 C   0  0  0  0  0  0  0  0  0  0  0  0
  150.6540  138.2849  156.1062 N   0  0  0  0  0  0  0  0  0  0  0  0
  150.9916  137.0218  155.8082 C   0  0  0  0  0  0  0  0  0  0  0  0
  151.7122  136.7212  154.8556 O   0  0  0  0  0  0  0  0  0  0  0  0
  150.4166  135.9328  156.7223 C   0  0  0  0  0  0  0  0  0  0  0  0
  150.0510  134.7167  155.9832 N   0  0  0  0  0  0  0  0  0  0  0  0
  149.3921  134.8224  154.7715 C   0  0  0  0  0  0  0  0  0  0  0  0
  149.0184  133.7559  154.0312 C   0  0  0  0  0  0  0  0  0  0  0  0
  149.2919  132.3980  154.4851 C   0  0  0  0  0  0  0  0  0  0  0  0
  148.9859  131.3949  153.8391 O   0  0  0  0  0  0  0  0  0  0  0  0
  149.9530  132.3160  155.7327 N   0  0  0  0  0  0  0  0  0  0  0  0
  150.2565  130.9903  156.2314 C   0  0  0  0  0  0  0  0  0  0  0  0
  150.3621  133.4356  156.4930 C   0  0  0  0  0  0  0  0  0  0  0  0
  150.9694  133.3194  157.5609 O   0  0  0  0  0  0  0  0  0  0  0  0
  150.5629  141.2788  157.0379 C   0  0  0  0  0  0  0  0  0  0  0  0
  152.2551  142.4160  160.3213 H   0  0  0  0  0  0  0  0  0  0  0  0
  153.5586  142.9086  159.2446 H   0  0  0  0  0  0  0  0  0  0  0  0
  152.4936  141.5921  158.7824 H   0  0  0  0  0  0  0  0  0  0  0  0
  151.8987  143.6768  157.5552 H   0  0  0  0  0  0  0  0  0  0  0  0
  151.4432  144.9400  160.2908 H   0  0  0  0  0  0  0  0  0  0  0  0
  151.1028  145.6969  158.7367 H   0  0  0  0  0  0  0  0  0  0  0  0
  152.7600  145.3142  159.1819 H   0  0  0  0  0  0  0  0  0  0  0  0
  149.9945  142.4283  159.4799 H   0  0  0  0  0  0  0  0  0  0  0  0
  149.4462  143.9499  158.8270 H   0  0  0  0  0  0  0  0  0  0  0  0
  148.0916  141.3030  158.2147 H   0  0  0  0  0  0  0  0  0  0  0  0
  147.6110  142.8573  157.5615 H   0  0  0  0  0  0  0  0  0  0  0  0
  146.8693  140.9647  156.0921 H   0  0  0  0  0  0  0  0  0  0  0  0
  147.9415  142.0553  155.2363 H   0  0  0  0  0  0  0  0  0  0  0  0
  150.2061  141.4285  154.9163 H   0  0  0  0  0  0  0  0  0  0  0  0
  150.8493  139.2155  154.2391 H   0  0  0  0  0  0  0  0  0  0  0  0
  152.0443  139.6755  155.4310 H   0  0  0  0  0  0  0  0  0  0  0  0
  150.0686  138.4421  156.9142 H   0  0  0  0  0  0  0  0  0  0  0  0
  151.1592  135.7056  157.4882 H   0  0  0  0  0  0  0  0  0  0  0  0
  149.5428  136.3102  157.2569 H   0  0  0  0  0  0  0  0  0  0  0  0
  149.1627  135.8076  154.3922 H   0  0  0  0  0  0  0  0  0  0  0  0
  148.5100  133.9093  153.0905 H   0  0  0  0  0  0  0  0  0  0  0  0
  150.4320  131.0159  157.3070 H   0  0  0  0  0  0  0  0  0  0  0  0
  151.1415  130.6448  155.6954 H   0  0  0  0  0  0  0  0  0  0  0  0
  149.3977  130.3437  156.0430 H   0  0  0  0  0  0  0  0  0  0  0  0
  151.5976  141.6170  156.9673 H   0  0  0  0  0  0  0  0  0  0  0  0
  150.5220  140.5286  157.8294 H   0  0  0  0  0  0  0  0  0  0  0  0
  149.7932  143.0942  156.6411 H   0  0  0  0  0  0  0  0  0  0  0  0
  1  2  1  0  0  0  0
  1 25  1  0  0  0  0
  1 26  1  0  0  0  0
  1 27  1  0  0  0  0
  2  3  1  0  0  0  0
  2  4  1  0  0  0  0
  2 28  1  0  0  0  0
  3 29  1  0  0  0  0
  3 30  1  0  0  0  0
  3 31  1  0  0  0  0
  4  5  1  0  0  0  0
  4 32  1  0  0  0  0
  4 33  1  0  0  0  0
  5 24  1  0  0  0  0
  5  6  1  0  0  0  0
  5 51  1  0  0  0  0
  6  7  1  0  0  0  0
  6 34  1  0  0  0  0
  6 35  1  0  0  0  0
  7  8  1  0  0  0  0
  7 36  1  0  0  0  0
  7 37  1  0  0  0  0
  8  9  1  0  0  0  0
  9 10  1  0  0  0  0
  9 24  1  0  0  0  0
  9 38  1  0  0  0  0
 10 11  1  0  0  0  0
 10 39  1  0  0  0  0
 10 40  1  0  0  0  0
 11 12  1  0  0  0  0
 11 41  1  0  0  0  0
 12 13  2  0  0  0  0
 12 14  1  0  0  0  0
 14 15  1  0  0  0  0
 14 42  1  0  0  0  0
 14 43  1  0  0  0  0
 15 22  1  0  0  0  0
 15 16  1  0  0  0  0
 16 17  2  0  0  0  0
 16 44  1  0  0  0  0
 17 18  1  0  0  0  0
 17 45  1  0  0  0  0
 18 19  2  0  0  0  0
 18 20  1  0  0  0  0
 20 21  1  0  0  0  0
 20 22  1  0  0  0  0
 21 46  1  0  0  0  0
 21 47  1  0  0  0  0
 21 48  1  0  0  0  0
 22 23  2  0  0  0  0
 24 49  1  0  0  0  0
 24 50  1  0  0  0  0
M  CHG  1   5   1
M  END
> <s_m_source_file>
AV-unprocessed.smi

> <i_m_source_file_index>
2087

> <i_lp_mmshare_version>
43012

> <i_f3d_flags>
0

> <s_epik_input>
W0NIM11bQ0hdKFtDSDNdKVtDSDJdTjFbQ0gyXVtDSDJdT1tDQEhdKFtDSDJdMSlbQ0gyXVtOSF1DKD1PKVtDSDJdbjJbY0hdW2NIXWMoPU8pbihbQ0gzXSljMj1P

> <s_epik_cmdline>
J2VwaWtfcHl0aG9uJywgJy1waCcsICc3LjAnLCAnLXRuJywgJzgnLCAnLW1hJywgJzIwMCcsICctbWV0YWxfYmluZGluZycsICctaW1hZScsICc8aW5maWxlLm1hZT4nLCAnLW9tYWUnLCAnPG91dGZpbGUubWFlPic=

> <r_lp_tautomer_probability>
1

> <r_epik_Ionization_Penalty>
0.097593

> <r_epik_Ionization_Penalty_Charging>
0.097593

> <r_epik_Ionization_Penalty_Neutral>
6.27044e-08

> <r_epik_State_Penalty>
0.0877056

> <r_epik_Charging_Adjusted_Penalty>
0.185299

> <i_epik_Tot_Q>
1

> <i_epik_Tot_abs_Q>
1

> <r_epik_Metal_State_Penalty>
0.0877109

> <b_epik_Metal_Only>
0

> <s_lp_Force_Field>
OPLS_2005

> <r_lp_Energy>
25.7141

> <b_lp_Chiralities_Consistent>
1

> <s_lp_Variant>
AV-unprocessed.smi:2087-4

> <Gold.Version>
5.8.1

> <Gold.Id.Protein>
6NUR|6NUR_protein|mol2

> <Gold.PLP.Fitness>
53.5915

> <Gold.PLP.PLP>
-43.3763

> <Gold.PLP.part.hbond>
-3.0000

> <Gold.PLP.part.metal>
0.0000

> <Gold.PLP.part.buried>
-3.5350

> <Gold.PLP.part.nonpolar>
-36.9186

> <Gold.PLP.part.repulsive>
0.3188

> <Gold.PLP.ligand.clash>
0.0000

> <Gold.PLP.ligand.torsion>
1.2920

> <Gold.PLP.Chemscore.Hbond>
3.4640

> <Gold.PLP.Chemscore.CHOScore>
0.7711

> <Gold.PLP.Chemscore.Metal>
0.0000

> <Gold.Chemscore.Hbonds>
donor molecule, donor type, donor heavy atom, donor atom, acceptor molecule, acceptor atom, score
      L1  H     5    51       P1  8028  1.43
      P1  H  6896  6908       L1    23  0.83
      P1  H 10752 10763       L1    13  1.00
      L1  C    16    44       P1  7948  0.76

> <Gold.PLP.Chemscore.Internal.Correction>
0.0938

> <Gold.Rescore>
     Score         DG    S(hbond)    S(metal)    S(lipo)     H(rot)  DE(clash)    DE(int)     intcor
     16.50     -19.09       2.73        0.00      87.21       2.22       0.25       2.33       ----

> <Gold.Chemscore.Fitness>
16.5020

> <Gold.Chemscore.DG>
-19.0896

> <Gold.Chemscore.ZeroCoef>
-5.4800

> <Gold.Chemscore.Hbond>
2.7251

> <Gold.Chemscore.Metal>
0.0000

> <Gold.Chemscore.Lipo>
87.2091

> <Gold.Chemscore.Internal_Hbond>
0.0000

> <Gold.Chemscore.DEClash>
0.2541

> <Gold.Chemscore.DEInternal>
2.3335

> <Gold.Chemscore.Rot>
2.2249

> <Gold.Chemscore.Internal.Correction>
   9.000000E+99

> <Gold.Chemscore.Hbonds>
donor molecule, donor type, donor heavy atom, donor atom, acceptor molecule, acceptor atom, score
      L1  H     5    51       P1  8028  0.70
      P1  H  6896  6908       L1    23  0.81
      P1  H 10752 10763       L1    13  0.97

> <Gold.Chemscore.Hbond.Weighted>
-9.1018

> <Gold.Chemscore.Metal.Weighted>
-0.0000

> <Gold.Chemscore.Lipo.Weighted>
-10.2035

> <Gold.Chemscore.Internal_Hbond.Weighted>
0.0000

> <Gold.Chemscore.DEClash.Weighted>
0.2541

> <Gold.Chemscore.DEInternal.Weighted>
2.3335

> <Gold.Chemscore.Rot.Weighted>
5.6957

> <Gold.Chemscore.Internal.Correction.Weighted>
   9.000000E+99

> <Gold.Protein.RotatedTorsions>
[ 6907 6896 6895 6894 ] final   86.69 input  -60.11 | X-H torsion
[ 7974 7965 7964 7962 ] final -116.39 input  175.53 | X-H torsion
[ 8008 7997 7996 7995 ] final  -36.98 input   59.86 | X-H torsion
[ 10167 10162 10161 10158 ] final  -55.10 input  -65.29 | X-H torsion
[ 10718 10713 10712 10709 ] final  -23.34 input   66.30 | X-H torsion
[ 10763 10752 10751 10750 ] final   41.20 input  -60.55 | X-H torsion
[ 11005 11000 10999 10996 ] final  166.02 input  -57.11 | X-H torsion

> <Gold.Protein.ActiveResidues>
 VAL166  LYS551  ARG553  GLY616  TRP617  ASP618  TYR619  PRO620  LYS621  CYS622 
 ASP623  PHE694  ASN695  SER759  ASP760  ASP761  ALA762  ILE779  LEU786  VAL792 
 PHE793  MET794  SER795  GLU796  ALA797  LYS798  CYS799  TRP800  GLU811  SER814 

> <Gold.Protein.RotatedAtoms>
  152.5398  134.2393  159.8855 H   0  0  0  0  0  0  0  0  0  0  0  0  # atno 6907 bound_to 6896
  151.2361  133.4417  159.2613 H   0  0  0  0  0  0  0  0  0  0  0  0  # atno 6908 bound_to 6896
  151.0670  134.9787  159.8345 H   0  0  0  0  0  0  0  0  0  0  0  0  # atno 6909 bound_to 6896
  145.0973  140.8529  143.3947 H   0  0  0  0  0  0  0  0  0  0  0  0  # atno 7974 bound_to 7965
  154.4062  140.1616  156.2463 H   0  0  0  0  0  0  0  0  0  0  0  0  # atno 8008 bound_to 7997
  155.9158  140.3424  155.6111 H   0  0  0  0  0  0  0  0  0  0  0  0  # atno 8009 bound_to 7997
  155.7282  140.0777  157.2291 H   0  0  0  0  0  0  0  0  0  0  0  0  # atno 8010 bound_to 7997
  140.6394  143.2499  151.5031 H   0  0  0  0  0  0  0  0  0  0  0  0  # atno 10167 bound_to 10162
  156.4923  130.4569  149.6748 H   0  0  0  0  0  0  0  0  0  0  0  0  # atno 10718 bound_to 10713
  152.9915  135.6169  154.2749 H   0  0  0  0  0  0  0  0  0  0  0  0  # atno 10763 bound_to 10752
  154.2480  135.2786  155.2829 H   0  0  0  0  0  0  0  0  0  0  0  0  # atno 10764 bound_to 10752
  154.5312  135.5787  153.6818 H   0  0  0  0  0  0  0  0  0  0  0  0  # atno 10765 bound_to 10752
  140.2621  134.7894  157.3599 H   0  0  0  0  0  0  0  0  0  0  0  0  # atno 11005 bound_to 11000
  145.0996  139.2832  143.5693 LP  0  0  0  0  0  0  0  0  0  0  0  0  # atno 17320 bound_to 7965
  146.3530  140.0559  142.8632 LP  0  0  0  0  0  0  0  0  0  0  0  0  # atno 17321 bound_to 7965
  139.5603  144.2173  152.1680 LP  0  0  0  0  0  0  0  0  0  0  0  0  # atno 17342 bound_to 10162
  140.1439  144.5177  150.6727 LP  0  0  0  0  0  0  0  0  0  0  0  0  # atno 17343 bound_to 10162
  156.3414  130.7384  151.2330 LP  0  0  0  0  0  0  0  0  0  0  0  0  # atno 17370 bound_to 10713
  157.7472  131.0402  150.4589 LP  0  0  0  0  0  0  0  0  0  0  0  0  # atno 17371 bound_to 10713
  140.1454  134.4918  155.8000 LP  0  0  0  0  0  0  0  0  0  0  0  0  # atno 17394 bound_to 11000
  141.2189  133.6841  156.7285 LP  0  0  0  0  0  0  0  0  0  0  0  0  # atno 17395 bound_to 11000

$$$$
