#       Name:                AV-unprocessed.smi:2964
#       Creating user name   scv26
#       Creation time:       Fri Mar 27 16:22:46 2020


#       File generated by GOLD software.
#

@<TRIPOS>MOLECULE
AV-unprocessed.smi:2964
    39    40     1
SMALL
NO_CHARGES


@<TRIPOS>ATOM
      1 ****        -0.8133   0.8171   0.3323 O.2            1 S1                 0.0000
      2 ****        -0.1898  -0.0150  -0.3285 C.2            1 S1                 0.0000
      3 ****         1.3447   0.0076  -0.3818 C.3            1 S1                 0.0000
      4 ****         1.9269   1.2908   0.0471 N.am           1 S1                 0.0000
      5 ****         2.3724   1.3795   1.3809 C.2            1 S1                 0.0000
      6 ****         2.9171   2.4983   1.8976 C.2            1 S1                 0.0000
      7 ****         3.4159   2.5786   3.3317 C.3            1 S1                 0.0000
      8 ****         4.6584   3.0601   3.3630 F              1 S1                 0.0000
      9 ****         2.6397   3.3998   4.0377 F              1 S1                 0.0000
     10 ****         3.4132   1.3845   3.9260 F              1 S1                 0.0000
     11 ****         3.0436   3.6289   1.0008 C.2            1 S1                 0.0000
     12 ****         2.6210   3.5615  -0.2767 C.2            1 S1                 0.0000
     13 ****         2.0187   2.3424  -0.8213 C.2            1 S1                 0.0000
     14 ****         1.6233   2.2704  -1.9850 O.2            1 S1                 0.0000
     15 ****        -0.7860  -0.9959  -1.0228 N.am           1 S1                 0.0000
     16 ****        -2.2290  -1.2026  -1.1104 C.3            1 S1                 0.0000
     17 ****        -2.7975  -1.8431   0.1732 C.3            1 S1                 0.0000
     18 ****        -3.6789  -3.0045  -0.2884 C.3            1 S1                 0.0000
     19 ****        -3.0381  -3.4662  -1.5929 C.3            1 S1                 0.0000
     20 ****        -2.5697  -2.1712  -2.2579 C.3            1 S1                 0.0000
     21 ****         1.7178  -0.8080   0.2390 H              1 S1                 0.0000
     22 ****         1.6728  -0.2339  -1.3947 H              1 S1                 0.0000
     23 ****         2.2357   0.4763   1.9578 H              1 S1                 0.0000
     24 ****         3.4820   4.5467   1.3643 H              1 S1                 0.0000
     25 ****         2.7280   4.4256  -0.9159 H              1 S1                 0.0000
     26 ****        -0.2006  -1.6410  -1.5335 H              1 S1                 0.0000
     27 ****        -2.7182  -0.2456  -1.3018 H              1 S1                 0.0000
     28 ****        -1.9922  -2.2363   0.7959 H              1 S1                 0.0000
     29 ****        -3.3517  -1.1259   0.7796 H              1 S1                 0.0000
     30 ****        -3.7460  -3.8012   0.4528 H              1 S1                 0.0000
     31 ****        -4.6897  -2.6441  -0.4836 H              1 S1                 0.0000
     32 ****        -2.1784  -4.1013  -1.3745 H              1 S1                 0.0000
     33 ****        -3.7240  -4.0364  -2.2199 H              1 S1                 0.0000
     34 ****        -3.3882  -1.7554  -2.8470 H              1 S1                 0.0000
     35 ****        -1.7385  -2.3415  -2.9436 H              1 S1                 0.0000
     36 ****        -0.3201   1.5206   0.8441 LP             1 S1                 0.0000
     37 ****        -1.8126   0.7891   0.3569 LP             1 S1                 0.0000
     38 ****         1.2182   1.4212  -2.3238 LP             1 S1                 0.0000
     39 ****         1.7071   3.0612  -2.5914 LP             1 S1                 0.0000
@<TRIPOS>BOND
    1    1    2 2     
    2    2    3 1     
    3    2   15 am    
    4    3    4 1     
    5    3   21 1     
    6    3   22 1     
    7    4   13 am    
    8    4    5 1     
    9    5    6 2     
   10    5   23 1     
   11    6    7 1     
   12    6   11 1     
   13    7    8 1     
   14    7    9 1     
   15    7   10 1     
   16   11   12 2     
   17   11   24 1     
   18   12   13 1     
   19   12   25 1     
   20   13   14 2     
   21   15   16 1     
   22   15   26 1     
   23   16   20 1     
   24   16   17 1     
   25   16   27 1     
   26   17   18 1     
   27   17   28 1     
   28   17   29 1     
   29   18   19 1     
   30   18   30 1     
   31   18   31 1     
   32   19   20 1     
   33   19   32 1     
   34   19   33 1     
   35   20   34 1     
   36   20   35 1     
   37    1   36 1     
   38    1   37 1     
   39   14   38 1     
   40   14   39 1     
@<TRIPOS>SUBSTRUCTURE
      1 S1             1
@<TRIPOS>SET
LONE_PAIRS      STATIC     ATOMS    <user>   **** ""
4 36 37 38 39
DONOR_HYDROGENS      STATIC     ATOMS    <user>   **** ""
1 26
ATOM$BLUE        STATIC     ATOMS    COLORGROUP SYSTEM
4 36 37 38 39
ATOM$RED        STATIC     ATOMS    COLORGROUP SYSTEM
1 26
