AV-unprocessed.smi:1575|AV-procd|sdf|6341|dock1
  -GOLD-   22720 6553D 1   1.00000     0.00000
 Structure written by MMmdl.
 40 40  0  0  0  0  0  0  0  0  2 V2000
  149.5289  133.3163  154.2000 C   0  0  0  0  0  0  0  0  0  0  0  0
  148.5161  134.2915  153.8269 N   0  0  0  0  0  0  0  0  0  0  0  0
  147.4354  134.5779  154.5669 C   0  0  0  0  0  0  0  0  0  0  0  0
  147.2001  134.0380  155.6495 O   0  0  0  0  0  0  0  0  0  0  0  0
  146.4912  135.6537  154.0034 C   0  0  2  0  0  0  0  0  0  0  0  0
  145.8850  135.1142  152.6851 C   0  0  0  0  0  0  0  0  0  0  0  0
  145.1823  136.1674  151.7960 C   0  0  0  0  0  0  0  0  0  0  0  0
  144.0460  136.8974  152.5305 C   0  0  0  0  0  0  0  0  0  0  0  0
  144.6597  135.5204  150.5046 C   0  0  0  0  0  0  0  0  0  0  0  0
  147.2342  136.8747  153.7031 N   0  0  0  0  0  0  0  0  0  0  0  0
  147.0645  138.0714  154.2898 C   0  0  0  0  0  0  0  0  0  0  0  0
  146.2692  138.2569  155.2105 O   0  0  0  0  0  0  0  0  0  0  0  0
  147.9002  139.2519  153.7655 C   0  0  0  0  0  0  0  0  0  0  0  0
  149.2810  139.3022  154.2822 N   0  0  0  0  0  0  0  0  0  0  0  0
  150.0015  138.0960  154.3370 C   0  0  0  0  0  0  0  0  0  0  0  0
  151.2753  138.0484  154.7714 C   0  0  0  0  0  0  0  0  0  0  0  0
  151.9083  139.2922  155.1924 C   0  0  0  0  0  0  0  0  0  0  0  0
  153.0713  139.2678  155.5905 O   0  0  0  0  0  0  0  0  0  0  0  0
  151.1677  140.4369  155.1212 N   0  5  0  0  0  0  0  0  0  0  0  0
  149.8736  140.4707  154.6759 C   0  0  0  0  0  0  0  0  0  0  0  0
  149.2277  141.5167  154.6075 O   0  0  0  0  0  0  0  0  0  0  0  0
  150.2751  133.2351  153.4100 H   0  0  0  0  0  0  0  0  0  0  0  0
  149.0850  132.3316  154.3528 H   0  0  0  0  0  0  0  0  0  0  0  0
  150.0350  133.6169  155.1182 H   0  0  0  0  0  0  0  0  0  0  0  0
  148.6408  134.7773  152.9505 H   0  0  0  0  0  0  0  0  0  0  0  0
  145.7020  135.8656  154.7265 H   0  0  0  0  0  0  0  0  0  0  0  0
  146.6744  134.6422  152.0966 H   0  0  0  0  0  0  0  0  0  0  0  0
  145.1730  134.3197  152.9149 H   0  0  0  0  0  0  0  0  0  0  0  0
  145.9148  136.9168  151.4938 H   0  0  0  0  0  0  0  0  0  0  0  0
  143.2972  136.1968  152.9007 H   0  0  0  0  0  0  0  0  0  0  0  0
  143.5430  137.6025  151.8682 H   0  0  0  0  0  0  0  0  0  0  0  0
  144.4201  137.4702  153.3788 H   0  0  0  0  0  0  0  0  0  0  0  0
  143.9117  134.7564  150.7180 H   0  0  0  0  0  0  0  0  0  0  0  0
  145.4686  135.0489  149.9456 H   0  0  0  0  0  0  0  0  0  0  0  0
  144.2012  136.2627  149.8504 H   0  0  0  0  0  0  0  0  0  0  0  0
  147.9125  136.8166  152.9570 H   0  0  0  0  0  0  0  0  0  0  0  0
  147.9097  139.2156  152.6748 H   0  0  0  0  0  0  0  0  0  0  0  0
  147.3722  140.1737  154.0132 H   0  0  0  0  0  0  0  0  0  0  0  0
  149.4628  137.2224  154.0005 H   0  0  0  0  0  0  0  0  0  0  0  0
  151.8163  137.1142  154.8039 H   0  0  0  0  0  0  0  0  0  0  0  0
  1  2  1  0  0  0  0
  1 22  1  0  0  0  0
  1 23  1  0  0  0  0
  1 24  1  0  0  0  0
  2  3  1  0  0  0  0
  2 25  1  0  0  0  0
  3  4  2  0  0  0  0
  3  5  1  0  0  0  0
  5  6  1  0  0  0  0
  5 10  1  0  0  0  0
  5 26  1  0  0  0  0
  6  7  1  0  0  0  0
  6 27  1  0  0  0  0
  6 28  1  0  0  0  0
  7  8  1  0  0  0  0
  7  9  1  0  0  0  0
  7 29  1  0  0  0  0
  8 30  1  0  0  0  0
  8 31  1  0  0  0  0
  8 32  1  0  0  0  0
  9 33  1  0  0  0  0
  9 34  1  0  0  0  0
  9 35  1  0  0  0  0
 10 11  1  0  0  0  0
 10 36  1  0  0  0  0
 11 12  2  0  0  0  0
 11 13  1  0  0  0  0
 13 14  1  0  0  0  0
 13 37  1  0  0  0  0
 13 38  1  0  0  0  0
 14 20  1  0  0  0  0
 14 15  1  0  0  0  0
 15 16  2  0  0  0  0
 15 39  1  0  0  0  0
 16 17  1  0  0  0  0
 16 40  1  0  0  0  0
 17 18  2  0  0  0  0
 17 19  1  0  0  0  0
 19 20  1  0  0  0  0
 20 21  2  0  0  0  0
M  CHG  1  19  -1
M  END
> <s_m_source_file>
AV-unprocessed.smi

> <i_m_source_file_index>
1575

> <i_lp_mmshare_version>
43012

> <i_f3d_flags>
0

> <s_epik_input>
W0NIM11bTkhdQyg9TylbQ0BIXShbQ0gyXVtDSF0oW0NIM10pW0NIM10pW05IXUMoPU8pW0NIMl1uMVtjSF1bY0hdYyg9TylbbkhdYzE9Tw==

> <s_epik_cmdline>
J2VwaWtfcHl0aG9uJywgJy1waCcsICc3LjAnLCAnLXRuJywgJzgnLCAnLW1hJywgJzIwMCcsICctbWV0YWxfYmluZGluZycsICctaW1hZScsICc8aW5maWxlLm1hZT4nLCAnLW9tYWUnLCAnPG91dGZpbGUubWFlPic=

> <r_lp_tautomer_probability>
0.999537

> <r_epik_Ionization_Penalty>
3.03017

> <r_epik_Ionization_Penalty_Charging>
2.35557e-08

> <r_epik_Ionization_Penalty_Neutral>
3.03017

> <r_epik_State_Penalty>
3.02913

> <r_epik_Charging_Adjusted_Penalty>
3.02913

> <i_epik_Tot_Q>
-1

> <i_epik_Tot_abs_Q>
1

> <r_epik_Metal_State_Penalty>
0.455824

> <b_epik_Metal_Only>
1

> <s_lp_Force_Field>
OPLS_2005

> <r_lp_Energy>
14.6611

> <b_lp_Chiralities_Consistent>
1

> <s_lp_Variant>
AV-unprocessed.smi:1575-3

> <Gold.Version>
5.8.1

> <Gold.Id.Protein>
6NUR|6NUR_protein|mol2

> <Gold.PLP.Fitness>
45.0001

> <Gold.PLP.PLP>
-33.0929

> <Gold.PLP.part.hbond>
-4.1774

> <Gold.PLP.part.metal>
0.0000

> <Gold.PLP.part.buried>
-2.8058

> <Gold.PLP.part.nonpolar>
-26.4203

> <Gold.PLP.part.repulsive>
0.2494

> <Gold.PLP.ligand.clash>
0.0000

> <Gold.PLP.ligand.torsion>
0.6954

> <Gold.PLP.Chemscore.Hbond>
3.4125

> <Gold.PLP.Chemscore.CHOScore>
1.0000

> <Gold.PLP.Chemscore.Metal>
0.0000

> <Gold.Chemscore.Hbonds>
donor molecule, donor type, donor heavy atom, donor atom, acceptor molecule, acceptor atom, score
      L1  H     2    25       P1  7948  1.00
      L1  H    10    36       P1  7948  1.00
      P1  H  7989  7998       L1    19  0.30
      P1  H  7997  8010       L1    18  1.00
      L1  C    15    39       P1  7948  1.00

> <Gold.PLP.Chemscore.Internal.Correction>
0.0605

> <Gold.Rescore>
     Score         DG    S(hbond)    S(metal)    S(lipo)     H(rot)  DE(clash)    DE(int)     intcor
     11.98     -12.77       2.73        0.00      44.30       2.74       0.05       0.75       ----

> <Gold.Chemscore.Fitness>
11.9770

> <Gold.Chemscore.DG>
-12.7710

> <Gold.Chemscore.ZeroCoef>
-5.4800

> <Gold.Chemscore.Hbond>
2.7338

> <Gold.Chemscore.Metal>
0.0000

> <Gold.Chemscore.Lipo>
44.3035

> <Gold.Chemscore.Internal_Hbond>
0.0000

> <Gold.Chemscore.DEClash>
0.0474

> <Gold.Chemscore.DEInternal>
0.7467

> <Gold.Chemscore.Rot>
2.7435

> <Gold.Chemscore.Internal.Correction>
   9.000000E+99

> <Gold.Chemscore.Hbonds>
donor molecule, donor type, donor heavy atom, donor atom, acceptor molecule, acceptor atom, score
      L1  H     2    25       P1  7948  0.30
      L1  H    10    36       P1  7948  0.99
      P1  H  7997  8010       L1    18  1.00

> <Gold.Chemscore.Hbond.Weighted>
-9.1308

> <Gold.Chemscore.Metal.Weighted>
-0.0000

> <Gold.Chemscore.Lipo.Weighted>
-5.1835

> <Gold.Chemscore.Internal_Hbond.Weighted>
0.0000

> <Gold.Chemscore.DEClash.Weighted>
0.0474

> <Gold.Chemscore.DEInternal.Weighted>
0.7467

> <Gold.Chemscore.Rot.Weighted>
7.0233

> <Gold.Chemscore.Internal.Correction.Weighted>
   9.000000E+99

> <Gold.Protein.RotatedTorsions>
[ 6907 6896 6895 6894 ] final   57.14 input  -60.11 | X-H torsion
[ 7974 7965 7964 7962 ] final -126.45 input  175.53 | X-H torsion
[ 8008 7997 7996 7995 ] final   95.51 input   59.86 | X-H torsion
[ 10167 10162 10161 10158 ] final  110.11 input  -65.29 | X-H torsion
[ 10718 10713 10712 10709 ] final   70.16 input   66.30 | X-H torsion
[ 10763 10752 10751 10750 ] final   75.23 input  -60.55 | X-H torsion
[ 11005 11000 10999 10996 ] final  164.42 input  -57.11 | X-H torsion

> <Gold.Protein.ActiveResidues>
 VAL166  LYS551  ARG553  GLY616  TRP617  ASP618  TYR619  PRO620  LYS621  CYS622 
 ASP623  PHE694  ASN695  SER759  ASP760  ASP761  ALA762  ILE779  LEU786  VAL792 
 PHE793  MET794  SER795  GLU796  ALA797  LYS798  CYS799  TRP800  GLU811  SER814 

> <Gold.Protein.RotatedAtoms>
  152.3703  134.6744  160.0178 H   0  0  0  0  0  0  0  0  0  0  0  0  # atno 6907 bound_to 6896
  151.7039  133.3306  159.3281 H   0  0  0  0  0  0  0  0  0  0  0  0  # atno 6908 bound_to 6896
  150.7668  134.6526  159.6341 H   0  0  0  0  0  0  0  0  0  0  0  0  # atno 6909 bound_to 6896
  144.9871  140.7697  143.4576 H   0  0  0  0  0  0  0  0  0  0  0  0  # atno 7974 bound_to 7965
  156.0697  140.3285  155.7561 H   0  0  0  0  0  0  0  0  0  0  0  0  # atno 8008 bound_to 7997
  155.5325  140.0594  157.2903 H   0  0  0  0  0  0  0  0  0  0  0  0  # atno 8009 bound_to 7997
  154.4523  140.1925  156.0498 H   0  0  0  0  0  0  0  0  0  0  0  0  # atno 8010 bound_to 7997
  139.6714  144.7125  151.1682 H   0  0  0  0  0  0  0  0  0  0  0  0  # atno 10167 bound_to 10162
  157.6385  130.9463  150.0613 H   0  0  0  0  0  0  0  0  0  0  0  0  # atno 10718 bound_to 10713
  153.0640  135.4996  154.8158 H   0  0  0  0  0  0  0  0  0  0  0  0  # atno 10763 bound_to 10752
  154.6926  135.2987  154.9460 H   0  0  0  0  0  0  0  0  0  0  0  0  # atno 10764 bound_to 10752
  154.0210  135.6742  153.4825 H   0  0  0  0  0  0  0  0  0  0  0  0  # atno 10765 bound_to 10752
  140.2458  134.8016  157.3454 H   0  0  0  0  0  0  0  0  0  0  0  0  # atno 11005 bound_to 11000
  145.2338  139.2103  143.5029 LP  0  0  0  0  0  0  0  0  0  0  0  0  # atno 17320 bound_to 7965
  146.3422  140.2220  142.8591 LP  0  0  0  0  0  0  0  0  0  0  0  0  # atno 17321 bound_to 7965
  140.7619  143.5839  150.8866 LP  0  0  0  0  0  0  0  0  0  0  0  0  # atno 17342 bound_to 10162
  139.9505  143.6278  152.3030 LP  0  0  0  0  0  0  0  0  0  0  0  0  # atno 17343 bound_to 10162
  156.1645  130.3644  149.9252 LP  0  0  0  0  0  0  0  0  0  0  0  0  # atno 17370 bound_to 10713
  156.7242  130.9018  151.3620 LP  0  0  0  0  0  0  0  0  0  0  0  0  # atno 17371 bound_to 10713
  140.1608  134.4731  155.7896 LP  0  0  0  0  0  0  0  0  0  0  0  0  # atno 17394 bound_to 11000
  141.2206  133.6900  156.7540 LP  0  0  0  0  0  0  0  0  0  0  0  0  # atno 17395 bound_to 11000

$$$$
