AV-unprocessed.smi:3252|AV-procd|sdf|12443|dock4
  -GOLD-   2272018333D 1   1.00000     0.00000
 Structure written by MMmdl.
 36 37  0  0  0  0  0  0  0  0  1 V2000
  146.4214  142.3668  154.4314 C   0  0  0  0  0  0  0  0  0  0  0  0
  146.5159  141.1276  155.3333 C   0  0  0  0  0  0  0  0  0  0  0  0
  147.8508  140.5407  155.4374 N   0  0  0  0  0  0  0  0  0  0  0  0
  148.3935  140.1478  154.1395 C   0  0  0  0  0  0  0  0  0  0  0  0
  149.8124  139.5678  154.2644 C   0  0  0  0  0  0  0  0  0  0  0  0
  150.6552  140.5103  154.9173 O   0  0  0  0  0  0  0  0  0  0  0  0
  150.1938  140.8678  156.2181 C   0  0  1  0  0  0  0  0  0  0  0  0
  151.1736  141.8758  156.8426 C   0  0  0  0  0  0  0  0  0  0  0  0
  152.2940  141.2228  157.5104 N   0  0  0  0  0  0  0  0  0  0  0  0
  152.6347  141.5268  158.8366 C   0  0  0  0  0  0  0  0  0  0  0  0
  151.9754  142.6012  159.4705 C   0  0  0  0  0  0  0  0  0  0  0  0
  152.3118  142.9163  160.8017 C   0  0  0  0  0  0  0  0  0  0  0  0
  153.2968  142.1476  161.4524 C   0  0  0  0  0  0  0  0  0  0  0  0
  153.6782  142.4319  162.8250 C   0  0  0  0  0  0  0  0  0  0  0  0
  153.9819  142.6587  163.9183 N   0  0  0  0  0  0  0  0  0  0  0  0
  153.9039  141.0960  160.7365 C   0  0  0  0  0  0  0  0  0  0  0  0
  153.5867  140.7917  159.4598 N   0  0  0  0  0  0  0  0  0  0  0  0
  148.7798  141.4659  156.0778 C   0  0  0  0  0  0  0  0  0  0  0  0
  145.3829  142.6774  154.3165 H   0  0  0  0  0  0  0  0  0  0  0  0
  146.8167  142.1601  153.4365 H   0  0  0  0  0  0  0  0  0  0  0  0
  146.9681  143.2143  154.8440 H   0  0  0  0  0  0  0  0  0  0  0  0
  146.1380  141.3711  156.3273 H   0  0  0  0  0  0  0  0  0  0  0  0
  145.8338  140.3784  154.9294 H   0  0  0  0  0  0  0  0  0  0  0  0
  147.7522  139.4024  153.6701 H   0  0  0  0  0  0  0  0  0  0  0  0
  148.4147  141.0099  153.4706 H   0  0  0  0  0  0  0  0  0  0  0  0
  149.8003  138.6307  154.8234 H   0  0  0  0  0  0  0  0  0  0  0  0
  150.2210  139.3477  153.2782 H   0  0  0  0  0  0  0  0  0  0  0  0
  150.1449  139.9753  156.8451 H   0  0  0  0  0  0  0  0  0  0  0  0
  151.5148  142.5991  156.1015 H   0  0  0  0  0  0  0  0  0  0  0  0
  150.6508  142.4534  157.6050 H   0  0  0  0  0  0  0  0  0  0  0  0
  152.9748  140.7498  156.9340 H   0  0  0  0  0  0  0  0  0  0  0  0
  151.2230  143.1755  158.9498 H   0  0  0  0  0  0  0  0  0  0  0  0
  151.8195  143.7341  161.3079 H   0  0  0  0  0  0  0  0  0  0  0  0
  154.6653  140.4808  161.1942 H   0  0  0  0  0  0  0  0  0  0  0  0
  148.8330  142.3920  155.5029 H   0  0  0  0  0  0  0  0  0  0  0  0
  148.4050  141.7350  157.0661 H   0  0  0  0  0  0  0  0  0  0  0  0
  1  2  1  0  0  0  0
  1 19  1  0  0  0  0
  1 20  1  0  0  0  0
  1 21  1  0  0  0  0
  2  3  1  0  0  0  0
  2 22  1  0  0  0  0
  2 23  1  0  0  0  0
  3 18  1  0  0  0  0
  3  4  1  0  0  0  0
  4  5  1  0  0  0  0
  4 24  1  0  0  0  0
  4 25  1  0  0  0  0
  5  6  1  0  0  0  0
  5 26  1  0  0  0  0
  5 27  1  0  0  0  0
  6  7  1  0  0  0  0
  7  8  1  0  0  0  0
  7 18  1  0  0  0  0
  7 28  1  0  0  0  0
  8  9  1  0  0  0  0
  8 29  1  0  0  0  0
  8 30  1  0  0  0  0
  9 10  1  0  0  0  0
  9 31  1  0  0  0  0
 10 17  1  0  0  0  0
 10 11  2  0  0  0  0
 11 12  1  0  0  0  0
 11 32  1  0  0  0  0
 12 13  2  0  0  0  0
 12 33  1  0  0  0  0
 13 14  1  0  0  0  0
 13 16  1  0  0  0  0
 14 15  3  0  0  0  0
 16 17  2  0  0  0  0
 16 34  1  0  0  0  0
 18 35  1  0  0  0  0
 18 36  1  0  0  0  0
M  END
> <s_m_source_file>
AV-unprocessed.smi

> <i_m_source_file_index>
3252

> <i_lp_mmshare_version>
43012

> <i_f3d_flags>
0

> <s_epik_input>
W0NIM11bQ0gyXU4xW0NIMl1bQ0gyXU9bQ0BIXShbQ0gyXTEpW0NIMl1bTkhdYzJbY0hdW2NIXWMoQyNOKVtjSF1uMg==

> <s_epik_cmdline>
J2VwaWtfcHl0aG9uJywgJy1waCcsICc3LjAnLCAnLXRuJywgJzgnLCAnLW1hJywgJzIwMCcsICctbWV0YWxfYmluZGluZycsICctaW1hZScsICc8aW5maWxlLm1hZT4nLCAnLW9tYWUnLCAnPG91dGZpbGUubWFlPic=

> <r_epik_Ionization_Penalty>
0.797836

> <r_epik_Ionization_Penalty_Charging>
0

> <r_epik_Ionization_Penalty_Neutral>
0.797836

> <r_epik_State_Penalty>
0.828842

> <r_epik_Charging_Adjusted_Penalty>
0.828842

> <i_epik_Tot_Q>
0

> <i_epik_Tot_abs_Q>
0

> <r_epik_Metal_State_Penalty>
0.828842

> <b_epik_Metal_Only>
0

> <s_lp_Force_Field>
OPLS_2005

> <r_lp_Energy>
23.221

> <b_lp_Chiralities_Consistent>
1

> <s_lp_Variant>
AV-unprocessed.smi:3252-5

> <Gold.Version>
5.8.1

> <Gold.Id.Protein>
6NUR|6NUR_protein|mol2

> <Gold.PLP.Fitness>
40.6246

> <Gold.PLP.PLP>
-38.2738

> <Gold.PLP.part.hbond>
-1.3498

> <Gold.PLP.part.metal>
0.0000

> <Gold.PLP.part.buried>
-3.5714

> <Gold.PLP.part.nonpolar>
-32.2291

> <Gold.PLP.part.repulsive>
0.3072

> <Gold.PLP.ligand.clash>
0.0000

> <Gold.PLP.ligand.torsion>
0.3303

> <Gold.PLP.Chemscore.Hbond>
1.0000

> <Gold.PLP.Chemscore.CHOScore>
0.0000

> <Gold.PLP.Chemscore.Metal>
0.0000

> <Gold.Chemscore.Hbonds>
donor molecule, donor type, donor heavy atom, donor atom, acceptor molecule, acceptor atom, score
      P1  H  7989  7998       L1     6  0.80

> <Gold.PLP.Chemscore.Internal.Correction>
0.0115

> <Gold.Rescore>
     Score         DG    S(hbond)    S(metal)    S(lipo)     H(rot)  DE(clash)    DE(int)     intcor
     14.44     -14.85       1.09        0.00      80.31       1.43       0.17       0.24       ----

> <Gold.Chemscore.Fitness>
14.4419

> <Gold.Chemscore.DG>
-14.8522

> <Gold.Chemscore.ZeroCoef>
-5.4800

> <Gold.Chemscore.Hbond>
1.0914

> <Gold.Chemscore.Metal>
0.0000

> <Gold.Chemscore.Lipo>
80.3061

> <Gold.Chemscore.Internal_Hbond>
0.0000

> <Gold.Chemscore.DEClash>
0.1691

> <Gold.Chemscore.DEInternal>
0.2412

> <Gold.Chemscore.Rot>
1.4331

> <Gold.Chemscore.Internal.Correction>
   9.000000E+99

> <Gold.Chemscore.Hbonds>
donor molecule, donor type, donor heavy atom, donor atom, acceptor molecule, acceptor atom, score
      P1  H  7989  7998       L1     6  0.11

> <Gold.Chemscore.Hbond.Weighted>
-3.6452

> <Gold.Chemscore.Metal.Weighted>
-0.0000

> <Gold.Chemscore.Lipo.Weighted>
-9.3958

> <Gold.Chemscore.Internal_Hbond.Weighted>
0.0000

> <Gold.Chemscore.DEClash.Weighted>
0.1691

> <Gold.Chemscore.DEInternal.Weighted>
0.2412

> <Gold.Chemscore.Rot.Weighted>
3.6688

> <Gold.Chemscore.Internal.Correction.Weighted>
   9.000000E+99

> <Gold.Protein.RotatedTorsions>
[ 6907 6896 6895 6894 ] final  -23.66 input  -60.11 | X-H torsion
[ 7974 7965 7964 7962 ] final  -78.64 input  175.53 | X-H torsion
[ 8008 7997 7996 7995 ] final  136.33 input   59.86 | X-H torsion
[ 10167 10162 10161 10158 ] final  -32.26 input  -65.29 | X-H torsion
[ 10718 10713 10712 10709 ] final  109.95 input   66.30 | X-H torsion
[ 10763 10752 10751 10750 ] final  140.46 input  -60.55 | X-H torsion
[ 11005 11000 10999 10996 ] final    9.95 input  -57.11 | X-H torsion

> <Gold.Protein.ActiveResidues>
 VAL166  LYS551  ARG553  GLY616  TRP617  ASP618  TYR619  PRO620  LYS621  CYS622 
 ASP623  PHE694  ASN695  SER759  ASP760  ASP761  ALA762  ILE779  LEU786  VAL792 
 PHE793  MET794  SER795  GLU796  ALA797  LYS798  CYS799  TRP800  GLU811  SER814 

> <Gold.Protein.RotatedAtoms>
  151.2007  135.0441  159.8870 H   0  0  0  0  0  0  0  0  0  0  0  0  # atno 6907 bound_to 6896
  152.5433  134.0853  159.8263 H   0  0  0  0  0  0  0  0  0  0  0  0  # atno 6908 bound_to 6896
  151.0993  133.5208  159.2643 H   0  0  0  0  0  0  0  0  0  0  0  0  # atno 6909 bound_to 6896
  145.5838  140.9443  143.1329 H   0  0  0  0  0  0  0  0  0  0  0  0  # atno 7974 bound_to 7965
  156.3004  140.2448  156.3728 H   0  0  0  0  0  0  0  0  0  0  0  0  # atno 8008 bound_to 7997
  154.8773  140.0414  157.1780 H   0  0  0  0  0  0  0  0  0  0  0  0  # atno 8009 bound_to 7997
  154.8733  140.2938  155.5472 H   0  0  0  0  0  0  0  0  0  0  0  0  # atno 8010 bound_to 7997
  140.7224  143.3708  151.1782 H   0  0  0  0  0  0  0  0  0  0  0  0  # atno 10167 bound_to 10162
  157.6517  131.0923  150.6530 H   0  0  0  0  0  0  0  0  0  0  0  0  # atno 10718 bound_to 10713
  153.9230  135.2998  155.3447 H   0  0  0  0  0  0  0  0  0  0  0  0  # atno 10763 bound_to 10752
  154.7566  135.4955  153.9388 H   0  0  0  0  0  0  0  0  0  0  0  0  # atno 10764 bound_to 10752
  153.1132  135.6764  153.9568 H   0  0  0  0  0  0  0  0  0  0  0  0  # atno 10765 bound_to 10752
  140.5200  134.0568  155.7842 H   0  0  0  0  0  0  0  0  0  0  0  0  # atno 11005 bound_to 11000
  144.7382  139.7525  143.7321 LP  0  0  0  0  0  0  0  0  0  0  0  0  # atno 17320 bound_to 7965
  146.1697  139.4842  142.9935 LP  0  0  0  0  0  0  0  0  0  0  0  0  # atno 17321 bound_to 7965
  139.7279  143.9119  152.3009 LP  0  0  0  0  0  0  0  0  0  0  0  0  # atno 17342 bound_to 10162
  139.8898  144.6972  150.8783 LP  0  0  0  0  0  0  0  0  0  0  0  0  # atno 17343 bound_to 10162
  156.6841  130.4576  149.5619 LP  0  0  0  0  0  0  0  0  0  0  0  0  # atno 17370 bound_to 10713
  156.1908  130.6559  151.1059 LP  0  0  0  0  0  0  0  0  0  0  0  0  # atno 17371 bound_to 10713
  141.1339  133.9255  157.2476 LP  0  0  0  0  0  0  0  0  0  0  0  0  # atno 17394 bound_to 11000
  139.9611  135.0154  156.9263 LP  0  0  0  0  0  0  0  0  0  0  0  0  # atno 17395 bound_to 11000

$$$$
