AV-unprocessed.smi:3101|AV-procd|sdf|11810|dock2
  -GOLD-   2272017183D 1   1.00000     0.00000
 Structure written by MMmdl.
 28 29  0  0  0  0  0  0  0  0  1 V2000
  151.3939  144.8747  158.0743 C   0  0  0  0  0  0  0  0  0  0  0  0
  151.6439  143.9400  159.2719 C   0  0  2  0  0  0  0  0  0  0  0  0
  153.1058  143.6847  159.5771 C   0  0  0  0  0  0  0  0  0  0  0  0
  153.0059  142.4815  160.5075 C   0  0  0  0  0  0  0  0  0  0  0  0
  151.8983  141.7205  160.0324 O   0  0  0  0  0  0  0  0  0  0  0  0
  151.0568  142.5135  159.1927 C   0  0  2  0  0  0  0  0  0  0  0  0
  151.0590  141.8704  157.7955 C   0  0  0  0  0  0  0  0  0  0  0  0
  150.5244  142.4511  156.8500 O   0  0  0  0  0  0  0  0  0  0  0  0
  151.6848  140.6827  157.7026 N   0  0  0  0  0  0  0  0  0  0  0  0
  151.8361  139.8583  156.5567 C   0  0  0  0  0  0  0  0  0  0  0  0
  150.8735  140.0424  155.5363 C   0  0  0  0  0  0  0  0  0  0  0  0
  150.8855  139.3340  154.3854 N   0  0  0  0  0  0  0  0  0  0  0  0
  151.8739  138.4249  154.2465 C   0  0  0  0  0  0  0  0  0  0  0  0
  152.8416  138.2280  155.2517 C   0  0  0  0  0  0  0  0  0  0  0  0
  152.8237  138.9400  156.3994 N   0  0  0  0  0  0  0  0  0  0  0  0
  151.8803  144.5178  157.1661 H   0  0  0  0  0  0  0  0  0  0  0  0
  151.7820  145.8730  158.2778 H   0  0  0  0  0  0  0  0  0  0  0  0
  150.3274  144.9708  157.8697 H   0  0  0  0  0  0  0  0  0  0  0  0
  151.2031  144.4175  160.1488 H   0  0  0  0  0  0  0  0  0  0  0  0
  153.6538  143.4213  158.6716 H   0  0  0  0  0  0  0  0  0  0  0  0
  153.6024  144.5376  160.0407 H   0  0  0  0  0  0  0  0  0  0  0  0
  153.9200  141.8877  160.5252 H   0  0  0  0  0  0  0  0  0  0  0  0
  152.7931  142.8073  161.5264 H   0  0  0  0  0  0  0  0  0  0  0  0
  150.0428  142.5064  159.5961 H   0  0  0  0  0  0  0  0  0  0  0  0
  152.0957  140.3268  158.5532 H   0  0  0  0  0  0  0  0  0  0  0  0
  150.0805  140.7687  155.6422 H   0  0  0  0  0  0  0  0  0  0  0  0
  151.8935  137.8531  153.3306 H   0  0  0  0  0  0  0  0  0  0  0  0
  153.6302  137.4995  155.1350 H   0  0  0  0  0  0  0  0  0  0  0  0
  1  2  1  0  0  0  0
  1 16  1  0  0  0  0
  1 17  1  0  0  0  0
  1 18  1  0  0  0  0
  2  6  1  0  0  0  0
  2  3  1  0  0  0  0
  2 19  1  0  0  0  0
  3  4  1  0  0  0  0
  3 20  1  0  0  0  0
  3 21  1  0  0  0  0
  4  5  1  0  0  0  0
  4 22  1  0  0  0  0
  4 23  1  0  0  0  0
  5  6  1  0  0  0  0
  6  7  1  0  0  0  0
  6 24  1  0  0  0  0
  7  8  2  0  0  0  0
  7  9  1  0  0  0  0
  9 10  1  0  0  0  0
  9 25  1  0  0  0  0
 10 15  1  0  0  0  0
 10 11  2  0  0  0  0
 11 12  1  0  0  0  0
 11 26  1  0  0  0  0
 12 13  2  0  0  0  0
 13 14  1  0  0  0  0
 13 27  1  0  0  0  0
 14 15  2  0  0  0  0
 14 28  1  0  0  0  0
M  END
> <s_m_source_file>
AV-unprocessed.smi

> <i_m_source_file_index>
3101

> <i_lp_mmshare_version>
43012

> <i_f3d_flags>
0

> <s_epik_input>
W0NIM11bQ0BASF0xW0NIMl1bQ0gyXU9bQ0BIXTFDKD1PKVtOSF1jMltjSF1uW2NIXVtjSF1uMg==

> <s_epik_cmdline>
J2VwaWtfcHl0aG9uJywgJy1waCcsICc3LjAnLCAnLXRuJywgJzgnLCAnLW1hJywgJzIwMCcsICctbWV0YWxfYmluZGluZycsICctaW1hZScsICc8aW5maWxlLm1hZT4nLCAnLW9tYWUnLCAnPG91dGZpbGUubWFlPic=

> <r_lp_tautomer_probability>
1

> <r_epik_Ionization_Penalty>
2.83174e-06

> <r_epik_Ionization_Penalty_Charging>
0

> <r_epik_Ionization_Penalty_Neutral>
2.83174e-06

> <r_epik_State_Penalty>
-0

> <r_epik_Charging_Adjusted_Penalty>
0

> <i_epik_Tot_Q>
0

> <i_epik_Tot_abs_Q>
0

> <r_epik_Metal_State_Penalty>
-0

> <b_epik_Metal_Only>
0

> <s_lp_Force_Field>
OPLS_2005

> <r_lp_Energy>
27.4183

> <b_lp_Chiralities_Consistent>
1

> <s_lp_Variant>
AV-unprocessed.smi:3101-3

> <Gold.Version>
5.8.1

> <Gold.Id.Protein>
6NUR|6NUR_protein|mol2

> <Gold.PLP.Fitness>
36.3822

> <Gold.PLP.PLP>
-30.6388

> <Gold.PLP.part.hbond>
-2.3127

> <Gold.PLP.part.metal>
0.0000

> <Gold.PLP.part.buried>
-5.1582

> <Gold.PLP.part.nonpolar>
-24.7398

> <Gold.PLP.part.repulsive>
0.9205

> <Gold.PLP.ligand.clash>
0.0000

> <Gold.PLP.ligand.torsion>
0.1949

> <Gold.PLP.Chemscore.Hbond>
1.5000

> <Gold.PLP.Chemscore.CHOScore>
0.5408

> <Gold.PLP.Chemscore.Metal>
0.0000

> <Gold.Chemscore.Hbonds>
donor molecule, donor type, donor heavy atom, donor atom, acceptor molecule, acceptor atom, score
      P1  H  7989  7998       L1    12  0.50
      P1  H  7997  8008       L1    15  1.00
      L1  C    13    27       P1  7949  0.54

> <Gold.PLP.Chemscore.Internal.Correction>
0.0110

> <Gold.Rescore>
     Score         DG    S(hbond)    S(metal)    S(lipo)     H(rot)  DE(clash)    DE(int)     intcor
     11.42     -14.39       0.66        0.00      79.14       1.00       0.07       2.91       ----

> <Gold.Chemscore.Fitness>
11.4151

> <Gold.Chemscore.DG>
-14.3858

> <Gold.Chemscore.ZeroCoef>
-5.4800

> <Gold.Chemscore.Hbond>
0.6605

> <Gold.Chemscore.Metal>
0.0000

> <Gold.Chemscore.Lipo>
79.1425

> <Gold.Chemscore.Internal_Hbond>
0.0000

> <Gold.Chemscore.DEClash>
0.0651

> <Gold.Chemscore.DEInternal>
2.9056

> <Gold.Chemscore.Rot>
1.0000

> <Gold.Chemscore.Internal.Correction>
   9.000000E+99

> <Gold.Chemscore.Hbonds>
donor molecule, donor type, donor heavy atom, donor atom, acceptor molecule, acceptor atom, score
      P1  H  7989  7998       L1    12  0.01
      P1  H  7997  8008       L1    15  0.15

> <Gold.Chemscore.Hbond.Weighted>
-2.2061

> <Gold.Chemscore.Metal.Weighted>
-0.0000

> <Gold.Chemscore.Lipo.Weighted>
-9.2597

> <Gold.Chemscore.Internal_Hbond.Weighted>
0.0000

> <Gold.Chemscore.DEClash.Weighted>
0.0651

> <Gold.Chemscore.DEInternal.Weighted>
2.9056

> <Gold.Chemscore.Rot.Weighted>
2.5600

> <Gold.Chemscore.Internal.Correction.Weighted>
   9.000000E+99

> <Gold.Protein.RotatedTorsions>
[ 6907 6896 6895 6894 ] final  -44.57 input  -60.11 | X-H torsion
[ 7974 7965 7964 7962 ] final   82.16 input  175.53 | X-H torsion
[ 8008 7997 7996 7995 ] final  -44.44 input   59.86 | X-H torsion
[ 10167 10162 10161 10158 ] final   44.66 input  -65.29 | X-H torsion
[ 10718 10713 10712 10709 ] final -145.98 input   66.30 | X-H torsion
[ 10763 10752 10751 10750 ] final  -66.81 input  -60.55 | X-H torsion
[ 11005 11000 10999 10996 ] final  -59.51 input  -57.11 | X-H torsion

> <Gold.Protein.ActiveResidues>
 VAL166  LYS551  ARG553  GLY616  TRP617  ASP618  TYR619  PRO620  LYS621  CYS622 
 ASP623  PHE694  ASN695  SER759  ASP760  ASP761  ALA762  ILE779  LEU786  VAL792 
 PHE793  MET794  SER795  GLU796  ALA797  LYS798  CYS799  TRP800  GLU811  SER814 

> <Gold.Protein.RotatedAtoms>
  150.9314  134.8728  159.7553 H   0  0  0  0  0  0  0  0  0  0  0  0  # atno 6907 bound_to 6896
  152.5039  134.4074  159.9447 H   0  0  0  0  0  0  0  0  0  0  0  0  # atno 6908 bound_to 6896
  151.4101  133.3690  159.2778 H   0  0  0  0  0  0  0  0  0  0  0  0  # atno 6909 bound_to 6896
  145.6287  139.2400  143.2097 H   0  0  0  0  0  0  0  0  0  0  0  0  # atno 7974 bound_to 7965
  154.3997  140.1422  156.3683 H   0  0  0  0  0  0  0  0  0  0  0  0  # atno 8008 bound_to 7997
  155.8117  140.3472  155.5441 H   0  0  0  0  0  0  0  0  0  0  0  0  # atno 8009 bound_to 7997
  155.8380  140.0922  157.1743 H   0  0  0  0  0  0  0  0  0  0  0  0  # atno 8010 bound_to 7997
  140.3320  144.2576  150.6167 H   0  0  0  0  0  0  0  0  0  0  0  0  # atno 10167 bound_to 10162
  156.3892  130.7877  151.2077 H   0  0  0  0  0  0  0  0  0  0  0  0  # atno 10718 bound_to 10713
  154.3652  135.6107  153.5711 H   0  0  0  0  0  0  0  0  0  0  0  0  # atno 10763 bound_to 10752
  152.9792  135.5825  154.4586 H   0  0  0  0  0  0  0  0  0  0  0  0  # atno 10764 bound_to 10752
  154.4330  135.2848  155.1877 H   0  0  0  0  0  0  0  0  0  0  0  0  # atno 10765 bound_to 10752
  141.1251  133.6617  156.5083 H   0  0  0  0  0  0  0  0  0  0  0  0  # atno 11005 bound_to 11000
  146.1374  140.7104  142.9383 LP  0  0  0  0  0  0  0  0  0  0  0  0  # atno 17320 bound_to 7965
  144.7202  140.4347  143.7014 LP  0  0  0  0  0  0  0  0  0  0  0  0  # atno 17321 bound_to 7965
  140.5388  143.2228  151.8119 LP  0  0  0  0  0  0  0  0  0  0  0  0  # atno 17342 bound_to 10162
  139.4855  144.4627  151.9522 LP  0  0  0  0  0  0  0  0  0  0  0  0  # atno 17343 bound_to 10162
  157.7498  131.0320  150.4209 LP  0  0  0  0  0  0  0  0  0  0  0  0  # atno 17370 bound_to 10713
  156.4468  130.4003  149.6662 LP  0  0  0  0  0  0  0  0  0  0  0  0  # atno 17371 bound_to 10713
  140.4389  134.7033  157.4981 LP  0  0  0  0  0  0  0  0  0  0  0  0  # atno 17394 bound_to 11000
  140.0242  134.6501  155.9196 LP  0  0  0  0  0  0  0  0  0  0  0  0  # atno 17395 bound_to 11000

$$$$
