AV-unprocessed.smi:1686|AV-procd|sdf|6763|dock8
  -GOLD-   22720 7523D 1   1.00000     0.00000
 Structure written by MMmdl.
 41 43  0  0  0  0  0  0  0  0  1 V2000
  152.5221  138.5976  159.2838 C   0  0  0  0  0  0  0  0  0  0  0  0
  151.8720  137.6366  158.3303 C   0  0  0  0  0  0  0  0  0  0  0  0
  151.2166  136.5907  158.8164 N   0  0  0  0  0  0  0  0  0  0  0  0
  150.7171  135.8903  157.7124 O   0  0  0  0  0  0  0  0  0  0  0  0
  151.1072  136.5642  156.6063 C   0  0  0  0  0  0  0  0  0  0  0  0
  150.6960  136.0456  155.0196 Cl  0  0  0  0  0  0  0  0  0  0  0  0
  151.8426  137.6748  156.9049 C   0  0  0  0  0  0  0  0  0  0  0  0
  152.4613  138.6902  155.9743 C   0  0  0  0  0  0  0  0  0  0  0  0
  151.5976  139.9514  155.8507 C   0  0  0  0  0  0  0  0  0  0  0  0
  150.9518  140.1873  154.8281 O   0  0  0  0  0  0  0  0  0  0  0  0
  151.6026  140.7630  156.9190 N   0  0  0  0  0  0  0  0  0  0  0  0
  150.8803  142.0287  157.0306 C   0  0  1  0  0  0  0  0  0  0  0  0
  149.3923  141.7886  156.7169 C   0  0  0  0  0  0  0  0  0  0  0  0
  151.0924  142.6323  158.4407 C   0  0  2  0  0  0  0  0  0  0  0  0
  150.3461  143.9711  158.6620 C   0  0  0  0  0  0  0  0  0  0  0  0
  151.4568  144.9229  159.1403 C   0  0  1  0  0  0  0  0  0  0  0  0
  151.9158  144.5121  160.5511 C   0  0  0  0  0  0  0  0  0  0  0  0
  152.7034  143.2159  160.2847 C   0  0  0  0  0  0  0  0  0  0  0  0
  152.5560  143.0347  158.7617 C   0  0  2  0  0  0  0  0  0  0  0  0
  152.6306  144.4792  158.2782 C   0  0  0  0  0  0  0  0  0  0  0  0
  152.9956  139.4259  158.7573 H   0  0  0  0  0  0  0  0  0  0  0  0
  153.2897  138.1012  159.8779 H   0  0  0  0  0  0  0  0  0  0  0  0
  151.7902  139.0220  159.9716 H   0  0  0  0  0  0  0  0  0  0  0  0
  153.4543  138.9804  156.3185 H   0  0  0  0  0  0  0  0  0  0  0  0
  152.6000  138.2739  154.9761 H   0  0  0  0  0  0  0  0  0  0  0  0
  152.1614  140.4906  157.7146 H   0  0  0  0  0  0  0  0  0  0  0  0
  151.2796  142.7282  156.2940 H   0  0  0  0  0  0  0  0  0  0  0  0
  148.8198  142.7152  156.7477 H   0  0  0  0  0  0  0  0  0  0  0  0
  148.9435  141.0976  157.4313 H   0  0  0  0  0  0  0  0  0  0  0  0
  149.2631  141.3648  155.7204 H   0  0  0  0  0  0  0  0  0  0  0  0
  150.7530  141.8986  159.1739 H   0  0  0  0  0  0  0  0  0  0  0  0
  149.9160  144.3488  157.7337 H   0  0  0  0  0  0  0  0  0  0  0  0
  149.5361  143.8797  159.3867 H   0  0  0  0  0  0  0  0  0  0  0  0
  151.1951  145.9778  159.0543 H   0  0  0  0  0  0  0  0  0  0  0  0
  152.5642  145.2722  160.9884 H   0  0  0  0  0  0  0  0  0  0  0  0
  151.0755  144.3571  161.2287 H   0  0  0  0  0  0  0  0  0  0  0  0
  153.7516  143.3436  160.5582 H   0  0  0  0  0  0  0  0  0  0  0  0
  152.3150  142.3672  160.8486 H   0  0  0  0  0  0  0  0  0  0  0  0
  153.3146  142.3749  158.3408 H   0  0  0  0  0  0  0  0  0  0  0  0
  152.4508  144.5921  157.2079 H   0  0  0  0  0  0  0  0  0  0  0  0
  153.5686  144.9744  158.5360 H   0  0  0  0  0  0  0  0  0  0  0  0
  1  2  1  0  0  0  0
  1 21  1  0  0  0  0
  1 22  1  0  0  0  0
  1 23  1  0  0  0  0
  2  7  1  0  0  0  0
  2  3  2  0  0  0  0
  3  4  1  0  0  0  0
  4  5  1  0  0  0  0
  5  6  1  0  0  0  0
  5  7  2  0  0  0  0
  7  8  1  0  0  0  0
  8  9  1  0  0  0  0
  8 24  1  0  0  0  0
  8 25  1  0  0  0  0
  9 10  2  0  0  0  0
  9 11  1  0  0  0  0
 11 12  1  0  0  0  0
 11 26  1  0  0  0  0
 12 13  1  0  0  0  0
 12 14  1  0  0  0  0
 12 27  1  0  0  0  0
 13 28  1  0  0  0  0
 13 29  1  0  0  0  0
 13 30  1  0  0  0  0
 14 19  1  0  0  0  0
 14 15  1  0  0  0  0
 14 31  1  0  0  0  0
 15 16  1  0  0  0  0
 15 32  1  0  0  0  0
 15 33  1  0  0  0  0
 16 20  1  0  0  0  0
 16 17  1  0  0  0  0
 16 34  1  0  0  0  0
 17 18  1  0  0  0  0
 17 35  1  0  0  0  0
 17 36  1  0  0  0  0
 18 19  1  0  0  0  0
 18 37  1  0  0  0  0
 18 38  1  0  0  0  0
 19 20  1  0  0  0  0
 19 39  1  0  0  0  0
 20 40  1  0  0  0  0
 20 41  1  0  0  0  0
M  END
> <s_m_source_file>
AV-unprocessed.smi

> <i_m_source_file_index>
1686

> <i_lp_mmshare_version>
43012

> <i_f3d_flags>
0

> <s_epik_input>
W0NIM11jMW5vYyhDbCljMVtDSDJdQyg9TylbTkhdW0NASF0oW0NIM10pW0NASF0oW0NIMl1bQ0BIXTIzKVtDQEhdKFtDSDJdMylbQ0gyXVtDSDJdMg==

> <s_epik_cmdline>
J2VwaWtfcHl0aG9uJywgJy1waCcsICc3LjAnLCAnLXRuJywgJzgnLCAnLW1hJywgJzIwMCcsICctbWV0YWxfYmluZGluZycsICctaW1hZScsICc8aW5maWxlLm1hZT4nLCAnLW9tYWUnLCAnPG91dGZpbGUubWFlPic=

> <r_lp_tautomer_probability>
1

> <r_epik_Ionization_Penalty>
2.01576e-08

> <r_epik_Ionization_Penalty_Charging>
0

> <r_epik_Ionization_Penalty_Neutral>
2.01576e-08

> <r_epik_State_Penalty>
-0

> <r_epik_Charging_Adjusted_Penalty>
0

> <i_epik_Tot_Q>
0

> <i_epik_Tot_abs_Q>
0

> <r_epik_Metal_State_Penalty>
-0

> <b_epik_Metal_Only>
0

> <s_lp_Force_Field>
OPLS_2005

> <r_lp_Energy>
46.9039

> <b_lp_Chiralities_Consistent>
1

> <s_lp_Variant>
AV-unprocessed.smi:1686-6

> <Gold.Version>
5.8.1

> <Gold.Id.Protein>
6NUR|6NUR_protein|mol2

> <Gold.PLP.Fitness>
47.6133

> <Gold.PLP.PLP>
-43.1013

> <Gold.PLP.part.hbond>
-3.0000

> <Gold.PLP.part.metal>
0.0000

> <Gold.PLP.part.buried>
-5.5609

> <Gold.PLP.part.nonpolar>
-35.3190

> <Gold.PLP.part.repulsive>
0.1814

> <Gold.PLP.ligand.clash>
0.0000

> <Gold.PLP.ligand.torsion>
0.4809

> <Gold.PLP.Chemscore.Hbond>
1.8160

> <Gold.PLP.Chemscore.CHOScore>
0.0000

> <Gold.PLP.Chemscore.Metal>
0.0000

> <Gold.Chemscore.Hbonds>
donor molecule, donor type, donor heavy atom, donor atom, acceptor molecule, acceptor atom, score
      P1  H  6896  6909       L1     3  0.75
      P1  H  7989  7998       L1    10  1.00

> <Gold.PLP.Chemscore.Internal.Correction>
0.0258

> <Gold.Rescore>
     Score         DG    S(hbond)    S(metal)    S(lipo)     H(rot)  DE(clash)    DE(int)     intcor
     20.03     -21.74       1.67        0.00     123.46       1.46       0.05       1.67       ----

> <Gold.Chemscore.Fitness>
20.0253

> <Gold.Chemscore.DG>
-21.7425

> <Gold.Chemscore.ZeroCoef>
-5.4800

> <Gold.Chemscore.Hbond>
1.6669

> <Gold.Chemscore.Metal>
0.0000

> <Gold.Chemscore.Lipo>
123.4608

> <Gold.Chemscore.Internal_Hbond>
0.0000

> <Gold.Chemscore.DEClash>
0.0484

> <Gold.Chemscore.DEInternal>
1.6688

> <Gold.Chemscore.Rot>
1.4648

> <Gold.Chemscore.Internal.Correction>
   9.000000E+99

> <Gold.Chemscore.Hbonds>
donor molecule, donor type, donor heavy atom, donor atom, acceptor molecule, acceptor atom, score
      P1  H  6896  6909       L1     3  0.15
      P1  H  7989  7998       L1    10  0.98

> <Gold.Chemscore.Hbond.Weighted>
-5.5675

> <Gold.Chemscore.Metal.Weighted>
-0.0000

> <Gold.Chemscore.Lipo.Weighted>
-14.4449

> <Gold.Chemscore.Internal_Hbond.Weighted>
0.0000

> <Gold.Chemscore.DEClash.Weighted>
0.0484

> <Gold.Chemscore.DEInternal.Weighted>
1.6688

> <Gold.Chemscore.Rot.Weighted>
3.7500

> <Gold.Chemscore.Internal.Correction.Weighted>
   9.000000E+99

> <Gold.Protein.RotatedTorsions>
[ 6907 6896 6895 6894 ] final  113.36 input  -60.11 | X-H torsion
[ 7974 7965 7964 7962 ] final -107.88 input  175.53 | X-H torsion
[ 8008 7997 7996 7995 ] final  -25.10 input   59.86 | X-H torsion
[ 10167 10162 10161 10158 ] final  137.48 input  -65.29 | X-H torsion
[ 10718 10713 10712 10709 ] final  -41.66 input   66.30 | X-H torsion
[ 10763 10752 10751 10750 ] final   30.33 input  -60.55 | X-H torsion
[ 11005 11000 10999 10996 ] final  -58.02 input  -57.11 | X-H torsion

> <Gold.Protein.ActiveResidues>
 VAL166  LYS551  ARG553  GLY616  TRP617  ASP618  TYR619  PRO620  LYS621  CYS622 
 ASP623  PHE694  ASN695  SER759  ASP760  ASP761  ALA762  ILE779  LEU786  VAL792 
 PHE793  MET794  SER795  GLU796  ALA797  LYS798  CYS799  TRP800  GLU811  SER814 

> <Gold.Protein.RotatedAtoms>
  152.4865  133.8387  159.7140 H   0  0  0  0  0  0  0  0  0  0  0  0  # atno 6907 bound_to 6896
  150.8956  133.7175  159.2899 H   0  0  0  0  0  0  0  0  0  0  0  0  # atno 6908 bound_to 6896
  151.4634  135.1044  159.9783 H   0  0  0  0  0  0  0  0  0  0  0  0  # atno 6909 bound_to 6896
  145.1999  140.9051  143.3376 H   0  0  0  0  0  0  0  0  0  0  0  0  # atno 7974 bound_to 7965
  154.4494  140.1935  156.0567 H   0  0  0  0  0  0  0  0  0  0  0  0  # atno 8008 bound_to 7997
  156.0614  140.3296  155.7439 H   0  0  0  0  0  0  0  0  0  0  0  0  # atno 8009 bound_to 7997
  155.5406  140.0586  157.2861 H   0  0  0  0  0  0  0  0  0  0  0  0  # atno 8010 bound_to 7997
  139.5143  144.6407  151.5575 H   0  0  0  0  0  0  0  0  0  0  0  0  # atno 10167 bound_to 10162
  156.2680  130.4203  149.8469 H   0  0  0  0  0  0  0  0  0  0  0  0  # atno 10718 bound_to 10713
  153.0378  135.6467  154.1028 H   0  0  0  0  0  0  0  0  0  0  0  0  # atno 10763 bound_to 10752
  154.0739  135.2878  155.3304 H   0  0  0  0  0  0  0  0  0  0  0  0  # atno 10764 bound_to 10752
  154.6575  135.5403  153.8042 H   0  0  0  0  0  0  0  0  0  0  0  0  # atno 10765 bound_to 10752
  141.1190  133.6611  156.4857 H   0  0  0  0  0  0  0  0  0  0  0  0  # atno 11005 bound_to 11000
  144.9958  139.3645  143.6192 LP  0  0  0  0  0  0  0  0  0  0  0  0  # atno 17320 bound_to 7965
  146.3420  139.9161  142.8773 LP  0  0  0  0  0  0  0  0  0  0  0  0  # atno 17321 bound_to 7965
  140.6173  143.9324  150.6499 LP  0  0  0  0  0  0  0  0  0  0  0  0  # atno 17342 bound_to 10162
  140.2586  143.3540  152.1343 LP  0  0  0  0  0  0  0  0  0  0  0  0  # atno 17343 bound_to 10162
  156.5961  130.8527  151.3420 LP  0  0  0  0  0  0  0  0  0  0  0  0  # atno 17370 bound_to 10713
  157.7274  130.9642  150.1696 LP  0  0  0  0  0  0  0  0  0  0  0  0  # atno 17371 bound_to 10713
  140.4564  134.6881  157.5064 LP  0  0  0  0  0  0  0  0  0  0  0  0  # atno 17394 bound_to 11000
  140.0132  134.6659  155.9349 LP  0  0  0  0  0  0  0  0  0  0  0  0  # atno 17395 bound_to 11000

$$$$
