AV-unprocessed.smi:2799|AV-procd|sdf|10792|dock4
  -GOLD-   2272015223D 1   1.00000     0.00000
 Structure written by MMmdl.
 52 53  0  0  0  0  0  0  0  0  2 V2000
  150.4795  133.1162  156.0871 C   0  0  0  0  0  0  0  0  0  0  0  0
  149.5159  133.9849  155.2639 C   0  0  0  0  0  0  0  0  0  0  0  0
  149.4588  133.4872  153.8095 C   0  0  0  0  0  0  0  0  0  0  0  0
  149.9262  135.4747  155.3513 C   0  0  0  0  0  0  0  0  0  0  0  0
  148.9943  136.4172  154.6591 N   0  3  1  0  0  0  0  0  0  0  0  0
  147.5671  136.0714  154.9302 C   0  0  0  0  0  0  0  0  0  0  0  0
  146.5949  136.9279  154.1096 C   0  0  0  0  0  0  0  0  0  0  0  0
  146.8195  138.4097  154.3954 C   0  0  0  0  0  0  0  0  0  0  0  0
  148.2815  138.7606  154.1170 C   0  0  0  0  0  0  0  0  0  0  0  0
  149.2666  137.8733  154.9227 C   0  0  2  0  0  0  0  0  0  0  0  0
  150.7321  138.2981  154.6118 C   0  0  0  0  0  0  0  0  0  0  0  0
  151.0851  139.6005  155.1716 N   0  0  0  0  0  0  0  0  0  0  0  0
  151.3108  139.8436  156.4708 C   0  0  0  0  0  0  0  0  0  0  0  0
  151.2513  138.9703  157.3359 O   0  0  0  0  0  0  0  0  0  0  0  0
  151.6061  141.1410  156.6722 N   0  0  0  0  0  0  0  0  0  0  0  0
  151.8739  141.8266  157.8707 C   0  0  0  0  0  0  0  0  0  0  0  0
  151.3943  143.0566  158.1854 C   0  0  0  0  0  0  0  0  0  0  0  0
  151.7330  143.6866  159.4389 C   0  0  0  0  0  0  0  0  0  0  0  0
  152.5408  143.0314  160.2841 C   0  0  0  0  0  0  0  0  0  0  0  0
  153.0563  141.7613  159.9757 N   0  0  0  0  0  0  0  0  0  0  0  0
  153.9311  141.1265  160.9647 C   0  0  0  0  0  0  0  0  0  0  0  0
  152.7665  141.1153  158.8072 C   0  0  0  0  0  0  0  0  0  0  0  0
  153.2325  139.9995  158.5627 O   0  0  0  0  0  0  0  0  0  0  0  0
  151.4976  133.1724  155.6998 H   0  0  0  0  0  0  0  0  0  0  0  0
  150.1762  132.0689  156.0715 H   0  0  0  0  0  0  0  0  0  0  0  0
  150.5025  133.4343  157.1300 H   0  0  0  0  0  0  0  0  0  0  0  0
  148.5338  133.8418  155.7107 H   0  0  0  0  0  0  0  0  0  0  0  0
  150.4244  133.5959  153.3145 H   0  0  0  0  0  0  0  0  0  0  0  0
  148.7214  134.0384  153.2257 H   0  0  0  0  0  0  0  0  0  0  0  0
  149.1817  132.4334  153.7671 H   0  0  0  0  0  0  0  0  0  0  0  0
  150.0305  135.7804  156.3936 H   0  0  0  0  0  0  0  0  0  0  0  0
  150.9212  135.5211  154.9201 H   0  0  0  0  0  0  0  0  0  0  0  0
  147.3615  135.0323  154.6840 H   0  0  0  0  0  0  0  0  0  0  0  0
  147.3608  136.1877  155.9955 H   0  0  0  0  0  0  0  0  0  0  0  0
  146.7321  136.7284  153.0459 H   0  0  0  0  0  0  0  0  0  0  0  0
  145.5661  136.6557  154.3469 H   0  0  0  0  0  0  0  0  0  0  0  0
  146.1598  139.0189  153.7768 H   0  0  0  0  0  0  0  0  0  0  0  0
  146.5733  138.6336  155.4342 H   0  0  0  0  0  0  0  0  0  0  0  0
  148.4829  138.6561  153.0498 H   0  0  0  0  0  0  0  0  0  0  0  0
  148.4238  139.8153  154.3525 H   0  0  0  0  0  0  0  0  0  0  0  0
  149.0827  138.0420  155.9851 H   0  0  0  0  0  0  0  0  0  0  0  0
  151.4614  137.5948  155.0100 H   0  0  0  0  0  0  0  0  0  0  0  0
  150.8899  138.3382  153.5337 H   0  0  0  0  0  0  0  0  0  0  0  0
  151.1597  140.3713  154.5235 H   0  0  0  0  0  0  0  0  0  0  0  0
  151.6653  141.7175  155.8451 H   0  0  0  0  0  0  0  0  0  0  0  0
  150.7592  143.6130  157.5165 H   0  0  0  0  0  0  0  0  0  0  0  0
  151.3446  144.6626  159.6898 H   0  0  0  0  0  0  0  0  0  0  0  0
  152.8398  143.4356  161.2403 H   0  0  0  0  0  0  0  0  0  0  0  0
  154.8937  140.8689  160.5203 H   0  0  0  0  0  0  0  0  0  0  0  0
  153.4749  140.2108  161.3432 H   0  0  0  0  0  0  0  0  0  0  0  0
  154.1340  141.7689  161.8223 H   0  0  0  0  0  0  0  0  0  0  0  0
  149.1424  136.2818  153.6692 H   0  0  0  0  0  0  0  0  0  0  0  0
  1  2  1  0  0  0  0
  1 24  1  0  0  0  0
  1 25  1  0  0  0  0
  1 26  1  0  0  0  0
  2  3  1  0  0  0  0
  2  4  1  0  0  0  0
  2 27  1  0  0  0  0
  3 28  1  0  0  0  0
  3 29  1  0  0  0  0
  3 30  1  0  0  0  0
  4  5  1  0  0  0  0
  4 31  1  0  0  0  0
  4 32  1  0  0  0  0
  5 10  1  0  0  0  0
  5  6  1  0  0  0  0
  5 52  1  0  0  0  0
  6  7  1  0  0  0  0
  6 33  1  0  0  0  0
  6 34  1  0  0  0  0
  7  8  1  0  0  0  0
  7 35  1  0  0  0  0
  7 36  1  0  0  0  0
  8  9  1  0  0  0  0
  8 37  1  0  0  0  0
  8 38  1  0  0  0  0
  9 10  1  0  0  0  0
  9 39  1  0  0  0  0
  9 40  1  0  0  0  0
 10 11  1  0  0  0  0
 10 41  1  0  0  0  0
 11 12  1  0  0  0  0
 11 42  1  0  0  0  0
 11 43  1  0  0  0  0
 12 13  1  0  0  0  0
 12 44  1  0  0  0  0
 13 14  2  0  0  0  0
 13 15  1  0  0  0  0
 15 16  1  0  0  0  0
 15 45  1  0  0  0  0
 16 22  1  0  0  0  0
 16 17  2  0  0  0  0
 17 18  1  0  0  0  0
 17 46  1  0  0  0  0
 18 19  2  0  0  0  0
 18 47  1  0  0  0  0
 19 20  1  0  0  0  0
 19 48  1  0  0  0  0
 20 21  1  0  0  0  0
 20 22  1  0  0  0  0
 21 49  1  0  0  0  0
 21 50  1  0  0  0  0
 21 51  1  0  0  0  0
 22 23  2  0  0  0  0
M  CHG  1   5   1
M  END
> <s_m_source_file>
AV-unprocessed.smi

> <i_m_source_file_index>
2799

> <i_lp_mmshare_version>
43012

> <i_f3d_flags>
0

> <s_epik_input>
W0NIM11bQ0hdKFtDSDNdKVtDSDJdTjFbQ0gyXVtDSDJdW0NIMl1bQ0gyXVtDQEhdMVtDSDJdW05IXUMoPU8pW05IXWMyW2NIXVtjSF1bY0hdbihbQ0gzXSljMj1P

> <s_epik_cmdline>
J2VwaWtfcHl0aG9uJywgJy1waCcsICc3LjAnLCAnLXRuJywgJzgnLCAnLW1hJywgJzIwMCcsICctbWV0YWxfYmluZGluZycsICctaW1hZScsICc8aW5maWxlLm1hZT4nLCAnLW9tYWUnLCAnPG91dGZpbGUubWFlPic=

> <r_lp_tautomer_probability>
1

> <r_epik_Ionization_Penalty>
0.0010885

> <r_epik_Ionization_Penalty_Charging>
0.00106921

> <r_epik_Ionization_Penalty_Neutral>
1.92865e-05

> <r_epik_State_Penalty>
0.000697184

> <r_epik_Charging_Adjusted_Penalty>
0.0017664

> <i_epik_Tot_Q>
1

> <i_epik_Tot_abs_Q>
1

> <r_epik_Metal_State_Penalty>
-0

> <b_epik_Metal_Only>
0

> <s_lp_Force_Field>
OPLS_2005

> <r_lp_Energy>
36.993

> <b_lp_Chiralities_Consistent>
1

> <s_lp_Variant>
AV-unprocessed.smi:2799-4

> <Gold.Version>
5.8.1

> <Gold.Id.Protein>
6NUR|6NUR_protein|mol2

> <Gold.PLP.Fitness>
46.2923

> <Gold.PLP.PLP>
-38.4197

> <Gold.PLP.part.hbond>
-2.0000

> <Gold.PLP.part.metal>
0.0000

> <Gold.PLP.part.buried>
-5.1839

> <Gold.PLP.part.nonpolar>
-31.6329

> <Gold.PLP.part.repulsive>
0.2538

> <Gold.PLP.ligand.clash>
0.0000

> <Gold.PLP.ligand.torsion>
0.5983

> <Gold.PLP.Chemscore.Hbond>
2.9920

> <Gold.PLP.Chemscore.CHOScore>
0.0000

> <Gold.PLP.Chemscore.Metal>
0.0000

> <Gold.Chemscore.Hbonds>
donor molecule, donor type, donor heavy atom, donor atom, acceptor molecule, acceptor atom, score
      L1  H     5    52       P1  7948  2.00
      P1  H  7997  8009       L1    23  0.89

> <Gold.PLP.Chemscore.Internal.Correction>
0.0932

> <Gold.Rescore>
     Score         DG    S(hbond)    S(metal)    S(lipo)     H(rot)  DE(clash)    DE(int)     intcor
     15.26     -18.62       1.90        0.00      92.29       1.57       0.06       3.30       ----

> <Gold.Chemscore.Fitness>
15.2582

> <Gold.Chemscore.DG>
-18.6200

> <Gold.Chemscore.ZeroCoef>
-5.4800

> <Gold.Chemscore.Hbond>
1.9036

> <Gold.Chemscore.Metal>
0.0000

> <Gold.Chemscore.Lipo>
92.2896

> <Gold.Chemscore.Internal_Hbond>
0.0000

> <Gold.Chemscore.DEClash>
0.0630

> <Gold.Chemscore.DEInternal>
3.2988

> <Gold.Chemscore.Rot>
1.5688

> <Gold.Chemscore.Internal.Correction>
   9.000000E+99

> <Gold.Chemscore.Hbonds>
donor molecule, donor type, donor heavy atom, donor atom, acceptor molecule, acceptor atom, score
      L1  H     5    52       P1  7948  0.96
      P1  H  7997  8009       L1    23  0.69

> <Gold.Chemscore.Hbond.Weighted>
-6.3582

> <Gold.Chemscore.Metal.Weighted>
-0.0000

> <Gold.Chemscore.Lipo.Weighted>
-10.7979

> <Gold.Chemscore.Internal_Hbond.Weighted>
0.0000

> <Gold.Chemscore.DEClash.Weighted>
0.0630

> <Gold.Chemscore.DEInternal.Weighted>
3.2988

> <Gold.Chemscore.Rot.Weighted>
4.0161

> <Gold.Chemscore.Internal.Correction.Weighted>
   9.000000E+99

> <Gold.Protein.RotatedTorsions>
[ 6907 6896 6895 6894 ] final  132.66 input  -60.11 | X-H torsion
[ 7974 7965 7964 7962 ] final -137.69 input  175.53 | X-H torsion
[ 8008 7997 7996 7995 ] final  139.06 input   59.86 | X-H torsion
[ 10167 10162 10161 10158 ] final  168.16 input  -65.29 | X-H torsion
[ 10718 10713 10712 10709 ] final -113.72 input   66.30 | X-H torsion
[ 10763 10752 10751 10750 ] final  158.69 input  -60.55 | X-H torsion
[ 11005 11000 10999 10996 ] final  175.94 input  -57.11 | X-H torsion

> <Gold.Protein.ActiveResidues>
 VAL166  LYS551  ARG553  GLY616  TRP617  ASP618  TYR619  PRO620  LYS621  CYS622 
 ASP623  PHE694  ASN695  SER759  ASP760  ASP761  ALA762  ILE779  LEU786  VAL792 
 PHE793  MET794  SER795  GLU796  ALA797  LYS798  CYS799  TRP800  GLU811  SER814 

> <Gold.Protein.RotatedAtoms>
  152.3301  133.5949  159.5803 H   0  0  0  0  0  0  0  0  0  0  0  0  # atno 6907 bound_to 6896
  150.7418  133.9880  159.3607 H   0  0  0  0  0  0  0  0  0  0  0  0  # atno 6908 bound_to 6896
  151.7756  135.0775  160.0417 H   0  0  0  0  0  0  0  0  0  0  0  0  # atno 6909 bound_to 6896
  144.8820  140.6521  143.5200 H   0  0  0  0  0  0  0  0  0  0  0  0  # atno 7974 bound_to 7965
  156.2993  140.2377  156.4176 H   0  0  0  0  0  0  0  0  0  0  0  0  # atno 8008 bound_to 7997
  154.8385  140.0429  157.1545 H   0  0  0  0  0  0  0  0  0  0  0  0  # atno 8009 bound_to 7997
  154.9129  140.2993  155.5260 H   0  0  0  0  0  0  0  0  0  0  0  0  # atno 8010 bound_to 7997
  139.4961  144.3844  151.9586 H   0  0  0  0  0  0  0  0  0  0  0  0  # atno 10167 bound_to 10162
  156.0784  130.5988  150.8680 H   0  0  0  0  0  0  0  0  0  0  0  0  # atno 10718 bound_to 10713
  154.2200  135.2782  155.2928 H   0  0  0  0  0  0  0  0  0  0  0  0  # atno 10763 bound_to 10752
  154.5709  135.5619  153.7098 H   0  0  0  0  0  0  0  0  0  0  0  0  # atno 10764 bound_to 10752
  153.0044  135.6321  154.2340 H   0  0  0  0  0  0  0  0  0  0  0  0  # atno 10765 bound_to 10752
  140.3677  134.7057  157.4372 H   0  0  0  0  0  0  0  0  0  0  0  0  # atno 11005 bound_to 11000
  145.3937  139.1611  143.4215 LP  0  0  0  0  0  0  0  0  0  0  0  0  # atno 17320 bound_to 7965
  146.3001  140.4028  142.8707 LP  0  0  0  0  0  0  0  0  0  0  0  0  # atno 17321 bound_to 7965
  140.3281  144.3349  150.5993 LP  0  0  0  0  0  0  0  0  0  0  0  0  # atno 17342 bound_to 10162
  140.5668  143.2185  151.7670 LP  0  0  0  0  0  0  0  0  0  0  0  0  # atno 17343 bound_to 10162
  157.5890  131.0945  150.9149 LP  0  0  0  0  0  0  0  0  0  0  0  0  # atno 17370 bound_to 10713
  156.9329  130.5356  149.5279 LP  0  0  0  0  0  0  0  0  0  0  0  0  # atno 17371 bound_to 10713
  140.0576  134.6041  155.8786 LP  0  0  0  0  0  0  0  0  0  0  0  0  # atno 17394 bound_to 11000
  141.1964  133.6591  156.5692 LP  0  0  0  0  0  0  0  0  0  0  0  0  # atno 17395 bound_to 11000

$$$$
