AV-unprocessed.smi:165|AV-procd|sdf|1386|dock1
  -GOLD-   2262019123D 1   1.00000     0.00000
 Structure written by MMmdl.
 55 59  0  0  0  0  0  0  0  0  1 V2000
  141.7724  139.1769  153.4871 O   0  0  0  0  0  0  0  0  0  0  0  0
  141.2390  137.9004  153.1946 C   0  0  0  0  0  0  0  0  0  0  0  0
  142.2284  136.7575  153.4900 C   0  0  0  0  0  0  0  0  0  0  0  0
  141.3794  135.4695  153.4471 C   0  0  0  0  0  0  0  0  0  0  0  0
  140.3665  135.4306  154.4323 O   0  0  0  0  0  0  0  0  0  0  0  0
  143.5295  136.7462  152.6554 C   0  0  0  0  0  0  0  0  0  0  0  0
  144.3501  136.4664  153.9200 C   0  0  0  0  0  0  0  0  0  0  0  0
  145.6414  137.0617  154.1075 N   0  0  0  0  0  0  0  0  0  0  0  0
  145.9818  138.3778  153.8900 C   0  0  0  0  0  0  0  0  0  0  0  0
  147.2177  138.6877  154.1722 N   0  0  0  0  0  0  0  0  0  0  0  0
  147.7604  137.5063  154.6635 C   0  0  0  0  0  0  0  0  0  0  0  0
  149.0435  137.1344  155.1556 C   0  0  0  0  0  0  0  0  0  0  0  0
  150.0779  138.0088  155.2367 N   0  0  0  0  0  0  0  0  0  0  0  0
  151.0569  137.9100  154.1621 C   0  0  0  0  0  0  0  0  0  0  0  0
  152.3363  138.6630  154.5516 C   0  0  0  0  0  0  0  0  0  0  0  0
  152.0219  140.0066  154.9129 O   0  0  0  0  0  0  0  0  0  0  0  0
  151.0849  140.1498  155.9869 C   0  0  2  0  0  0  0  0  0  0  0  0
  150.8280  141.6668  156.0842 C   0  0  0  0  0  0  0  0  0  0  0  0
  150.0427  142.0252  157.3510 C   0  0  0  0  0  0  0  0  0  0  0  0
  150.7386  141.4400  158.5868 C   0  0  0  0  0  0  0  0  0  0  0  0
  150.8799  140.0336  158.4335 O   0  0  0  0  0  0  0  0  0  0  0  0
  151.6985  139.6643  157.3271 C   0  0  0  0  0  0  0  0  0  0  0  0
  149.7875  139.3874  155.6216 C   0  0  0  0  0  0  0  0  0  0  0  0
  149.2103  135.8446  155.5539 N   0  0  0  0  0  0  0  0  0  0  0  0
  148.1931  134.9807  155.4878 C   0  0  0  0  0  0  0  0  0  0  0  0
  146.9484  135.1889  155.0557 N   0  0  0  0  0  0  0  0  0  0  0  0
  146.7772  136.4766  154.6407 C   0  0  0  0  0  0  0  0  0  0  0  0
  143.1353  136.9375  154.7293 C   0  0  0  0  0  0  0  0  0  0  0  0
  142.7012  139.1626  153.3139 H   0  0  0  0  0  0  0  0  0  0  0  0
  140.3241  137.7822  153.7762 H   0  0  0  0  0  0  0  0  0  0  0  0
  140.9460  137.8966  152.1441 H   0  0  0  0  0  0  0  0  0  0  0  0
  140.8977  135.3574  152.4751 H   0  0  0  0  0  0  0  0  0  0  0  0
  142.0075  134.5890  153.5871 H   0  0  0  0  0  0  0  0  0  0  0  0
  139.5285  135.5260  154.0063 H   0  0  0  0  0  0  0  0  0  0  0  0
  143.5848  135.9567  151.9052 H   0  0  0  0  0  0  0  0  0  0  0  0
  143.7741  137.7123  152.2121 H   0  0  0  0  0  0  0  0  0  0  0  0
  144.4999  135.3938  154.0470 H   0  0  0  0  0  0  0  0  0  0  0  0
  145.2838  139.1062  153.5036 H   0  0  0  0  0  0  0  0  0  0  0  0
  151.3002  136.8737  153.9307 H   0  0  0  0  0  0  0  0  0  0  0  0
  150.6309  138.3447  153.2570 H   0  0  0  0  0  0  0  0  0  0  0  0
  152.8553  138.1546  155.3642 H   0  0  0  0  0  0  0  0  0  0  0  0
  153.0273  138.6816  153.7090 H   0  0  0  0  0  0  0  0  0  0  0  0
  151.7835  142.1931  156.1073 H   0  0  0  0  0  0  0  0  0  0  0  0
  150.3044  142.0283  155.1986 H   0  0  0  0  0  0  0  0  0  0  0  0
  149.9576  143.1080  157.4452 H   0  0  0  0  0  0  0  0  0  0  0  0
  149.0255  141.6386  157.2836 H   0  0  0  0  0  0  0  0  0  0  0  0
  151.7158  141.9006  158.7402 H   0  0  0  0  0  0  0  0  0  0  0  0
  150.1475  141.6402  159.4805 H   0  0  0  0  0  0  0  0  0  0  0  0
  151.8101  138.5804  157.3434 H   0  0  0  0  0  0  0  0  0  0  0  0
  152.6971  140.0823  157.4639 H   0  0  0  0  0  0  0  0  0  0  0  0
  149.2867  139.8833  154.7888 H   0  0  0  0  0  0  0  0  0  0  0  0
  149.0957  139.4000  156.4651 H   0  0  0  0  0  0  0  0  0  0  0  0
  148.4079  133.9784  155.8279 H   0  0  0  0  0  0  0  0  0  0  0  0
  143.2294  137.9749  155.0520 H   0  0  0  0  0  0  0  0  0  0  0  0
  142.8870  136.2947  155.5742 H   0  0  0  0  0  0  0  0  0  0  0  0
  1  2  1  0  0  0  0
  1 29  1  0  0  0  0
  2  3  1  0  0  0  0
  2 30  1  0  0  0  0
  2 31  1  0  0  0  0
  3 28  1  0  0  0  0
  3  4  1  0  0  0  0
  3  6  1  0  0  0  0
  4  5  1  0  0  0  0
  4 32  1  0  0  0  0
  4 33  1  0  0  0  0
  5 34  1  0  0  0  0
  6  7  1  0  0  0  0
  6 35  1  0  0  0  0
  6 36  1  0  0  0  0
  7  8  1  0  0  0  0
  7 28  1  0  0  0  0
  7 37  1  0  0  0  0
  8 27  1  0  0  0  0
  8  9  1  0  0  0  0
  9 10  2  0  0  0  0
  9 38  1  0  0  0  0
 10 11  1  0  0  0  0
 11 27  2  0  0  0  0
 11 12  1  0  0  0  0
 12 13  1  0  0  0  0
 12 24  2  0  0  0  0
 13 23  1  0  0  0  0
 13 14  1  0  0  0  0
 14 15  1  0  0  0  0
 14 39  1  0  0  0  0
 14 40  1  0  0  0  0
 15 16  1  0  0  0  0
 15 41  1  0  0  0  0
 15 42  1  0  0  0  0
 16 17  1  0  0  0  0
 17 22  1  0  0  0  0
 17 18  1  0  0  0  0
 17 23  1  0  0  0  0
 18 19  1  0  0  0  0
 18 43  1  0  0  0  0
 18 44  1  0  0  0  0
 19 20  1  0  0  0  0
 19 45  1  0  0  0  0
 19 46  1  0  0  0  0
 20 21  1  0  0  0  0
 20 47  1  0  0  0  0
 20 48  1  0  0  0  0
 21 22  1  0  0  0  0
 22 49  1  0  0  0  0
 22 50  1  0  0  0  0
 23 51  1  0  0  0  0
 23 52  1  0  0  0  0
 24 25  1  0  0  0  0
 25 26  2  0  0  0  0
 25 53  1  0  0  0  0
 26 27  1  0  0  0  0
 28 54  1  0  0  0  0
 28 55  1  0  0  0  0
M  END
> <s_m_source_file>
AV-unprocessed.smi

> <i_m_source_file_index>
165

> <i_lp_mmshare_version>
43012

> <i_f3d_flags>
0

> <s_epik_input>
W09IXVtDSDJdQzEoW0NIMl1bT0hdKVtDSDJdW0NIXShbQ0gyXTEpbihbY0hdbjIpYyhjMjMpbltjSF1uYzNOKFtDSDJdNClbQ0gyXVtDSDJdT1tDQEBdNDVbQ0gyXVtDSDJdW0NIMl1PW0NIMl01

> <s_epik_cmdline>
J2VwaWtfcHl0aG9uJywgJy1waCcsICc3LjAnLCAnLXRuJywgJzgnLCAnLW1hJywgJzIwMCcsICctbWV0YWxfYmluZGluZycsICctaW1hZScsICc8aW5maWxlLm1hZT4nLCAnLW9tYWUnLCAnPG91dGZpbGUubWFlPic=

> <r_lp_tautomer_probability>
1

> <r_epik_Ionization_Penalty>
0.00466923

> <r_epik_Ionization_Penalty_Charging>
0

> <r_epik_Ionization_Penalty_Neutral>
0.00466923

> <r_epik_State_Penalty>
0.0032353

> <r_epik_Charging_Adjusted_Penalty>
0.0032353

> <i_epik_Tot_Q>
0

> <i_epik_Tot_abs_Q>
0

> <r_epik_Metal_State_Penalty>
-0

> <b_epik_Metal_Only>
0

> <s_lp_Force_Field>
OPLS_2005

> <r_lp_Energy>
54.9184

> <b_lp_Chiralities_Consistent>
1

> <s_lp_Variant>
AV-unprocessed.smi:165-1

> <Gold.Version>
5.8.1

> <Gold.Id.Protein>
6NUR|6NUR_protein|mol2

> <Gold.PLP.Fitness>
44.5609

> <Gold.PLP.PLP>
-35.6387

> <Gold.PLP.part.hbond>
-3.5847

> <Gold.PLP.part.metal>
0.0000

> <Gold.PLP.part.buried>
-7.4662

> <Gold.PLP.part.nonpolar>
-25.6576

> <Gold.PLP.part.repulsive>
0.4261

> <Gold.PLP.ligand.clash>
0.0000

> <Gold.PLP.ligand.torsion>
1.0753

> <Gold.PLP.Chemscore.Hbond>
2.4560

> <Gold.PLP.Chemscore.CHOScore>
1.0000

> <Gold.PLP.Chemscore.Metal>
0.0000

> <Gold.Chemscore.Hbonds>
donor molecule, donor type, donor heavy atom, donor atom, acceptor molecule, acceptor atom, score
      L1  H     1    29       P1 10175  0.50
      P1  H  7989  7998       L1    16  0.83
      P1  H 11000 11005       L1     5  1.00
      L1  C     9    38       P1 10175  1.00

> <Gold.PLP.Chemscore.Internal.Correction>
0.7048

> <Gold.Rescore>
     Score         DG    S(hbond)    S(metal)    S(lipo)     H(rot)  DE(clash)    DE(int)     intcor
     12.60     -14.66       2.43        0.00      77.54       3.14       0.16       1.90       ----

> <Gold.Chemscore.Fitness>
12.6000

> <Gold.Chemscore.DG>
-14.6591

> <Gold.Chemscore.ZeroCoef>
-5.4800

> <Gold.Chemscore.Hbond>
2.4350

> <Gold.Chemscore.Metal>
0.0000

> <Gold.Chemscore.Lipo>
77.5404

> <Gold.Chemscore.Internal_Hbond>
0.0000

> <Gold.Chemscore.DEClash>
0.1636

> <Gold.Chemscore.DEInternal>
1.8955

> <Gold.Chemscore.Rot>
3.1351

> <Gold.Chemscore.Internal.Correction>
   9.000000E+99

> <Gold.Chemscore.Hbonds>
donor molecule, donor type, donor heavy atom, donor atom, acceptor molecule, acceptor atom, score
      L1  H     1    29       P1 10175  0.50
      P1  H  7989  7998       L1    16  0.49
      P1  H 11000 11005       L1     5  0.73

> <Gold.Chemscore.Hbond.Weighted>
-8.1329

> <Gold.Chemscore.Metal.Weighted>
-0.0000

> <Gold.Chemscore.Lipo.Weighted>
-9.0722

> <Gold.Chemscore.Internal_Hbond.Weighted>
0.0000

> <Gold.Chemscore.DEClash.Weighted>
0.1636

> <Gold.Chemscore.DEInternal.Weighted>
1.8955

> <Gold.Chemscore.Rot.Weighted>
8.0260

> <Gold.Chemscore.Internal.Correction.Weighted>
   9.000000E+99

> <Gold.Protein.RotatedTorsions>
[ 6907 6896 6895 6894 ] final  100.51 input  -60.11 | X-H torsion
[ 7974 7965 7964 7962 ] final   17.06 input  175.53 | X-H torsion
[ 8008 7997 7996 7995 ] final -145.45 input   59.86 | X-H torsion
[ 10167 10162 10161 10158 ] final  -22.13 input  -65.29 | X-H torsion
[ 10718 10713 10712 10709 ] final  134.69 input   66.30 | X-H torsion
[ 10763 10752 10751 10750 ] final   33.87 input  -60.55 | X-H torsion
[ 11005 11000 10999 10996 ] final   39.27 input  -57.11 | X-H torsion

> <Gold.Protein.ActiveResidues>
 VAL166  LYS551  ARG553  GLY616  TRP617  ASP618  TYR619  PRO620  LYS621  CYS622 
 ASP623  PHE694  ASN695  SER759  ASP760  ASP761  ALA762  ILE779  LEU786  VAL792 
 PHE793  MET794  SER795  GLU796  ALA797  LYS798  CYS799  TRP800  GLU811  SER814 

> <Gold.Protein.RotatedAtoms>
  152.5370  134.0266  159.8005 H   0  0  0  0  0  0  0  0  0  0  0  0  # atno 6907 bound_to 6896
  151.0444  133.5671  159.2655 H   0  0  0  0  0  0  0  0  0  0  0  0  # atno 6908 bound_to 6896
  151.2628  135.0667  159.9158 H   0  0  0  0  0  0  0  0  0  0  0  0  # atno 6909 bound_to 6896
  146.2230  139.8657  142.8596 H   0  0  0  0  0  0  0  0  0  0  0  0  # atno 7974 bound_to 7965
  155.5434  140.0610  157.2865 H   0  0  0  0  0  0  0  0  0  0  0  0  # atno 8008 bound_to 7997
  154.4444  140.1915  156.0658 H   0  0  0  0  0  0  0  0  0  0  0  0  # atno 8009 bound_to 7997
  156.0568  140.3277  155.7419 H   0  0  0  0  0  0  0  0  0  0  0  0  # atno 8010 bound_to 7997
  140.7285  143.4563  151.0443 H   0  0  0  0  0  0  0  0  0  0  0  0  # atno 10167 bound_to 10162
  157.4647  131.1076  150.9877 H   0  0  0  0  0  0  0  0  0  0  0  0  # atno 10718 bound_to 10713
  153.0191  135.6375  154.1579 H   0  0  0  0  0  0  0  0  0  0  0  0  # atno 10763 bound_to 10752
  154.1315  135.2840  155.3185 H   0  0  0  0  0  0  0  0  0  0  0  0  # atno 10764 bound_to 10752
  154.6191  135.5531  153.7617 H   0  0  0  0  0  0  0  0  0  0  0  0  # atno 10765 bound_to 10752
  140.2045  134.3830  155.8079 H   0  0  0  0  0  0  0  0  0  0  0  0  # atno 11005 bound_to 11000
  145.2659  141.0092  143.3800 LP  0  0  0  0  0  0  0  0  0  0  0  0  # atno 17320 bound_to 7965
  144.9262  139.4353  143.6517 LP  0  0  0  0  0  0  0  0  0  0  0  0  # atno 17321 bound_to 7965
  139.8244  143.7776  152.3178 LP  0  0  0  0  0  0  0  0  0  0  0  0  # atno 17342 bound_to 10162
  139.7870  144.7424  151.0008 LP  0  0  0  0  0  0  0  0  0  0  0  0  # atno 17343 bound_to 10162
  157.0662  130.5845  149.5394 LP  0  0  0  0  0  0  0  0  0  0  0  0  # atno 17370 bound_to 10713
  156.0045  130.5129  150.7780 LP  0  0  0  0  0  0  0  0  0  0  0  0  # atno 17371 bound_to 10713
  141.2227  133.7111  156.8313 LP  0  0  0  0  0  0  0  0  0  0  0  0  # atno 17394 bound_to 11000
  140.2018  134.8891  157.3178 LP  0  0  0  0  0  0  0  0  0  0  0  0  # atno 17395 bound_to 11000

$$$$
