AV-unprocessed.smi:2279|AV-procd|sdf|9187|dock2
  -GOLD-   2272012403D 1   1.00000     0.00000
 Structure written by MMmdl.
 57 59  0  0  0  0  0  0  0  0  2 V2000
  152.2277  145.9758  160.4282 C   0  0  0  0  0  0  0  0  0  0  0  0
  152.1366  144.6002  159.8015 C   0  0  0  0  0  0  0  0  0  0  0  0
  152.8529  143.5122  160.3363 C   0  0  0  0  0  0  0  0  0  0  0  0
  152.7245  142.2584  159.7068 C   0  0  0  0  0  0  0  0  0  0  0  0
  153.4617  141.0441  160.2302 C   0  0  0  0  0  0  0  0  0  0  0  0
  151.9518  142.0560  158.6182 N   0  0  0  0  0  0  0  0  0  0  0  0
  151.2585  143.0968  158.0937 C   0  0  0  0  0  0  0  0  0  0  0  0
  150.4196  142.9899  156.9528 N   0  0  0  0  0  0  0  0  0  0  0  0
  149.8183  141.8914  156.4629 C   0  0  0  0  0  0  0  0  0  0  0  0
  149.9016  140.7593  156.9407 O   0  0  0  0  0  0  0  0  0  0  0  0
  149.1036  142.1789  155.3651 N   0  0  0  0  0  0  0  0  0  0  0  0
  148.3468  141.2103  154.5773 C   0  0  0  0  0  0  0  0  0  0  0  0
  147.0078  140.9129  155.2562 C   0  0  0  0  0  0  0  0  0  0  0  0
  146.2371  139.8142  154.5039 C   0  0  0  0  0  0  0  0  0  0  0  0
  146.9994  138.5551  154.4347 N   0  0  0  0  0  0  0  0  0  0  0  0
  146.2234  137.4821  153.7713 C   0  0  2  0  0  0  0  0  0  0  0  0
  146.8530  136.0827  154.0138 C   0  0  0  0  0  0  0  0  0  0  0  0
  146.1449  134.9660  153.2304 C   0  0  0  0  0  0  0  0  0  0  0  0
  146.1339  135.2580  151.7803 N   0  3  1  0  0  0  0  0  0  0  0  0
  145.5853  134.1404  150.9827 C   0  0  0  0  0  0  0  0  0  0  0  0
  145.4528  136.5409  151.5005 C   0  0  0  0  0  0  0  0  0  0  0  0
  146.1385  137.7035  152.2357 C   0  0  0  0  0  0  0  0  0  0  0  0
  148.2596  138.8278  153.7212 C   0  0  0  0  0  0  0  0  0  0  0  0
  149.1121  139.8895  154.4373 C   0  0  0  0  0  0  0  0  0  0  0  0
  151.3287  144.3866  158.6666 C   0  0  0  0  0  0  0  0  0  0  0  0
  152.8746  145.9704  161.3058 H   0  0  0  0  0  0  0  0  0  0  0  0
  151.2391  146.3175  160.7355 H   0  0  0  0  0  0  0  0  0  0  0  0
  152.6314  146.6913  159.7115 H   0  0  0  0  0  0  0  0  0  0  0  0
  153.4832  143.6351  161.2052 H   0  0  0  0  0  0  0  0  0  0  0  0
  154.0471  141.2878  161.1172 H   0  0  0  0  0  0  0  0  0  0  0  0
  154.1403  140.6559  159.4703 H   0  0  0  0  0  0  0  0  0  0  0  0
  152.7548  140.2570  160.4947 H   0  0  0  0  0  0  0  0  0  0  0  0
  150.2657  143.8488  156.4461 H   0  0  0  0  0  0  0  0  0  0  0  0
  149.0876  143.1362  155.0450 H   0  0  0  0  0  0  0  0  0  0  0  0
  148.1511  141.6230  153.5856 H   0  0  0  0  0  0  0  0  0  0  0  0
  147.1705  140.5990  156.2886 H   0  0  0  0  0  0  0  0  0  0  0  0
  146.4037  141.8199  155.3005 H   0  0  0  0  0  0  0  0  0  0  0  0
  145.3040  139.6793  155.0453 H   0  0  0  0  0  0  0  0  0  0  0  0
  145.9801  140.1514  153.4984 H   0  0  0  0  0  0  0  0  0  0  0  0
  145.2112  137.4823  154.1795 H   0  0  0  0  0  0  0  0  0  0  0  0
  147.9104  136.0999  153.7445 H   0  0  0  0  0  0  0  0  0  0  0  0
  146.7998  135.7980  155.0631 H   0  0  0  0  0  0  0  0  0  0  0  0
  146.6555  134.0187  153.4083 H   0  0  0  0  0  0  0  0  0  0  0  0
  145.1211  134.8463  153.5893 H   0  0  0  0  0  0  0  0  0  0  0  0
  144.5402  133.9552  151.2351 H   0  0  0  0  0  0  0  0  0  0  0  0
  146.1492  133.2249  151.1640 H   0  0  0  0  0  0  0  0  0  0  0  0
  145.6462  134.3620  149.9167 H   0  0  0  0  0  0  0  0  0  0  0  0
  145.4653  136.7337  150.4271 H   0  0  0  0  0  0  0  0  0  0  0  0
  144.4050  136.4736  151.7984 H   0  0  0  0  0  0  0  0  0  0  0  0
  145.5655  138.5964  151.9922 H   0  0  0  0  0  0  0  0  0  0  0  0
  147.1393  137.8506  151.8267 H   0  0  0  0  0  0  0  0  0  0  0  0
  148.8793  137.9364  153.6642 H   0  0  0  0  0  0  0  0  0  0  0  0
  148.0496  139.1394  152.6967 H   0  0  0  0  0  0  0  0  0  0  0  0
  150.0366  140.0487  153.8810 H   0  0  0  0  0  0  0  0  0  0  0  0
  149.4037  139.5181  155.4210 H   0  0  0  0  0  0  0  0  0  0  0  0
  150.7704  145.2077  158.2401 H   0  0  0  0  0  0  0  0  0  0  0  0
  147.0972  135.3702  151.4972 H   0  0  0  0  0  0  0  0  0  0  0  0
  1  2  1  0  0  0  0
  1 26  1  0  0  0  0
  1 27  1  0  0  0  0
  1 28  1  0  0  0  0
  2 25  1  0  0  0  0
  2  3  2  0  0  0  0
  3  4  1  0  0  0  0
  3 29  1  0  0  0  0
  4  5  1  0  0  0  0
  4  6  2  0  0  0  0
  5 30  1  0  0  0  0
  5 31  1  0  0  0  0
  5 32  1  0  0  0  0
  6  7  1  0  0  0  0
  7  8  1  0  0  0  0
  7 25  2  0  0  0  0
  8  9  1  0  0  0  0
  8 33  1  0  0  0  0
  9 10  2  0  0  0  0
  9 11  1  0  0  0  0
 11 12  1  0  0  0  0
 11 34  1  0  0  0  0
 12 24  1  0  0  0  0
 12 13  1  0  0  0  0
 12 35  1  0  0  0  0
 13 14  1  0  0  0  0
 13 36  1  0  0  0  0
 13 37  1  0  0  0  0
 14 15  1  0  0  0  0
 14 38  1  0  0  0  0
 14 39  1  0  0  0  0
 15 16  1  0  0  0  0
 15 23  1  0  0  0  0
 16 22  1  0  0  0  0
 16 17  1  0  0  0  0
 16 40  1  0  0  0  0
 17 18  1  0  0  0  0
 17 41  1  0  0  0  0
 17 42  1  0  0  0  0
 18 19  1  0  0  0  0
 18 43  1  0  0  0  0
 18 44  1  0  0  0  0
 19 20  1  0  0  0  0
 19 21  1  0  0  0  0
 19 57  1  0  0  0  0
 20 45  1  0  0  0  0
 20 46  1  0  0  0  0
 20 47  1  0  0  0  0
 21 22  1  0  0  0  0
 21 48  1  0  0  0  0
 21 49  1  0  0  0  0
 22 50  1  0  0  0  0
 22 51  1  0  0  0  0
 23 24  1  0  0  0  0
 23 52  1  0  0  0  0
 23 53  1  0  0  0  0
 24 54  1  0  0  0  0
 24 55  1  0  0  0  0
 25 56  1  0  0  0  0
M  CHG  1  19   1
M  END
> <s_m_source_file>
AV-unprocessed.smi

> <i_m_source_file_index>
2279

> <i_lp_mmshare_version>
43012

> <i_f3d_flags>
0

> <s_epik_input>
W0NIM11jMVtjSF1jKFtDSDNdKW5jKFtjSF0xKVtOSF1DKD1PKVtOSF1bQ0hdMltDSDJdW0NIMl1OKFtDSDJdW0NIMl0yKVtDSF0zW0NIMl1bQ0gyXU4oW0NIM10pW0NIMl1bQ0gyXTM=

> <s_epik_cmdline>
J2VwaWtfcHl0aG9uJywgJy1waCcsICc3LjAnLCAnLXRuJywgJzgnLCAnLW1hJywgJzIwMCcsICctbWV0YWxfYmluZGluZycsICctaW1hZScsICc8aW5maWxlLm1hZT4nLCAnLW9tYWUnLCAnPG91dGZpbGUubWFlPic=

> <r_epik_Ionization_Penalty>
1.01001

> <r_epik_Ionization_Penalty_Charging>
0.000974969

> <r_epik_Ionization_Penalty_Neutral>
1.00904

> <r_epik_State_Penalty>
1.10286

> <r_epik_Charging_Adjusted_Penalty>
1.10383

> <i_epik_Tot_Q>
1

> <i_epik_Tot_abs_Q>
1

> <r_epik_Metal_State_Penalty>
1.10279

> <b_epik_Metal_Only>
0

> <s_lp_Force_Field>
OPLS_2005

> <r_lp_Energy>
34.0365

> <b_lp_Chiralities_Consistent>
1

> <s_lp_Variant>
AV-unprocessed.smi:2279-5

> <Gold.Version>
5.8.1

> <Gold.Id.Protein>
6NUR|6NUR_protein|mol2

> <Gold.PLP.Fitness>
51.9013

> <Gold.PLP.PLP>
-42.3743

> <Gold.PLP.part.hbond>
-3.0000

> <Gold.PLP.part.metal>
0.0000

> <Gold.PLP.part.buried>
-2.1654

> <Gold.PLP.part.nonpolar>
-38.0043

> <Gold.PLP.part.repulsive>
0.3755

> <Gold.PLP.ligand.clash>
0.0000

> <Gold.PLP.ligand.torsion>
0.5889

> <Gold.PLP.Chemscore.Hbond>
3.5680

> <Gold.PLP.Chemscore.CHOScore>
0.0000

> <Gold.PLP.Chemscore.Metal>
0.0000

> <Gold.Chemscore.Hbonds>
donor molecule, donor type, donor heavy atom, donor atom, acceptor molecule, acceptor atom, score
      L1  H     8    33       P1  8028  0.78
      L1  H    11    34       P1  8028  0.82
      L1  H    19    57       P1  7948  1.97

> <Gold.PLP.Chemscore.Internal.Correction>
0.0007

> <Gold.Rescore>
     Score         DG    S(hbond)    S(metal)    S(lipo)     H(rot)  DE(clash)    DE(int)     intcor
     20.55     -25.08       2.68        0.00     117.06       1.20       1.14       3.38       ----

> <Gold.Chemscore.Fitness>
20.5504

> <Gold.Chemscore.DG>
-25.0757

> <Gold.Chemscore.ZeroCoef>
-5.4800

> <Gold.Chemscore.Hbond>
2.6846

> <Gold.Chemscore.Metal>
0.0000

> <Gold.Chemscore.Lipo>
117.0642

> <Gold.Chemscore.Internal_Hbond>
0.0000

> <Gold.Chemscore.DEClash>
1.1413

> <Gold.Chemscore.DEInternal>
3.3840

> <Gold.Chemscore.Rot>
1.1981

> <Gold.Chemscore.Internal.Correction>
   9.000000E+99

> <Gold.Chemscore.Hbonds>
donor molecule, donor type, donor heavy atom, donor atom, acceptor molecule, acceptor atom, score
      L1  H     8    33       P1  8028  0.78
      L1  H    11    34       P1  8028  0.81
      L1  H    19    57       P1  7948  0.84

> <Gold.Chemscore.Hbond.Weighted>
-8.9664

> <Gold.Chemscore.Metal.Weighted>
-0.0000

> <Gold.Chemscore.Lipo.Weighted>
-13.6965

> <Gold.Chemscore.Internal_Hbond.Weighted>
0.0000

> <Gold.Chemscore.DEClash.Weighted>
1.1413

> <Gold.Chemscore.DEInternal.Weighted>
3.3840

> <Gold.Chemscore.Rot.Weighted>
3.0673

> <Gold.Chemscore.Internal.Correction.Weighted>
   9.000000E+99

> <Gold.Protein.RotatedTorsions>
[ 6907 6896 6895 6894 ] final  119.25 input  -60.11 | X-H torsion
[ 7974 7965 7964 7962 ] final  -43.99 input  175.53 | X-H torsion
[ 8008 7997 7996 7995 ] final  148.15 input   59.86 | X-H torsion
[ 10167 10162 10161 10158 ] final  158.54 input  -65.29 | X-H torsion
[ 10718 10713 10712 10709 ] final  143.63 input   66.30 | X-H torsion
[ 10763 10752 10751 10750 ] final   71.65 input  -60.55 | X-H torsion
[ 11005 11000 10999 10996 ] final -151.84 input  -57.11 | X-H torsion

> <Gold.Protein.ActiveResidues>
 VAL166  LYS551  ARG553  GLY616  TRP617  ASP618  TYR619  PRO620  LYS621  CYS622 
 ASP623  PHE694  ASN695  SER759  ASP760  ASP761  ALA762  ILE779  LEU786  VAL792 
 PHE793  MET794  SER795  GLU796  ALA797  LYS798  CYS799  TRP800  GLU811  SER814 

> <Gold.Protein.RotatedAtoms>
  152.4485  133.7583  159.6732 H   0  0  0  0  0  0  0  0  0  0  0  0  # atno 6907 bound_to 6896
  150.8391  133.7955  159.3074 H   0  0  0  0  0  0  0  0  0  0  0  0  # atno 6908 bound_to 6896
  151.5585  135.1068  160.0019 H   0  0  0  0  0  0  0  0  0  0  0  0  # atno 6909 bound_to 6896
  145.9965  140.7123  142.9291 H   0  0  0  0  0  0  0  0  0  0  0  0  # atno 7974 bound_to 7965
  156.2801  140.2136  156.5653 H   0  0  0  0  0  0  0  0  0  0  0  0  # atno 8008 bound_to 7997
  154.7180  140.0506  157.0636 H   0  0  0  0  0  0  0  0  0  0  0  0  # atno 8009 bound_to 7997
  155.0516  140.3157  155.4693 H   0  0  0  0  0  0  0  0  0  0  0  0  # atno 8010 bound_to 7997
  139.4827  144.4815  151.8438 H   0  0  0  0  0  0  0  0  0  0  0  0  # atno 10167 bound_to 10162
  157.3667  131.0973  151.0865 H   0  0  0  0  0  0  0  0  0  0  0  0  # atno 10718 bound_to 10713
  153.0411  135.5129  154.7625 H   0  0  0  0  0  0  0  0  0  0  0  0  # atno 10763 bound_to 10752
  154.6562  135.2932  154.9927 H   0  0  0  0  0  0  0  0  0  0  0  0  # atno 10764 bound_to 10752
  154.0794  135.6666  153.4888 H   0  0  0  0  0  0  0  0  0  0  0  0  # atno 10765 bound_to 10752
  140.7252  134.3682  157.5176 H   0  0  0  0  0  0  0  0  0  0  0  0  # atno 11005 bound_to 11000
  144.6905  140.3159  143.7240 LP  0  0  0  0  0  0  0  0  0  0  0  0  # atno 17320 bound_to 7965
  145.7552  139.1806  143.2298 LP  0  0  0  0  0  0  0  0  0  0  0  0  # atno 17321 bound_to 7965
  140.4291  144.2140  150.5887 LP  0  0  0  0  0  0  0  0  0  0  0  0  # atno 17342 bound_to 10162
  140.4797  143.2383  151.8972 LP  0  0  0  0  0  0  0  0  0  0  0  0  # atno 17343 bound_to 10162
  157.1985  130.6384  149.5730 LP  0  0  0  0  0  0  0  0  0  0  0  0  # atno 17370 bound_to 10713
  155.9747  130.4699  150.6410 LP  0  0  0  0  0  0  0  0  0  0  0  0  # atno 17371 bound_to 10713
  139.8839  134.8982  156.2739 LP  0  0  0  0  0  0  0  0  0  0  0  0  # atno 17394 bound_to 11000
  140.9969  133.7175  156.0899 LP  0  0  0  0  0  0  0  0  0  0  0  0  # atno 17395 bound_to 11000

$$$$
