AV-unprocessed.smi:698|AV-procd|sdf|3397|dock8
  -GOLD-   22720 0383D 1   1.00000     0.00000
 Structure written by MMmdl.
 33 34  0  0  0  0  0  0  0  0  1 V2000
  154.6028  140.6192  161.7595 C   0  0  0  0  0  0  0  0  0  0  0  0
  153.6847  141.2511  160.7106 C   0  0  0  0  0  0  0  0  0  0  0  0
  153.3655  142.5778  161.1199 O   0  0  0  0  0  0  0  0  0  0  0  0
  152.5258  143.3275  160.3217 C   0  0  0  0  0  0  0  0  0  0  0  0
  152.1988  144.6360  160.7249 C   0  0  0  0  0  0  0  0  0  0  0  0
  151.3427  145.3957  159.9081 C   0  0  0  0  0  0  0  0  0  0  0  0
  150.8463  144.8202  158.7229 C   0  0  0  0  0  0  0  0  0  0  0  0
  151.2182  143.5005  158.3842 C   0  0  0  0  0  0  0  0  0  0  0  0
  150.6655  143.0082  157.1728 N   0  0  0  0  0  0  0  0  0  0  0  0
  150.8321  141.7960  156.6093 C   0  0  0  0  0  0  0  0  0  0  0  0
  151.5091  140.8895  157.0957 O   0  0  0  0  0  0  0  0  0  0  0  0
  150.0990  141.5556  155.2827 C   0  0  2  0  0  0  0  0  0  0  0  0
  148.5798  141.4494  155.4210 C   0  0  0  0  0  0  0  0  0  0  0  0
  148.2166  140.6873  154.1655 C   0  0  0  0  0  0  0  0  0  0  0  0
  149.3958  139.7292  154.0020 C   0  0  0  0  0  0  0  0  0  0  0  0
  150.4888  140.3078  154.7118 O   0  0  0  0  0  0  0  0  0  0  0  0
  152.0451  142.7785  159.1795 N   0  0  0  0  0  0  0  0  0  0  0  0
  154.8650  139.5980  161.4824 H   0  0  0  0  0  0  0  0  0  0  0  0
  154.1174  140.5868  162.7352 H   0  0  0  0  0  0  0  0  0  0  0  0
  155.5281  141.1863  161.8626 H   0  0  0  0  0  0  0  0  0  0  0  0
  154.1881  141.2619  159.7426 H   0  0  0  0  0  0  0  0  0  0  0  0
  152.7772  140.6530  160.6126 H   0  0  0  0  0  0  0  0  0  0  0  0
  152.5967  145.0474  161.6406 H   0  0  0  0  0  0  0  0  0  0  0  0
  151.0706  146.4034  160.1853 H   0  0  0  0  0  0  0  0  0  0  0  0
  150.1874  145.3900  158.0836 H   0  0  0  0  0  0  0  0  0  0  0  0
  150.0817  143.6557  156.6633 H   0  0  0  0  0  0  0  0  0  0  0  0
  150.3536  142.3507  154.5799 H   0  0  0  0  0  0  0  0  0  0  0  0
  148.3039  140.8728  156.3057 H   0  0  0  0  0  0  0  0  0  0  0  0
  148.0893  142.4218  155.4769 H   0  0  0  0  0  0  0  0  0  0  0  0
  147.2570  140.1744  154.2373 H   0  0  0  0  0  0  0  0  0  0  0  0
  148.1728  141.3724  153.3177 H   0  0  0  0  0  0  0  0  0  0  0  0
  149.1704  138.7597  154.4471 H   0  0  0  0  0  0  0  0  0  0  0  0
  149.6477  139.5692  152.9534 H   0  0  0  0  0  0  0  0  0  0  0  0
  1  2  1  0  0  0  0
  1 18  1  0  0  0  0
  1 19  1  0  0  0  0
  1 20  1  0  0  0  0
  2  3  1  0  0  0  0
  2 21  1  0  0  0  0
  2 22  1  0  0  0  0
  3  4  1  0  0  0  0
  4 17  1  0  0  0  0
  4  5  2  0  0  0  0
  5  6  1  0  0  0  0
  5 23  1  0  0  0  0
  6  7  2  0  0  0  0
  6 24  1  0  0  0  0
  7  8  1  0  0  0  0
  7 25  1  0  0  0  0
  8  9  1  0  0  0  0
  8 17  2  0  0  0  0
  9 10  1  0  0  0  0
  9 26  1  0  0  0  0
 10 11  2  0  0  0  0
 10 12  1  0  0  0  0
 12 16  1  0  0  0  0
 12 13  1  0  0  0  0
 12 27  1  0  0  0  0
 13 14  1  0  0  0  0
 13 28  1  0  0  0  0
 13 29  1  0  0  0  0
 14 15  1  0  0  0  0
 14 30  1  0  0  0  0
 14 31  1  0  0  0  0
 15 16  1  0  0  0  0
 15 32  1  0  0  0  0
 15 33  1  0  0  0  0
M  END
> <s_m_source_file>
AV-unprocessed.smi

> <i_m_source_file_index>
698

> <i_lp_mmshare_version>
43012

> <i_f3d_flags>
0

> <s_epik_input>
W0NIM11bQ0gyXU9jMVtjSF1bY0hdW2NIXWMobjEpW05IXUMoPU8pW0NAQEhdMltDSDJdW0NIMl1bQ0gyXU8y

> <s_epik_cmdline>
J2VwaWtfcHl0aG9uJywgJy1waCcsICc3LjAnLCAnLXRuJywgJzgnLCAnLW1hJywgJzIwMCcsICctbWV0YWxfYmluZGluZycsICctaW1hZScsICc8aW5maWxlLm1hZT4nLCAnLW9tYWUnLCAnPG91dGZpbGUubWFlPic=

> <r_lp_tautomer_probability>
1

> <r_epik_Ionization_Penalty>
3.42089e-05

> <r_epik_Ionization_Penalty_Charging>
0

> <r_epik_Ionization_Penalty_Neutral>
3.42089e-05

> <r_epik_State_Penalty>
-0

> <r_epik_Charging_Adjusted_Penalty>
0

> <i_epik_Tot_Q>
0

> <i_epik_Tot_abs_Q>
0

> <r_epik_Metal_State_Penalty>
-0

> <b_epik_Metal_Only>
0

> <s_lp_Force_Field>
OPLS_2005

> <r_lp_Energy>
21.1038

> <b_lp_Chiralities_Consistent>
1

> <s_lp_Variant>
AV-unprocessed.smi:698-1

> <Gold.Version>
5.8.1

> <Gold.Id.Protein>
6NUR|6NUR_protein|mol2

> <Gold.PLP.Fitness>
44.1014

> <Gold.PLP.PLP>
-38.4149

> <Gold.PLP.part.hbond>
-2.0000

> <Gold.PLP.part.metal>
0.0000

> <Gold.PLP.part.buried>
-3.6454

> <Gold.PLP.part.nonpolar>
-31.7609

> <Gold.PLP.part.repulsive>
0.1083

> <Gold.PLP.ligand.clash>
0.0000

> <Gold.PLP.ligand.torsion>
0.1630

> <Gold.PLP.Chemscore.Hbond>
2.0000

> <Gold.PLP.Chemscore.CHOScore>
0.0000

> <Gold.PLP.Chemscore.Metal>
0.0000

> <Gold.Chemscore.Hbonds>
donor molecule, donor type, donor heavy atom, donor atom, acceptor molecule, acceptor atom, score
      L1  H     9    26       P1  8028  1.00
      P1  H  7989  7998       L1    16  1.00

> <Gold.PLP.Chemscore.Internal.Correction>
0.0125

> <Gold.Rescore>
     Score         DG    S(hbond)    S(metal)    S(lipo)     H(rot)  DE(clash)    DE(int)     intcor
     13.59     -16.73       1.61        0.00      81.25       1.42       1.67       1.48       ----

> <Gold.Chemscore.Fitness>
13.5896

> <Gold.Chemscore.DG>
-16.7326

> <Gold.Chemscore.ZeroCoef>
-5.4800

> <Gold.Chemscore.Hbond>
1.6101

> <Gold.Chemscore.Metal>
0.0000

> <Gold.Chemscore.Lipo>
81.2504

> <Gold.Chemscore.Internal_Hbond>
0.0000

> <Gold.Chemscore.DEClash>
1.6655

> <Gold.Chemscore.DEInternal>
1.4774

> <Gold.Chemscore.Rot>
1.4185

> <Gold.Chemscore.Internal.Correction>
   9.000000E+99

> <Gold.Chemscore.Hbonds>
donor molecule, donor type, donor heavy atom, donor atom, acceptor molecule, acceptor atom, score
      L1  H     9    26       P1  8028  1.00
      P1  H  7989  7998       L1    16  0.14

> <Gold.Chemscore.Hbond.Weighted>
-5.3776

> <Gold.Chemscore.Metal.Weighted>
-0.0000

> <Gold.Chemscore.Lipo.Weighted>
-9.5063

> <Gold.Chemscore.Internal_Hbond.Weighted>
0.0000

> <Gold.Chemscore.DEClash.Weighted>
1.6655

> <Gold.Chemscore.DEInternal.Weighted>
1.4774

> <Gold.Chemscore.Rot.Weighted>
3.6313

> <Gold.Chemscore.Internal.Correction.Weighted>
   9.000000E+99

> <Gold.Protein.RotatedTorsions>
[ 6907 6896 6895 6894 ] final    8.30 input  -60.11 | X-H torsion
[ 7974 7965 7964 7962 ] final -109.43 input  175.53 | X-H torsion
[ 8008 7997 7996 7995 ] final  -18.41 input   59.86 | X-H torsion
[ 10167 10162 10161 10158 ] final -161.79 input  -65.29 | X-H torsion
[ 10718 10713 10712 10709 ] final  -50.99 input   66.30 | X-H torsion
[ 10763 10752 10751 10750 ] final   87.82 input  -60.55 | X-H torsion
[ 11005 11000 10999 10996 ] final  -24.91 input  -57.11 | X-H torsion

> <Gold.Protein.ActiveResidues>
 VAL166  LYS551  ARG553  GLY616  TRP617  ASP618  TYR619  PRO620  LYS621  CYS622 
 ASP623  PHE694  ASN695  SER759  ASP760  ASP761  ALA762  ILE779  LEU786  VAL792 
 PHE793  MET794  SER795  GLU796  ALA797  LYS798  CYS799  TRP800  GLU811  SER814 

> <Gold.Protein.RotatedAtoms>
  151.7039  135.0925  160.0255 H   0  0  0  0  0  0  0  0  0  0  0  0  # atno 6907 bound_to 6896
  152.3704  133.6406  159.6091 H   0  0  0  0  0  0  0  0  0  0  0  0  # atno 6908 bound_to 6896
  150.7669  133.9196  159.3435 H   0  0  0  0  0  0  0  0  0  0  0  0  # atno 6909 bound_to 6896
  145.1806  140.8969  143.3482 H   0  0  0  0  0  0  0  0  0  0  0  0  # atno 7974 bound_to 7965
  154.4908  140.2116  155.9553 H   0  0  0  0  0  0  0  0  0  0  0  0  # atno 8008 bound_to 7997
  156.1302  140.3198  155.8307 H   0  0  0  0  0  0  0  0  0  0  0  0  # atno 8009 bound_to 7997
  155.4309  140.0503  157.3009 H   0  0  0  0  0  0  0  0  0  0  0  0  # atno 8010 bound_to 7997
  139.6439  144.0208  152.2113 H   0  0  0  0  0  0  0  0  0  0  0  0  # atno 10167 bound_to 10162
  156.1751  130.4150  149.9589 H   0  0  0  0  0  0  0  0  0  0  0  0  # atno 10718 bound_to 10713
  153.1706  135.4529  154.9897 H   0  0  0  0  0  0  0  0  0  0  0  0  # atno 10763 bound_to 10752
  154.7963  135.3239  154.7661 H   0  0  0  0  0  0  0  0  0  0  0  0  # atno 10764 bound_to 10752
  153.8137  135.6952  153.4892 H   0  0  0  0  0  0  0  0  0  0  0  0  # atno 10765 bound_to 10752
  140.8889  133.7602  156.0395 H   0  0  0  0  0  0  0  0  0  0  0  0  # atno 11005 bound_to 11000
  145.0140  139.3484  143.6106 LP  0  0  0  0  0  0  0  0  0  0  0  0  # atno 17320 bound_to 7965
  146.3453  139.9413  142.8740 LP  0  0  0  0  0  0  0  0  0  0  0  0  # atno 17321 bound_to 7965
  139.9905  144.6365  150.7819 LP  0  0  0  0  0  0  0  0  0  0  0  0  # atno 17342 bound_to 10162
  140.7505  143.2956  151.3214 LP  0  0  0  0  0  0  0  0  0  0  0  0  # atno 17343 bound_to 10162
  156.7378  130.9068  151.3630 LP  0  0  0  0  0  0  0  0  0  0  0  0  # atno 17370 bound_to 10713
  157.6830  130.9158  150.0314 LP  0  0  0  0  0  0  0  0  0  0  0  0  # atno 17371 bound_to 10713
  140.8371  134.3110  157.5327 LP  0  0  0  0  0  0  0  0  0  0  0  0  # atno 17394 bound_to 11000
  139.8727  134.9396  156.3745 LP  0  0  0  0  0  0  0  0  0  0  0  0  # atno 17395 bound_to 11000

$$$$
