AV-unprocessed.smi:885|AV-procd|sdf|4044|dock3
  -GOLD-   22720 1533D 1   1.00000     0.00000
 Structure written by MMmdl.
 40 42  0  0  0  0  0  0  0  0  2 V2000
  151.5557  144.5838  160.2093 C   0  0  0  0  0  0  0  0  0  0  0  0
  152.3574  143.5643  161.0377 C   0  0  0  0  0  0  0  0  0  0  0  0
  152.8432  142.3055  160.2972 C   0  0  0  0  0  0  0  0  0  0  0  0
  151.8509  141.7080  159.2852 C   0  0  0  0  0  0  0  0  0  0  0  0
  151.9465  142.3447  157.8812 C   0  0  0  0  0  0  0  0  0  0  0  0
  151.3065  141.4655  156.8486 C   0  0  0  0  0  0  0  0  0  0  0  0
  152.0351  140.6885  156.0553 N   0  0  0  0  0  0  0  0  0  0  0  0
  151.0764  140.0389  155.2651 O   0  0  0  0  0  0  0  0  0  0  0  0
  149.8761  140.5238  155.6658 C   0  0  0  0  0  0  0  0  0  0  0  0
  148.6259  139.9793  155.0534 C   0  0  2  0  0  0  0  0  0  0  0  0
  148.9042  138.8037  154.0980 C   0  0  0  0  0  0  0  0  0  0  0  0
  147.6478  138.3656  153.4590 N   0  3  0  0  0  0  0  0  0  0  0  0
  146.9634  139.4875  152.7859 C   0  0  0  0  0  0  0  0  0  0  0  0
  146.7546  140.6509  153.7718 C   0  0  0  0  0  0  0  0  0  0  0  0
  148.0057  141.0400  154.3308 O   0  0  0  0  0  0  0  0  0  0  0  0
  149.9579  141.4014  156.6620 N   0  0  0  0  0  0  0  0  0  0  0  0
  151.4154  143.7885  157.7780 C   0  0  0  0  0  0  0  0  0  0  0  0
  152.0426  144.7881  158.7656 C   0  0  0  0  0  0  0  0  0  0  0  0
  151.5883  145.5394  160.7337 H   0  0  0  0  0  0  0  0  0  0  0  0
  150.5027  144.2994  160.1995 H   0  0  0  0  0  0  0  0  0  0  0  0
  153.2294  144.0602  161.4657 H   0  0  0  0  0  0  0  0  0  0  0  0
  151.7460  143.2645  161.8895 H   0  0  0  0  0  0  0  0  0  0  0  0
  153.7901  142.5160  159.7990 H   0  0  0  0  0  0  0  0  0  0  0  0
  153.0796  141.5497  161.0471 H   0  0  0  0  0  0  0  0  0  0  0  0
  152.0990  140.6500  159.1874 H   0  0  0  0  0  0  0  0  0  0  0  0
  150.8294  141.7386  159.6666 H   0  0  0  0  0  0  0  0  0  0  0  0
  153.0076  142.3898  157.6298 H   0  0  0  0  0  0  0  0  0  0  0  0
  147.9651  139.6585  155.8610 H   0  0  0  0  0  0  0  0  0  0  0  0
  149.6123  139.1019  153.3234 H   0  0  0  0  0  0  0  0  0  0  0  0
  149.3481  137.9655  154.6356 H   0  0  0  0  0  0  0  0  0  0  0  0
  147.8480  137.6406  152.7846 H   0  0  0  0  0  0  0  0  0  0  0  0
  147.5642  139.8166  151.9370 H   0  0  0  0  0  0  0  0  0  0  0  0
  146.0082  139.1426  152.3894 H   0  0  0  0  0  0  0  0  0  0  0  0
  146.3160  141.5061  153.2573 H   0  0  0  0  0  0  0  0  0  0  0  0
  146.0620  140.3684  154.5662 H   0  0  0  0  0  0  0  0  0  0  0  0
  151.6021  144.1493  156.7655 H   0  0  0  0  0  0  0  0  0  0  0  0
  150.3312  143.7966  157.8970 H   0  0  0  0  0  0  0  0  0  0  0  0
  151.7465  145.7896  158.4515 H   0  0  0  0  0  0  0  0  0  0  0  0
  153.1318  144.7696  158.7104 H   0  0  0  0  0  0  0  0  0  0  0  0
  147.0356  137.9925  154.1706 H   0  0  0  0  0  0  0  0  0  0  0  0
  1 18  1  0  0  0  0
  1  2  1  0  0  0  0
  1 19  1  0  0  0  0
  1 20  1  0  0  0  0
  2  3  1  0  0  0  0
  2 21  1  0  0  0  0
  2 22  1  0  0  0  0
  3  4  1  0  0  0  0
  3 23  1  0  0  0  0
  3 24  1  0  0  0  0
  4  5  1  0  0  0  0
  4 25  1  0  0  0  0
  4 26  1  0  0  0  0
  5  6  1  0  0  0  0
  5 17  1  0  0  0  0
  5 27  1  0  0  0  0
  6 16  1  0  0  0  0
  6  7  2  0  0  0  0
  7  8  1  0  0  0  0
  8  9  1  0  0  0  0
  9 10  1  0  0  0  0
  9 16  2  0  0  0  0
 10 15  1  0  0  0  0
 10 11  1  0  0  0  0
 10 28  1  0  0  0  0
 11 12  1  0  0  0  0
 11 29  1  0  0  0  0
 11 30  1  0  0  0  0
 12 13  1  0  0  0  0
 12 31  1  0  0  0  0
 12 40  1  0  0  0  0
 13 14  1  0  0  0  0
 13 32  1  0  0  0  0
 13 33  1  0  0  0  0
 14 15  1  0  0  0  0
 14 34  1  0  0  0  0
 14 35  1  0  0  0  0
 17 18  1  0  0  0  0
 17 36  1  0  0  0  0
 17 37  1  0  0  0  0
 18 38  1  0  0  0  0
 18 39  1  0  0  0  0
M  CHG  1  12   1
M  END
> <s_m_source_file>
AV-unprocessed.smi

> <i_m_source_file_index>
885

> <i_lp_mmshare_version>
43012

> <i_f3d_flags>
0

> <s_epik_input>
W0NIMl0xW0NIMl1bQ0gyXVtDSDJdW0NIMl1bQ0gyXVtDSF0xYzJub2MobjIpW0NAQEhdM1tDSDJdW05IXVtDSDJdW0NIMl1PMw==

> <s_epik_cmdline>
J2VwaWtfcHl0aG9uJywgJy1waCcsICc3LjAnLCAnLXRuJywgJzgnLCAnLW1hJywgJzIwMCcsICctbWV0YWxfYmluZGluZycsICctaW1hZScsICc8aW5maWxlLm1hZT4nLCAnLW9tYWUnLCAnPG91dGZpbGUubWFlPic=

> <r_lp_tautomer_probability>
1

> <r_epik_Ionization_Penalty>
0.157575

> <r_epik_Ionization_Penalty_Charging>
0.157575

> <r_epik_Ionization_Penalty_Neutral>
1.7642e-13

> <r_epik_State_Penalty>
0.146877

> <r_epik_Charging_Adjusted_Penalty>
0.304452

> <i_epik_Tot_Q>
1

> <i_epik_Tot_abs_Q>
1

> <r_epik_Metal_State_Penalty>
0.146877

> <b_epik_Metal_Only>
0

> <s_lp_Force_Field>
OPLS_2005

> <r_lp_Energy>
20.1988

> <b_lp_Chiralities_Consistent>
1

> <s_lp_Variant>
AV-unprocessed.smi:885-1

> <Gold.Version>
5.8.1

> <Gold.Id.Protein>
6NUR|6NUR_protein|mol2

> <Gold.PLP.Fitness>
45.7882

> <Gold.PLP.PLP>
-36.4401

> <Gold.PLP.part.hbond>
-3.9847

> <Gold.PLP.part.metal>
0.0000

> <Gold.PLP.part.buried>
0.9429

> <Gold.PLP.part.nonpolar>
-33.3071

> <Gold.PLP.part.repulsive>
0.3183

> <Gold.PLP.ligand.clash>
0.0000

> <Gold.PLP.ligand.torsion>
0.4730

> <Gold.PLP.Chemscore.Hbond>
3.3936

> <Gold.PLP.Chemscore.CHOScore>
0.0000

> <Gold.PLP.Chemscore.Metal>
0.0000

> <Gold.Chemscore.Hbonds>
donor molecule, donor type, donor heavy atom, donor atom, acceptor molecule, acceptor atom, score
      L1  H    12    31       P1  7948  2.00
      P1  H  7989  7998       L1     8  0.80
      P1  H  7997  8010       L1     7  0.13

> <Gold.PLP.Chemscore.Internal.Correction>
0.1132

> <Gold.Rescore>
     Score         DG    S(hbond)    S(metal)    S(lipo)     H(rot)  DE(clash)    DE(int)     intcor
     18.95     -20.01       1.84        0.00      98.48       1.23       0.09       0.97       ----

> <Gold.Chemscore.Fitness>
18.9506

> <Gold.Chemscore.DG>
-20.0053

> <Gold.Chemscore.ZeroCoef>
-5.4800

> <Gold.Chemscore.Hbond>
1.8412

> <Gold.Chemscore.Metal>
0.0000

> <Gold.Chemscore.Lipo>
98.4804

> <Gold.Chemscore.Internal_Hbond>
0.0000

> <Gold.Chemscore.DEClash>
0.0862

> <Gold.Chemscore.DEInternal>
0.9685

> <Gold.Chemscore.Rot>
1.2292

> <Gold.Chemscore.Internal.Correction>
   9.000000E+99

> <Gold.Chemscore.Hbonds>
donor molecule, donor type, donor heavy atom, donor atom, acceptor molecule, acceptor atom, score
      L1  H    12    31       P1  7948  0.95
      P1  H  7989  7998       L1     8  0.09
      P1  H  7997  8010       L1     7  0.15

> <Gold.Chemscore.Hbond.Weighted>
-6.1497

> <Gold.Chemscore.Metal.Weighted>
-0.0000

> <Gold.Chemscore.Lipo.Weighted>
-11.5222

> <Gold.Chemscore.Internal_Hbond.Weighted>
0.0000

> <Gold.Chemscore.DEClash.Weighted>
0.0862

> <Gold.Chemscore.DEInternal.Weighted>
0.9685

> <Gold.Chemscore.Rot.Weighted>
3.1467

> <Gold.Chemscore.Internal.Correction.Weighted>
   9.000000E+99

> <Gold.Protein.RotatedTorsions>
[ 6907 6896 6895 6894 ] final -164.84 input  -60.11 | X-H torsion
[ 7974 7965 7964 7962 ] final  -29.23 input  175.53 | X-H torsion
[ 8008 7997 7996 7995 ] final   80.19 input   59.86 | X-H torsion
[ 10167 10162 10161 10158 ] final  118.61 input  -65.29 | X-H torsion
[ 10718 10713 10712 10709 ] final -155.25 input   66.30 | X-H torsion
[ 10763 10752 10751 10750 ] final  157.11 input  -60.55 | X-H torsion
[ 11005 11000 10999 10996 ] final  -55.91 input  -57.11 | X-H torsion

> <Gold.Protein.ActiveResidues>
 VAL166  LYS551  ARG553  GLY616  TRP617  ASP618  TYR619  PRO620  LYS621  CYS622 
 ASP623  PHE694  ASN695  SER759  ASP760  ASP761  ALA762  ILE779  LEU786  VAL792 
 PHE793  MET794  SER795  GLU796  ALA797  LYS798  CYS799  TRP800  GLU811  SER814 

> <Gold.Protein.RotatedAtoms>
  151.4181  133.3706  159.2752 H   0  0  0  0  0  0  0  0  0  0  0  0  # atno 6907 bound_to 6896
  150.9313  134.8729  159.7564 H   0  0  0  0  0  0  0  0  0  0  0  0  # atno 6908 bound_to 6896
  152.5029  134.4126  159.9506 H   0  0  0  0  0  0  0  0  0  0  0  0  # atno 6909 bound_to 6896
  146.1231  140.5386  142.8726 H   0  0  0  0  0  0  0  0  0  0  0  0  # atno 7974 bound_to 7965
  155.8800  140.3444  155.5881 H   0  0  0  0  0  0  0  0  0  0  0  0  # atno 8008 bound_to 7997
  155.7730  140.0848  157.2117 H   0  0  0  0  0  0  0  0  0  0  0  0  # atno 8009 bound_to 7997
  154.4024  140.1515  156.2951 H   0  0  0  0  0  0  0  0  0  0  0  0  # atno 8010 bound_to 7997
  139.6100  144.7079  151.2866 H   0  0  0  0  0  0  0  0  0  0  0  0  # atno 10167 bound_to 10162
  156.5104  130.8432  151.2644 H   0  0  0  0  0  0  0  0  0  0  0  0  # atno 10718 bound_to 10713
  154.1950  135.2793  155.3009 H   0  0  0  0  0  0  0  0  0  0  0  0  # atno 10763 bound_to 10752
  154.5899  135.5563  153.7271 H   0  0  0  0  0  0  0  0  0  0  0  0  # atno 10764 bound_to 10752
  153.0102  135.6365  154.2088 H   0  0  0  0  0  0  0  0  0  0  0  0  # atno 10765 bound_to 10752
  141.1096  133.6611  156.4540 H   0  0  0  0  0  0  0  0  0  0  0  0  # atno 11005 bound_to 11000
  144.7616  140.5435  143.6731 LP  0  0  0  0  0  0  0  0  0  0  0  0  # atno 17320 bound_to 7965
  145.5423  139.1475  143.3440 LP  0  0  0  0  0  0  0  0  0  0  0  0  # atno 17321 bound_to 7965
  140.7312  143.6858  150.7963 LP  0  0  0  0  0  0  0  0  0  0  0  0  # atno 17342 bound_to 10162
  140.0450  143.5307  152.2700 LP  0  0  0  0  0  0  0  0  0  0  0  0  # atno 17343 bound_to 10162
  157.7451  130.9951  150.2734 LP  0  0  0  0  0  0  0  0  0  0  0  0  # atno 17370 bound_to 10713
  156.3246  130.3791  149.7544 LP  0  0  0  0  0  0  0  0  0  0  0  0  # atno 17371 bound_to 10713
  140.4812  134.6663  157.5171 LP  0  0  0  0  0  0  0  0  0  0  0  0  # atno 17394 bound_to 11000
  139.9982  134.6877  155.9573 LP  0  0  0  0  0  0  0  0  0  0  0  0  # atno 17395 bound_to 11000

$$$$
