#       Name:                AV-unprocessed.smi:2768
#       Creating user name   scv26
#       Creation time:       Fri Mar 27 15:09:58 2020


#       File generated by GOLD software.
#

@<TRIPOS>MOLECULE
AV-unprocessed.smi:2768
    40    41     1
SMALL
NO_CHARGES


@<TRIPOS>ATOM
      1 ****         0.1512   2.4993  -0.4512 O.2            1 S1                 0.0000
      2 ****         0.7633   1.4684  -0.7338 C.2            1 S1                 0.0000
      3 ****         0.1515   0.2982  -0.9799 N.am           1 S1                 0.0000
      4 ****        -1.2913   0.0722  -0.9552 C.3            1 S1                 0.0000
      5 ****        -1.7310  -0.2003   0.5010 C.3            1 S1                 0.0000
      6 ****        -3.2089  -0.6064   0.5965 C.3            1 S1                 0.0000
      7 ****        -3.5028  -1.8235  -0.2899 C.3            1 S1                 0.0000
      8 ****        -3.1168  -1.5376  -1.7471 C.3            1 S1                 0.0000
      9 ****        -1.6386  -1.1227  -1.8743 C.3            1 S1                 0.0000
     10 ****        -1.4115  -0.7666  -3.2238 O.3            1 S1                 0.0000
     11 ****         2.2979   1.4760  -0.8026 C.3            1 S1                 0.0000
     12 ****         2.7031   0.6431  -1.7650 F              1 S1                 0.0000
     13 ****         2.7052   2.7046  -1.1295 F              1 S1                 0.0000
     14 ****         2.8895   1.0549   0.5401 C.ar           1 S1                 0.0000
     15 ****         3.3640   2.0162   1.4617 C.ar           1 S1                 0.0000
     16 ****         3.8896   1.5728   2.6906 C.ar           1 S1                 0.0000
     17 ****         3.9208   0.1909   2.9566 C.ar           1 S1                 0.0000
     18 ****         3.4217  -0.6901   1.9775 C.ar           1 S1                 0.0000
     19 ****         2.9158  -0.2754   0.7964 N.ar           1 S1                 0.0000
     20 ****        -1.8139   0.9591  -1.3198 H              1 S1                 0.0000
     21 ****        -1.0057  -1.9770  -1.6284 H              1 S1                 0.0000
     22 ****         0.7315  -0.4979  -1.2033 H              1 S1                 0.0000
     23 ****        -1.1171  -0.9956   0.9268 H              1 S1                 0.0000
     24 ****        -1.5565   0.6824   1.1174 H              1 S1                 0.0000
     25 ****        -3.4661  -0.8305   1.6321 H              1 S1                 0.0000
     26 ****        -3.8397   0.2305   0.2940 H              1 S1                 0.0000
     27 ****        -2.9495  -2.6896   0.0755 H              1 S1                 0.0000
     28 ****        -4.5605  -2.0814  -0.2285 H              1 S1                 0.0000
     29 ****        -3.3113  -2.4192  -2.3591 H              1 S1                 0.0000
     30 ****        -3.7585  -0.7450  -2.1356 H              1 S1                 0.0000
     31 ****        -1.9541  -0.0217  -3.4336 H              1 S1                 0.0000
     32 ****         3.3245   3.0722   1.2387 H              1 S1                 0.0000
     33 ****         4.2605   2.2804   3.4174 H              1 S1                 0.0000
     34 ****         4.3164  -0.1846   3.8887 H              1 S1                 0.0000
     35 ****         3.4279  -1.7564   2.1479 H              1 S1                 0.0000
     36 ****        -0.8473   2.4889  -0.3966 LP             1 S1                 0.0000
     37 ****         0.6527   3.3466  -0.2763 LP             1 S1                 0.0000
     38 ****        -1.6479  -1.5343  -3.8194 LP             1 S1                 0.0000
     39 ****        -0.4487  -0.5292  -3.3523 LP             1 S1                 0.0000
     40 ****         2.5693  -0.9333   0.1278 LP             1 S1                 0.0000
@<TRIPOS>BOND
    1    1    2 2     
    2    2    3 am    
    3    2   11 1     
    4    3    4 1     
    5    3   22 1     
    6    4   20 1     
    7    4    9 1     
    8    4    5 1     
    9    5    6 1     
   10    5   23 1     
   11    5   24 1     
   12    6    7 1     
   13    6   25 1     
   14    6   26 1     
   15    7    8 1     
   16    7   27 1     
   17    7   28 1     
   18    8    9 1     
   19    8   29 1     
   20    8   30 1     
   21    9   21 1     
   22    9   10 1     
   23   10   31 1     
   24   11   12 1     
   25   11   13 1     
   26   11   14 1     
   27   14   19 ar    
   28   14   15 ar    
   29   15   16 ar    
   30   15   32 1     
   31   16   17 ar    
   32   16   33 1     
   33   17   18 ar    
   34   17   34 1     
   35   18   19 ar    
   36   18   35 1     
   37    1   36 1     
   38    1   37 1     
   39   10   38 1     
   40   10   39 1     
   41   19   40 1     
@<TRIPOS>SUBSTRUCTURE
      1 S1             1
@<TRIPOS>SET
LONE_PAIRS      STATIC     ATOMS    <user>   **** ""
5 36 37 38 39 40
DONOR_HYDROGENS      STATIC     ATOMS    <user>   **** ""
2 22 31
ATOM$BLUE        STATIC     ATOMS    COLORGROUP SYSTEM
5 36 37 38 39 40
ATOM$RED        STATIC     ATOMS    COLORGROUP SYSTEM
2 22 31
