#       Name:                AV-unprocessed.smi:1502
#       Creating user name   scv26
#       Creation time:       Fri Mar 27 06:18:35 2020


#       File generated by GOLD software.
#

@<TRIPOS>MOLECULE
AV-unprocessed.smi:1502
    45    46     1
SMALL
NO_CHARGES


@<TRIPOS>ATOM
      1 ****         0.7626   2.2913  -1.8235 O.2            1 S1                 0.0000
      2 ****         1.3479   1.5908  -0.9984 C.2            1 S1                 0.0000
      3 ****         2.8157   1.9058  -0.6581 C.3            1 S1                 0.0000
      4 ****         3.3972   1.0787   0.4128 N.am           1 S1                 0.0000
      5 ****         4.1201  -0.0089  -0.0455 N.2            1 S1                 0.0000
      6 ****         4.6630  -0.8129   0.8024 C.2            1 S1                 0.0000
      7 ****         4.5465  -0.6194   2.2308 C.2            1 S1                 0.0000
      8 ****         5.2961  -1.7322   3.3203 Cl             1 S1                 0.0000
      9 ****         3.8387   0.4515   2.6700 C.2            1 S1                 0.0000
     10 ****         3.6539   0.7479   4.3646 Cl             1 S1                 0.0000
     11 ****         3.2050   1.3888   1.7324 C.2            1 S1                 0.0000
     12 ****         2.5474   2.3661   2.0909 O.2            1 S1                 0.0000
     13 ****         0.7616   0.5536  -0.3754 N.am           1 S1                 0.0000
     14 ****        -0.6201   0.1125  -0.5498 C.3            1 S1                 0.0000
     15 ****        -1.1045  -0.5848   0.7427 C.3            1 S1                 0.0000
     16 ****        -2.3764   0.0206   1.3668 C.3            1 S1                 0.0000
     17 ****        -3.5406   0.3720   0.4167 C.3            1 S1                 0.0000
     18 ****        -4.0077  -0.7423  -0.5361 C.3            1 S1                 0.0000
     19 ****        -3.3308  -0.7528  -1.9244 C.3            1 S1                 0.0000
     20 ****        -2.0284  -1.5677  -2.0124 C.3            1 S1                 0.0000
     21 ****        -0.7152  -0.7852  -1.8043 C.3            1 S1                 0.0000
     22 ****         3.4005   1.7900  -1.5724 H              1 S1                 0.0000
     23 ****         2.8942   2.9639  -0.4018 H              1 S1                 0.0000
     24 ****         5.2396  -1.6829   0.4880 H              1 S1                 0.0000
     25 ****         1.3196   0.0323   0.2850 H              1 S1                 0.0000
     26 ****        -1.2176   1.0067  -0.7220 H              1 S1                 0.0000
     27 ****        -1.2606  -1.6487   0.5711 H              1 S1                 0.0000
     28 ****        -0.3226  -0.5568   1.5035 H              1 S1                 0.0000
     29 ****        -2.7398  -0.6653   2.1327 H              1 S1                 0.0000
     30 ****        -2.0980   0.9300   1.9005 H              1 S1                 0.0000
     31 ****        -4.3863   0.6439   1.0495 H              1 S1                 0.0000
     32 ****        -3.3242   1.2789  -0.1474 H              1 S1                 0.0000
     33 ****        -3.9459  -1.7191  -0.0555 H              1 S1                 0.0000
     34 ****        -5.0721  -0.5785  -0.7100 H              1 S1                 0.0000
     35 ****        -4.0382  -1.2173  -2.6125 H              1 S1                 0.0000
     36 ****        -3.1872   0.2589  -2.3056 H              1 S1                 0.0000
     37 ****        -2.0799  -2.4256  -1.3425 H              1 S1                 0.0000
     38 ****        -1.9754  -2.0062  -3.0096 H              1 S1                 0.0000
     39 ****        -0.5389  -0.1665  -2.6852 H              1 S1                 0.0000
     40 ****         0.1004  -1.5095  -1.7888 H              1 S1                 0.0000
     41 ****         1.2406   3.0523  -2.2621 LP             1 S1                 0.0000
     42 ****        -0.1910   2.0996  -2.0554 LP             1 S1                 0.0000
     43 ****         4.2203  -0.1696  -1.0274 LP             1 S1                 0.0000
     44 ****         2.1311   2.9664   1.4080 LP             1 S1                 0.0000
     45 ****         2.4296   2.5594   3.0649 LP             1 S1                 0.0000
@<TRIPOS>BOND
    1    1    2 2     
    2    2    3 1     
    3    2   13 am    
    4    3    4 1     
    5    3   22 1     
    6    3   23 1     
    7    4   11 am    
    8    4    5 1     
    9    5    6 2     
   10    6    7 1     
   11    6   24 1     
   12    7    8 1     
   13    7    9 2     
   14    9   10 1     
   15    9   11 1     
   16   11   12 2     
   17   13   14 1     
   18   13   25 1     
   19   14   21 1     
   20   14   15 1     
   21   14   26 1     
   22   15   16 1     
   23   15   27 1     
   24   15   28 1     
   25   16   17 1     
   26   16   29 1     
   27   16   30 1     
   28   17   18 1     
   29   17   31 1     
   30   17   32 1     
   31   18   19 1     
   32   18   33 1     
   33   18   34 1     
   34   19   20 1     
   35   19   35 1     
   36   19   36 1     
   37   20   21 1     
   38   20   37 1     
   39   20   38 1     
   40   21   39 1     
   41   21   40 1     
   42    1   41 1     
   43    1   42 1     
   44    5   43 1     
   45   12   44 1     
   46   12   45 1     
@<TRIPOS>SUBSTRUCTURE
      1 S1             1
@<TRIPOS>SET
LONE_PAIRS      STATIC     ATOMS    <user>   **** ""
5 41 42 43 44 45
DONOR_HYDROGENS      STATIC     ATOMS    <user>   **** ""
1 25
ATOM$BLUE        STATIC     ATOMS    COLORGROUP SYSTEM
5 41 42 43 44 45
ATOM$RED        STATIC     ATOMS    COLORGROUP SYSTEM
1 25
