AV-unprocessed.smi:92|AV-procd|sdf|841|dock6
  -GOLD-   2262017273D 1   1.00000     0.00000
 Structure written by MMmdl.
 61 64  0  0  0  0  0  0  0  0  2 V2000
  147.5932  127.8725  152.0533 C   0  0  0  0  0  0  0  0  0  0  0  0
  146.1983  128.5068  151.9554 C   0  0  0  0  0  0  0  0  0  0  0  0
  146.2527  129.9626  151.6685 N   0  3  2  0  0  0  0  0  0  0  0  0
  146.6611  130.7771  152.8414 C   0  0  0  0  0  0  0  0  0  0  0  0
  146.8193  132.2593  152.4672 C   0  0  0  0  0  0  0  0  0  0  0  0
  145.5228  132.8296  151.8368 C   0  0  1  0  0  0  0  0  0  0  0  0
  145.6096  134.2543  151.4750 N   0  0  0  0  0  0  0  0  0  0  0  0
  144.6715  134.7455  150.4683 C   0  0  0  0  0  0  0  0  0  0  0  0
  145.6892  135.1016  152.5260 C   0  0  0  0  0  0  0  0  0  0  0  0
  145.5024  134.6340  153.7882 N   0  0  0  0  0  0  0  0  0  0  0  0
  145.6147  135.4663  154.8279 C   0  0  0  0  0  0  0  0  0  0  0  0
  145.9081  136.7691  154.8268 N   0  0  0  0  0  0  0  0  0  0  0  0
  146.0973  137.2370  153.5588 C   0  0  0  0  0  0  0  0  0  0  0  0
  146.0049  136.4750  152.3617 C   0  0  0  0  0  0  0  0  0  0  0  0
  146.2729  137.2758  151.2600 N   0  0  0  0  0  0  0  0  0  0  0  0
  146.5166  138.4490  151.7776 C   0  0  0  0  0  0  0  0  0  0  0  0
  146.4274  138.5186  153.1513 N   0  0  0  0  0  0  0  0  0  0  0  0
  146.6763  139.6677  153.9744 C   0  0  0  0  0  0  0  0  0  0  0  0
  147.5723  140.8171  153.5060 C   0  0  0  0  0  0  0  0  0  0  0  0
  148.0329  141.0377  154.9658 C   0  0  0  0  0  0  0  0  0  0  0  0
  149.5341  141.3389  155.1205 C   0  0  0  0  0  0  0  0  0  0  0  0
  150.3362  140.2496  154.7132 O   0  0  0  0  0  0  0  0  0  0  0  0
  147.2177  142.1079  155.7224 C   0  0  0  0  0  0  0  0  0  0  0  0
  147.7731  142.4111  156.9856 O   0  0  0  0  0  0  0  0  0  0  0  0
  147.6049  139.5678  155.1836 C   0  0  0  0  0  0  0  0  0  0  0  0
  145.1095  131.9382  150.6344 C   0  0  1  0  0  0  0  0  0  0  0  0
  146.0297  132.0766  149.4027 C   0  0  0  0  0  0  0  0  0  0  0  0
  144.9872  130.4657  151.0753 C   0  0  0  0  0  0  0  0  0  0  0  0
  147.5134  126.7914  152.1687 H   0  0  0  0  0  0  0  0  0  0  0  0
  148.1560  128.2457  152.9083 H   0  0  0  0  0  0  0  0  0  0  0  0
  148.1781  128.0654  151.1535 H   0  0  0  0  0  0  0  0  0  0  0  0
  145.6633  128.0027  151.1494 H   0  0  0  0  0  0  0  0  0  0  0  0
  145.6259  128.3245  152.8661 H   0  0  0  0  0  0  0  0  0  0  0  0
  145.9200  130.6704  153.6352 H   0  0  0  0  0  0  0  0  0  0  0  0
  147.6068  130.4160  153.2439 H   0  0  0  0  0  0  0  0  0  0  0  0
  147.0844  132.8028  153.3745 H   0  0  0  0  0  0  0  0  0  0  0  0
  147.6606  132.3818  151.7843 H   0  0  0  0  0  0  0  0  0  0  0  0
  144.7355  132.7502  152.5886 H   0  0  0  0  0  0  0  0  0  0  0  0
  144.6687  135.8357  150.4189 H   0  0  0  0  0  0  0  0  0  0  0  0
  143.6566  134.4114  150.6873 H   0  0  0  0  0  0  0  0  0  0  0  0
  144.9456  134.3800  149.4790 H   0  0  0  0  0  0  0  0  0  0  0  0
  145.4498  135.0250  155.7997 H   0  0  0  0  0  0  0  0  0  0  0  0
  146.7792  139.2989  151.1645 H   0  0  0  0  0  0  0  0  0  0  0  0
  145.7026  140.0562  154.2774 H   0  0  0  0  0  0  0  0  0  0  0  0
  148.3781  140.4889  152.8477 H   0  0  0  0  0  0  0  0  0  0  0  0
  147.0322  141.6553  153.0643 H   0  0  0  0  0  0  0  0  0  0  0  0
  149.8217  142.1970  154.5122 H   0  0  0  0  0  0  0  0  0  0  0  0
  149.7837  141.5969  156.1501 H   0  0  0  0  0  0  0  0  0  0  0  0
  150.7969  139.9159  155.4678 H   0  0  0  0  0  0  0  0  0  0  0  0
  147.1449  143.0286  155.1427 H   0  0  0  0  0  0  0  0  0  0  0  0
  146.1927  141.7759  155.8890 H   0  0  0  0  0  0  0  0  0  0  0  0
  148.2756  143.2079  156.9109 H   0  0  0  0  0  0  0  0  0  0  0  0
  147.0946  139.3682  156.1263 H   0  0  0  0  0  0  0  0  0  0  0  0
  148.4225  138.8615  155.0276 H   0  0  0  0  0  0  0  0  0  0  0  0
  144.1123  132.2425  150.3151 H   0  0  0  0  0  0  0  0  0  0  0  0
  147.0489  131.7537  149.6129 H   0  0  0  0  0  0  0  0  0  0  0  0
  146.0779  133.1065  149.0489 H   0  0  0  0  0  0  0  0  0  0  0  0
  145.6615  131.4714  148.5739 H   0  0  0  0  0  0  0  0  0  0  0  0
  144.7087  129.8530  150.2167 H   0  0  0  0  0  0  0  0  0  0  0  0
  144.1828  130.3606  151.8055 H   0  0  0  0  0  0  0  0  0  0  0  0
  146.9622  130.0874  150.9604 H   0  0  0  0  0  0  0  0  0  0  0  0
  1  2  1  0  0  0  0
  1 29  1  0  0  0  0
  1 30  1  0  0  0  0
  1 31  1  0  0  0  0
  2  3  1  0  0  0  0
  2 32  1  0  0  0  0
  2 33  1  0  0  0  0
  3 28  1  0  0  0  0
  3  4  1  0  0  0  0
  3 61  1  0  0  0  0
  4  5  1  0  0  0  0
  4 34  1  0  0  0  0
  4 35  1  0  0  0  0
  5  6  1  0  0  0  0
  5 36  1  0  0  0  0
  5 37  1  0  0  0  0
  6  7  1  0  0  0  0
  6 26  1  0  0  0  0
  6 38  1  0  0  0  0
  7  8  1  0  0  0  0
  7  9  1  0  0  0  0
  8 39  1  0  0  0  0
  8 40  1  0  0  0  0
  8 41  1  0  0  0  0
  9 14  1  0  0  0  0
  9 10  2  0  0  0  0
 10 11  1  0  0  0  0
 11 12  2  0  0  0  0
 11 42  1  0  0  0  0
 12 13  1  0  0  0  0
 13 17  1  0  0  0  0
 13 14  2  0  0  0  0
 14 15  1  0  0  0  0
 15 16  2  0  0  0  0
 16 17  1  0  0  0  0
 16 43  1  0  0  0  0
 17 18  1  0  0  0  0
 18 25  1  0  0  0  0
 18 19  1  0  0  0  0
 18 44  1  0  0  0  0
 19 20  1  0  0  0  0
 19 45  1  0  0  0  0
 19 46  1  0  0  0  0
 20 21  1  0  0  0  0
 20 23  1  0  0  0  0
 20 25  1  0  0  0  0
 21 22  1  0  0  0  0
 21 47  1  0  0  0  0
 21 48  1  0  0  0  0
 22 49  1  0  0  0  0
 23 24  1  0  0  0  0
 23 50  1  0  0  0  0
 23 51  1  0  0  0  0
 24 52  1  0  0  0  0
 25 53  1  0  0  0  0
 25 54  1  0  0  0  0
 26 27  1  0  0  0  0
 26 28  1  0  0  0  0
 26 55  1  0  0  0  0
 27 56  1  0  0  0  0
 27 57  1  0  0  0  0
 27 58  1  0  0  0  0
 28 59  1  0  0  0  0
 28 60  1  0  0  0  0
M  CHG  1   3   1
M  END
> <s_m_source_file>
AV-unprocessed.smi

> <i_m_source_file_index>
92

> <i_lp_mmshare_version>
43012

> <i_f3d_flags>
0

> <s_epik_input>
W0NIM11bQ0gyXU4xW0NIMl1bQ0gyXVtDQEhdKFtDQEBIXShbQ0gzXSlbQ0gyXTEpTihbQ0gzXSljKG5bY0hdbjIpYyhjMjMpbltjSF1uM1tDSF0oW0NIMl00KVtDSDJdQzQoW0NIMl1bT0hdKVtDSDJdW09IXQ==

> <s_epik_cmdline>
J2VwaWtfcHl0aG9uJywgJy1waCcsICc3LjAnLCAnLXRuJywgJzgnLCAnLW1hJywgJzIwMCcsICctbWV0YWxfYmluZGluZycsICctaW1hZScsICc8aW5maWxlLm1hZT4nLCAnLW9tYWUnLCAnPG91dGZpbGUubWFlPic=

> <r_lp_tautomer_probability>
1

> <r_epik_Ionization_Penalty>
0.00235514

> <r_epik_Ionization_Penalty_Charging>
0.00137877

> <r_epik_Ionization_Penalty_Neutral>
0.000976366

> <r_epik_State_Penalty>
-0

> <r_epik_Charging_Adjusted_Penalty>
0.00137877

> <i_epik_Tot_Q>
1

> <i_epik_Tot_abs_Q>
1

> <r_epik_Metal_State_Penalty>
-0

> <b_epik_Metal_Only>
0

> <s_lp_Force_Field>
OPLS_2005

> <r_lp_Energy>
54.7459

> <b_lp_Chiralities_Consistent>
1

> <s_lp_Variant>
AV-unprocessed.smi:92-1

> <Gold.Version>
5.8.1

> <Gold.Id.Protein>
6NUR|6NUR_protein|mol2

> <Gold.PLP.Fitness>
48.3443

> <Gold.PLP.PLP>
-41.7253

> <Gold.PLP.part.hbond>
-3.0000

> <Gold.PLP.part.metal>
0.0000

> <Gold.PLP.part.buried>
-2.3574

> <Gold.PLP.part.nonpolar>
-38.2314

> <Gold.PLP.part.repulsive>
2.1775

> <Gold.PLP.ligand.clash>
0.0000

> <Gold.PLP.ligand.torsion>
1.5722

> <Gold.PLP.Chemscore.Hbond>
2.9520

> <Gold.PLP.Chemscore.CHOScore>
0.0000

> <Gold.PLP.Chemscore.Metal>
0.0000

> <Gold.Chemscore.Hbonds>
donor molecule, donor type, donor heavy atom, donor atom, acceptor molecule, acceptor atom, score
      L1  H     3    61       P1 10747  0.47
      L1  H    24    52       P1  8028  0.86
      P1  H  7954  7966       L1    15  0.01
      P1  H  7989  7998       L1    22  1.00
      L1  C    16    43       P1  7957  0.11

> <Gold.PLP.Chemscore.Internal.Correction>
0.9074

> <Gold.Rescore>
     Score         DG    S(hbond)    S(metal)    S(lipo)     H(rot)  DE(clash)    DE(int)     intcor
     10.26     -15.41       1.79        0.00     110.58       3.51       2.66       2.49       ----

> <Gold.Chemscore.Fitness>
10.2607

> <Gold.Chemscore.DG>
-15.4088

> <Gold.Chemscore.ZeroCoef>
-5.4800

> <Gold.Chemscore.Hbond>
1.7931

> <Gold.Chemscore.Metal>
0.0000

> <Gold.Chemscore.Lipo>
110.5785

> <Gold.Chemscore.Internal_Hbond>
0.0000

> <Gold.Chemscore.DEClash>
2.6575

> <Gold.Chemscore.DEInternal>
2.4906

> <Gold.Chemscore.Rot>
3.5147

> <Gold.Chemscore.Internal.Correction>
   9.000000E+99

> <Gold.Chemscore.Hbonds>
donor molecule, donor type, donor heavy atom, donor atom, acceptor molecule, acceptor atom, score
      L1  H     3    61       P1 10747  0.44
      L1  H    24    52       P1  8028  0.18
      P1  H  7989  7998       L1    22  0.42

> <Gold.Chemscore.Hbond.Weighted>
-5.9888

> <Gold.Chemscore.Metal.Weighted>
-0.0000

> <Gold.Chemscore.Lipo.Weighted>
-12.9377

> <Gold.Chemscore.Internal_Hbond.Weighted>
0.0000

> <Gold.Chemscore.DEClash.Weighted>
2.6575

> <Gold.Chemscore.DEInternal.Weighted>
2.4906

> <Gold.Chemscore.Rot.Weighted>
8.9977

> <Gold.Chemscore.Internal.Correction.Weighted>
   9.000000E+99

> <Gold.Protein.RotatedTorsions>
[ 6907 6896 6895 6894 ] final  -29.31 input  -60.11 | X-H torsion
[ 7974 7965 7964 7962 ] final  105.91 input  175.53 | X-H torsion
[ 8008 7997 7996 7995 ] final   63.06 input   59.86 | X-H torsion
[ 10167 10162 10161 10158 ] final  -27.80 input  -65.29 | X-H torsion
[ 10718 10713 10712 10709 ] final  -93.38 input   66.30 | X-H torsion
[ 10763 10752 10751 10750 ] final   20.54 input  -60.55 | X-H torsion
[ 11005 11000 10999 10996 ] final   24.74 input  -57.11 | X-H torsion

> <Gold.Protein.ActiveResidues>
 VAL166  LYS551  ARG553  GLY616  TRP617  ASP618  TYR619  PRO620  LYS621  CYS622 
 ASP623  PHE694  ASN695  SER759  ASP760  ASP761  ALA762  ILE779  LEU786  VAL792 
 PHE793  MET794  SER795  GLU796  ALA797  LYS798  CYS799  TRP800  GLU811  SER814 

> <Gold.Protein.RotatedAtoms>
  151.1210  135.0079  159.8538 H   0  0  0  0  0  0  0  0  0  0  0  0  # atno 6907 bound_to 6896
  152.5448  134.1723  159.8612 H   0  0  0  0  0  0  0  0  0  0  0  0  # atno 6908 bound_to 6896
  151.1781  133.4697  159.2627 H   0  0  0  0  0  0  0  0  0  0  0  0  # atno 6909 bound_to 6896
  145.3135  139.2533  143.3750 H   0  0  0  0  0  0  0  0  0  0  0  0  # atno 7974 bound_to 7965
  155.6242  140.3496  155.4662 H   0  0  0  0  0  0  0  0  0  0  0  0  # atno 8008 bound_to 7997
  156.0055  140.1222  157.0529 H   0  0  0  0  0  0  0  0  0  0  0  0  # atno 8009 bound_to 7997
  154.4263  140.1092  156.5742 H   0  0  0  0  0  0  0  0  0  0  0  0  # atno 8010 bound_to 7997
  140.7275  143.4063  151.1181 H   0  0  0  0  0  0  0  0  0  0  0  0  # atno 10167 bound_to 10162
  156.0013  130.5024  150.5767 H   0  0  0  0  0  0  0  0  0  0  0  0  # atno 10718 bound_to 10713
  153.1068  135.6687  153.9571 H   0  0  0  0  0  0  0  0  0  0  0  0  # atno 10763 bound_to 10752
  153.9126  135.3023  155.3450 H   0  0  0  0  0  0  0  0  0  0  0  0  # atno 10764 bound_to 10752
  154.7489  135.5044  153.9330 H   0  0  0  0  0  0  0  0  0  0  0  0  # atno 10765 bound_to 10752
  140.3554  134.2184  155.7676 H   0  0  0  0  0  0  0  0  0  0  0  0  # atno 11005 bound_to 11000
  146.3109  140.3676  142.8671 LP  0  0  0  0  0  0  0  0  0  0  0  0  # atno 17320 bound_to 7965
  144.8997  140.7627  143.5875 LP  0  0  0  0  0  0  0  0  0  0  0  0  # atno 17321 bound_to 7965
  139.7690  143.8523  152.3116 LP  0  0  0  0  0  0  0  0  0  0  0  0  # atno 17342 bound_to 10162
  139.8435  144.7199  150.9302 LP  0  0  0  0  0  0  0  0  0  0  0  0  # atno 17343 bound_to 10162
  157.3654  131.0757  151.1602 LP  0  0  0  0  0  0  0  0  0  0  0  0  # atno 17370 bound_to 10713
  157.2373  130.6553  149.5875 LP  0  0  0  0  0  0  0  0  0  0  0  0  # atno 17371 bound_to 10713
  141.2000  133.7998  157.0510 LP  0  0  0  0  0  0  0  0  0  0  0  0  # atno 17394 bound_to 11000
  140.0669  134.9724  157.1402 LP  0  0  0  0  0  0  0  0  0  0  0  0  # atno 17395 bound_to 11000

$$$$
