AV-unprocessed.smi:907|AV-procd|sdf|4111|dock6
  -GOLD-   22720 2 03D 1   1.00000     0.00000
 Structure written by MMmdl.
 54 57  0  0  0  0  0  0  0  0  3 V2000
  151.7293  139.4865  156.4041 O   0  0  0  0  0  0  0  0  0  0  0  0
  150.6888  139.5574  155.7495 C   0  0  0  0  0  0  0  0  0  0  0  0
  149.7776  140.5203  155.9643 N   0  0  0  0  0  0  0  0  0  0  0  0
  149.9067  141.5705  156.9654 C   0  0  0  0  0  0  0  0  0  0  0  0
  151.2798  142.2491  156.8660 C   0  0  0  0  0  0  0  0  0  0  0  0
  151.5247  143.2221  158.0037 C   0  0  0  0  0  0  0  0  0  0  0  0
  152.4182  142.9342  159.0582 C   0  0  0  0  0  0  0  0  0  0  0  0
  152.6028  143.8846  160.0841 C   0  0  0  0  0  0  0  0  0  0  0  0
  151.8928  145.1021  160.0329 C   0  0  0  0  0  0  0  0  0  0  0  0
  151.0145  145.3385  158.9559 C   0  0  0  0  0  0  0  0  0  0  0  0
  150.8638  144.4025  157.9930 N   0  3  0  0  0  0  0  0  0  0  0  0
  150.3496  138.6548  154.7950 N   0  0  0  0  0  0  0  0  0  0  0  0
  151.2078  137.5959  154.2505 C   0  0  0  0  0  0  0  0  0  0  0  0
  150.7396  136.2305  154.7901 C   0  0  0  0  0  0  0  0  0  0  0  0
  149.2927  135.9799  154.5183 N   0  3  0  0  0  0  0  0  0  0  0  0
  148.7740  134.6924  155.0763 C   0  0  1  0  0  0  0  0  0  0  0  0
  147.3234  134.3998  154.6075 C   0  0  0  0  0  0  0  0  0  0  0  0
  147.4117  132.9868  154.0080 C   0  0  2  0  0  0  0  0  0  0  0  0
  147.6474  131.9632  155.1310 C   0  0  0  0  0  0  0  0  0  0  0  0
  149.1074  132.2386  155.5298 C   0  0  0  0  0  0  0  0  0  0  0  0
  149.5071  133.4043  154.6033 C   0  0  1  0  0  0  0  0  0  0  0  0
  148.7697  133.0353  153.3209 C   0  0  0  0  0  0  0  0  0  0  0  0
  148.4405  137.1383  154.9227 C   0  0  0  0  0  0  0  0  0  0  0  0
  148.9664  138.4673  154.3553 C   0  0  0  0  0  0  0  0  0  0  0  0
  148.9346  140.5133  155.4089 H   0  0  0  0  0  0  0  0  0  0  0  0
  149.1131  142.3044  156.8157 H   0  0  0  0  0  0  0  0  0  0  0  0
  149.7708  141.1454  157.9614 H   0  0  0  0  0  0  0  0  0  0  0  0
  152.0705  141.4973  156.8679 H   0  0  0  0  0  0  0  0  0  0  0  0
  151.3644  142.7830  155.9183 H   0  0  0  0  0  0  0  0  0  0  0  0
  152.9570  141.9980  159.0829 H   0  0  0  0  0  0  0  0  0  0  0  0
  153.2810  143.6822  160.9001 H   0  0  0  0  0  0  0  0  0  0  0  0
  152.0205  145.8434  160.8083 H   0  0  0  0  0  0  0  0  0  0  0  0
  150.4323  146.2406  158.8362 H   0  0  0  0  0  0  0  0  0  0  0  0
  151.1351  137.6080  153.1618 H   0  0  0  0  0  0  0  0  0  0  0  0
  152.2673  137.7290  154.4686 H   0  0  0  0  0  0  0  0  0  0  0  0
  151.3583  135.4721  154.3150 H   0  0  0  0  0  0  0  0  0  0  0  0
  150.9215  136.1729  155.8643 H   0  0  0  0  0  0  0  0  0  0  0  0
  148.8210  134.7578  156.1647 H   0  0  0  0  0  0  0  0  0  0  0  0
  146.6029  134.4611  155.4241 H   0  0  0  0  0  0  0  0  0  0  0  0
  146.9988  135.0908  153.8283 H   0  0  0  0  0  0  0  0  0  0  0  0
  146.5742  132.7354  153.3564 H   0  0  0  0  0  0  0  0  0  0  0  0
  146.9546  132.0952  155.9630 H   0  0  0  0  0  0  0  0  0  0  0  0
  147.5365  130.9433  154.7601 H   0  0  0  0  0  0  0  0  0  0  0  0
  149.2119  132.4886  156.5863 H   0  0  0  0  0  0  0  0  0  0  0  0
  149.7259  131.3613  155.3348 H   0  0  0  0  0  0  0  0  0  0  0  0
  150.5883  133.4692  154.5076 H   0  0  0  0  0  0  0  0  0  0  0  0
  149.0777  132.0742  152.9049 H   0  0  0  0  0  0  0  0  0  0  0  0
  148.8388  133.8001  152.5454 H   0  0  0  0  0  0  0  0  0  0  0  0
  147.4132  136.9987  154.5889 H   0  0  0  0  0  0  0  0  0  0  0  0
  148.4076  137.1973  156.0119 H   0  0  0  0  0  0  0  0  0  0  0  0
  148.3133  139.2869  154.6588 H   0  0  0  0  0  0  0  0  0  0  0  0
  148.9302  138.4514  153.2650 H   0  0  0  0  0  0  0  0  0  0  0  0
  149.2119  135.9073  153.5141 H   0  0  0  0  0  0  0  0  0  0  0  0
  150.2228  144.5963  157.2231 H   0  0  0  0  0  0  0  0  0  0  0  0
  1  2  2  0  0  0  0
  2  3  1  0  0  0  0
  2 12  1  0  0  0  0
  3  4  1  0  0  0  0
  3 25  1  0  0  0  0
  4  5  1  0  0  0  0
  4 26  1  0  0  0  0
  4 27  1  0  0  0  0
  5  6  1  0  0  0  0
  5 28  1  0  0  0  0
  5 29  1  0  0  0  0
  6 11  1  0  0  0  0
  6  7  2  0  0  0  0
  7  8  1  0  0  0  0
  7 30  1  0  0  0  0
  8  9  2  0  0  0  0
  8 31  1  0  0  0  0
  9 10  1  0  0  0  0
  9 32  1  0  0  0  0
 10 11  2  0  0  0  0
 10 33  1  0  0  0  0
 11 54  1  0  0  0  0
 12 24  1  0  0  0  0
 12 13  1  0  0  0  0
 13 14  1  0  0  0  0
 13 34  1  0  0  0  0
 13 35  1  0  0  0  0
 14 15  1  0  0  0  0
 14 36  1  0  0  0  0
 14 37  1  0  0  0  0
 15 16  1  0  0  0  0
 15 23  1  0  0  0  0
 15 53  1  0  0  0  0
 16 21  1  0  0  0  0
 16 17  1  0  0  0  0
 16 38  1  0  0  0  0
 17 18  1  0  0  0  0
 17 39  1  0  0  0  0
 17 40  1  0  0  0  0
 18 22  1  0  0  0  0
 18 19  1  0  0  0  0
 18 41  1  0  0  0  0
 19 20  1  0  0  0  0
 19 42  1  0  0  0  0
 19 43  1  0  0  0  0
 20 21  1  0  0  0  0
 20 44  1  0  0  0  0
 20 45  1  0  0  0  0
 21 22  1  0  0  0  0
 21 46  1  0  0  0  0
 22 47  1  0  0  0  0
 22 48  1  0  0  0  0
 23 24  1  0  0  0  0
 23 49  1  0  0  0  0
 23 50  1  0  0  0  0
 24 51  1  0  0  0  0
 24 52  1  0  0  0  0
M  CHG  1  11   1
M  CHG  1  15   1
M  END
> <s_m_source_file>
AV-unprocessed.smi

> <i_m_source_file_index>
907

> <i_lp_mmshare_version>
43012

> <i_f3d_flags>
0

> <s_epik_input>
W0NIMl0xW0NIMl1bQ0BASF0oW0NIMl0yKVtDQEBIXShbQ0gyXVtDQEhdMTIpTihbQ0gyXVtDSDJdMylbQ0gyXVtDSDJdTjNDKD1PKVtOSF1bQ0gyXVtDSDJdYzRbY0hdW2NIXVtjSF1bY0hdbjQ=

> <s_epik_cmdline>
J2VwaWtfcHl0aG9uJywgJy1waCcsICc3LjAnLCAnLXRuJywgJzgnLCAnLW1hJywgJzIwMCcsICctbWV0YWxfYmluZGluZycsICctaW1hZScsICc8aW5maWxlLm1hZT4nLCAnLW9tYWUnLCAnPG91dGZpbGUubWFlPic=

> <r_epik_Ionization_Penalty>
1.63018

> <r_epik_Ionization_Penalty_Charging>
1.63015

> <r_epik_Ionization_Penalty_Neutral>
2.64641e-05

> <r_epik_State_Penalty>
1.72761

> <r_epik_Charging_Adjusted_Penalty>
3.35777

> <i_epik_Tot_Q>
2

> <i_epik_Tot_abs_Q>
2

> <r_epik_Metal_State_Penalty>
1.76501

> <b_epik_Metal_Only>
0

> <s_lp_Force_Field>
OPLS_2005

> <r_lp_Energy>
104.704

> <b_lp_Chiralities_Consistent>
1

> <s_lp_Variant>
AV-unprocessed.smi:907-6

> <Gold.Version>
5.8.1

> <Gold.Id.Protein>
6NUR|6NUR_protein|mol2

> <Gold.PLP.Fitness>
55.1354

> <Gold.PLP.PLP>
-44.4066

> <Gold.PLP.part.hbond>
-1.9654

> <Gold.PLP.part.metal>
0.0000

> <Gold.PLP.part.buried>
-3.8232

> <Gold.PLP.part.nonpolar>
-39.4973

> <Gold.PLP.part.repulsive>
0.1505

> <Gold.PLP.ligand.clash>
0.6663

> <Gold.PLP.ligand.torsion>
0.3536

> <Gold.PLP.Chemscore.Hbond>
4.0000

> <Gold.PLP.Chemscore.CHOScore>
0.0000

> <Gold.PLP.Chemscore.Metal>
0.0000

> <Gold.Chemscore.Hbonds>
donor molecule, donor type, donor heavy atom, donor atom, acceptor molecule, acceptor atom, score
      L1  H    11    54       P1  8028  2.00
      L1  H    15    53       P1  7948  2.00

> <Gold.PLP.Chemscore.Internal.Correction>
0.1022

> <Gold.Rescore>
     Score         DG    S(hbond)    S(metal)    S(lipo)     H(rot)  DE(clash)    DE(int)     intcor
     19.29     -21.24       1.49        0.00     123.94       1.46       0.23       1.71       ----

> <Gold.Chemscore.Fitness>
19.2929

> <Gold.Chemscore.DG>
-21.2357

> <Gold.Chemscore.ZeroCoef>
-5.4800

> <Gold.Chemscore.Hbond>
1.4926

> <Gold.Chemscore.Metal>
0.0000

> <Gold.Chemscore.Lipo>
123.9392

> <Gold.Chemscore.Internal_Hbond>
0.0000

> <Gold.Chemscore.DEClash>
0.2339

> <Gold.Chemscore.DEInternal>
1.7088

> <Gold.Chemscore.Rot>
1.4572

> <Gold.Chemscore.Internal.Correction>
   9.000000E+99

> <Gold.Chemscore.Hbonds>
donor molecule, donor type, donor heavy atom, donor atom, acceptor molecule, acceptor atom, score
      L1  H    11    54       P1  8028  0.42
      L1  H    15    53       P1  7948  0.74

> <Gold.Chemscore.Hbond.Weighted>
-4.9853

> <Gold.Chemscore.Metal.Weighted>
-0.0000

> <Gold.Chemscore.Lipo.Weighted>
-14.5009

> <Gold.Chemscore.Internal_Hbond.Weighted>
0.0000

> <Gold.Chemscore.DEClash.Weighted>
0.2339

> <Gold.Chemscore.DEInternal.Weighted>
1.7088

> <Gold.Chemscore.Rot.Weighted>
3.7305

> <Gold.Chemscore.Internal.Correction.Weighted>
   9.000000E+99

> <Gold.Protein.RotatedTorsions>
[ 6907 6896 6895 6894 ] final   86.66 input  -60.11 | X-H torsion
[ 7974 7965 7964 7962 ] final  152.94 input  175.53 | X-H torsion
[ 8008 7997 7996 7995 ] final -158.06 input   59.86 | X-H torsion
[ 10167 10162 10161 10158 ] final   68.07 input  -65.29 | X-H torsion
[ 10718 10713 10712 10709 ] final  -67.20 input   66.30 | X-H torsion
[ 10763 10752 10751 10750 ] final   75.72 input  -60.55 | X-H torsion
[ 11005 11000 10999 10996 ] final  160.18 input  -57.11 | X-H torsion

> <Gold.Protein.ActiveResidues>
 VAL166  LYS551  ARG553  GLY616  TRP617  ASP618  TYR619  PRO620  LYS621  CYS622 
 ASP623  PHE694  ASN695  SER759  ASP760  ASP761  ALA762  ILE779  LEU786  VAL792 
 PHE793  MET794  SER795  GLU796  ALA797  LYS798  CYS799  TRP800  GLU811  SER814 

> <Gold.Protein.RotatedAtoms>
  152.5398  134.2396  159.8856 H   0  0  0  0  0  0  0  0  0  0  0  0  # atno 6907 bound_to 6896
  151.2364  133.4416  159.2613 H   0  0  0  0  0  0  0  0  0  0  0  0  # atno 6908 bound_to 6896
  151.0667  134.9785  159.8344 H   0  0  0  0  0  0  0  0  0  0  0  0  # atno 6909 bound_to 6896
  144.8188  139.6734  143.6109 H   0  0  0  0  0  0  0  0  0  0  0  0  # atno 7974 bound_to 7965
  155.7419  140.0815  157.2242 H   0  0  0  0  0  0  0  0  0  0  0  0  # atno 8008 bound_to 7997
  154.4021  140.1576  156.2681 H   0  0  0  0  0  0  0  0  0  0  0  0  # atno 8009 bound_to 7997
  155.9012  140.3409  155.6031 H   0  0  0  0  0  0  0  0  0  0  0  0  # atno 8010 bound_to 7997
  140.0827  144.5057  150.7151 H   0  0  0  0  0  0  0  0  0  0  0  0  # atno 10167 bound_to 10162
  156.0570  130.4274  150.1820 H   0  0  0  0  0  0  0  0  0  0  0  0  # atno 10718 bound_to 10713
  153.0675  135.4978  154.8231 H   0  0  0  0  0  0  0  0  0  0  0  0  # atno 10763 bound_to 10752
  154.6974  135.2995  154.9394 H   0  0  0  0  0  0  0  0  0  0  0  0  # atno 10764 bound_to 10752
  154.0128  135.6752  153.4819 H   0  0  0  0  0  0  0  0  0  0  0  0  # atno 10765 bound_to 10752
  140.2035  134.8320  157.3043 H   0  0  0  0  0  0  0  0  0  0  0  0  # atno 11005 bound_to 11000
  146.2493  139.6165  142.9438 LP  0  0  0  0  0  0  0  0  0  0  0  0  # atno 17320 bound_to 7965
  145.5152  141.0434  143.2466 LP  0  0  0  0  0  0  0  0  0  0  0  0  # atno 17321 bound_to 7965
  140.7069  143.2475  151.4698 LP  0  0  0  0  0  0  0  0  0  0  0  0  # atno 17342 bound_to 10162
  139.5770  144.1796  152.1917 LP  0  0  0  0  0  0  0  0  0  0  0  0  # atno 17343 bound_to 10162
  156.9894  130.9889  151.3418 LP  0  0  0  0  0  0  0  0  0  0  0  0  # atno 17370 bound_to 10713
  157.5549  130.8207  149.8191 LP  0  0  0  0  0  0  0  0  0  0  0  0  # atno 17371 bound_to 10713
  140.2029  134.4233  155.7653 LP  0  0  0  0  0  0  0  0  0  0  0  0  # atno 17394 bound_to 11000
  141.2227  133.7080  156.8212 LP  0  0  0  0  0  0  0  0  0  0  0  0  # atno 17395 bound_to 11000

$$$$
