#       Name:                AV-unprocessed.smi:44
#       Creating user name   scv26
#       Creation time:       Thu Mar 26 16:25:55 2020


#       File generated by GOLD software.
#

@<TRIPOS>MOLECULE
AV-unprocessed.smi:44
    37    39     1
SMALL
NO_CHARGES


@<TRIPOS>ATOM
      1 ****        -4.3840   3.1838   1.2485 O.2            1 S1                 0.0000
      2 ****        -3.6474   2.8192   0.3342 C.2            1 S1                 0.0000
      3 ****        -3.7788   3.1824  -0.9815 N.pl3          1 S1                -1.0000
      4 ****        -2.8752   2.6965  -1.9245 C.2            1 S1                 0.0000
      5 ****        -1.8740   1.9086  -1.7233 N.2            1 S1                 0.0000
      6 ****        -1.7177   1.5298  -0.4059 C.2            1 S1                 0.0000
      7 ****        -2.5095   1.9082   0.6447 C.2            1 S1                 0.0000
      8 ****        -2.0727   1.3391   1.8351 N.2            1 S1                 0.0000
      9 ****        -1.0163   0.6312   1.4349 C.2            1 S1                 0.0000
     10 ****        -0.7391   0.6934   0.1156 N.pl3          1 S1                 0.0000
     11 ****         0.3654   0.0128  -0.6258 C.3            1 S1                 0.0000
     12 ****         0.0109  -1.4592  -0.8677 C.3            1 S1                 0.0000
     13 ****         1.3188  -2.1466  -0.5429 C.3            1 S1                 0.0000
     14 ****         1.8431  -1.2731   0.5952 C.3            1 S1                 0.0000
     15 ****         3.3528  -1.3889   0.8452 C.3            1 S1                 0.0000
     16 ****         3.6635  -2.6553   1.3868 O.3            1 S1                 0.0000
     17 ****         1.5195   0.0443   0.1637 O.3            1 S1                 0.0000
     18 ****         0.5122   0.5921  -1.5378 H              1 S1                 0.0000
     19 ****         1.2894  -1.4818   1.5121 H              1 S1                 0.0000
     20 ****        -3.0994   3.0647  -2.9289 H              1 S1                 0.0000
     21 ****        -0.4270   0.0473   2.1256 H              1 S1                 0.0000
     22 ****        -0.7703  -1.7812  -0.1769 H              1 S1                 0.0000
     23 ****        -0.3288  -1.6200  -1.8911 H              1 S1                 0.0000
     24 ****         1.1909  -3.1905  -0.2557 H              1 S1                 0.0000
     25 ****         1.9891  -2.1050  -1.4023 H              1 S1                 0.0000
     26 ****         3.9148  -1.2354  -0.0766 H              1 S1                 0.0000
     27 ****         3.6751  -0.6234   1.5515 H              1 S1                 0.0000
     28 ****         4.5938  -2.6924   1.5481 H              1 S1                 0.0000
     29 ****        -4.2149   2.8692   2.1825 LP             1 S1                 0.0000
     30 ****        -5.1522   3.7950   1.0581 LP             1 S1                 0.0000
     31 ****        -4.5192   3.7928  -1.2629 LP             1 S1                 0.0000
     32 ****        -1.2665   1.6004  -2.4554 LP             1 S1                 0.0000
     33 ****        -2.4529   1.4357   2.7549 LP             1 S1                 0.0000
     34 ****         3.4046  -3.3719   0.7391 LP             1 S1                 0.0000
     35 ****         3.1669  -2.7863   2.2448 LP             1 S1                 0.0000
     36 ****         1.3604   0.6255   0.9617 LP             1 S1                 0.0000
     37 ****         2.2785   0.4142  -0.3721 LP             1 S1                 0.0000
@<TRIPOS>BOND
    1    1    2 2     
    2    2    7 1     
    3    2    3 1     
    4    3    4 1     
    5    4    5 2     
    6    4   20 1     
    7    5    6 1     
    8    6   10 1     
    9    6    7 2     
   10    7    8 1     
   11    8    9 2     
   12    9   10 1     
   13    9   21 1     
   14   10   11 1     
   15   11   18 1     
   16   11   17 1     
   17   11   12 1     
   18   12   13 1     
   19   12   22 1     
   20   12   23 1     
   21   13   14 1     
   22   13   24 1     
   23   13   25 1     
   24   14   19 1     
   25   14   15 1     
   26   14   17 1     
   27   15   16 1     
   28   15   26 1     
   29   15   27 1     
   30   16   28 1     
   31    1   29 1     
   32    1   30 1     
   33    3   31 1     
   34    5   32 1     
   35    8   33 1     
   36   16   34 1     
   37   16   35 1     
   38   17   36 1     
   39   17   37 1     
@<TRIPOS>SUBSTRUCTURE
      1 S1             1
@<TRIPOS>SET
LONE_PAIRS      STATIC     ATOMS    <user>   **** ""
9 29 30 31 32 33 34 35 36 37
DONOR_HYDROGENS      STATIC     ATOMS    <user>   **** ""
1 28
ATOM$BLUE        STATIC     ATOMS    COLORGROUP SYSTEM
9 29 30 31 32 33 34 35 36 37
ATOM$RED        STATIC     ATOMS    COLORGROUP SYSTEM
1 28
