#       Name:                AV-unprocessed.smi:2749
#       Creating user name   scv26
#       Creation time:       Fri Mar 27 15:03:45 2020


#       File generated by GOLD software.
#

@<TRIPOS>MOLECULE
AV-unprocessed.smi:2749
    37    39     1
SMALL
NO_CHARGES


@<TRIPOS>ATOM
      1 ****        -2.5667  -1.6264  -0.4082 O.2            1 S1                 0.0000
      2 ****        -1.3509  -1.4974  -0.2748 C.2            1 S1                 0.0000
      3 ****        -0.5362  -2.5747  -0.2716 N.am           1 S1                 0.0000
      4 ****        -0.8066  -3.9688  -0.4060 C.ar           1 S1                 0.0000
      5 ****         0.3428  -4.7919  -0.3818 C.ar           1 S1                 0.0000
      6 ****         0.2031  -6.1884  -0.5014 C.ar           1 S1                 0.0000
      7 ****        -1.0875  -6.7284  -0.6410 C.ar           1 S1                 0.0000
      8 ****        -1.2727  -8.0646  -0.7589 F              1 S1                 0.0000
      9 ****        -2.1812  -5.8440  -0.6541 C.ar           1 S1                 0.0000
     10 ****        -2.0468  -4.5055  -0.5400 N.ar           1 S1                 0.0000
     11 ****        -0.7570  -0.3029  -0.1217 N.am           1 S1                 0.0000
     12 ****        -1.4232   0.9959  -0.0946 C.3            1 S1                 0.0000
     13 ****        -0.9532   1.9015  -1.2377 C.3            1 S1                 0.0000
     14 ****        -0.3854   3.1052  -0.4734 C.3            1 S1                 0.0000
     15 ****        -1.4871   3.9302   0.2081 C.3            1 S1                 0.0000
     16 ****        -1.8947   3.0168   1.3646 C.3            1 S1                 0.0000
     17 ****        -0.9828   1.8038   1.1378 C.3            1 S1                 0.0000
     18 ****         0.1806   2.4499   0.6470 O.3            1 S1                 0.0000
     19 ****         0.4392  -2.3542  -0.1323 H              1 S1                 0.0000
     20 ****         1.3277  -4.3608  -0.2728 H              1 S1                 0.0000
     21 ****         1.0703  -6.8318  -0.4854 H              1 S1                 0.0000
     22 ****        -3.1890  -6.2183  -0.7579 H              1 S1                 0.0000
     23 ****         0.2481  -0.2942  -0.0177 H              1 S1                 0.0000
     24 ****        -2.5088   0.8838  -0.1043 H              1 S1                 0.0000
     25 ****        -0.1706   1.4266  -1.8315 H              1 S1                 0.0000
     26 ****        -1.7628   2.1828  -1.9120 H              1 S1                 0.0000
     27 ****         0.3220   3.7017  -1.0501 H              1 S1                 0.0000
     28 ****        -1.0896   4.8722   0.5874 H              1 S1                 0.0000
     29 ****        -2.3138   4.1547  -0.4667 H              1 S1                 0.0000
     30 ****        -1.6754   3.4918   2.3215 H              1 S1                 0.0000
     31 ****        -2.9531   2.7548   1.3480 H              1 S1                 0.0000
     32 ****        -0.8222   1.2052   2.0355 H              1 S1                 0.0000
     33 ****        -2.9639  -2.5377  -0.5161 LP             1 S1                 0.0000
     34 ****        -3.1580  -0.8199  -0.4087 LP             1 S1                 0.0000
     35 ****        -2.8534  -3.9145  -0.5540 LP             1 S1                 0.0000
     36 ****         0.5574   3.0976   1.3093 LP             1 S1                 0.0000
     37 ****         0.8886   1.7958   0.3806 LP             1 S1                 0.0000
@<TRIPOS>BOND
    1    1    2 2     
    2    2    3 am    
    3    2   11 am    
    4    3    4 1     
    5    3   19 1     
    6    4   10 ar    
    7    4    5 ar    
    8    5    6 ar    
    9    5   20 1     
   10    6    7 ar    
   11    6   21 1     
   12    7    8 1     
   13    7    9 ar    
   14    9   10 ar    
   15    9   22 1     
   16   11   12 1     
   17   11   23 1     
   18   12   17 1     
   19   12   13 1     
   20   12   24 1     
   21   13   14 1     
   22   13   25 1     
   23   13   26 1     
   24   14   18 1     
   25   14   15 1     
   26   14   27 1     
   27   15   16 1     
   28   15   28 1     
   29   15   29 1     
   30   16   17 1     
   31   16   30 1     
   32   16   31 1     
   33   17   18 1     
   34   17   32 1     
   35    1   33 1     
   36    1   34 1     
   37   10   35 1     
   38   18   36 1     
   39   18   37 1     
@<TRIPOS>SUBSTRUCTURE
      1 S1             1
@<TRIPOS>SET
LONE_PAIRS      STATIC     ATOMS    <user>   **** ""
5 33 34 35 36 37
DONOR_HYDROGENS      STATIC     ATOMS    <user>   **** ""
2 19 23
ATOM$BLUE        STATIC     ATOMS    COLORGROUP SYSTEM
5 33 34 35 36 37
ATOM$RED        STATIC     ATOMS    COLORGROUP SYSTEM
2 19 23
