#       Name:                AV-unprocessed.smi:1863
#       Creating user name   scv26
#       Creation time:       Fri Mar 27 09:26:39 2020


#       File generated by GOLD software.
#

@<TRIPOS>MOLECULE
AV-unprocessed.smi:1863
    42    43     1
SMALL
NO_CHARGES


@<TRIPOS>ATOM
      1 ****        -0.3683   3.5768   1.1843 C.3            1 S1                 0.0000
      2 ****         0.1321   2.1350   1.0194 C.3            1 S1                 0.0000
      3 ****         1.6538   2.1007   0.7578 C.3            1 S1                 0.0000
      4 ****         2.2257   0.7744   0.9861 N.am           1 S1                 0.0000
      5 ****         2.7571   0.4112   2.2891 C.3            1 S1                 0.0000
      6 ****         3.0580  -1.0904   2.1888 C.3            1 S1                 0.0000
      7 ****         3.0470  -1.4153   0.6916 C.3            1 S1                 0.0000
      8 ****         2.4003  -0.1882   0.0722 C.2            1 S1                 0.0000
      9 ****         2.0911  -0.1261  -1.1171 O.2            1 S1                 0.0000
     10 ****        -0.5965   1.5228  -0.0904 N.am           1 S1                 0.0000
     11 ****        -1.1732   0.3120  -0.0726 C.2            1 S1                 0.0000
     12 ****        -1.1643  -0.4328   0.9074 O.2            1 S1                 0.0000
     13 ****        -1.7199   0.0192  -1.2646 N.am           1 S1                 0.0000
     14 ****        -2.4020  -1.1650  -1.6521 C.ar           1 S1                 0.0000
     15 ****        -2.4677  -1.4724  -3.0267 C.ar           1 S1                 0.0000
     16 ****        -3.1523  -2.6316  -3.4383 C.ar           1 S1                 0.0000
     17 ****        -3.7570  -3.4370  -2.4540 C.ar           1 S1                 0.0000
     18 ****        -3.7181  -3.1495  -1.1359 N.ar           1 S1                 0.0000
     19 ****        -3.0571  -2.0373  -0.7478 C.ar           1 S1                 0.0000
     20 ****         0.1238   4.0693   2.0235 H              1 S1                 0.0000
     21 ****        -1.4418   3.6011   1.3752 H              1 S1                 0.0000
     22 ****        -0.1747   4.1705   0.2900 H              1 S1                 0.0000
     23 ****        -0.0802   1.6130   1.9543 H              1 S1                 0.0000
     24 ****         1.8822   2.4498  -0.2509 H              1 S1                 0.0000
     25 ****         2.1560   2.7955   1.4325 H              1 S1                 0.0000
     26 ****         3.6680   0.9809   2.4777 H              1 S1                 0.0000
     27 ****         2.0453   0.6285   3.0866 H              1 S1                 0.0000
     28 ****         4.0091  -1.3449   2.6575 H              1 S1                 0.0000
     29 ****         2.2785  -1.6618   2.6949 H              1 S1                 0.0000
     30 ****         4.0586  -1.5283   0.3009 H              1 S1                 0.0000
     31 ****         2.4803  -2.3201   0.4696 H              1 S1                 0.0000
     32 ****        -0.6467   2.0564  -0.9458 H              1 S1                 0.0000
     33 ****        -1.5673   0.6930  -2.0007 H              1 S1                 0.0000
     34 ****        -1.9955  -0.8331  -3.7585 H              1 S1                 0.0000
     35 ****        -3.2124  -2.8970  -4.4833 H              1 S1                 0.0000
     36 ****        -4.2910  -4.3333  -2.7331 H              1 S1                 0.0000
     37 ****        -3.0821  -1.8457   0.3136 H              1 S1                 0.0000
     38 ****         1.6661   0.7029  -1.4806 LP             1 S1                 0.0000
     39 ****         2.2648  -0.9046  -1.7202 LP             1 S1                 0.0000
     40 ****        -0.7093  -0.1449   1.7501 LP             1 S1                 0.0000
     41 ****        -1.6120  -1.3258   0.8608 LP             1 S1                 0.0000
     42 ****        -4.1654  -3.7424  -0.4664 LP             1 S1                 0.0000
@<TRIPOS>BOND
    1    1    2 1     
    2    1   20 1     
    3    1   21 1     
    4    1   22 1     
    5    2    3 1     
    6    2   10 1     
    7    2   23 1     
    8    3    4 1     
    9    3   24 1     
   10    3   25 1     
   11    4    8 am    
   12    4    5 1     
   13    5    6 1     
   14    5   26 1     
   15    5   27 1     
   16    6    7 1     
   17    6   28 1     
   18    6   29 1     
   19    7    8 1     
   20    7   30 1     
   21    7   31 1     
   22    8    9 2     
   23   10   11 am    
   24   10   32 1     
   25   11   12 2     
   26   11   13 am    
   27   13   14 1     
   28   13   33 1     
   29   14   19 ar    
   30   14   15 ar    
   31   15   16 ar    
   32   15   34 1     
   33   16   17 ar    
   34   16   35 1     
   35   17   18 ar    
   36   17   36 1     
   37   18   19 ar    
   38   19   37 1     
   39    9   38 1     
   40    9   39 1     
   41   12   40 1     
   42   12   41 1     
   43   18   42 1     
@<TRIPOS>SUBSTRUCTURE
      1 S1             1
@<TRIPOS>SET
LONE_PAIRS      STATIC     ATOMS    <user>   **** ""
5 38 39 40 41 42
DONOR_HYDROGENS      STATIC     ATOMS    <user>   **** ""
2 32 33
ATOM$BLUE        STATIC     ATOMS    COLORGROUP SYSTEM
5 38 39 40 41 42
ATOM$RED        STATIC     ATOMS    COLORGROUP SYSTEM
2 32 33
