AV-unprocessed.smi:1308|AV-procd|sdf|5440|dock8
  -GOLD-   22720 5 03D 1   1.00000     0.00000
 Structure written by MMmdl.
 45 45  0  0  0  0  0  0  0  0  1 V2000
  147.1904  135.1032  155.3597 C   0  0  0  0  0  0  0  0  0  0  0  0
  148.3956  135.7179  156.0373 C   0  0  0  0  0  0  0  0  0  0  0  0
  149.2367  136.3945  155.1693 N   0  0  0  0  0  0  0  0  0  0  0  0
  150.3717  136.9848  155.6963 C   0  0  0  0  0  0  0  0  0  0  0  0
  151.2389  137.7054  154.6791 C   0  0  0  0  0  0  0  0  0  0  0  0
  150.6522  136.9078  157.0220 C   0  0  0  0  0  0  0  0  0  0  0  0
  151.8902  137.5495  157.6475 C   0  0  0  0  0  0  0  0  0  0  0  0
  151.9417  139.0796  157.6336 C   0  0  0  0  0  0  0  0  0  0  0  0
  152.5088  139.6803  156.7206 O   0  0  0  0  0  0  0  0  0  0  0  0
  151.3286  139.6932  158.6576 N   0  0  0  0  0  0  0  0  0  0  0  0
  151.1997  141.1383  158.8410 C   0  0  2  0  0  0  0  0  0  0  0  0
  150.5981  141.7586  157.5725 C   0  0  0  0  0  0  0  0  0  0  0  0
  152.5671  141.7596  159.1861 C   0  0  0  0  0  0  0  0  0  0  0  0
  152.4658  143.0853  159.9660 C   0  0  0  0  0  0  0  0  0  0  0  0
  151.8891  144.2575  159.1462 C   0  0  0  0  0  0  0  0  0  0  0  0
  152.7250  144.5652  157.8923 C   0  0  0  0  0  0  0  0  0  0  0  0
  151.7535  145.5136  160.0203 C   0  0  0  0  0  0  0  0  0  0  0  0
  149.7078  136.1811  157.9030 C   0  0  0  0  0  0  0  0  0  0  0  0
  149.8966  136.0948  159.1157 O   0  0  0  0  0  0  0  0  0  0  0  0
  148.5760  135.5913  157.3169 N   0  0  0  0  0  0  0  0  0  0  0  0
  149.0648  136.4773  154.1777 H   0  0  0  0  0  0  0  0  0  0  0  0
  146.5220  134.6479  156.0914 H   0  0  0  0  0  0  0  0  0  0  0  0
  147.5035  134.3308  154.6566 H   0  0  0  0  0  0  0  0  0  0  0  0
  146.6307  135.8637  154.8144 H   0  0  0  0  0  0  0  0  0  0  0  0
  151.3613  138.7523  154.9575 H   0  0  0  0  0  0  0  0  0  0  0  0
  150.7994  137.6737  153.6813 H   0  0  0  0  0  0  0  0  0  0  0  0
  152.2252  137.2444  154.6245 H   0  0  0  0  0  0  0  0  0  0  0  0
  152.7754  137.1831  157.1277 H   0  0  0  0  0  0  0  0  0  0  0  0
  152.0107  137.2063  158.6759 H   0  0  0  0  0  0  0  0  0  0  0  0
  150.8944  139.1103  159.3586 H   0  0  0  0  0  0  0  0  0  0  0  0
  150.5171  141.3555  159.6646 H   0  0  0  0  0  0  0  0  0  0  0  0
  150.4669  142.8350  157.6869 H   0  0  0  0  0  0  0  0  0  0  0  0
  149.6196  141.3307  157.3518 H   0  0  0  0  0  0  0  0  0  0  0  0
  151.2385  141.5919  156.7057 H   0  0  0  0  0  0  0  0  0  0  0  0
  153.1532  141.0379  159.7557 H   0  0  0  0  0  0  0  0  0  0  0  0
  153.1174  141.9356  158.2610 H   0  0  0  0  0  0  0  0  0  0  0  0
  151.8315  142.9206  160.8381 H   0  0  0  0  0  0  0  0  0  0  0  0
  153.4448  143.3660  160.3563 H   0  0  0  0  0  0  0  0  0  0  0  0
  150.8855  143.9821  158.8201 H   0  0  0  0  0  0  0  0  0  0  0  0
  153.7596  144.7918  158.1514 H   0  0  0  0  0  0  0  0  0  0  0  0
  152.3222  145.4238  157.3542 H   0  0  0  0  0  0  0  0  0  0  0  0
  152.7301  143.7269  157.1961 H   0  0  0  0  0  0  0  0  0  0  0  0
  152.7244  145.8452  160.3903 H   0  0  0  0  0  0  0  0  0  0  0  0
  151.1150  145.3260  160.8842 H   0  0  0  0  0  0  0  0  0  0  0  0
  151.3110  146.3381  159.4607 H   0  0  0  0  0  0  0  0  0  0  0  0
  1 22  1  0  0  0  0
  1 23  1  0  0  0  0
  1 24  1  0  0  0  0
  1  2  1  0  0  0  0
  2  3  1  0  0  0  0
  2 20  2  0  0  0  0
  3  4  1  0  0  0  0
  3 21  1  0  0  0  0
  4  6  2  0  0  0  0
  4  5  1  0  0  0  0
  5 25  1  0  0  0  0
  5 26  1  0  0  0  0
  5 27  1  0  0  0  0
  6 18  1  0  0  0  0
  6  7  1  0  0  0  0
  7  8  1  0  0  0  0
  7 28  1  0  0  0  0
  7 29  1  0  0  0  0
  8  9  2  0  0  0  0
  8 10  1  0  0  0  0
 10 11  1  0  0  0  0
 10 30  1  0  0  0  0
 11 12  1  0  0  0  0
 11 13  1  0  0  0  0
 11 31  1  0  0  0  0
 12 32  1  0  0  0  0
 12 33  1  0  0  0  0
 12 34  1  0  0  0  0
 13 14  1  0  0  0  0
 13 35  1  0  0  0  0
 13 36  1  0  0  0  0
 14 15  1  0  0  0  0
 14 37  1  0  0  0  0
 14 38  1  0  0  0  0
 15 16  1  0  0  0  0
 15 17  1  0  0  0  0
 15 39  1  0  0  0  0
 16 40  1  0  0  0  0
 16 41  1  0  0  0  0
 16 42  1  0  0  0  0
 17 43  1  0  0  0  0
 17 44  1  0  0  0  0
 17 45  1  0  0  0  0
 18 19  2  0  0  0  0
 18 20  1  0  0  0  0
M  END
> <s_m_source_file>
AV-unprocessed.smi

> <i_m_source_file_index>
1308

> <i_lp_mmshare_version>
43012

> <i_f3d_flags>
0

> <s_epik_input>
W0NIM11jMW5jKFtDSDNdKWMoYyg9TylbbkhdMSlbQ0gyXUMoPU8pW05IXVtDQEhdKFtDSDNdKVtDSDJdW0NIMl1bQ0hdKFtDSDNdKVtDSDNd

> <s_epik_cmdline>
J2VwaWtfcHl0aG9uJywgJy1waCcsICc3LjAnLCAnLXRuJywgJzgnLCAnLW1hJywgJzIwMCcsICctbWV0YWxfYmluZGluZycsICctaW1hZScsICc8aW5maWxlLm1hZT4nLCAnLW9tYWUnLCAnPG91dGZpbGUubWFlPic=

> <r_lp_tautomer_probability>
0.156392

> <r_epik_Ionization_Penalty>
0.0141156

> <r_epik_Ionization_Penalty_Charging>
0.0139937

> <r_epik_Ionization_Penalty_Neutral>
0.00012188

> <r_epik_State_Penalty>
1.52994

> <r_epik_Charging_Adjusted_Penalty>
1.54393

> <i_epik_Tot_Q>
0

> <i_epik_Tot_abs_Q>
0

> <r_epik_Metal_State_Penalty>
1.70663

> <b_epik_Metal_Only>
0

> <s_lp_Force_Field>
OPLS_2005

> <r_lp_Energy>
10.8122

> <b_lp_Chiralities_Consistent>
1

> <s_lp_Variant>
AV-unprocessed.smi:1308-3

> <Gold.Version>
5.8.1

> <Gold.Id.Protein>
6NUR|6NUR_protein|mol2

> <Gold.PLP.Fitness>
44.6269

> <Gold.PLP.PLP>
-37.1199

> <Gold.PLP.part.hbond>
-3.0000

> <Gold.PLP.part.metal>
0.0000

> <Gold.PLP.part.buried>
-3.7471

> <Gold.PLP.part.nonpolar>
-29.5972

> <Gold.PLP.part.repulsive>
0.1549

> <Gold.PLP.ligand.clash>
0.0000

> <Gold.PLP.ligand.torsion>
0.7599

> <Gold.PLP.Chemscore.Hbond>
3.0000

> <Gold.PLP.Chemscore.CHOScore>
0.0000

> <Gold.PLP.Chemscore.Metal>
0.0000

> <Gold.Chemscore.Hbonds>
donor molecule, donor type, donor heavy atom, donor atom, acceptor molecule, acceptor atom, score
      L1  H     3    21       P1  7948  0.29
      P1  H  6896  6909       L1    19  1.00
      P1  H  7997  8010       L1     9  1.00

> <Gold.PLP.Chemscore.Internal.Correction>
0.0268

> <Gold.Rescore>
     Score         DG    S(hbond)    S(metal)    S(lipo)     H(rot)  DE(clash)    DE(int)     intcor
     20.03     -21.34       2.94        0.00      95.12       1.98       0.02       1.29       ----

> <Gold.Chemscore.Fitness>
20.0316

> <Gold.Chemscore.DG>
-21.3430

> <Gold.Chemscore.ZeroCoef>
-5.4800

> <Gold.Chemscore.Hbond>
2.9375

> <Gold.Chemscore.Metal>
0.0000

> <Gold.Chemscore.Lipo>
95.1229

> <Gold.Chemscore.Internal_Hbond>
0.0000

> <Gold.Chemscore.DEClash>
0.0193

> <Gold.Chemscore.DEInternal>
1.2921

> <Gold.Chemscore.Rot>
1.9835

> <Gold.Chemscore.Internal.Correction>
   9.000000E+99

> <Gold.Chemscore.Hbonds>
donor molecule, donor type, donor heavy atom, donor atom, acceptor molecule, acceptor atom, score
      L1  H     3    21       P1  7948  0.29
      P1  H  6896  6909       L1    19  0.94
      P1  H  7997  8010       L1     9  1.00

> <Gold.Chemscore.Hbond.Weighted>
-9.8114

> <Gold.Chemscore.Metal.Weighted>
-0.0000

> <Gold.Chemscore.Lipo.Weighted>
-11.1294

> <Gold.Chemscore.Internal_Hbond.Weighted>
0.0000

> <Gold.Chemscore.DEClash.Weighted>
0.0193

> <Gold.Chemscore.DEInternal.Weighted>
1.2921

> <Gold.Chemscore.Rot.Weighted>
5.0778

> <Gold.Chemscore.Internal.Correction.Weighted>
   9.000000E+99

> <Gold.Protein.RotatedTorsions>
[ 6907 6896 6895 6894 ] final   61.98 input  -60.11 | X-H torsion
[ 7974 7965 7964 7962 ] final   57.20 input  175.53 | X-H torsion
[ 8008 7997 7996 7995 ] final   61.19 input   59.86 | X-H torsion
[ 10167 10162 10161 10158 ] final -154.54 input  -65.29 | X-H torsion
[ 10718 10713 10712 10709 ] final  -94.28 input   66.30 | X-H torsion
[ 10763 10752 10751 10750 ] final   94.89 input  -60.55 | X-H torsion
[ 11005 11000 10999 10996 ] final  -68.02 input  -57.11 | X-H torsion

> <Gold.Protein.ActiveResidues>
 VAL166  LYS551  ARG553  GLY616  TRP617  ASP618  TYR619  PRO620  LYS621  CYS622 
 ASP623  PHE694  ASN695  SER759  ASP760  ASP761  ALA762  ILE779  LEU786  VAL792 
 PHE793  MET794  SER795  GLU796  ALA797  LYS798  CYS799  TRP800  GLU811  SER814 

> <Gold.Protein.RotatedAtoms>
  152.4134  134.6084  160.0018 H   0  0  0  0  0  0  0  0  0  0  0  0  # atno 6907 bound_to 6896
  151.6255  133.3330  159.3105 H   0  0  0  0  0  0  0  0  0  0  0  0  # atno 6908 bound_to 6896
  150.8024  134.7166  159.6679 H   0  0  0  0  0  0  0  0  0  0  0  0  # atno 6909 bound_to 6896
  145.9316  139.3812  143.0418 H   0  0  0  0  0  0  0  0  0  0  0  0  # atno 7974 bound_to 7965
  155.5944  140.3493  155.4575 H   0  0  0  0  0  0  0  0  0  0  0  0  # atno 8008 bound_to 7997
  156.0277  140.1267  157.0316 H   0  0  0  0  0  0  0  0  0  0  0  0  # atno 8009 bound_to 7997
  154.4340  140.1049  156.6040 H   0  0  0  0  0  0  0  0  0  0  0  0  # atno 8010 bound_to 7997
  139.7005  143.9270  152.2426 H   0  0  0  0  0  0  0  0  0  0  0  0  # atno 10167 bound_to 10162
  156.0025  130.5061  150.5903 H   0  0  0  0  0  0  0  0  0  0  0  0  # atno 10718 bound_to 10713
  153.2468  135.4273  155.0756 H   0  0  0  0  0  0  0  0  0  0  0  0  # atno 10763 bound_to 10752
  154.8365  135.3416  154.6570 H   0  0  0  0  0  0  0  0  0  0  0  0  # atno 10764 bound_to 10752
  153.6992  135.7029  153.5124 H   0  0  0  0  0  0  0  0  0  0  0  0  # atno 10765 bound_to 10752
  141.1522  133.6731  156.6382 H   0  0  0  0  0  0  0  0  0  0  0  0  # atno 11005 bound_to 11000
  145.8418  140.9576  143.0795 LP  0  0  0  0  0  0  0  0  0  0  0  0  # atno 17320 bound_to 7965
  144.6765  140.0295  143.7483 LP  0  0  0  0  0  0  0  0  0  0  0  0  # atno 17321 bound_to 7965
  139.9112  144.6855  150.8561 LP  0  0  0  0  0  0  0  0  0  0  0  0  # atno 17342 bound_to 10162
  140.7708  143.3442  151.2145 LP  0  0  0  0  0  0  0  0  0  0  0  0  # atno 17343 bound_to 10162
  157.3769  131.0774  151.1510 LP  0  0  0  0  0  0  0  0  0  0  0  0  # atno 17370 bound_to 10713
  157.2245  130.6497  149.5824 LP  0  0  0  0  0  0  0  0  0  0  0  0  # atno 17371 bound_to 10713
  140.3414  134.7846  157.4400 LP  0  0  0  0  0  0  0  0  0  0  0  0  # atno 17394 bound_to 11000
  140.0935  134.5569  155.8421 LP  0  0  0  0  0  0  0  0  0  0  0  0  # atno 17395 bound_to 11000

$$$$
