AV-unprocessed.smi:288|AV-procd|sdf|2210|dock1
  -GOLD-   2262022 43D 1   1.00000     0.00000
 Structure written by MMmdl.
 33 34  0  0  0  0  0  0  0  0  1 V2000
  152.7591  139.7664  156.9723 O   0  0  0  0  0  0  0  0  0  0  0  0
  151.7138  140.0597  156.3893 C   0  0  0  0  0  0  0  0  0  0  0  0
  151.3077  139.4653  155.1204 C   0  0  0  0  0  0  0  0  0  0  0  0
  152.1074  138.5661  154.5223 F   0  0  0  0  0  0  0  0  0  0  0  0
  150.1382  139.8016  154.5342 C   0  0  0  0  0  0  0  0  0  0  0  0
  149.2534  140.7157  155.0835 N   0  0  0  0  0  0  0  0  0  0  0  0
  147.9447  141.0704  154.4104 C   0  0  1  0  0  0  0  0  0  0  0  0
  147.9735  140.6631  152.9262 C   0  0  0  0  0  0  0  0  0  0  0  0
  146.6740  139.9005  152.7667 C   0  0  0  0  0  0  0  0  0  0  0  0
  146.4880  139.3070  154.1552 C   0  0  0  0  0  0  0  0  0  0  0  0
  146.8942  140.3671  155.0113 O   0  0  0  0  0  0  0  0  0  0  0  0
  149.5655  141.3415  156.3101 C   0  0  0  0  0  0  0  0  0  0  0  0
  148.7834  142.1447  156.8239 O   0  0  0  0  0  0  0  0  0  0  0  0
  150.7977  141.0031  156.9167 N   0  0  0  0  0  0  0  0  0  0  0  0
  151.1298  141.6322  158.1846 C   0  0  0  0  0  0  0  0  0  0  0  0
  151.2247  143.1720  158.0959 C   0  0  2  0  0  0  0  0  0  0  0  0
  151.5689  143.5268  156.7704 O   0  0  0  0  0  0  0  0  0  0  0  0
  152.3006  143.7503  159.0358 C   0  0  0  0  0  0  0  0  0  0  0  0
  152.4712  145.0507  158.7958 F   0  0  0  0  0  0  0  0  0  0  0  0
  151.9024  143.6172  160.3011 F   0  0  0  0  0  0  0  0  0  0  0  0
  153.4615  143.1110  158.8850 F   0  0  0  0  0  0  0  0  0  0  0  0
  149.9003  139.3221  153.5974 H   0  0  0  0  0  0  0  0  0  0  0  0
  147.8009  142.1393  154.5781 H   0  0  0  0  0  0  0  0  0  0  0  0
  148.0445  141.5386  152.2802 H   0  0  0  0  0  0  0  0  0  0  0  0
  148.8242  140.0075  152.7317 H   0  0  0  0  0  0  0  0  0  0  0  0
  145.8588  140.5895  152.5415 H   0  0  0  0  0  0  0  0  0  0  0  0
  146.7136  139.1460  151.9805 H   0  0  0  0  0  0  0  0  0  0  0  0
  145.4594  139.0044  154.3516 H   0  0  0  0  0  0  0  0  0  0  0  0
  147.1355  138.4404  154.2958 H   0  0  0  0  0  0  0  0  0  0  0  0
  150.3575  141.3234  158.8907 H   0  0  0  0  0  0  0  0  0  0  0  0
  152.0408  141.1776  158.5777 H   0  0  0  0  0  0  0  0  0  0  0  0
  150.2652  143.6300  158.3406 H   0  0  0  0  0  0  0  0  0  0  0  0
  150.8143  143.9201  156.3593 H   0  0  0  0  0  0  0  0  0  0  0  0
  1  2  2  0  0  0  0
  2 14  1  0  0  0  0
  2  3  1  0  0  0  0
  3  4  1  0  0  0  0
  3  5  2  0  0  0  0
  5  6  1  0  0  0  0
  5 22  1  0  0  0  0
  6  7  1  0  0  0  0
  6 12  1  0  0  0  0
  7 11  1  0  0  0  0
  7  8  1  0  0  0  0
  7 23  1  0  0  0  0
  8  9  1  0  0  0  0
  8 24  1  0  0  0  0
  8 25  1  0  0  0  0
  9 10  1  0  0  0  0
  9 26  1  0  0  0  0
  9 27  1  0  0  0  0
 10 11  1  0  0  0  0
 10 28  1  0  0  0  0
 10 29  1  0  0  0  0
 12 13  2  0  0  0  0
 12 14  1  0  0  0  0
 14 15  1  0  0  0  0
 15 16  1  0  0  0  0
 15 30  1  0  0  0  0
 15 31  1  0  0  0  0
 16 17  1  0  0  0  0
 16 18  1  0  0  0  0
 16 32  1  0  0  0  0
 17 33  1  0  0  0  0
 18 19  1  0  0  0  0
 18 20  1  0  0  0  0
 18 21  1  0  0  0  0
M  END
> <s_m_source_file>
AV-unprocessed.smi

> <i_m_source_file_index>
288

> <i_lp_mmshare_version>
43012

> <i_f3d_flags>
0

> <s_epik_input>
TzFbQ0gyXVtDSDJdW0NIMl1bQ0BIXTFuKFtjSF1jKEYpYzI9TyljKD1PKW4yW0NIMl1bQ0BIXShbT0hdKUMoRikoRilG

> <s_epik_cmdline>
J2VwaWtfcHl0aG9uJywgJy1waCcsICc3LjAnLCAnLXRuJywgJzgnLCAnLW1hJywgJzIwMCcsICctbWV0YWxfYmluZGluZycsICctaW1hZScsICc8aW5maWxlLm1hZT4nLCAnLW9tYWUnLCAnPG91dGZpbGUubWFlPic=

> <r_lp_tautomer_probability>
1

> <r_epik_Ionization_Penalty>
0.000551119

> <r_epik_Ionization_Penalty_Charging>
2.51184e-08

> <r_epik_Ionization_Penalty_Neutral>
0.000551094

> <r_epik_State_Penalty>
0.000345115

> <r_epik_Charging_Adjusted_Penalty>
0.00034514

> <i_epik_Tot_Q>
0

> <i_epik_Tot_abs_Q>
0

> <r_epik_Metal_State_Penalty>
-0

> <b_epik_Metal_Only>
0

> <s_epik_Chemistry_Notes>
This compound contains an acetal/aminal-like group ( X-CH(R)-Y where X, Y are N, S, or O) that may be acid/base labile, releasing an aldehyde.

> <s_lp_Force_Field>
OPLS_2005

> <r_lp_Energy>
35.1555

> <b_lp_Chiralities_Consistent>
1

> <s_lp_Variant>
AV-unprocessed.smi:288-2

> <Gold.Version>
5.8.1

> <Gold.Id.Protein>
6NUR|6NUR_protein|mol2

> <Gold.PLP.Fitness>
47.2342

> <Gold.PLP.PLP>
-40.6011

> <Gold.PLP.part.hbond>
-2.0000

> <Gold.PLP.part.metal>
0.0000

> <Gold.PLP.part.buried>
4.3133

> <Gold.PLP.part.nonpolar>
-42.0908

> <Gold.PLP.part.repulsive>
1.3407

> <Gold.PLP.ligand.clash>
0.0000

> <Gold.PLP.ligand.torsion>
1.1104

> <Gold.PLP.Chemscore.Hbond>
2.0000

> <Gold.PLP.Chemscore.CHOScore>
0.9343

> <Gold.PLP.Chemscore.Metal>
0.0000

> <Gold.Chemscore.Hbonds>
donor molecule, donor type, donor heavy atom, donor atom, acceptor molecule, acceptor atom, score
      L1  H    17    33       P1  8028  0.62
      P1  H  7997  8008       L1     1  1.00
      L1  C     5    22       P1  7957  0.95

> <Gold.PLP.Chemscore.Internal.Correction>
0.0509

> <Gold.Rescore>
     Score         DG    S(hbond)    S(metal)    S(lipo)     H(rot)  DE(clash)    DE(int)     intcor
      9.78     -13.00       1.99        0.00      63.75       2.57       1.70       1.52       ----

> <Gold.Chemscore.Fitness>
9.7811

> <Gold.Chemscore.DG>
-13.0014

> <Gold.Chemscore.ZeroCoef>
-5.4800

> <Gold.Chemscore.Hbond>
1.9851

> <Gold.Chemscore.Metal>
0.0000

> <Gold.Chemscore.Lipo>
63.7513

> <Gold.Chemscore.Internal_Hbond>
0.0000

> <Gold.Chemscore.DEClash>
1.6958

> <Gold.Chemscore.DEInternal>
1.5245

> <Gold.Chemscore.Rot>
2.5656

> <Gold.Chemscore.Internal.Correction>
   9.000000E+99

> <Gold.Chemscore.Hbonds>
donor molecule, donor type, donor heavy atom, donor atom, acceptor molecule, acceptor atom, score
      L1  H    17    33       P1  8028  0.63
      P1  H  7997  8008       L1     1  0.99

> <Gold.Chemscore.Hbond.Weighted>
-6.6304

> <Gold.Chemscore.Metal.Weighted>
-0.0000

> <Gold.Chemscore.Lipo.Weighted>
-7.4589

> <Gold.Chemscore.Internal_Hbond.Weighted>
0.0000

> <Gold.Chemscore.DEClash.Weighted>
1.6958

> <Gold.Chemscore.DEInternal.Weighted>
1.5245

> <Gold.Chemscore.Rot.Weighted>
6.5679

> <Gold.Chemscore.Internal.Correction.Weighted>
   9.000000E+99

> <Gold.Protein.RotatedTorsions>
[ 6907 6896 6895 6894 ] final   13.13 input  -60.11 | X-H torsion
[ 7974 7965 7964 7962 ] final  132.74 input  175.53 | X-H torsion
[ 8008 7997 7996 7995 ] final  -46.74 input   59.86 | X-H torsion
[ 10167 10162 10161 10158 ] final -171.37 input  -65.29 | X-H torsion
[ 10718 10713 10712 10709 ] final -100.46 input   66.30 | X-H torsion
[ 10763 10752 10751 10750 ] final   37.59 input  -60.55 | X-H torsion
[ 11005 11000 10999 10996 ] final   92.04 input  -57.11 | X-H torsion

> <Gold.Protein.ActiveResidues>
 VAL166  LYS551  ARG553  GLY616  TRP617  ASP618  TYR619  PRO620  LYS621  CYS622 
 ASP623  PHE694  ASN695  SER759  ASP760  ASP761  ALA762  ILE779  LEU786  VAL792 
 PHE793  MET794  SER795  GLU796  ALA797  LYS798  CYS799  TRP800  GLU811  SER814 

> <Gold.Protein.RotatedAtoms>
  151.7813  135.0760  160.0373 H   0  0  0  0  0  0  0  0  0  0  0  0  # atno 6907 bound_to 6896
  152.3221  133.5860  159.5760 H   0  0  0  0  0  0  0  0  0  0  0  0  # atno 6908 bound_to 6896
  150.7375  133.9912  159.3649 H   0  0  0  0  0  0  0  0  0  0  0  0  # atno 6909 bound_to 6896
  144.9937  139.4381  143.5326 H   0  0  0  0  0  0  0  0  0  0  0  0  # atno 7974 bound_to 7965
  154.4010  140.1364  156.4061 H   0  0  0  0  0  0  0  0  0  0  0  0  # atno 8008 bound_to 7997
  155.7778  140.3482  155.5261 H   0  0  0  0  0  0  0  0  0  0  0  0  # atno 8009 bound_to 7997
  155.8703  140.0971  157.1545 H   0  0  0  0  0  0  0  0  0  0  0  0  # atno 8010 bound_to 7997
  139.5806  144.1431  152.1510 H   0  0  0  0  0  0  0  0  0  0  0  0  # atno 10167 bound_to 10162
  156.0164  130.5328  150.6820 H   0  0  0  0  0  0  0  0  0  0  0  0  # atno 10718 bound_to 10713
  153.0032  135.6273  154.2169 H   0  0  0  0  0  0  0  0  0  0  0  0  # atno 10763 bound_to 10752
  154.1912  135.2808  155.3023 H   0  0  0  0  0  0  0  0  0  0  0  0  # atno 10764 bound_to 10752
  154.5758  135.5662  153.7197 H   0  0  0  0  0  0  0  0  0  0  0  0  # atno 10765 bound_to 10752
  139.8829  134.8710  156.3515 H   0  0  0  0  0  0  0  0  0  0  0  0  # atno 11005 bound_to 11000
  146.3437  139.9284  142.8757 LP  0  0  0  0  0  0  0  0  0  0  0  0  # atno 17320 bound_to 7965
  145.2250  140.9950  143.4024 LP  0  0  0  0  0  0  0  0  0  0  0  0  # atno 17321 bound_to 7965
  140.0984  144.5561  150.7006 LP  0  0  0  0  0  0  0  0  0  0  0  0  # atno 17342 bound_to 10162
  140.7085  143.2486  151.4654 LP  0  0  0  0  0  0  0  0  0  0  0  0  # atno 17343 bound_to 10162
  157.4520  131.0873  151.0836 LP  0  0  0  0  0  0  0  0  0  0  0  0  # atno 17370 bound_to 10713
  157.1349  130.6118  149.5539 LP  0  0  0  0  0  0  0  0  0  0  0  0  # atno 17371 bound_to 10713
  140.9591  133.7400  156.0376 LP  0  0  0  0  0  0  0  0  0  0  0  0  # atno 17394 bound_to 11000
  140.8012  134.3507  157.5439 LP  0  0  0  0  0  0  0  0  0  0  0  0  # atno 17395 bound_to 11000

$$$$
