AV-unprocessed.smi:2824|AV-procd|sdf|10886|dock9
  -GOLD-   2272015333D 1   1.00000     0.00000
 Structure written by MMmdl.
 38 39  0  0  0  0  0  0  0  0  1 V2000
  154.2464  140.2302  160.3286 C   0  0  0  0  0  0  0  0  0  0  0  0
  153.6396  141.4085  161.0671 C   0  0  0  0  0  0  0  0  0  0  0  0
  153.9827  141.6364  162.4165 C   0  0  0  0  0  0  0  0  0  0  0  0
  153.4297  142.7250  163.1147 C   0  0  0  0  0  0  0  0  0  0  0  0
  152.5304  143.5887  162.4647 C   0  0  0  0  0  0  0  0  0  0  0  0
  152.1850  143.3660  161.1182 C   0  0  0  0  0  0  0  0  0  0  0  0
  152.7375  142.2725  160.4029 C   0  0  0  0  0  0  0  0  0  0  0  0
  152.4453  141.9942  159.0832 O   0  0  0  0  0  0  0  0  0  0  0  0
  151.3020  142.6030  158.4979 C   0  0  0  0  0  0  0  0  0  0  0  0
  150.7108  141.6465  157.4489 C   0  0  2  0  0  0  0  0  0  0  0  0
  150.0132  140.6342  158.1487 O   0  0  0  0  0  0  0  0  0  0  0  0
  151.8156  140.9675  156.6087 C   0  0  0  0  0  0  0  0  0  0  0  0
  151.2631  140.1197  155.5454 N   0  0  0  0  0  0  0  0  0  0  0  0
  149.9423  140.3945  155.2368 N   0  0  0  0  0  0  0  0  0  0  0  0
  149.3153  139.7359  154.3160 C   0  0  0  0  0  0  0  0  0  0  0  0
  147.8781  140.1106  154.0498 C   0  0  0  0  0  0  0  0  0  0  0  0
  147.7711  141.3969  153.7153 F   0  0  0  0  0  0  0  0  0  0  0  0
  147.3891  139.3722  153.0528 F   0  0  0  0  0  0  0  0  0  0  0  0
  147.1389  139.8931  155.1379 F   0  0  0  0  0  0  0  0  0  0  0  0
  150.0172  138.6848  153.5981 C   0  0  0  0  0  0  0  0  0  0  0  0
  151.3052  138.4171  153.9027 C   0  0  0  0  0  0  0  0  0  0  0  0
  152.0194  139.1584  154.9391 C   0  0  0  0  0  0  0  0  0  0  0  0
  153.1933  138.9403  155.2380 O   0  0  0  0  0  0  0  0  0  0  0  0
  154.9275  139.6656  160.9661 H   0  0  0  0  0  0  0  0  0  0  0  0
  154.8057  140.5763  159.4590 H   0  0  0  0  0  0  0  0  0  0  0  0
  153.4627  139.5536  159.9867 H   0  0  0  0  0  0  0  0  0  0  0  0
  154.6727  140.9767  162.9219 H   0  0  0  0  0  0  0  0  0  0  0  0
  153.6944  142.8969  164.1474 H   0  0  0  0  0  0  0  0  0  0  0  0
  152.1037  144.4241  162.9999 H   0  0  0  0  0  0  0  0  0  0  0  0
  151.4904  144.0511  160.6567 H   0  0  0  0  0  0  0  0  0  0  0  0
  150.5674  142.7732  159.2866 H   0  0  0  0  0  0  0  0  0  0  0  0
  151.5432  143.5692  158.0507 H   0  0  0  0  0  0  0  0  0  0  0  0
  150.0227  142.1954  156.8046 H   0  0  0  0  0  0  0  0  0  0  0  0
  150.1356  139.8148  157.6943 H   0  0  0  0  0  0  0  0  0  0  0  0
  152.4503  141.7263  156.1468 H   0  0  0  0  0  0  0  0  0  0  0  0
  152.4883  140.3972  157.2527 H   0  0  0  0  0  0  0  0  0  0  0  0
  149.5098  138.1242  152.8271 H   0  0  0  0  0  0  0  0  0  0  0  0
  151.8230  137.6355  153.3663 H   0  0  0  0  0  0  0  0  0  0  0  0
  1  2  1  0  0  0  0
  1 24  1  0  0  0  0
  1 25  1  0  0  0  0
  1 26  1  0  0  0  0
  2  7  1  0  0  0  0
  2  3  2  0  0  0  0
  3  4  1  0  0  0  0
  3 27  1  0  0  0  0
  4  5  2  0  0  0  0
  4 28  1  0  0  0  0
  5  6  1  0  0  0  0
  5 29  1  0  0  0  0
  6  7  2  0  0  0  0
  6 30  1  0  0  0  0
  7  8  1  0  0  0  0
  8  9  1  0  0  0  0
  9 10  1  0  0  0  0
  9 31  1  0  0  0  0
  9 32  1  0  0  0  0
 10 11  1  0  0  0  0
 10 12  1  0  0  0  0
 10 33  1  0  0  0  0
 11 34  1  0  0  0  0
 12 13  1  0  0  0  0
 12 35  1  0  0  0  0
 12 36  1  0  0  0  0
 13 22  1  0  0  0  0
 13 14  1  0  0  0  0
 14 15  2  0  0  0  0
 15 16  1  0  0  0  0
 15 20  1  0  0  0  0
 16 17  1  0  0  0  0
 16 18  1  0  0  0  0
 16 19  1  0  0  0  0
 20 21  2  0  0  0  0
 20 37  1  0  0  0  0
 21 22  1  0  0  0  0
 21 38  1  0  0  0  0
 22 23  2  0  0  0  0
M  END
> <s_m_source_file>
AV-unprocessed.smi

> <i_m_source_file_index>
2824

> <i_lp_mmshare_version>
43012

> <i_f3d_flags>
0

> <s_epik_input>
W0NIM11jMVtjSF1bY0hdW2NIXVtjSF1jMU9bQ0gyXVtDQEhdKFtPSF0pW0NIMl1uMm5jKEMoRikoRilGKVtjSF1bY0hdYzI9Tw==

> <s_epik_cmdline>
J2VwaWtfcHl0aG9uJywgJy1waCcsICc3LjAnLCAnLXRuJywgJzgnLCAnLW1hJywgJzIwMCcsICctbWV0YWxfYmluZGluZycsICctaW1hZScsICc8aW5maWxlLm1hZT4nLCAnLW9tYWUnLCAnPG91dGZpbGUubWFlPic=

> <r_lp_tautomer_probability>
1

> <r_epik_Ionization_Penalty>
1.2156e-07

> <r_epik_Ionization_Penalty_Charging>
4.38548e-09

> <r_epik_Ionization_Penalty_Neutral>
1.17174e-07

> <r_epik_State_Penalty>
-0

> <r_epik_Charging_Adjusted_Penalty>
4.38548e-09

> <i_epik_Tot_Q>
0

> <i_epik_Tot_abs_Q>
0

> <r_epik_Metal_State_Penalty>
-0

> <b_epik_Metal_Only>
0

> <s_lp_Force_Field>
OPLS_2005

> <r_lp_Energy>
34.0835

> <b_lp_Chiralities_Consistent>
1

> <s_lp_Variant>
AV-unprocessed.smi:2824-1

> <Gold.Version>
5.8.1

> <Gold.Id.Protein>
6NUR|6NUR_protein|mol2

> <Gold.PLP.Fitness>
52.0149

> <Gold.PLP.PLP>
-50.6606

> <Gold.PLP.part.hbond>
-1.0000

> <Gold.PLP.part.metal>
0.0000

> <Gold.PLP.part.buried>
-2.2873

> <Gold.PLP.part.nonpolar>
-46.2168

> <Gold.PLP.part.repulsive>
0.0555

> <Gold.PLP.ligand.clash>
0.0000

> <Gold.PLP.ligand.torsion>
0.8503

> <Gold.PLP.Chemscore.Hbond>
1.0000

> <Gold.PLP.Chemscore.CHOScore>
0.0000

> <Gold.PLP.Chemscore.Metal>
0.0000

> <Gold.Chemscore.Hbonds>
donor molecule, donor type, donor heavy atom, donor atom, acceptor molecule, acceptor atom, score
      P1  H  7997  8009       L1    23  1.00

> <Gold.PLP.Chemscore.Internal.Correction>
0.0548

> <Gold.Rescore>
     Score         DG    S(hbond)    S(metal)    S(lipo)     H(rot)  DE(clash)    DE(int)     intcor
     13.73     -15.99       0.82        0.00     123.20       2.60       0.26       2.00       ----

> <Gold.Chemscore.Fitness>
13.7328

> <Gold.Chemscore.DG>
-15.9939

> <Gold.Chemscore.ZeroCoef>
-5.4800

> <Gold.Chemscore.Hbond>
0.8233

> <Gold.Chemscore.Metal>
0.0000

> <Gold.Chemscore.Lipo>
123.1990

> <Gold.Chemscore.Internal_Hbond>
0.0000

> <Gold.Chemscore.DEClash>
0.2612

> <Gold.Chemscore.DEInternal>
1.9998

> <Gold.Chemscore.Rot>
2.5978

> <Gold.Chemscore.Internal.Correction>
   9.000000E+99

> <Gold.Chemscore.Hbonds>
donor molecule, donor type, donor heavy atom, donor atom, acceptor molecule, acceptor atom, score
      P1  H  7997  8009       L1    23  0.99

> <Gold.Chemscore.Hbond.Weighted>
-2.7500

> <Gold.Chemscore.Metal.Weighted>
-0.0000

> <Gold.Chemscore.Lipo.Weighted>
-14.4143

> <Gold.Chemscore.Internal_Hbond.Weighted>
0.0000

> <Gold.Chemscore.DEClash.Weighted>
0.2612

> <Gold.Chemscore.DEInternal.Weighted>
1.9998

> <Gold.Chemscore.Rot.Weighted>
6.6504

> <Gold.Chemscore.Internal.Correction.Weighted>
   9.000000E+99

> <Gold.Protein.RotatedTorsions>
[ 6907 6896 6895 6894 ] final  -28.65 input  -60.11 | X-H torsion
[ 7974 7965 7964 7962 ] final  117.41 input  175.53 | X-H torsion
[ 8008 7997 7996 7995 ] final -143.20 input   59.86 | X-H torsion
[ 10167 10162 10161 10158 ] final  153.44 input  -65.29 | X-H torsion
[ 10718 10713 10712 10709 ] final  150.34 input   66.30 | X-H torsion
[ 10763 10752 10751 10750 ] final -169.96 input  -60.55 | X-H torsion
[ 11005 11000 10999 10996 ] final  -40.02 input  -57.11 | X-H torsion

> <Gold.Protein.ActiveResidues>
 VAL166  LYS551  ARG553  GLY616  TRP617  ASP618  TYR619  PRO620  LYS621  CYS622 
 ASP623  PHE694  ASN695  SER759  ASP760  ASP761  ALA762  ILE779  LEU786  VAL792 
 PHE793  MET794  SER795  GLU796  ALA797  LYS798  CYS799  TRP800  GLU811  SER814 

> <Gold.Protein.RotatedAtoms>
  151.1300  135.0125  159.8577 H   0  0  0  0  0  0  0  0  0  0  0  0  # atno 6907 bound_to 6896
  152.5450  134.1622  159.8572 H   0  0  0  0  0  0  0  0  0  0  0  0  # atno 6908 bound_to 6896
  151.1687  133.4753  159.2627 H   0  0  0  0  0  0  0  0  0  0  0  0  # atno 6909 bound_to 6896
  145.1677  139.3119  143.4484 H   0  0  0  0  0  0  0  0  0  0  0  0  # atno 7974 bound_to 7965
  155.5067  140.0580  157.2930 H   0  0  0  0  0  0  0  0  0  0  0  0  # atno 8008 bound_to 7997
  154.4567  140.1976  156.0309 H   0  0  0  0  0  0  0  0  0  0  0  0  # atno 8009 bound_to 7997
  156.0812  140.3247  155.7700 H   0  0  0  0  0  0  0  0  0  0  0  0  # atno 8010 bound_to 7997
  139.4827  144.5273  151.7780 H   0  0  0  0  0  0  0  0  0  0  0  0  # atno 10167 bound_to 10162
  157.2847  131.0842  151.1506 H   0  0  0  0  0  0  0  0  0  0  0  0  # atno 10718 bound_to 10713
  154.6467  135.2906  155.0038 H   0  0  0  0  0  0  0  0  0  0  0  0  # atno 10763 bound_to 10752
  154.1145  135.6557  153.4895 H   0  0  0  0  0  0  0  0  0  0  0  0  # atno 10764 bound_to 10752
  153.0354  135.5273  154.7356 H   0  0  0  0  0  0  0  0  0  0  0  0  # atno 10765 bound_to 10752
  141.0144  133.6892  156.2265 H   0  0  0  0  0  0  0  0  0  0  0  0  # atno 11005 bound_to 11000
  146.3473  140.1811  142.8589 LP  0  0  0  0  0  0  0  0  0  0  0  0  # atno 17320 bound_to 7965
  145.0265  140.8836  143.5135 LP  0  0  0  0  0  0  0  0  0  0  0  0  # atno 17321 bound_to 7965
  140.4794  144.1471  150.5930 LP  0  0  0  0  0  0  0  0  0  0  0  0  # atno 17342 bound_to 10162
  140.4294  143.2575  151.9614 LP  0  0  0  0  0  0  0  0  0  0  0  0  # atno 17343 bound_to 10162
  157.2926  130.6804  149.6122 LP  0  0  0  0  0  0  0  0  0  0  0  0  # atno 17370 bound_to 10713
  155.9665  130.4416  150.5347 LP  0  0  0  0  0  0  0  0  0  0  0  0  # atno 17371 bound_to 10713
  140.6679  134.4899  157.5586 LP  0  0  0  0  0  0  0  0  0  0  0  0  # atno 17394 bound_to 11000
  139.9108  134.8348  156.1534 LP  0  0  0  0  0  0  0  0  0  0  0  0  # atno 17395 bound_to 11000

$$$$
