AV-unprocessed.smi:1239|AV-procd|sdf|5186|dock7
  -GOLD-   22720 4273D 1   1.00000     0.00000
 Structure written by MMmdl.
 48 49  0  0  0  0  0  0  0  0  2 V2000
  139.0468  138.7641  153.0127 C   0  0  0  0  0  0  0  0  0  0  0  0
  139.2276  139.3056  154.4540 C   0  0  1  0  0  0  0  0  0  0  0  0
  140.6099  140.0086  154.5609 C   0  0  0  0  0  0  0  0  0  0  0  0
  141.6595  139.3146  153.8172 N   0  0  0  0  0  0  0  0  0  0  0  0
  141.8409  137.9866  153.7788 C   0  0  0  0  0  0  0  0  0  0  0  0
  141.1372  137.1835  154.3906 O   0  0  0  0  0  0  0  0  0  0  0  0
  142.8938  137.6633  153.0078 N   0  0  0  0  0  0  0  0  0  0  0  0
  143.3835  136.3709  152.6741 C   0  0  0  0  0  0  0  0  0  0  0  0
  144.2402  136.2580  151.5593 C   0  0  0  0  0  0  0  0  0  0  0  0
  144.7366  134.9939  151.1795 C   0  0  0  0  0  0  0  0  0  0  0  0
  144.3652  133.8411  151.9140 C   0  0  0  0  0  0  0  0  0  0  0  0
  144.8171  132.5421  151.5956 N   0  0  0  0  0  0  0  0  0  0  0  0
  144.4399  131.9344  150.3243 C   0  0  0  0  0  0  0  0  0  0  0  0
  145.6552  131.8139  152.5390 C   0  0  0  0  0  0  0  0  0  0  0  0
  143.5310  133.9987  152.9705 N   0  3  0  0  0  0  0  0  0  0  0  0
  143.0340  135.1892  153.3698 C   0  0  0  0  0  0  0  0  0  0  0  0
  138.1010  140.1658  154.8870 N   0  0  0  0  0  0  0  0  0  0  0  0
  137.9447  141.3573  154.0442 C   0  0  0  0  0  0  0  0  0  0  0  0
  136.7622  142.2432  154.4730 C   0  0  0  0  0  0  0  0  0  0  0  0
  135.5643  141.4798  154.4617 O   0  0  0  0  0  0  0  0  0  0  0  0
  135.6416  140.3565  155.3278 C   0  0  0  0  0  0  0  0  0  0  0  0
  136.8165  139.4558  154.9081 C   0  0  0  0  0  0  0  0  0  0  0  0
  139.8888  138.1540  152.6886 H   0  0  0  0  0  0  0  0  0  0  0  0
  138.9387  139.5795  152.2969 H   0  0  0  0  0  0  0  0  0  0  0  0
  138.1782  138.1145  152.9180 H   0  0  0  0  0  0  0  0  0  0  0  0
  139.2605  138.4389  155.1162 H   0  0  0  0  0  0  0  0  0  0  0  0
  140.5190  141.0518  154.2533 H   0  0  0  0  0  0  0  0  0  0  0  0
  140.9675  140.0220  155.5888 H   0  0  0  0  0  0  0  0  0  0  0  0
  142.2931  139.8953  153.2879 H   0  0  0  0  0  0  0  0  0  0  0  0
  143.4258  138.4378  152.6383 H   0  0  0  0  0  0  0  0  0  0  0  0
  144.5217  137.1355  150.9954 H   0  0  0  0  0  0  0  0  0  0  0  0
  145.3950  134.9305  150.3260 H   0  0  0  0  0  0  0  0  0  0  0  0
  144.8041  132.5343  149.4895 H   0  0  0  0  0  0  0  0  0  0  0  0
  143.3554  131.8518  150.2458 H   0  0  0  0  0  0  0  0  0  0  0  0
  144.8589  130.9331  150.2223 H   0  0  0  0  0  0  0  0  0  0  0  0
  145.1336  131.6740  153.4864 H   0  0  0  0  0  0  0  0  0  0  0  0
  146.5818  132.3569  152.7270 H   0  0  0  0  0  0  0  0  0  0  0  0
  145.9194  130.8281  152.1559 H   0  0  0  0  0  0  0  0  0  0  0  0
  142.3693  135.1383  154.2189 H   0  0  0  0  0  0  0  0  0  0  0  0
  138.8372  141.9788  154.0862 H   0  0  0  0  0  0  0  0  0  0  0  0
  137.8138  141.0589  153.0029 H   0  0  0  0  0  0  0  0  0  0  0  0
  136.9303  142.6582  155.4683 H   0  0  0  0  0  0  0  0  0  0  0  0
  136.6530  143.0856  153.7901 H   0  0  0  0  0  0  0  0  0  0  0  0
  135.7598  140.6897  156.3601 H   0  0  0  0  0  0  0  0  0  0  0  0
  134.7037  139.8035  155.2761 H   0  0  0  0  0  0  0  0  0  0  0  0
  136.6133  139.0290  153.9248 H   0  0  0  0  0  0  0  0  0  0  0  0
  136.8447  138.6285  155.6143 H   0  0  0  0  0  0  0  0  0  0  0  0
  143.2583  133.1677  153.4956 H   0  0  0  0  0  0  0  0  0  0  0  0
  1  2  1  0  0  0  0
  1 23  1  0  0  0  0
  1 24  1  0  0  0  0
  1 25  1  0  0  0  0
  2  3  1  0  0  0  0
  2 17  1  0  0  0  0
  2 26  1  0  0  0  0
  3  4  1  0  0  0  0
  3 27  1  0  0  0  0
  3 28  1  0  0  0  0
  4  5  1  0  0  0  0
  4 29  1  0  0  0  0
  5  6  2  0  0  0  0
  5  7  1  0  0  0  0
  7  8  1  0  0  0  0
  7 30  1  0  0  0  0
  8 16  1  0  0  0  0
  8  9  2  0  0  0  0
  9 10  1  0  0  0  0
  9 31  1  0  0  0  0
 10 11  2  0  0  0  0
 10 32  1  0  0  0  0
 11 12  1  0  0  0  0
 11 15  1  0  0  0  0
 12 13  1  0  0  0  0
 12 14  1  0  0  0  0
 13 33  1  0  0  0  0
 13 34  1  0  0  0  0
 13 35  1  0  0  0  0
 14 36  1  0  0  0  0
 14 37  1  0  0  0  0
 14 38  1  0  0  0  0
 15 16  2  0  0  0  0
 15 48  1  0  0  0  0
 16 39  1  0  0  0  0
 17 22  1  0  0  0  0
 17 18  1  0  0  0  0
 18 19  1  0  0  0  0
 18 40  1  0  0  0  0
 18 41  1  0  0  0  0
 19 20  1  0  0  0  0
 19 42  1  0  0  0  0
 19 43  1  0  0  0  0
 20 21  1  0  0  0  0
 21 22  1  0  0  0  0
 21 44  1  0  0  0  0
 21 45  1  0  0  0  0
 22 46  1  0  0  0  0
 22 47  1  0  0  0  0
M  CHG  1  15   1
M  END
> <s_m_source_file>
AV-unprocessed.smi

> <i_m_source_file_index>
1239

> <i_lp_mmshare_version>
43012

> <i_f3d_flags>
0

> <s_epik_input>
W0NIMl0xW0NIMl1PW0NIMl1bQ0gyXU4xW0NASF0oW0NIM10pW0NIMl1bTkhdQyg9TylbTkhdYzJbY0hdW2NIXWMoTihbQ0gzXSlbQ0gzXSluW2NIXTI=

> <s_epik_cmdline>
J2VwaWtfcHl0aG9uJywgJy1waCcsICc3LjAnLCAnLXRuJywgJzgnLCAnLW1hJywgJzIwMCcsICctbWV0YWxfYmluZGluZycsICctaW1hZScsICc8aW5maWxlLm1hZT4nLCAnLW9tYWUnLCAnPG91dGZpbGUubWFlPic=

> <r_lp_tautomer_probability>
0.999994

> <r_epik_Ionization_Penalty>
0.528791

> <r_epik_Ionization_Penalty_Charging>
0.26278

> <r_epik_Ionization_Penalty_Neutral>
0.26601

> <r_epik_State_Penalty>
0.520375

> <r_epik_Charging_Adjusted_Penalty>
0.783156

> <i_epik_Tot_Q>
1

> <i_epik_Tot_abs_Q>
1

> <r_epik_Metal_State_Penalty>
0.806531

> <b_epik_Metal_Only>
0

> <s_lp_Force_Field>
OPLS_2005

> <r_lp_Energy>
38.5694

> <b_lp_Chiralities_Consistent>
1

> <s_lp_Variant>
AV-unprocessed.smi:1239-2

> <Gold.Version>
5.8.1

> <Gold.Id.Protein>
6NUR|6NUR_protein|mol2

> <Gold.PLP.Fitness>
42.8397

> <Gold.PLP.PLP>
-34.0855

> <Gold.PLP.part.hbond>
-3.4956

> <Gold.PLP.part.metal>
0.0000

> <Gold.PLP.part.buried>
-2.9325

> <Gold.PLP.part.nonpolar>
-28.3933

> <Gold.PLP.part.repulsive>
0.1436

> <Gold.PLP.ligand.clash>
0.0084

> <Gold.PLP.ligand.torsion>
1.5799

> <Gold.PLP.Chemscore.Hbond>
3.9600

> <Gold.PLP.Chemscore.CHOScore>
0.0000

> <Gold.PLP.Chemscore.Metal>
0.0000

> <Gold.Chemscore.Hbonds>
donor molecule, donor type, donor heavy atom, donor atom, acceptor molecule, acceptor atom, score
      L1  H     4    29       P1 10175  1.00
      L1  H     7    30       P1 10175  0.96
      L1  H    15    48       P1 10957  2.00

> <Gold.PLP.Chemscore.Internal.Correction>
0.0425

> <Gold.Rescore>
     Score         DG    S(hbond)    S(metal)    S(lipo)     H(rot)  DE(clash)    DE(int)     intcor
     14.13     -19.60       2.67        0.00      76.30       1.46       1.61       3.85       ----

> <Gold.Chemscore.Fitness>
14.1311

> <Gold.Chemscore.DG>
-19.5956

> <Gold.Chemscore.ZeroCoef>
-5.4800

> <Gold.Chemscore.Hbond>
2.6728

> <Gold.Chemscore.Metal>
0.0000

> <Gold.Chemscore.Lipo>
76.2985

> <Gold.Chemscore.Internal_Hbond>
0.0000

> <Gold.Chemscore.DEClash>
1.6131

> <Gold.Chemscore.DEInternal>
3.8514

> <Gold.Chemscore.Rot>
1.4604

> <Gold.Chemscore.Internal.Correction>
   9.000000E+99

> <Gold.Chemscore.Hbonds>
donor molecule, donor type, donor heavy atom, donor atom, acceptor molecule, acceptor atom, score
      L1  H     4    29       P1 10175  0.81
      L1  H     7    30       P1 10175  0.88
      L1  H    15    48       P1 10957  0.93

> <Gold.Chemscore.Hbond.Weighted>
-8.9272

> <Gold.Chemscore.Metal.Weighted>
-0.0000

> <Gold.Chemscore.Lipo.Weighted>
-8.9269

> <Gold.Chemscore.Internal_Hbond.Weighted>
0.0000

> <Gold.Chemscore.DEClash.Weighted>
1.6131

> <Gold.Chemscore.DEInternal.Weighted>
3.8514

> <Gold.Chemscore.Rot.Weighted>
3.7385

> <Gold.Chemscore.Internal.Correction.Weighted>
   9.000000E+99

> <Gold.Protein.RotatedTorsions>
[ 6907 6896 6895 6894 ] final -163.28 input  -60.11 | X-H torsion
[ 7974 7965 7964 7962 ] final -125.85 input  175.53 | X-H torsion
[ 8008 7997 7996 7995 ] final  -28.86 input   59.86 | X-H torsion
[ 10167 10162 10161 10158 ] final  -33.71 input  -65.29 | X-H torsion
[ 10718 10713 10712 10709 ] final   90.01 input   66.30 | X-H torsion
[ 10763 10752 10751 10750 ] final  -31.98 input  -60.55 | X-H torsion
[ 11005 11000 10999 10996 ] final  -29.25 input  -57.11 | X-H torsion

> <Gold.Protein.ActiveResidues>
 VAL166  LYS551  ARG553  GLY616  TRP617  ASP618  TYR619  PRO620  LYS621  CYS622 
 ASP623  PHE694  ASN695  SER759  ASP760  ASP761  ALA762  ILE779  LEU786  VAL792 
 PHE793  MET794  SER795  GLU796  ALA797  LYS798  CYS799  TRP800  GLU811  SER814 

> <Gold.Protein.RotatedAtoms>
  151.3935  133.3781  159.2723 H   0  0  0  0  0  0  0  0  0  0  0  0  # atno 6907 bound_to 6896
  150.9487  134.8890  159.7669 H   0  0  0  0  0  0  0  0  0  0  0  0  # atno 6908 bound_to 6896
  152.5102  134.3889  159.9429 H   0  0  0  0  0  0  0  0  0  0  0  0  # atno 6909 bound_to 6896
  144.9933  140.7752  143.4541 H   0  0  0  0  0  0  0  0  0  0  0  0  # atno 7974 bound_to 7965
  154.4314  140.1834  156.1156 H   0  0  0  0  0  0  0  0  0  0  0  0  # atno 8008 bound_to 7997
  156.0183  140.3343  155.6987 H   0  0  0  0  0  0  0  0  0  0  0  0  # atno 8009 bound_to 7997
  155.6012  140.0640  157.2723 H   0  0  0  0  0  0  0  0  0  0  0  0  # atno 8010 bound_to 7997
  140.7199  143.3600  151.1982 H   0  0  0  0  0  0  0  0  0  0  0  0  # atno 10167 bound_to 10162
  157.6957  131.0355  150.3513 H   0  0  0  0  0  0  0  0  0  0  0  0  # atno 10718 bound_to 10713
  153.8063  135.6886  153.4847 H   0  0  0  0  0  0  0  0  0  0  0  0  # atno 10763 bound_to 10752
  153.1656  135.4562  154.9831 H   0  0  0  0  0  0  0  0  0  0  0  0  # atno 10764 bound_to 10752
  154.7986  135.3328  154.7548 H   0  0  0  0  0  0  0  0  0  0  0  0  # atno 10765 bound_to 10752
  140.9279  133.7356  156.0895 H   0  0  0  0  0  0  0  0  0  0  0  0  # atno 11005 bound_to 11000
  145.2255  139.2139  143.5070 LP  0  0  0  0  0  0  0  0  0  0  0  0  # atno 17320 bound_to 7965
  146.3436  140.2122  142.8590 LP  0  0  0  0  0  0  0  0  0  0  0  0  # atno 17321 bound_to 7965
  139.7150  143.9315  152.2963 LP  0  0  0  0  0  0  0  0  0  0  0  0  # atno 17342 bound_to 10162
  139.9053  144.6888  150.8621 LP  0  0  0  0  0  0  0  0  0  0  0  0  # atno 17343 bound_to 10162
  156.3961  130.3907  149.6994 LP  0  0  0  0  0  0  0  0  0  0  0  0  # atno 17370 bound_to 10713
  156.4327  130.7823  151.2843 LP  0  0  0  0  0  0  0  0  0  0  0  0  # atno 17371 bound_to 10713
  140.7901  134.3627  157.5466 LP  0  0  0  0  0  0  0  0  0  0  0  0  # atno 17394 bound_to 11000
  139.8790  134.9135  156.3085 LP  0  0  0  0  0  0  0  0  0  0  0  0  # atno 17395 bound_to 11000

$$$$
