AV-unprocessed.smi:2923|AV-procd|sdf|11213|dock9
  -GOLD-   2272016103D 1   1.00000     0.00000
 Structure written by MMmdl.
 46 48  0  0  0  0  0  0  0  0  1 V2000
  143.9809  132.9681  149.5748 C   0  0  0  0  0  0  0  0  0  0  0  0
  144.0442  133.0927  151.0226 N   0  0  0  0  0  0  0  0  0  0  0  0
  144.8708  132.1170  151.7165 C   0  0  0  0  0  0  0  0  0  0  0  0
  144.2753  134.4088  151.4438 C   0  0  0  0  0  0  0  0  0  0  0  0
  143.2920  135.1380  152.1502 C   0  0  0  0  0  0  0  0  0  0  0  0
  143.5819  136.4562  152.5507 C   0  0  0  0  0  0  0  0  0  0  0  0
  144.8498  137.0021  152.2386 C   0  0  0  0  0  0  0  0  0  0  0  0
  145.2585  138.3219  152.5704 N   0  0  0  0  0  0  0  0  0  0  0  0
  146.4872  138.7649  152.8868 C   0  0  0  0  0  0  0  0  0  0  0  0
  147.5033  138.0726  152.9409 O   0  0  0  0  0  0  0  0  0  0  0  0
  146.4748  140.0825  153.1247 N   0  0  0  0  0  0  0  0  0  0  0  0
  147.6412  140.8887  153.4909 C   0  0  1  0  0  0  0  0  0  0  0  0
  147.2642  142.3082  153.9716 C   0  0  1  0  0  0  0  0  0  0  0  0
  145.8791  142.8873  153.8147 C   0  0  0  0  0  0  0  0  0  0  0  0
  145.2450  142.6241  155.1837 C   0  0  0  0  0  0  0  0  0  0  0  0
  146.0186  141.5664  155.7467 O   0  0  0  0  0  0  0  0  0  0  0  0
  147.3825  141.7900  155.3958 C   0  0  1  0  0  0  0  0  0  0  0  0
  148.1786  140.5608  154.9087 C   0  0  0  0  0  0  0  0  0  0  0  0
  147.8111  139.2133  155.5452 C   0  0  0  0  0  0  0  0  0  0  0  0
  149.6969  140.7031  155.0511 C   0  0  0  0  0  0  0  0  0  0  0  0
  145.7529  136.1931  151.5182 C   0  0  0  0  0  0  0  0  0  0  0  0
  145.4824  134.9281  151.1331 N   0  0  0  0  0  0  0  0  0  0  0  0
  143.3346  133.7353  149.1463 H   0  0  0  0  0  0  0  0  0  0  0  0
  143.5756  131.9945  149.2985 H   0  0  0  0  0  0  0  0  0  0  0  0
  144.9725  133.0642  149.1310 H   0  0  0  0  0  0  0  0  0  0  0  0
  144.8424  132.2823  152.7944 H   0  0  0  0  0  0  0  0  0  0  0  0
  145.9083  132.1740  151.3849 H   0  0  0  0  0  0  0  0  0  0  0  0
  144.5052  131.1087  151.5214 H   0  0  0  0  0  0  0  0  0  0  0  0
  142.3315  134.7004  152.3802 H   0  0  0  0  0  0  0  0  0  0  0  0
  142.8251  137.0199  153.0731 H   0  0  0  0  0  0  0  0  0  0  0  0
  144.5390  139.0265  152.4999 H   0  0  0  0  0  0  0  0  0  0  0  0
  145.5943  140.5714  153.0530 H   0  0  0  0  0  0  0  0  0  0  0  0
  148.4291  140.9076  152.7357 H   0  0  0  0  0  0  0  0  0  0  0  0
  148.0626  143.0173  153.7471 H   0  0  0  0  0  0  0  0  0  0  0  0
  145.9016  143.9544  153.5914 H   0  0  0  0  0  0  0  0  0  0  0  0
  145.3178  142.4013  153.0168 H   0  0  0  0  0  0  0  0  0  0  0  0
  145.3328  143.5048  155.8215 H   0  0  0  0  0  0  0  0  0  0  0  0
  144.1906  142.3566  155.1149 H   0  0  0  0  0  0  0  0  0  0  0  0
  147.9040  142.4662  156.0749 H   0  0  0  0  0  0  0  0  0  0  0  0
  148.1718  139.1448  156.5719 H   0  0  0  0  0  0  0  0  0  0  0  0
  148.2414  138.3799  154.9889 H   0  0  0  0  0  0  0  0  0  0  0  0
  146.7334  139.0539  155.5825 H   0  0  0  0  0  0  0  0  0  0  0  0
  150.0027  140.7067  156.0978 H   0  0  0  0  0  0  0  0  0  0  0  0
  150.0581  141.6321  154.6089 H   0  0  0  0  0  0  0  0  0  0  0  0
  150.2231  139.8860  154.5563 H   0  0  0  0  0  0  0  0  0  0  0  0
  146.7280  136.5695  151.2449 H   0  0  0  0  0  0  0  0  0  0  0  0
  1  2  1  0  0  0  0
  1 23  1  0  0  0  0
  1 24  1  0  0  0  0
  1 25  1  0  0  0  0
  2  3  1  0  0  0  0
  2  4  1  0  0  0  0
  3 26  1  0  0  0  0
  3 27  1  0  0  0  0
  3 28  1  0  0  0  0
  4 22  1  0  0  0  0
  4  5  2  0  0  0  0
  5  6  1  0  0  0  0
  5 29  1  0  0  0  0
  6  7  2  0  0  0  0
  6 30  1  0  0  0  0
  7  8  1  0  0  0  0
  7 21  1  0  0  0  0
  8  9  1  0  0  0  0
  8 31  1  0  0  0  0
  9 10  2  0  0  0  0
  9 11  1  0  0  0  0
 11 12  1  0  0  0  0
 11 32  1  0  0  0  0
 12 18  1  0  0  0  0
 12 13  1  0  0  0  0
 12 33  1  0  0  0  0
 13 17  1  0  0  0  0
 13 14  1  0  0  0  0
 13 34  1  0  0  0  0
 14 15  1  0  0  0  0
 14 35  1  0  0  0  0
 14 36  1  0  0  0  0
 15 16  1  0  0  0  0
 15 37  1  0  0  0  0
 15 38  1  0  0  0  0
 16 17  1  0  0  0  0
 17 18  1  0  0  0  0
 17 39  1  0  0  0  0
 18 19  1  0  0  0  0
 18 20  1  0  0  0  0
 19 40  1  0  0  0  0
 19 41  1  0  0  0  0
 19 42  1  0  0  0  0
 20 43  1  0  0  0  0
 20 44  1  0  0  0  0
 20 45  1  0  0  0  0
 21 22  2  0  0  0  0
 21 46  1  0  0  0  0
M  END
> <s_m_source_file>
AV-unprocessed.smi

> <i_m_source_file_index>
2923

> <i_lp_mmshare_version>
43012

> <i_f3d_flags>
0

> <s_epik_input>
W0NIM11OKFtDSDNdKWMxW2NIXVtjSF1jKFtjSF1uMSlbTkhdQyg9TylbTkhdW0NASF0yQyhbQ0gzXSkoW0NIM10pW0NAQEhdKFtDQEhdMjMpT1tDSDJdW0NIMl0z

> <s_epik_cmdline>
J2VwaWtfcHl0aG9uJywgJy1waCcsICc3LjAnLCAnLXRuJywgJzgnLCAnLW1hJywgJzIwMCcsICctbWV0YWxfYmluZGluZycsICctaW1hZScsICc8aW5maWxlLm1hZT4nLCAnLW9tYWUnLCAnPG91dGZpbGUubWFlPic=

> <r_lp_tautomer_probability>
1

> <r_epik_Ionization_Penalty>
0.628785

> <r_epik_Ionization_Penalty_Charging>
0

> <r_epik_Ionization_Penalty_Neutral>
0.628785

> <r_epik_State_Penalty>
0.644286

> <r_epik_Charging_Adjusted_Penalty>
0.644286

> <i_epik_Tot_Q>
0

> <i_epik_Tot_abs_Q>
0

> <r_epik_Metal_State_Penalty>
0.308404

> <b_epik_Metal_Only>
0

> <s_lp_Force_Field>
OPLS_2005

> <r_lp_Energy>
44.9089

> <b_lp_Chiralities_Consistent>
1

> <s_lp_Variant>
AV-unprocessed.smi:2923-12

> <Gold.Version>
5.8.1

> <Gold.Id.Protein>
6NUR|6NUR_protein|mol2

> <Gold.PLP.Fitness>
42.8968

> <Gold.PLP.PLP>
-34.5285

> <Gold.PLP.part.hbond>
-2.8077

> <Gold.PLP.part.metal>
0.0000

> <Gold.PLP.part.buried>
-5.2312

> <Gold.PLP.part.nonpolar>
-31.5436

> <Gold.PLP.part.repulsive>
4.2956

> <Gold.PLP.ligand.clash>
0.0000

> <Gold.PLP.ligand.torsion>
0.4299

> <Gold.PLP.Chemscore.Hbond>
1.9440

> <Gold.PLP.Chemscore.CHOScore>
1.0000

> <Gold.PLP.Chemscore.Metal>
0.0000

> <Gold.Chemscore.Hbonds>
donor molecule, donor type, donor heavy atom, donor atom, acceptor molecule, acceptor atom, score
      L1  H     8    31       P1 10175  1.00
      L1  H    11    32       P1 10175  0.94
      L1  C    21    46       P1  7948  1.00

> <Gold.PLP.Chemscore.Internal.Correction>
0.3960

> <Gold.Rescore>
     Score         DG    S(hbond)    S(metal)    S(lipo)     H(rot)  DE(clash)    DE(int)     intcor
     14.10     -17.64       1.79        0.00      78.90       1.19       1.87       1.67       ----

> <Gold.Chemscore.Fitness>
14.1017

> <Gold.Chemscore.DG>
-17.6432

> <Gold.Chemscore.ZeroCoef>
-5.4800

> <Gold.Chemscore.Hbond>
1.7928

> <Gold.Chemscore.Metal>
0.0000

> <Gold.Chemscore.Lipo>
78.9002

> <Gold.Chemscore.Internal_Hbond>
0.0000

> <Gold.Chemscore.DEClash>
1.8668

> <Gold.Chemscore.DEInternal>
1.6747

> <Gold.Chemscore.Rot>
1.1937

> <Gold.Chemscore.Internal.Correction>
   9.000000E+99

> <Gold.Chemscore.Hbonds>
donor molecule, donor type, donor heavy atom, donor atom, acceptor molecule, acceptor atom, score
      L1  H     8    31       P1 10175  1.00
      L1  H    11    32       P1 10175  0.72

> <Gold.Chemscore.Hbond.Weighted>
-5.9878

> <Gold.Chemscore.Metal.Weighted>
-0.0000

> <Gold.Chemscore.Lipo.Weighted>
-9.2313

> <Gold.Chemscore.Internal_Hbond.Weighted>
0.0000

> <Gold.Chemscore.DEClash.Weighted>
1.8668

> <Gold.Chemscore.DEInternal.Weighted>
1.6747

> <Gold.Chemscore.Rot.Weighted>
3.0559

> <Gold.Chemscore.Internal.Correction.Weighted>
   9.000000E+99

> <Gold.Protein.RotatedTorsions>
[ 6907 6896 6895 6894 ] final   26.67 input  -60.11 | X-H torsion
[ 7974 7965 7964 7962 ] final   12.00 input  175.53 | X-H torsion
[ 8008 7997 7996 7995 ] final  -98.05 input   59.86 | X-H torsion
[ 10167 10162 10161 10158 ] final  -81.48 input  -65.29 | X-H torsion
[ 10718 10713 10712 10709 ] final  -26.46 input   66.30 | X-H torsion
[ 10763 10752 10751 10750 ] final    1.80 input  -60.55 | X-H torsion
[ 11005 11000 10999 10996 ] final   11.15 input  -57.11 | X-H torsion

> <Gold.Protein.ActiveResidues>
 VAL166  LYS551  ARG553  GLY616  TRP617  ASP618  TYR619  PRO620  LYS621  CYS622 
 ASP623  PHE694  ASN695  SER759  ASP760  ASP761  ALA762  ILE779  LEU786  VAL792 
 PHE793  MET794  SER795  GLU796  ALA797  LYS798  CYS799  TRP800  GLU811  SER814 

> <Gold.Protein.RotatedAtoms>
  151.9909  134.9979  160.0561 H   0  0  0  0  0  0  0  0  0  0  0  0  # atno 6907 bound_to 6896
  152.1609  133.4576  159.4869 H   0  0  0  0  0  0  0  0  0  0  0  0  # atno 6908 bound_to 6896
  150.6887  134.1991  159.4358 H   0  0  0  0  0  0  0  0  0  0  0  0  # atno 6909 bound_to 6896
  146.2360  139.9402  142.8484 H   0  0  0  0  0  0  0  0  0  0  0  0  # atno 7974 bound_to 7965
  154.7959  140.0458  157.1236 H   0  0  0  0  0  0  0  0  0  0  0  0  # atno 8008 bound_to 7997
  154.9536  140.3068  155.5044 H   0  0  0  0  0  0  0  0  0  0  0  0  # atno 8009 bound_to 7997
  156.2956  140.2283  156.4615 H   0  0  0  0  0  0  0  0  0  0  0  0  # atno 8010 bound_to 7997
  140.4408  143.2515  151.8628 H   0  0  0  0  0  0  0  0  0  0  0  0  # atno 10167 bound_to 10162
  156.4510  130.4484  149.6990 H   0  0  0  0  0  0  0  0  0  0  0  0  # atno 10718 bound_to 10713
  153.3034  135.6957  153.7181 H   0  0  0  0  0  0  0  0  0  0  0  0  # atno 10763 bound_to 10752
  153.6087  135.3448  155.2972 H   0  0  0  0  0  0  0  0  0  0  0  0  # atno 10764 bound_to 10752
  154.8557  135.4358  154.2152 H   0  0  0  0  0  0  0  0  0  0  0  0  # atno 10765 bound_to 10752
  140.5065  134.0694  155.7807 H   0  0  0  0  0  0  0  0  0  0  0  0  # atno 11005 bound_to 11000
  145.1960  140.9833  143.4183 LP  0  0  0  0  0  0  0  0  0  0  0  0  # atno 17320 bound_to 7965
  144.9815  139.3778  143.6259 LP  0  0  0  0  0  0  0  0  0  0  0  0  # atno 17321 bound_to 7965
  139.4789  144.5231  151.8774 LP  0  0  0  0  0  0  0  0  0  0  0  0  # atno 17342 bound_to 10162
  140.4320  144.2103  150.5888 LP  0  0  0  0  0  0  0  0  0  0  0  0  # atno 17343 bound_to 10162
  156.3817  130.7582  151.2575 LP  0  0  0  0  0  0  0  0  0  0  0  0  # atno 17370 bound_to 10713
  157.7503  131.0294  150.4090 LP  0  0  0  0  0  0  0  0  0  0  0  0  # atno 17371 bound_to 10713
  141.1408  133.9141  157.2330 LP  0  0  0  0  0  0  0  0  0  0  0  0  # atno 17394 bound_to 11000
  139.9683  135.0135  156.9445 LP  0  0  0  0  0  0  0  0  0  0  0  0  # atno 17395 bound_to 11000

$$$$
