AV-unprocessed.smi:2996|AV-procd|sdf|11411|dock3
  -GOLD-   2272016333D 1   1.00000     0.00000
 Structure written by MMmdl.
 46 47  0  0  0  0  0  0  0  0  1 V2000
  152.2182  140.7349  159.1663 C   0  0  0  0  0  0  0  0  0  0  0  0
  152.1162  139.2757  158.7076 C   0  0  0  0  0  0  0  0  0  0  0  0
  151.7574  139.1678  157.2509 C   0  0  0  0  0  0  0  0  0  0  0  0
  152.5643  139.6682  156.3286 N   0  0  0  0  0  0  0  0  0  0  0  0
  151.9576  139.4067  155.0906 O   0  0  0  0  0  0  0  0  0  0  0  0
  150.7838  138.7499  155.2958 C   0  0  0  0  0  0  0  0  0  0  0  0
  150.0322  138.3472  154.0701 C   0  0  0  0  0  0  0  0  0  0  0  0
  150.6058  138.6003  156.6453 C   0  0  0  0  0  0  0  0  0  0  0  0
  149.5560  137.9623  157.3536 N   0  0  0  0  0  0  0  0  0  0  0  0
  149.6723  137.1267  158.3970 C   0  0  0  0  0  0  0  0  0  0  0  0
  150.7371  136.7718  158.9012 O   0  0  0  0  0  0  0  0  0  0  0  0
  148.4731  136.6950  158.8103 N   0  0  0  0  0  0  0  0  0  0  0  0
  148.2518  135.7308  159.8862 C   0  0  1  0  0  0  0  0  0  0  0  0
  147.2634  136.2511  160.9111 C   0  0  0  0  0  0  0  0  0  0  0  0
  146.7201  134.9681  161.5535 C   0  0  0  0  0  0  0  0  0  0  0  0
  147.5450  134.5462  162.7813 C   0  0  0  0  0  0  0  0  0  0  0  0
  145.2282  135.0783  161.9043 C   0  0  0  0  0  0  0  0  0  0  0  0
  146.8797  133.9493  160.5668 O   0  0  0  0  0  0  0  0  0  0  0  0
  147.5859  134.4185  159.4195 C   0  0  0  0  0  0  0  0  0  0  0  0
  146.5371  134.5997  158.3015 C   0  0  0  0  0  0  0  0  0  0  0  0
  148.6159  133.3473  159.0282 C   0  0  0  0  0  0  0  0  0  0  0  0
  152.4713  140.7926  160.2250 H   0  0  0  0  0  0  0  0  0  0  0  0
  151.2736  141.2598  159.0197 H   0  0  0  0  0  0  0  0  0  0  0  0
  152.9889  141.2700  158.6107 H   0  0  0  0  0  0  0  0  0  0  0  0
  153.0634  138.7694  158.8975 H   0  0  0  0  0  0  0  0  0  0  0  0
  151.3729  138.7583  159.3145 H   0  0  0  0  0  0  0  0  0  0  0  0
  149.5482  137.3807  154.2100 H   0  0  0  0  0  0  0  0  0  0  0  0
  150.7003  138.2638  153.2127 H   0  0  0  0  0  0  0  0  0  0  0  0
  149.2654  139.0827  153.8271 H   0  0  0  0  0  0  0  0  0  0  0  0
  148.6306  138.0760  156.9672 H   0  0  0  0  0  0  0  0  0  0  0  0
  147.6527  137.0381  158.3328 H   0  0  0  0  0  0  0  0  0  0  0  0
  149.1892  135.5135  160.4024 H   0  0  0  0  0  0  0  0  0  0  0  0
  147.7188  136.9323  161.6309 H   0  0  0  0  0  0  0  0  0  0  0  0
  146.4598  136.7950  160.4118 H   0  0  0  0  0  0  0  0  0  0  0  0
  147.4796  135.2906  163.5752 H   0  0  0  0  0  0  0  0  0  0  0  0
  148.5987  134.4197  162.5314 H   0  0  0  0  0  0  0  0  0  0  0  0
  147.1895  133.5981  163.1861 H   0  0  0  0  0  0  0  0  0  0  0  0
  145.0541  135.8593  162.6449 H   0  0  0  0  0  0  0  0  0  0  0  0
  144.8500  134.1409  162.3132 H   0  0  0  0  0  0  0  0  0  0  0  0
  144.6307  135.3149  161.0233 H   0  0  0  0  0  0  0  0  0  0  0  0
  146.9977  134.9178  157.3659 H   0  0  0  0  0  0  0  0  0  0  0  0
  145.7841  135.3405  158.5710 H   0  0  0  0  0  0  0  0  0  0  0  0
  146.0142  133.6637  158.1033 H   0  0  0  0  0  0  0  0  0  0  0  0
  149.1865  133.6484  158.1495 H   0  0  0  0  0  0  0  0  0  0  0  0
  148.1291  132.3993  158.7974 H   0  0  0  0  0  0  0  0  0  0  0  0
  149.3232  133.1638  159.8377 H   0  0  0  0  0  0  0  0  0  0  0  0
  1  2  1  0  0  0  0
  1 22  1  0  0  0  0
  1 23  1  0  0  0  0
  1 24  1  0  0  0  0
  2  3  1  0  0  0  0
  2 25  1  0  0  0  0
  2 26  1  0  0  0  0
  3  8  1  0  0  0  0
  3  4  2  0  0  0  0
  4  5  1  0  0  0  0
  5  6  1  0  0  0  0
  6  7  1  0  0  0  0
  6  8  2  0  0  0  0
  7 27  1  0  0  0  0
  7 28  1  0  0  0  0
  7 29  1  0  0  0  0
  8  9  1  0  0  0  0
  9 10  1  0  0  0  0
  9 30  1  0  0  0  0
 10 11  2  0  0  0  0
 10 12  1  0  0  0  0
 12 13  1  0  0  0  0
 12 31  1  0  0  0  0
 13 19  1  0  0  0  0
 13 14  1  0  0  0  0
 13 32  1  0  0  0  0
 14 15  1  0  0  0  0
 14 33  1  0  0  0  0
 14 34  1  0  0  0  0
 15 16  1  0  0  0  0
 15 17  1  0  0  0  0
 15 18  1  0  0  0  0
 16 35  1  0  0  0  0
 16 36  1  0  0  0  0
 16 37  1  0  0  0  0
 17 38  1  0  0  0  0
 17 39  1  0  0  0  0
 17 40  1  0  0  0  0
 18 19  1  0  0  0  0
 19 20  1  0  0  0  0
 19 21  1  0  0  0  0
 20 41  1  0  0  0  0
 20 42  1  0  0  0  0
 20 43  1  0  0  0  0
 21 44  1  0  0  0  0
 21 45  1  0  0  0  0
 21 46  1  0  0  0  0
M  END
> <s_m_source_file>
AV-unprocessed.smi

> <i_m_source_file_index>
2996

> <i_lp_mmshare_version>
43012

> <i_f3d_flags>
0

> <s_epik_input>
W0NIM11bQ0gyXWMxbm9jKFtDSDNdKWMxW05IXUMoPU8pW05IXVtDQEBIXShDKE8yKShbQ0gzXSlbQ0gzXSlbQ0gyXUMyKFtDSDNdKVtDSDNd

> <s_epik_cmdline>
J2VwaWtfcHl0aG9uJywgJy1waCcsICc3LjAnLCAnLXRuJywgJzgnLCAnLW1hJywgJzIwMCcsICctbWV0YWxfYmluZGluZycsICctaW1hZScsICc8aW5maWxlLm1hZT4nLCAnLW9tYWUnLCAnPG91dGZpbGUubWFlPic=

> <r_lp_tautomer_probability>
1

> <r_epik_Ionization_Penalty>
3.17207e-05

> <r_epik_Ionization_Penalty_Charging>
0

> <r_epik_Ionization_Penalty_Neutral>
3.17207e-05

> <r_epik_State_Penalty>
-0

> <r_epik_Charging_Adjusted_Penalty>
0

> <i_epik_Tot_Q>
0

> <i_epik_Tot_abs_Q>
0

> <r_epik_Metal_State_Penalty>
-0

> <b_epik_Metal_Only>
0

> <s_lp_Force_Field>
OPLS_2005

> <r_lp_Energy>
17.4613

> <b_lp_Chiralities_Consistent>
1

> <s_lp_Variant>
AV-unprocessed.smi:2996-2

> <Gold.Version>
5.8.1

> <Gold.Id.Protein>
6NUR|6NUR_protein|mol2

> <Gold.PLP.Fitness>
36.6730

> <Gold.PLP.PLP>
-28.2821

> <Gold.PLP.part.hbond>
-3.0000

> <Gold.PLP.part.metal>
0.0000

> <Gold.PLP.part.buried>
-5.4158

> <Gold.PLP.part.nonpolar>
-19.7110

> <Gold.PLP.part.repulsive>
0.2151

> <Gold.PLP.ligand.clash>
0.0000

> <Gold.PLP.ligand.torsion>
0.3881

> <Gold.PLP.Chemscore.Hbond>
2.9913

> <Gold.PLP.Chemscore.CHOScore>
0.0000

> <Gold.PLP.Chemscore.Metal>
0.0000

> <Gold.Chemscore.Hbonds>
donor molecule, donor type, donor heavy atom, donor atom, acceptor molecule, acceptor atom, score
      P1  H  6896  6907       L1    11  1.00
      P1  H  7989  7998       L1     5  0.62
      P1  H  7997  8008       L1     4  1.00

> <Gold.PLP.Chemscore.Internal.Correction>
0.1934

> <Gold.Rescore>
     Score         DG    S(hbond)    S(metal)    S(lipo)     H(rot)  DE(clash)    DE(int)     intcor
     19.51     -20.15       2.68        0.00      74.32       1.16       0.08       0.56       ----

> <Gold.Chemscore.Fitness>
19.5140

> <Gold.Chemscore.DG>
-20.1505

> <Gold.Chemscore.ZeroCoef>
-5.4800

> <Gold.Chemscore.Hbond>
2.6774

> <Gold.Chemscore.Metal>
0.0000

> <Gold.Chemscore.Lipo>
74.3167

> <Gold.Chemscore.Internal_Hbond>
0.0000

> <Gold.Chemscore.DEClash>
0.0811

> <Gold.Chemscore.DEInternal>
0.5555

> <Gold.Chemscore.Rot>
1.1590

> <Gold.Chemscore.Internal.Correction>
   9.000000E+99

> <Gold.Chemscore.Hbonds>
donor molecule, donor type, donor heavy atom, donor atom, acceptor molecule, acceptor atom, score
      P1  H  6896  6907       L1    11  0.95
      P1  H  7989  7998       L1     5  0.42
      P1  H  7997  8008       L1     4  0.94

> <Gold.Chemscore.Hbond.Weighted>
-8.9426

> <Gold.Chemscore.Metal.Weighted>
-0.0000

> <Gold.Chemscore.Lipo.Weighted>
-8.6950

> <Gold.Chemscore.Internal_Hbond.Weighted>
0.0000

> <Gold.Chemscore.DEClash.Weighted>
0.0811

> <Gold.Chemscore.DEInternal.Weighted>
0.5555

> <Gold.Chemscore.Rot.Weighted>
2.9671

> <Gold.Chemscore.Internal.Correction.Weighted>
   9.000000E+99

> <Gold.Protein.RotatedTorsions>
[ 6907 6896 6895 6894 ] final  -34.32 input  -60.11 | X-H torsion
[ 7974 7965 7964 7962 ] final  -85.62 input  175.53 | X-H torsion
[ 8008 7997 7996 7995 ] final  -41.44 input   59.86 | X-H torsion
[ 10167 10162 10161 10158 ] final  -26.43 input  -65.29 | X-H torsion
[ 10718 10713 10712 10709 ] final  -59.28 input   66.30 | X-H torsion
[ 10763 10752 10751 10750 ] final -164.69 input  -60.55 | X-H torsion
[ 11005 11000 10999 10996 ] final   -2.26 input  -57.11 | X-H torsion

> <Gold.Protein.ActiveResidues>
 VAL166  LYS551  ARG553  GLY616  TRP617  ASP618  TYR619  PRO620  LYS621  CYS622 
 ASP623  PHE694  ASN695  SER759  ASP760  ASP761  ALA762  ILE779  LEU786  VAL792 
 PHE793  MET794  SER795  GLU796  ALA797  LYS798  CYS799  TRP800  GLU811  SER814 

> <Gold.Protein.RotatedAtoms>
  151.0542  134.9693  159.8226 H   0  0  0  0  0  0  0  0  0  0  0  0  # atno 6907 bound_to 6896
  152.5385  134.2499  159.8905 H   0  0  0  0  0  0  0  0  0  0  0  0  # atno 6908 bound_to 6896
  151.2516  133.4304  159.2645 H   0  0  0  0  0  0  0  0  0  0  0  0  # atno 6909 bound_to 6896
  145.4908  140.9553  143.1813 H   0  0  0  0  0  0  0  0  0  0  0  0  # atno 7974 bound_to 7965
  154.4004  140.1499  156.3191 H   0  0  0  0  0  0  0  0  0  0  0  0  # atno 8008 bound_to 7997
  155.8546  140.3456  155.5694 H   0  0  0  0  0  0  0  0  0  0  0  0  # atno 8009 bound_to 7997
  155.7947  140.0861  157.1980 H   0  0  0  0  0  0  0  0  0  0  0  0  # atno 8010 bound_to 7997
  140.7283  143.4178  151.0999 H   0  0  0  0  0  0  0  0  0  0  0  0  # atno 10167 bound_to 10162
  156.1073  130.4179  150.0694 H   0  0  0  0  0  0  0  0  0  0  0  0  # atno 10718 bound_to 10713
  154.7004  135.2987  154.9349 H   0  0  0  0  0  0  0  0  0  0  0  0  # atno 10763 bound_to 10752
  154.0282  135.6673  153.4782 H   0  0  0  0  0  0  0  0  0  0  0  0  # atno 10764 bound_to 10752
  153.0677  135.5078  154.8146 H   0  0  0  0  0  0  0  0  0  0  0  0  # atno 10765 bound_to 10752
  140.6563  133.9359  155.8410 H   0  0  0  0  0  0  0  0  0  0  0  0  # atno 11005 bound_to 11000
  144.7835  139.6476  143.7144 LP  0  0  0  0  0  0  0  0  0  0  0  0  # atno 17320 bound_to 7965
  146.2285  139.5768  142.9571 LP  0  0  0  0  0  0  0  0  0  0  0  0  # atno 17321 bound_to 7965
  139.7820  143.8341  152.3139 LP  0  0  0  0  0  0  0  0  0  0  0  0  # atno 17342 bound_to 10162
  139.8296  144.7260  150.9468 LP  0  0  0  0  0  0  0  0  0  0  0  0  # atno 17343 bound_to 10162
  156.8666  130.9510  151.3613 LP  0  0  0  0  0  0  0  0  0  0  0  0  # atno 17370 bound_to 10713
  157.6251  130.8685  149.9175 LP  0  0  0  0  0  0  0  0  0  0  0  0  # atno 17371 bound_to 10713
  141.0499  134.0500  157.3797 LP  0  0  0  0  0  0  0  0  0  0  0  0  # atno 17394 bound_to 11000
  139.9028  135.0170  156.7349 LP  0  0  0  0  0  0  0  0  0  0  0  0  # atno 17395 bound_to 11000

$$$$
