#       Name:                AV-unprocessed.smi:1645
#       Creating user name   scv26
#       Creation time:       Fri Mar 27 07:30:37 2020


#       File generated by GOLD software.
#

@<TRIPOS>MOLECULE
AV-unprocessed.smi:1645
    59    62     1
SMALL
NO_CHARGES


@<TRIPOS>ATOM
      1 ****        -0.9474   1.8634  -0.2999 O.2            1 S1                 0.0000
      2 ****        -1.2071   0.7495  -0.7525 C.2            1 S1                 0.0000
      3 ****        -0.3153  -0.2250  -1.0008 N.am           1 S1                 0.0000
      4 ****         1.0962  -0.2224  -0.8249 C.ar           1 S1                 0.0000
      5 ****         1.8284   0.7761  -0.1399 C.ar           1 S1                 0.0000
      6 ****         3.2270   0.6489  -0.0391 C.ar           1 S1                 0.0000
      7 ****         3.8658  -0.4739  -0.6155 C.ar           1 S1                 0.0000
      8 ****         5.2678  -0.6185  -0.5274 N.3            1 S1                 0.0000
      9 ****         5.9079  -1.6060  -1.4008 C.3            1 S1                 0.0000
     10 ****         7.4256  -1.3721  -1.4873 C.3            1 S1                 0.0000
     11 ****         8.0571  -1.3258  -0.0886 C.3            1 S1                 0.0000
     12 ****         7.3486  -0.2694   0.7717 C.3            1 S1                 0.0000
     13 ****         5.8318  -0.5217   0.8210 C.3            1 S1                 0.0000
     14 ****         3.1606  -1.4306  -1.2667 N.ar           1 S1                 0.0000
     15 ****         1.8208  -1.3048  -1.3617 C.ar           1 S1                 0.0000
     16 ****        -2.4506   0.3560  -1.0641 N.am           1 S1                 0.0000
     17 ****        -3.6506   1.1821  -0.9397 C.3            1 S1                 0.0000
     18 ****        -4.7557   0.7981  -1.9418 C.3            1 S1                 0.0000
     19 ****        -6.0581   0.9282  -1.1457 C.3            1 S1                 0.0000
     20 ****        -5.6536   0.5269   0.2062 N.4            1 S1                 1.0000
     21 ****        -6.5932   0.7496   1.3232 C.3            1 S1                 0.0000
     22 ****        -6.0189   0.0658   2.5825 C.3            1 S1                 0.0000
     23 ****        -4.5643   0.5011   2.8733 C.3            1 S1                 0.0000
     24 ****        -3.6629   0.3729   1.6254 C.3            1 S1                 0.0000
     25 ****        -4.3258   1.1158   0.4514 C.3            1 S1                 0.0000
     26 ****        -0.6903  -1.0707  -1.4051 H              1 S1                 0.0000
     27 ****         1.3586   1.6337   0.3135 H              1 S1                 0.0000
     28 ****         3.7919   1.4186   0.4652 H              1 S1                 0.0000
     29 ****         5.7059  -2.6063  -1.0154 H              1 S1                 0.0000
     30 ****         5.4839  -1.5550  -2.4045 H              1 S1                 0.0000
     31 ****         7.8902  -2.1581  -2.0831 H              1 S1                 0.0000
     32 ****         7.6204  -0.4329  -2.0069 H              1 S1                 0.0000
     33 ****         7.9733  -2.3043   0.3859 H              1 S1                 0.0000
     34 ****         9.1216  -1.1020  -0.1620 H              1 S1                 0.0000
     35 ****         7.7598  -0.2721   1.7815 H              1 S1                 0.0000
     36 ****         7.5396   0.7233   0.3619 H              1 S1                 0.0000
     37 ****         5.3625   0.2707   1.4023 H              1 S1                 0.0000
     38 ****         5.6288  -1.4546   1.3482 H              1 S1                 0.0000
     39 ****         1.3106  -2.0971  -1.8897 H              1 S1                 0.0000
     40 ****        -2.5740  -0.5760  -1.4321 H              1 S1                 0.0000
     41 ****        -3.3796   2.2217  -1.1349 H              1 S1                 0.0000
     42 ****        -4.7490   1.4223  -2.8360 H              1 S1                 0.0000
     43 ****        -4.6330  -0.2379  -2.2620 H              1 S1                 0.0000
     44 ****        -6.4024   1.9636  -1.1365 H              1 S1                 0.0000
     45 ****        -6.8573   0.2986  -1.5375 H              1 S1                 0.0000
     46 ****        -6.7351   1.8186   1.4893 H              1 S1                 0.0000
     47 ****        -7.5678   0.3273   1.0764 H              1 S1                 0.0000
     48 ****        -6.6522   0.2771   3.4447 H              1 S1                 0.0000
     49 ****        -6.0439  -1.0159   2.4430 H              1 S1                 0.0000
     50 ****        -4.5634   1.5383   3.2112 H              1 S1                 0.0000
     51 ****        -4.1539  -0.0880   3.6939 H              1 S1                 0.0000
     52 ****        -2.6798   0.7928   1.8397 H              1 S1                 0.0000
     53 ****        -3.5142  -0.6787   1.3763 H              1 S1                 0.0000
     54 ****        -4.4800   2.1518   0.7612 H              1 S1                 0.0000
     55 ****        -5.5069  -0.4710   0.1541 H              1 S1                 0.0000
     56 ****        -0.0020   2.1072  -0.0836 LP             1 S1                 0.0000
     57 ****        -1.6816   2.5251  -0.1483 LP             1 S1                 0.0000
     58 ****         5.5555   0.2316  -0.9685 LP             1 S1                 0.0000
     59 ****         3.6264  -2.2179  -1.6707 LP             1 S1                 0.0000
@<TRIPOS>BOND
    1    1    2 2     
    2    2    3 am    
    3    2   16 am    
    4    3    4 1     
    5    3   26 1     
    6    4   15 ar    
    7    4    5 ar    
    8    5    6 ar    
    9    5   27 1     
   10    6    7 ar    
   11    6   28 1     
   12    7    8 1     
   13    7   14 ar    
   14    8   13 1     
   15    8    9 1     
   16    9   10 1     
   17    9   29 1     
   18    9   30 1     
   19   10   11 1     
   20   10   31 1     
   21   10   32 1     
   22   11   12 1     
   23   11   33 1     
   24   11   34 1     
   25   12   13 1     
   26   12   35 1     
   27   12   36 1     
   28   13   37 1     
   29   13   38 1     
   30   14   15 ar    
   31   15   39 1     
   32   16   17 1     
   33   16   40 1     
   34   17   25 1     
   35   17   18 1     
   36   17   41 1     
   37   18   19 1     
   38   18   42 1     
   39   18   43 1     
   40   19   20 1     
   41   19   44 1     
   42   19   45 1     
   43   20   25 1     
   44   20   21 1     
   45   20   55 1     
   46   21   22 1     
   47   21   46 1     
   48   21   47 1     
   49   22   23 1     
   50   22   48 1     
   51   22   49 1     
   52   23   24 1     
   53   23   50 1     
   54   23   51 1     
   55   24   25 1     
   56   24   52 1     
   57   24   53 1     
   58   25   54 1     
   59    1   56 1     
   60    1   57 1     
   61    8   58 1     
   62   14   59 1     
@<TRIPOS>SUBSTRUCTURE
      1 S1             1
@<TRIPOS>SET
LONE_PAIRS      STATIC     ATOMS    <user>   **** ""
4 56 57 58 59
DONOR_HYDROGENS      STATIC     ATOMS    <user>   **** ""
3 26 40 55
ATOM$BLUE        STATIC     ATOMS    COLORGROUP SYSTEM
4 56 57 58 59
ATOM$RED        STATIC     ATOMS    COLORGROUP SYSTEM
3 26 40 55
