AV-unprocessed.smi:414|AV-procd|sdf|2516|dock1
  -GOLD-   2262022463D 1   1.00000     0.00000
 Structure written by MMmdl.
 37 38  0  0  0  0  0  0  0  0  2 V2000
  153.4977  143.5981  163.7068 C   0  0  0  0  0  0  0  0  0  0  0  0
  153.3781  143.3365  162.1988 C   0  0  2  0  0  0  0  0  0  0  0  0
  152.1987  144.1139  161.5838 C   0  0  0  0  0  0  0  0  0  0  0  0
  152.0760  143.8527  160.0740 C   0  0  0  0  0  0  0  0  0  0  0  0
  151.9388  142.3493  159.7734 C   0  0  1  0  0  0  0  0  0  0  0  0
  151.8807  142.1429  158.3298 N   0  0  0  0  0  0  0  0  0  0  0  0
  150.8647  141.5700  157.6665 C   0  0  0  0  0  0  0  0  0  0  0  0
  149.8611  141.1223  158.2224 O   0  0  0  0  0  0  0  0  0  0  0  0
  151.0278  141.4591  156.1449 C   0  0  0  0  0  0  0  0  0  0  0  0
  151.1382  140.0654  155.6861 N   0  0  0  0  0  0  0  0  0  0  0  0
  150.2172  139.6170  154.7227 C   0  0  0  0  0  0  0  0  0  0  0  0
  150.2461  138.3586  154.2442 C   0  0  0  0  0  0  0  0  0  0  0  0
  151.2674  137.4505  154.7513 C   0  0  0  0  0  0  0  0  0  0  0  0
  151.3061  136.2964  154.3291 O   0  0  0  0  0  0  0  0  0  0  0  0
  152.1412  137.9342  155.6820 N   0  5  0  0  0  0  0  0  0  0  0  0
  152.1019  139.2176  156.1573 C   0  0  0  0  0  0  0  0  0  0  0  0
  152.9026  139.6349  156.9951 O   0  0  0  0  0  0  0  0  0  0  0  0
  153.1135  141.5627  160.3888 C   0  0  0  0  0  0  0  0  0  0  0  0
  153.2427  141.8317  161.8971 C   0  0  0  0  0  0  0  0  0  0  0  0
  152.6059  143.2653  164.2388 H   0  0  0  0  0  0  0  0  0  0  0  0
  153.6308  144.6606  163.9118 H   0  0  0  0  0  0  0  0  0  0  0  0
  154.3538  143.0719  164.1298 H   0  0  0  0  0  0  0  0  0  0  0  0
  154.2968  143.6924  161.7299 H   0  0  0  0  0  0  0  0  0  0  0  0
  151.2694  143.8268  162.0777 H   0  0  0  0  0  0  0  0  0  0  0  0
  152.3234  145.1829  161.7597 H   0  0  0  0  0  0  0  0  0  0  0  0
  151.2153  144.3929  159.6778 H   0  0  0  0  0  0  0  0  0  0  0  0
  152.9539  144.2544  159.5655 H   0  0  0  0  0  0  0  0  0  0  0  0
  151.0064  141.9997  160.2214 H   0  0  0  0  0  0  0  0  0  0  0  0
  152.6647  142.4788  157.7897 H   0  0  0  0  0  0  0  0  0  0  0  0
  150.1960  141.9552  155.6408 H   0  0  0  0  0  0  0  0  0  0  0  0
  151.9146  142.0261  155.8585 H   0  0  0  0  0  0  0  0  0  0  0  0
  149.4983  140.3534  154.3950 H   0  0  0  0  0  0  0  0  0  0  0  0
  149.5339  138.0306  153.5015 H   0  0  0  0  0  0  0  0  0  0  0  0
  152.9798  140.4934  160.2207 H   0  0  0  0  0  0  0  0  0  0  0  0
  154.0445  141.8386  159.8916 H   0  0  0  0  0  0  0  0  0  0  0  0
  154.1061  141.2934  162.2902 H   0  0  0  0  0  0  0  0  0  0  0  0
  152.3688  141.4299  162.4118 H   0  0  0  0  0  0  0  0  0  0  0  0
  1  2  1  0  0  0  0
  1 20  1  0  0  0  0
  1 21  1  0  0  0  0
  1 22  1  0  0  0  0
  2 19  1  0  0  0  0
  2  3  1  0  0  0  0
  2 23  1  0  0  0  0
  3  4  1  0  0  0  0
  3 24  1  0  0  0  0
  3 25  1  0  0  0  0
  4  5  1  0  0  0  0
  4 26  1  0  0  0  0
  4 27  1  0  0  0  0
  5  6  1  0  0  0  0
  5 18  1  0  0  0  0
  5 28  1  0  0  0  0
  6  7  1  0  0  0  0
  6 29  1  0  0  0  0
  7  8  2  0  0  0  0
  7  9  1  0  0  0  0
  9 10  1  0  0  0  0
  9 30  1  0  0  0  0
  9 31  1  0  0  0  0
 10 16  1  0  0  0  0
 10 11  1  0  0  0  0
 11 12  2  0  0  0  0
 11 32  1  0  0  0  0
 12 13  1  0  0  0  0
 12 33  1  0  0  0  0
 13 14  2  0  0  0  0
 13 15  1  0  0  0  0
 15 16  1  0  0  0  0
 16 17  2  0  0  0  0
 18 19  1  0  0  0  0
 18 34  1  0  0  0  0
 18 35  1  0  0  0  0
 19 36  1  0  0  0  0
 19 37  1  0  0  0  0
M  CHG  1  15  -1
M  END
> <s_m_source_file>
AV-unprocessed.smi

> <i_m_source_file_index>
414

> <i_lp_mmshare_version>
43012

> <i_f3d_flags>
0

> <s_epik_input>
W0NIM11bQ0BASF0xW0NIMl1bQ0gyXVtDQEhdKFtDSDJdW0NIMl0xKVtOSF1DKD1PKVtDSDJdbjJbY0hdW2NIXWMoPU8pW25IXWMyPU8=

> <s_epik_cmdline>
J2VwaWtfcHl0aG9uJywgJy1waCcsICc3LjAnLCAnLXRuJywgJzgnLCAnLW1hJywgJzIwMCcsICctbWV0YWxfYmluZGluZycsICctaW1hZScsICc8aW5maWxlLm1hZT4nLCAnLW9tYWUnLCAnPG91dGZpbGUubWFlPic=

> <r_lp_tautomer_probability>
0.999537

> <r_epik_Ionization_Penalty>
3.11551

> <r_epik_Ionization_Penalty_Charging>
2.90498e-08

> <r_epik_Ionization_Penalty_Neutral>
3.11551

> <r_epik_State_Penalty>
3.11459

> <r_epik_Charging_Adjusted_Penalty>
3.11459

> <i_epik_Tot_Q>
-1

> <i_epik_Tot_abs_Q>
1

> <r_epik_Metal_State_Penalty>
0.463083

> <b_epik_Metal_Only>
1

> <s_lp_Force_Field>
OPLS_2005

> <r_lp_Energy>
17.7967

> <b_lp_Chiralities_Consistent>
1

> <s_lp_Variant>
AV-unprocessed.smi:414-3

> <Gold.Version>
5.8.1

> <Gold.Id.Protein>
6NUR|6NUR_protein|mol2

> <Gold.PLP.Fitness>
46.7380

> <Gold.PLP.PLP>
-40.8251

> <Gold.PLP.part.hbond>
-2.0000

> <Gold.PLP.part.metal>
0.0000

> <Gold.PLP.part.buried>
-5.5209

> <Gold.PLP.part.nonpolar>
-34.4426

> <Gold.PLP.part.repulsive>
2.0881

> <Gold.PLP.ligand.clash>
0.0000

> <Gold.PLP.ligand.torsion>
0.0474

> <Gold.PLP.Chemscore.Hbond>
2.0000

> <Gold.PLP.Chemscore.CHOScore>
0.0000

> <Gold.PLP.Chemscore.Metal>
0.0000

> <Gold.Chemscore.Hbonds>
donor molecule, donor type, donor heavy atom, donor atom, acceptor molecule, acceptor atom, score
      P1  H  7997  8008       L1    17  1.00
      P1  H 10752 10764       L1    14  1.00

> <Gold.PLP.Chemscore.Internal.Correction>
0.0079

> <Gold.Rescore>
     Score         DG    S(hbond)    S(metal)    S(lipo)     H(rot)  DE(clash)    DE(int)     intcor
     16.34     -19.29       1.88        0.00     100.46       1.65       0.96       1.98       ----

> <Gold.Chemscore.Fitness>
16.3440

> <Gold.Chemscore.DG>
-19.2883

> <Gold.Chemscore.ZeroCoef>
-5.4800

> <Gold.Chemscore.Hbond>
1.8833

> <Gold.Chemscore.Metal>
0.0000

> <Gold.Chemscore.Lipo>
100.4648

> <Gold.Chemscore.Internal_Hbond>
0.0000

> <Gold.Chemscore.DEClash>
0.9648

> <Gold.Chemscore.DEInternal>
1.9794

> <Gold.Chemscore.Rot>
1.6549

> <Gold.Chemscore.Internal.Correction>
   9.000000E+99

> <Gold.Chemscore.Hbonds>
donor molecule, donor type, donor heavy atom, donor atom, acceptor molecule, acceptor atom, score
      P1  H  7997  8008       L1    17  0.96
      P1  H 10752 10764       L1    14  0.85

> <Gold.Chemscore.Hbond.Weighted>
-6.2903

> <Gold.Chemscore.Metal.Weighted>
-0.0000

> <Gold.Chemscore.Lipo.Weighted>
-11.7544

> <Gold.Chemscore.Internal_Hbond.Weighted>
0.0000

> <Gold.Chemscore.DEClash.Weighted>
0.9648

> <Gold.Chemscore.DEInternal.Weighted>
1.9794

> <Gold.Chemscore.Rot.Weighted>
4.2364

> <Gold.Chemscore.Internal.Correction.Weighted>
   9.000000E+99

> <Gold.Protein.RotatedTorsions>
[ 6907 6896 6895 6894 ] final   97.17 input  -60.11 | X-H torsion
[ 7974 7965 7964 7962 ] final   29.81 input  175.53 | X-H torsion
[ 8008 7997 7996 7995 ] final  -53.62 input   59.86 | X-H torsion
[ 10167 10162 10161 10158 ] final -150.66 input  -65.29 | X-H torsion
[ 10718 10713 10712 10709 ] final -140.18 input   66.30 | X-H torsion
[ 10763 10752 10751 10750 ] final  -74.39 input  -60.55 | X-H torsion
[ 11005 11000 10999 10996 ] final   31.30 input  -57.11 | X-H torsion

> <Gold.Protein.ActiveResidues>
 VAL166  LYS551  ARG553  GLY616  TRP617  ASP618  TYR619  PRO620  LYS621  CYS622 
 ASP623  PHE694  ASN695  SER759  ASP760  ASP761  ALA762  ILE779  LEU786  VAL792 
 PHE793  MET794  SER795  GLU796  ALA797  LYS798  CYS799  TRP800  GLU811  SER814 

> <Gold.Protein.RotatedAtoms>
  152.5427  134.0774  159.8220 H   0  0  0  0  0  0  0  0  0  0  0  0  # atno 6907 bound_to 6896
  151.0881  133.5330  159.2624 H   0  0  0  0  0  0  0  0  0  0  0  0  # atno 6908 bound_to 6896
  151.2132  135.0498  159.8974 H   0  0  0  0  0  0  0  0  0  0  0  0  # atno 6909 bound_to 6896
  146.1649  139.6872  142.9008 H   0  0  0  0  0  0  0  0  0  0  0  0  # atno 7974 bound_to 7965
  154.4138  140.1195  156.5183 H   0  0  0  0  0  0  0  0  0  0  0  0  # atno 8008 bound_to 7997
  155.6728  140.3496  155.4806 H   0  0  0  0  0  0  0  0  0  0  0  0  # atno 8009 bound_to 7997
  155.9618  140.1124  157.0879 H   0  0  0  0  0  0  0  0  0  0  0  0  # atno 8010 bound_to 7997
  139.7335  143.8772  152.2542 H   0  0  0  0  0  0  0  0  0  0  0  0  # atno 10167 bound_to 10162
  156.3193  130.7525  151.1619 H   0  0  0  0  0  0  0  0  0  0  0  0  # atno 10718 bound_to 10713
  154.4724  135.5866  153.6331 H   0  0  0  0  0  0  0  0  0  0  0  0  # atno 10763 bound_to 10752
  152.9836  135.6070  154.3349 H   0  0  0  0  0  0  0  0  0  0  0  0  # atno 10764 bound_to 10752
  154.3232  135.2843  155.2488 H   0  0  0  0  0  0  0  0  0  0  0  0  # atno 10765 bound_to 10752
  140.2854  134.2926  155.7789 H   0  0  0  0  0  0  0  0  0  0  0  0  # atno 11005 bound_to 11000
  145.4492  141.0427  143.2814 LP  0  0  0  0  0  0  0  0  0  0  0  0  # atno 17320 bound_to 7965
  144.8079  139.6017  143.7043 LP  0  0  0  0  0  0  0  0  0  0  0  0  # atno 17321 bound_to 7965
  139.8702  144.7072  150.8997 LP  0  0  0  0  0  0  0  0  0  0  0  0  # atno 17342 bound_to 10162
  140.7775  143.3745  151.1589 LP  0  0  0  0  0  0  0  0  0  0  0  0  # atno 17343 bound_to 10162
  157.7408  131.0512  150.5140 LP  0  0  0  0  0  0  0  0  0  0  0  0  # atno 17370 bound_to 10713
  156.5290  130.4180  149.6211 LP  0  0  0  0  0  0  0  0  0  0  0  0  # atno 17371 bound_to 10713
  141.2156  133.7551  156.9543 LP  0  0  0  0  0  0  0  0  0  0  0  0  # atno 17394 bound_to 11000
  140.1245  134.9396  157.2250 LP  0  0  0  0  0  0  0  0  0  0  0  0  # atno 17395 bound_to 11000

$$$$
