#       Name:                AV-unprocessed.smi:1099
#       Creating user name   scv26
#       Creation time:       Fri Mar 27 03:29:08 2020


#       File generated by GOLD software.
#

@<TRIPOS>MOLECULE
AV-unprocessed.smi:1099
    44    46     1
SMALL
NO_CHARGES


@<TRIPOS>ATOM
      1 ****        -6.2124   2.3135   3.1950 C.3            1 S1                 0.0000
      2 ****        -5.9174   2.4021   1.6940 C.3            1 S1                 0.0000
      3 ****        -5.0240   1.3048   1.2204 C.2            1 S1                 0.0000
      4 ****        -3.6905   1.3838   1.2288 N.2            1 S1                 0.0000
      5 ****        -3.0787   0.2128   0.7698 C.2            1 S1                 0.0000
      6 ****        -1.5846   0.1255   0.6973 C.3            1 S1                 0.0000
      7 ****        -1.0206   0.8282  -0.5489 C.3            1 S1                 0.0000
      8 ****         0.4336   0.7324  -0.6070 N.am           1 S1                 0.0000
      9 ****         1.1180  -0.3369  -1.0423 C.2            1 S1                 0.0000
     10 ****         0.5690  -1.3594  -1.4538 O.2            1 S1                 0.0000
     11 ****         2.6526  -0.2258  -0.9993 C.3            1 S1                 0.0000
     12 ****         3.3279  -0.4819  -2.3696 C.3            1 S1                 0.0000
     13 ****         4.3295  -1.6130  -2.0640 C.3            1 S1                 0.0000
     14 ****         5.4623  -1.0685  -1.1728 C.3            1 S1                 0.0000
     15 ****         4.7648  -0.8862   0.1893 C.3            1 S1                 0.0000
     16 ****         3.3158  -1.3128  -0.1155 C.3            1 S1                 0.0000
     17 ****         3.5470  -2.4738  -1.0821 C.3            1 S1                 0.0000
     18 ****        -3.9761  -0.7652   0.4201 C.2            1 S1                 0.0000
     19 ****        -5.6234  -0.2520   0.6592 S.3            1 S1                 0.0000
     20 ****        -6.8682   3.1253   3.5105 H              1 S1                 0.0000
     21 ****        -5.2951   2.3787   3.7811 H              1 S1                 0.0000
     22 ****        -6.7035   1.3724   3.4441 H              1 S1                 0.0000
     23 ****        -6.8492   2.3613   1.1294 H              1 S1                 0.0000
     24 ****        -5.4531   3.3611   1.4613 H              1 S1                 0.0000
     25 ****        -1.1436   0.5651   1.5928 H              1 S1                 0.0000
     26 ****        -1.2788  -0.9215   0.6986 H              1 S1                 0.0000
     27 ****        -1.4593   0.4079  -1.4556 H              1 S1                 0.0000
     28 ****        -1.2899   1.8848  -0.5353 H              1 S1                 0.0000
     29 ****         0.9576   1.5348  -0.2886 H              1 S1                 0.0000
     30 ****         2.9190   0.7667  -0.6312 H              1 S1                 0.0000
     31 ****         2.6142  -0.8045  -3.1294 H              1 S1                 0.0000
     32 ****         3.8260   0.4096  -2.7524 H              1 S1                 0.0000
     33 ****         4.6849  -2.1344  -2.9533 H              1 S1                 0.0000
     34 ****         6.2766  -1.7895  -1.0921 H              1 S1                 0.0000
     35 ****         5.8774  -0.1358  -1.5566 H              1 S1                 0.0000
     36 ****         5.2112  -1.5418   0.9381 H              1 S1                 0.0000
     37 ****         4.8324   0.1369   0.5607 H              1 S1                 0.0000
     38 ****         2.7445  -1.5724   0.7770 H              1 S1                 0.0000
     39 ****         2.6354  -2.8946  -1.5068 H              1 S1                 0.0000
     40 ****         4.1387  -3.2835  -0.6513 H              1 S1                 0.0000
     41 ****        -3.7680  -1.7543   0.0396 H              1 S1                 0.0000
     42 ****        -3.1849   2.1921   1.5304 LP             1 S1                 0.0000
     43 ****        -0.4292  -1.4177  -1.4734 LP             1 S1                 0.0000
     44 ****         1.1212  -2.1315  -1.7683 LP             1 S1                 0.0000
@<TRIPOS>BOND
    1    1    2 1     
    2    1   20 1     
    3    1   21 1     
    4    1   22 1     
    5    2    3 1     
    6    2   23 1     
    7    2   24 1     
    8    3   19 1     
    9    3    4 2     
   10    4    5 1     
   11    5    6 1     
   12    5   18 2     
   13    6    7 1     
   14    6   25 1     
   15    6   26 1     
   16    7    8 1     
   17    7   27 1     
   18    7   28 1     
   19    8    9 am    
   20    8   29 1     
   21    9   10 2     
   22    9   11 1     
   23   11   16 1     
   24   11   12 1     
   25   11   30 1     
   26   12   13 1     
   27   12   31 1     
   28   12   32 1     
   29   13   17 1     
   30   13   14 1     
   31   13   33 1     
   32   14   15 1     
   33   14   34 1     
   34   14   35 1     
   35   15   16 1     
   36   15   36 1     
   37   15   37 1     
   38   16   17 1     
   39   16   38 1     
   40   17   39 1     
   41   17   40 1     
   42   18   19 1     
   43   18   41 1     
   44    4   42 1     
   45   10   43 1     
   46   10   44 1     
@<TRIPOS>SUBSTRUCTURE
      1 S1             1
@<TRIPOS>SET
LONE_PAIRS      STATIC     ATOMS    <user>   **** ""
3 42 43 44
DONOR_HYDROGENS      STATIC     ATOMS    <user>   **** ""
1 29
ATOM$BLUE        STATIC     ATOMS    COLORGROUP SYSTEM
3 42 43 44
ATOM$RED        STATIC     ATOMS    COLORGROUP SYSTEM
1 29
