#       Name:                AV-unprocessed.smi:103
#       Creating user name   scv26
#       Creation time:       Thu Mar 26 17:56:13 2020


#       File generated by GOLD software.
#

@<TRIPOS>MOLECULE
AV-unprocessed.smi:103
    64    66     1
SMALL
NO_CHARGES


@<TRIPOS>ATOM
      1 ****        -2.9978   4.4562  -2.9813 C.3            1 S1                 0.0000
      2 ****        -3.1020   3.9015  -1.5670 C.2            1 S1                 0.0000
      3 ****        -4.0381   4.1991  -0.8249 O.2            1 S1                 0.0000
      4 ****        -2.0844   3.0833  -1.2647 O.3            1 S1                 0.0000
      5 ****        -2.0396   2.4541   0.0052 C.3            1 S1                 0.0000
      6 ****        -0.9666   1.3593  -0.0030 C.3            1 S1                 0.0000
      7 ****        -0.7571   0.8904   1.3196 O.3            1 S1                 0.0000
      8 ****        -0.2422  -0.4019   1.2850 C.3            1 S1                 0.0000
      9 ****         1.2502  -0.3292   1.4776 N.pl3          1 S1                 0.0000
     10 ****         1.9653  -0.4811   2.6513 C.2            1 S1                 0.0000
     11 ****         1.2986  -0.8793   4.2648 S.o2           1 S1                 0.0000
     12 ****         1.0032  -2.6889   4.1209 C.3            1 S1                 0.0000
     13 ****         2.3708  -0.6399   5.2437 O.2            1 S1                 0.0000
     14 ****         0.0089  -0.1827   4.3875 O.2            1 S1                 0.0000
     15 ****         3.2653  -0.4200   2.5637 N.2            1 S1                 0.0000
     16 ****         3.4752  -0.1103   1.2299 C.ar           1 S1                 0.0000
     17 ****         4.6356   0.1343   0.4530 C.ar           1 S1                 0.0000
     18 ****         5.8758   0.0923   0.9590 N.pl3          1 S1                 0.0000
     19 ****         4.4873   0.4276  -0.8591 N.ar           1 S1                 0.0000
     20 ****         3.2608   0.4782  -1.3856 C.ar           1 S1                 0.0000
     21 ****         2.0872   0.2681  -0.7853 N.ar           1 S1                 0.0000
     22 ****         2.2296  -0.0309   0.5407 C.ar           1 S1                 0.0000
     23 ****        -0.6429  -1.0345  -0.0602 C.3            1 S1                 0.0000
     24 ****        -1.5337  -2.1245   0.1394 O.3            1 S1                 0.0000
     25 ****        -1.0498  -3.3425   0.4408 C.2            1 S1                 0.0000
     26 ****        -2.1506  -4.3820   0.6011 C.3            1 S1                 0.0000
     27 ****         0.1371  -3.6328   0.5921 O.2            1 S1                 0.0000
     28 ****        -1.3607   0.0988  -0.7840 C.3            1 S1                 0.0000
     29 ****        -0.8966   0.1522  -2.1275 O.3            1 S1                 0.0000
     30 ****        -1.7515   0.3667  -3.1415 C.2            1 S1                 0.0000
     31 ****        -1.0501   0.3939  -4.4926 C.3            1 S1                 0.0000
     32 ****        -2.9670   0.5356  -3.0455 O.2            1 S1                 0.0000
     33 ****        -2.0558   4.9894  -3.1107 H              1 S1                 0.0000
     34 ****        -3.8167   5.1469  -3.1836 H              1 S1                 0.0000
     35 ****        -3.0406   3.6454  -3.7088 H              1 S1                 0.0000
     36 ****        -1.8001   3.2048   0.7592 H              1 S1                 0.0000
     37 ****        -3.0100   2.0278   0.2647 H              1 S1                 0.0000
     38 ****        -0.0242   1.7690  -0.3655 H              1 S1                 0.0000
     39 ****        -0.6055  -0.9752   2.1346 H              1 S1                 0.0000
     40 ****         0.6065  -3.0672   5.0626 H              1 S1                 0.0000
     41 ****         1.9428  -3.1928   3.8947 H              1 S1                 0.0000
     42 ****         0.2880  -2.8834   3.3232 H              1 S1                 0.0000
     43 ****         6.0132  -0.1216   1.9364 H              1 S1                 0.0000
     44 ****         6.6701   0.2761   0.3632 H              1 S1                 0.0000
     45 ****         3.2119   0.7191  -2.4373 H              1 S1                 0.0000
     46 ****         0.2376  -1.3677  -0.6081 H              1 S1                 0.0000
     47 ****        -2.6779  -4.5230  -0.3426 H              1 S1                 0.0000
     48 ****        -2.8687  -4.0608   1.3556 H              1 S1                 0.0000
     49 ****        -1.7311  -5.3397   0.9095 H              1 S1                 0.0000
     50 ****        -2.4386  -0.0578  -0.7138 H              1 S1                 0.0000
     51 ****        -0.6309  -0.5861  -4.7210 H              1 S1                 0.0000
     52 ****        -0.2409   1.1243  -4.4844 H              1 S1                 0.0000
     53 ****        -1.7510   0.6639  -5.2829 H              1 S1                 0.0000
     54 ****        -4.7537   4.8190  -1.1467 LP             1 S1                 0.0000
     55 ****        -4.0829   3.8208   0.0998 LP             1 S1                 0.0000
     56 ****        -1.6270   0.8881   1.8129 LP             1 S1                 0.0000
     57 ****        -0.1104   1.4931   1.7871 LP             1 S1                 0.0000
     58 ****         3.9447  -0.5621   3.2837 LP             1 S1                 0.0000
     59 ****         5.2890   0.6050  -1.4299 LP             1 S1                 0.0000
     60 ****         1.2047   0.3231  -1.2524 LP             1 S1                 0.0000
     61 ****         0.8407  -2.9295   0.4910 LP             1 S1                 0.0000
     62 ****         0.3975  -4.5720   0.8162 LP             1 S1                 0.0000
     63 ****        -3.4045   0.5198  -2.1464 LP             1 S1                 0.0000
     64 ****        -3.5169   0.6885  -3.8665 LP             1 S1                 0.0000
@<TRIPOS>BOND
    1    1    2 1     
    2    1   33 1     
    3    1   34 1     
    4    1   35 1     
    5    2    3 2     
    6    2    4 1     
    7    4    5 1     
    8    5    6 1     
    9    5   36 1     
   10    5   37 1     
   11    6   28 1     
   12    6    7 1     
   13    6   38 1     
   14    7    8 1     
   15    8    9 1     
   16    8   23 1     
   17    8   39 1     
   18    9   22 1     
   19    9   10 1     
   20   10   11 1     
   21   10   15 2     
   22   11   12 1     
   23   11   13 2     
   24   11   14 2     
   25   12   40 1     
   26   12   41 1     
   27   12   42 1     
   28   15   16 1     
   29   16   22 ar    
   30   16   17 ar    
   31   17   18 1     
   32   17   19 ar    
   33   18   43 1     
   34   18   44 1     
   35   19   20 ar    
   36   20   21 ar    
   37   20   45 1     
   38   21   22 ar    
   39   23   24 1     
   40   23   28 1     
   41   23   46 1     
   42   24   25 1     
   43   25   26 1     
   44   25   27 2     
   45   26   47 1     
   46   26   48 1     
   47   26   49 1     
   48   28   29 1     
   49   28   50 1     
   50   29   30 1     
   51   30   31 1     
   52   30   32 2     
   53   31   51 1     
   54   31   52 1     
   55   31   53 1     
   56    3   54 1     
   57    3   55 1     
   58    7   56 1     
   59    7   57 1     
   60   15   58 1     
   61   19   59 1     
   62   21   60 1     
   63   27   61 1     
   64   27   62 1     
   65   32   63 1     
   66   32   64 1     
@<TRIPOS>SUBSTRUCTURE
      1 S1             1
@<TRIPOS>SET
LONE_PAIRS      STATIC     ATOMS    <user>   **** ""
13 54 55 56 57 13 14 58 59 60 61 62 63 64
DONOR_HYDROGENS      STATIC     ATOMS    <user>   **** ""
2 43 44
ATOM$BLUE        STATIC     ATOMS    COLORGROUP SYSTEM
13 54 55 56 57 13 14 58 59 60 61 62 63 64
ATOM$RED        STATIC     ATOMS    COLORGROUP SYSTEM
2 43 44
