AV-unprocessed.smi:3195|AV-procd|sdf|12220|dock4
  -GOLD-   2272018 53D 1   1.00000     0.00000
 Structure written by MMmdl.
 29 30  0  0  0  0  0  0  0  0  2 V2000
  152.6700  138.9536  154.7754 C   0  0  0  0  0  0  0  0  0  0  0  0
  151.2651  139.3758  155.2386 C   0  0  2  0  0  0  0  0  0  0  0  0
  151.3592  140.5376  156.2520 C   0  0  0  0  0  0  0  0  0  0  0  0
  150.7666  141.5904  156.0100 O   0  0  0  0  0  0  0  0  0  0  0  0
  152.0911  140.3185  157.3615 N   0  0  0  0  0  0  0  0  0  0  0  0
  152.3595  141.2011  158.4442 C   0  0  0  0  0  0  0  0  0  0  0  0
  151.6740  142.3557  158.6403 N   0  0  0  0  0  0  0  0  0  0  0  0
  151.9868  143.1406  159.6915 C   0  0  0  0  0  0  0  0  0  0  0  0
  153.0004  142.8266  160.6135 C   0  0  0  0  0  0  0  0  0  0  0  0
  153.7202  141.6343  160.4238 C   0  0  0  0  0  0  0  0  0  0  0  0
  153.4004  140.8087  159.3270 C   0  0  0  0  0  0  0  0  0  0  0  0
  154.1038  139.6491  159.1424 O   0  5  0  0  0  0  0  0  0  0  0  0
  150.4574  138.1845  155.8070 C   0  0  0  0  0  0  0  0  0  0  0  0
  149.3070  138.0023  154.8323 C   0  0  0  0  0  0  0  0  0  0  0  0
  149.1789  139.3807  154.2048 C   0  0  0  0  0  0  0  0  0  0  0  0
  150.5330  139.7879  154.0793 O   0  0  0  0  0  0  0  0  0  0  0  0
  153.2709  138.5801  155.6053 H   0  0  0  0  0  0  0  0  0  0  0  0
  153.2066  139.7899  154.3253 H   0  0  0  0  0  0  0  0  0  0  0  0
  152.6126  138.1620  154.0277 H   0  0  0  0  0  0  0  0  0  0  0  0
  152.5189  139.4069  157.4422 H   0  0  0  0  0  0  0  0  0  0  0  0
  151.4101  144.0470  159.8002 H   0  0  0  0  0  0  0  0  0  0  0  0
  153.2198  143.4821  161.4429 H   0  0  0  0  0  0  0  0  0  0  0  0
  154.5067  141.3586  161.1112 H   0  0  0  0  0  0  0  0  0  0  0  0
  151.0510  137.2736  155.8940 H   0  0  0  0  0  0  0  0  0  0  0  0
  150.0585  138.3991  156.8000 H   0  0  0  0  0  0  0  0  0  0  0  0
  149.5802  137.2735  154.0682 H   0  0  0  0  0  0  0  0  0  0  0  0
  148.3879  137.6650  155.3120 H   0  0  0  0  0  0  0  0  0  0  0  0
  148.6721  139.3611  153.2400 H   0  0  0  0  0  0  0  0  0  0  0  0
  148.6425  140.0649  154.8644 H   0  0  0  0  0  0  0  0  0  0  0  0
  1  2  1  0  0  0  0
  1 17  1  0  0  0  0
  1 18  1  0  0  0  0
  1 19  1  0  0  0  0
  2 16  1  0  0  0  0
  2  3  1  0  0  0  0
  2 13  1  0  0  0  0
  3  4  2  0  0  0  0
  3  5  1  0  0  0  0
  5 20  1  0  0  0  0
  5  6  1  0  0  0  0
  6 11  2  0  0  0  0
  6  7  1  0  0  0  0
  7  8  2  0  0  0  0
  8 21  1  0  0  0  0
  8  9  1  0  0  0  0
  9 22  1  0  0  0  0
  9 10  2  0  0  0  0
 10 11  1  0  0  0  0
 10 23  1  0  0  0  0
 11 12  1  0  0  0  0
 13 14  1  0  0  0  0
 13 24  1  0  0  0  0
 13 25  1  0  0  0  0
 14 15  1  0  0  0  0
 14 26  1  0  0  0  0
 14 27  1  0  0  0  0
 15 16  1  0  0  0  0
 15 28  1  0  0  0  0
 15 29  1  0  0  0  0
M  CHG  1  12  -1
M  END
> <s_m_source_file>
AV-unprocessed.smi

> <i_m_source_file_index>
3195

> <i_lp_mmshare_version>
43012

> <i_f3d_flags>
0

> <s_epik_input>
TzFbQ0gyXVtDSDJdW0NIMl1bQ0BAXTEoW0NIM10pQyg9TylbTkhdYzJuW2NIXVtjSF1bY0hdYzJbT0hd

> <s_epik_cmdline>
J2VwaWtfcHl0aG9uJywgJy1waCcsICc3LjAnLCAnLXRuJywgJzgnLCAnLW1hJywgJzIwMCcsICctbWV0YWxfYmluZGluZycsICctaW1hZScsICc8aW5maWxlLm1hZT4nLCAnLW9tYWUnLCAnPG91dGZpbGUubWFlPic=

> <r_epik_Ionization_Penalty>
4.16712

> <r_epik_Ionization_Penalty_Charging>
2.09898

> <r_epik_Ionization_Penalty_Neutral>
2.06814

> <r_epik_State_Penalty>
2.6848

> <r_epik_Charging_Adjusted_Penalty>
4.78378

> <i_epik_Tot_Q>
-1

> <i_epik_Tot_abs_Q>
1

> <r_epik_Metal_State_Penalty>
0.595229

> <b_epik_Metal_Only>
0

> <s_lp_Force_Field>
OPLS_2005

> <r_lp_Energy>
19.5699

> <b_lp_Chiralities_Consistent>
1

> <s_lp_Variant>
AV-unprocessed.smi:3195-8

> <Gold.Version>
5.8.1

> <Gold.Id.Protein>
6NUR|6NUR_protein|mol2

> <Gold.PLP.Fitness>
39.5501

> <Gold.PLP.PLP>
-30.7715

> <Gold.PLP.part.hbond>
-2.0000

> <Gold.PLP.part.metal>
0.0000

> <Gold.PLP.part.buried>
-3.3974

> <Gold.PLP.part.nonpolar>
-25.5030

> <Gold.PLP.part.repulsive>
0.3474

> <Gold.PLP.ligand.clash>
0.0000

> <Gold.PLP.ligand.torsion>
0.1273

> <Gold.PLP.Chemscore.Hbond>
3.0000

> <Gold.PLP.Chemscore.CHOScore>
0.0000

> <Gold.PLP.Chemscore.Metal>
0.0000

> <Gold.Chemscore.Hbonds>
donor molecule, donor type, donor heavy atom, donor atom, acceptor molecule, acceptor atom, score
      P1  H  7989  7998       L1    16  0.95
      P1  H  7997  8009       L1    12  1.66

> <Gold.PLP.Chemscore.Internal.Correction>
0.0332

> <Gold.Rescore>
     Score         DG    S(hbond)    S(metal)    S(lipo)     H(rot)  DE(clash)    DE(int)     intcor
     14.51     -16.06       1.29        0.00      75.39       1.00       0.13       1.42       ----

> <Gold.Chemscore.Fitness>
14.5056

> <Gold.Chemscore.DG>
-16.0626

> <Gold.Chemscore.ZeroCoef>
-5.4800

> <Gold.Chemscore.Hbond>
1.2939

> <Gold.Chemscore.Metal>
0.0000

> <Gold.Chemscore.Lipo>
75.3919

> <Gold.Chemscore.Internal_Hbond>
0.0000

> <Gold.Chemscore.DEClash>
0.1328

> <Gold.Chemscore.DEInternal>
1.4242

> <Gold.Chemscore.Rot>
1.0000

> <Gold.Chemscore.Internal.Correction>
   9.000000E+99

> <Gold.Chemscore.Hbonds>
donor molecule, donor type, donor heavy atom, donor atom, acceptor molecule, acceptor atom, score
      P1  H  7989  7998       L1    16  0.21
      P1  H  7997  8009       L1    12  0.28

> <Gold.Chemscore.Hbond.Weighted>
-4.3217

> <Gold.Chemscore.Metal.Weighted>
-0.0000

> <Gold.Chemscore.Lipo.Weighted>
-8.8209

> <Gold.Chemscore.Internal_Hbond.Weighted>
0.0000

> <Gold.Chemscore.DEClash.Weighted>
0.1328

> <Gold.Chemscore.DEInternal.Weighted>
1.4242

> <Gold.Chemscore.Rot.Weighted>
2.5600

> <Gold.Chemscore.Internal.Correction.Weighted>
   9.000000E+99

> <Gold.Protein.RotatedTorsions>
[ 6907 6896 6895 6894 ] final  147.89 input  -60.11 | X-H torsion
[ 7974 7965 7964 7962 ] final  -78.00 input  175.53 | X-H torsion
[ 8008 7997 7996 7995 ] final  119.30 input   59.86 | X-H torsion
[ 10167 10162 10161 10158 ] final   87.65 input  -65.29 | X-H torsion
[ 10718 10713 10712 10709 ] final -112.28 input   66.30 | X-H torsion
[ 10763 10752 10751 10750 ] final  144.37 input  -60.55 | X-H torsion
[ 11005 11000 10999 10996 ] final   41.26 input  -57.11 | X-H torsion

> <Gold.Protein.ActiveResidues>
 VAL166  LYS551  ARG553  GLY616  TRP617  ASP618  TYR619  PRO620  LYS621  CYS622 
 ASP623  PHE694  ASN695  SER759  ASP760  ASP761  ALA762  ILE779  LEU786  VAL792 
 PHE793  MET794  SER795  GLU796  ALA797  LYS798  CYS799  TRP800  GLU811  SER814 

> <Gold.Protein.RotatedAtoms>
  152.1488  133.4509  159.4802 H   0  0  0  0  0  0  0  0  0  0  0  0  # atno 6907 bound_to 6896
  150.6893  134.2215  159.4407 H   0  0  0  0  0  0  0  0  0  0  0  0  # atno 6908 bound_to 6896
  152.0110  134.9876  160.0619 H   0  0  0  0  0  0  0  0  0  0  0  0  # atno 6909 bound_to 6896
  145.5923  140.9427  143.1286 H   0  0  0  0  0  0  0  0  0  0  0  0  # atno 7974 bound_to 7965
  156.2589  140.2856  156.0970 H   0  0  0  0  0  0  0  0  0  0  0  0  # atno 8008 bound_to 7997
  155.1401  140.0395  157.2814 H   0  0  0  0  0  0  0  0  0  0  0  0  # atno 8009 bound_to 7997
  154.6536  140.2550  155.7193 H   0  0  0  0  0  0  0  0  0  0  0  0  # atno 8010 bound_to 7997
  139.8752  144.6470  150.8904 H   0  0  0  0  0  0  0  0  0  0  0  0  # atno 10167 bound_to 10162
  156.0696  130.5912  150.8487 H   0  0  0  0  0  0  0  0  0  0  0  0  # atno 10718 bound_to 10713
  153.9878  135.2935  155.3414 H   0  0  0  0  0  0  0  0  0  0  0  0  # atno 10763 bound_to 10752
  154.7232  135.5100  153.8848 H   0  0  0  0  0  0  0  0  0  0  0  0  # atno 10764 bound_to 10752
  153.0824  135.6683  154.0134 H   0  0  0  0  0  0  0  0  0  0  0  0  # atno 10765 bound_to 10752
  140.1852  134.4055  155.8177 H   0  0  0  0  0  0  0  0  0  0  0  0  # atno 11005 bound_to 11000
  144.7346  139.7624  143.7334 LP  0  0  0  0  0  0  0  0  0  0  0  0  # atno 17320 bound_to 7965
  146.1638  139.4762  142.9971 LP  0  0  0  0  0  0  0  0  0  0  0  0  # atno 17321 bound_to 7965
  140.7754  143.3630  151.1791 LP  0  0  0  0  0  0  0  0  0  0  0  0  # atno 17342 bound_to 10162
  139.7246  143.9168  152.2998 LP  0  0  0  0  0  0  0  0  0  0  0  0  # atno 17343 bound_to 10162
  157.5759  131.0946  150.9346 LP  0  0  0  0  0  0  0  0  0  0  0  0  # atno 17370 bound_to 10713
  156.9552  130.5434  149.5284 LP  0  0  0  0  0  0  0  0  0  0  0  0  # atno 17371 bound_to 10713
  141.2224  133.7019  156.7999 LP  0  0  0  0  0  0  0  0  0  0  0  0  # atno 17394 bound_to 11000
  140.2222  134.8748  157.3389 LP  0  0  0  0  0  0  0  0  0  0  0  0  # atno 17395 bound_to 11000

$$$$
