AV-unprocessed.smi:458|AV-procd|sdf|2620|dock10
  -GOLD-   2262023 23D 1   1.00000     0.00000
 Structure written by MMmdl.
 36 38  0  0  0  0  0  0  0  0  1 V2000
  150.8736  140.2888  154.9865 O   0  0  0  0  0  0  0  0  0  0  0  0
  151.3381  139.8625  156.2488 C   0  0  0  0  0  0  0  0  0  0  0  0
  151.5921  140.9972  157.1951 C   0  0  0  0  0  0  0  0  0  0  0  0
  151.3267  142.2599  156.8575 N   0  0  0  0  0  0  0  0  0  0  0  0
  151.6751  142.9598  157.9953 C   0  0  0  0  0  0  0  0  0  0  0  0
  151.6222  144.3446  158.2734 C   0  0  0  0  0  0  0  0  0  0  0  0
  152.0307  144.8362  159.5304 C   0  0  0  0  0  0  0  0  0  0  0  0
  152.4947  143.9522  160.5261 C   0  0  0  0  0  0  0  0  0  0  0  0
  152.5557  142.5691  160.2692 C   0  0  0  0  0  0  0  0  0  0  0  0
  152.1510  142.0834  159.0110 C   0  0  0  0  0  0  0  0  0  0  0  0
  152.0927  140.8134  158.4446 N   0  0  0  0  0  0  0  0  0  0  0  0
  152.4813  139.5689  159.0984 C   0  0  0  0  0  0  0  0  0  0  0  0
  153.9881  139.5063  159.4250 C   0  0  2  0  0  0  0  0  0  0  0  0
  154.6897  138.8697  158.3755 O   0  0  0  0  0  0  0  0  0  0  0  0
  154.2333  138.8367  160.7681 C   0  0  0  0  0  0  0  0  0  0  0  0
  153.7409  137.5358  161.0083 C   0  0  0  0  0  0  0  0  0  0  0  0
  153.9717  136.9073  162.2477 C   0  0  0  0  0  0  0  0  0  0  0  0
  154.6978  137.5751  163.2526 C   0  0  0  0  0  0  0  0  0  0  0  0
  154.9197  136.9702  164.4435 F   0  0  0  0  0  0  0  0  0  0  0  0
  155.1947  138.8713  163.0173 C   0  0  0  0  0  0  0  0  0  0  0  0
  154.9643  139.5002  161.7784 C   0  0  0  0  0  0  0  0  0  0  0  0
  150.0468  139.8664  154.8120 H   0  0  0  0  0  0  0  0  0  0  0  0
  150.5918  139.1949  156.6807 H   0  0  0  0  0  0  0  0  0  0  0  0
  152.2469  139.2732  156.1275 H   0  0  0  0  0  0  0  0  0  0  0  0
  151.2656  145.0294  157.5185 H   0  0  0  0  0  0  0  0  0  0  0  0
  151.9862  145.8964  159.7325 H   0  0  0  0  0  0  0  0  0  0  0  0
  152.8034  144.3369  161.4870 H   0  0  0  0  0  0  0  0  0  0  0  0
  152.9094  141.8902  161.0306 H   0  0  0  0  0  0  0  0  0  0  0  0
  151.9005  139.4807  160.0172 H   0  0  0  0  0  0  0  0  0  0  0  0
  152.1963  138.7199  158.4787 H   0  0  0  0  0  0  0  0  0  0  0  0
  154.3805  140.5220  159.4795 H   0  0  0  0  0  0  0  0  0  0  0  0
  154.1074  138.2565  157.9541 H   0  0  0  0  0  0  0  0  0  0  0  0
  153.1855  137.0137  160.2428 H   0  0  0  0  0  0  0  0  0  0  0  0
  153.5928  135.9119  162.4272 H   0  0  0  0  0  0  0  0  0  0  0  0
  155.7542  139.3832  163.7865 H   0  0  0  0  0  0  0  0  0  0  0  0
  155.3527  140.4933  161.6051 H   0  0  0  0  0  0  0  0  0  0  0  0
  1  2  1  0  0  0  0
  1 22  1  0  0  0  0
  2  3  1  0  0  0  0
  2 23  1  0  0  0  0
  2 24  1  0  0  0  0
  3 11  1  0  0  0  0
  3  4  2  0  0  0  0
  4  5  1  0  0  0  0
  5 10  2  0  0  0  0
  5  6  1  0  0  0  0
  6  7  2  0  0  0  0
  6 25  1  0  0  0  0
  7  8  1  0  0  0  0
  7 26  1  0  0  0  0
  8  9  2  0  0  0  0
  8 27  1  0  0  0  0
  9 10  1  0  0  0  0
  9 28  1  0  0  0  0
 10 11  1  0  0  0  0
 11 12  1  0  0  0  0
 12 13  1  0  0  0  0
 12 29  1  0  0  0  0
 12 30  1  0  0  0  0
 13 14  1  0  0  0  0
 13 15  1  0  0  0  0
 13 31  1  0  0  0  0
 14 32  1  0  0  0  0
 15 21  1  0  0  0  0
 15 16  2  0  0  0  0
 16 17  1  0  0  0  0
 16 33  1  0  0  0  0
 17 18  2  0  0  0  0
 17 34  1  0  0  0  0
 18 19  1  0  0  0  0
 18 20  1  0  0  0  0
 20 21  2  0  0  0  0
 20 35  1  0  0  0  0
 21 36  1  0  0  0  0
M  END
> <s_m_source_file>
AV-unprocessed.smi

> <i_m_source_file_index>
458

> <i_lp_mmshare_version>
43012

> <i_f3d_flags>
0

> <s_epik_input>
W2NIXTFbY0hdW2NIXVtjSF1jKGMxMiluKGMobjIpW0NIMl1bT0hdKVtDSDJdW0NASF0oW09IXSljM1tjSF1bY0hdYyhGKVtjSF1bY0hdMw==

> <s_epik_cmdline>
J2VwaWtfcHl0aG9uJywgJy1waCcsICc3LjAnLCAnLXRuJywgJzgnLCAnLW1hJywgJzIwMCcsICctbWV0YWxfYmluZGluZycsICctaW1hZScsICc8aW5maWxlLm1hZT4nLCAnLW9tYWUnLCAnPG91dGZpbGUubWFlPic=

> <r_epik_Ionization_Penalty>
0.0634724

> <r_epik_Ionization_Penalty_Charging>
0

> <r_epik_Ionization_Penalty_Neutral>
0.0634724

> <r_epik_State_Penalty>
0.0551572

> <r_epik_Charging_Adjusted_Penalty>
0.0551572

> <i_epik_Tot_Q>
0

> <i_epik_Tot_abs_Q>
0

> <r_epik_Metal_State_Penalty>
5.78034e-05

> <b_epik_Metal_Only>
0

> <s_lp_Force_Field>
OPLS_2005

> <r_lp_Energy>
12.4444

> <b_lp_Chiralities_Consistent>
1

> <s_lp_Variant>
AV-unprocessed.smi:458-1

> <Gold.Version>
5.8.1

> <Gold.Id.Protein>
6NUR|6NUR_protein|mol2

> <Gold.PLP.Fitness>
51.9274

> <Gold.PLP.PLP>
-47.0923

> <Gold.PLP.part.hbond>
-2.0000

> <Gold.PLP.part.metal>
0.0000

> <Gold.PLP.part.buried>
-4.5736

> <Gold.PLP.part.nonpolar>
-40.2560

> <Gold.PLP.part.repulsive>
0.0709

> <Gold.PLP.ligand.clash>
0.0000

> <Gold.PLP.ligand.torsion>
0.5973

> <Gold.PLP.Chemscore.Hbond>
2.0000

> <Gold.PLP.Chemscore.CHOScore>
0.0000

> <Gold.PLP.Chemscore.Metal>
0.0000

> <Gold.Chemscore.Hbonds>
donor molecule, donor type, donor heavy atom, donor atom, acceptor molecule, acceptor atom, score
      P1  H  7989  7998       L1     1  1.00
      P1  H  7997  8009       L1    14  1.00

> <Gold.PLP.Chemscore.Internal.Correction>
0.0298

> <Gold.Rescore>
     Score         DG    S(hbond)    S(metal)    S(lipo)     H(rot)  DE(clash)    DE(int)     intcor
     17.95     -18.51       1.65        0.00     124.52       2.75       0.07       0.49       ----

> <Gold.Chemscore.Fitness>
17.9509

> <Gold.Chemscore.DG>
-18.5094

> <Gold.Chemscore.ZeroCoef>
-5.4800

> <Gold.Chemscore.Hbond>
1.6470

> <Gold.Chemscore.Metal>
0.0000

> <Gold.Chemscore.Lipo>
124.5167

> <Gold.Chemscore.Internal_Hbond>
0.0000

> <Gold.Chemscore.DEClash>
0.0650

> <Gold.Chemscore.DEInternal>
0.4934

> <Gold.Chemscore.Rot>
2.7500

> <Gold.Chemscore.Internal.Correction>
   9.000000E+99

> <Gold.Chemscore.Hbonds>
donor molecule, donor type, donor heavy atom, donor atom, acceptor molecule, acceptor atom, score
      P1  H  7989  7998       L1     1  0.81
      P1  H  7997  8009       L1    14  0.12

> <Gold.Chemscore.Hbond.Weighted>
-5.5009

> <Gold.Chemscore.Metal.Weighted>
-0.0000

> <Gold.Chemscore.Lipo.Weighted>
-14.5685

> <Gold.Chemscore.Internal_Hbond.Weighted>
0.0000

> <Gold.Chemscore.DEClash.Weighted>
0.0650

> <Gold.Chemscore.DEInternal.Weighted>
0.4934

> <Gold.Chemscore.Rot.Weighted>
7.0399

> <Gold.Chemscore.Internal.Correction.Weighted>
   9.000000E+99

> <Gold.Protein.RotatedTorsions>
[ 6907 6896 6895 6894 ] final  169.17 input  -60.11 | X-H torsion
[ 7974 7965 7964 7962 ] final  125.98 input  175.53 | X-H torsion
[ 8008 7997 7996 7995 ] final  139.77 input   59.86 | X-H torsion
[ 10167 10162 10161 10158 ] final  104.38 input  -65.29 | X-H torsion
[ 10718 10713 10712 10709 ] final  -77.30 input   66.30 | X-H torsion
[ 10763 10752 10751 10750 ] final   36.30 input  -60.55 | X-H torsion
[ 11005 11000 10999 10996 ] final -156.35 input  -57.11 | X-H torsion

> <Gold.Protein.ActiveResidues>
 VAL166  LYS551  ARG553  GLY616  TRP617  ASP618  TYR619  PRO620  LYS621  CYS622 
 ASP623  PHE694  ASN695  SER759  ASP760  ASP761  ALA762  ILE779  LEU786  VAL792 
 PHE793  MET794  SER795  GLU796  ALA797  LYS798  CYS799  TRP800  GLU811  SER814 

> <Gold.Protein.RotatedAtoms>
  151.8361  133.3416  159.3628 H   0  0  0  0  0  0  0  0  0  0  0  0  # atno 6907 bound_to 6896
  150.7249  134.5436  159.5769 H   0  0  0  0  0  0  0  0  0  0  0  0  # atno 6908 bound_to 6896
  152.2900  134.7733  160.0431 H   0  0  0  0  0  0  0  0  0  0  0  0  # atno 6909 bound_to 6896
  145.0669  139.3761  143.4977 H   0  0  0  0  0  0  0  0  0  0  0  0  # atno 7974 bound_to 7965
  156.2986  140.2359  156.4292 H   0  0  0  0  0  0  0  0  0  0  0  0  # atno 8008 bound_to 7997
  154.8285  140.0434  157.1481 H   0  0  0  0  0  0  0  0  0  0  0  0  # atno 8009 bound_to 7997
  154.9234  140.3007  155.5208 H   0  0  0  0  0  0  0  0  0  0  0  0  # atno 8010 bound_to 7997
  139.7182  144.7064  151.0915 H   0  0  0  0  0  0  0  0  0  0  0  0  # atno 10167 bound_to 10162
  156.0149  130.4487  150.3323 H   0  0  0  0  0  0  0  0  0  0  0  0  # atno 10718 bound_to 10713
  153.0083  135.6309  154.1963 H   0  0  0  0  0  0  0  0  0  0  0  0  # atno 10763 bound_to 10752
  154.1706  135.2818  155.3083 H   0  0  0  0  0  0  0  0  0  0  0  0  # atno 10764 bound_to 10752
  154.5911  135.5617  153.7339 H   0  0  0  0  0  0  0  0  0  0  0  0  # atno 10765 bound_to 10752
  140.6765  134.4191  157.5229 H   0  0  0  0  0  0  0  0  0  0  0  0  # atno 11005 bound_to 11000
  146.3527  140.0394  142.8644 LP  0  0  0  0  0  0  0  0  0  0  0  0  # atno 17320 bound_to 7965
  145.1340  140.9534  143.4527 LP  0  0  0  0  0  0  0  0  0  0  0  0  # atno 17321 bound_to 7965
  140.7748  143.5201  150.9547 LP  0  0  0  0  0  0  0  0  0  0  0  0  # atno 17342 bound_to 10162
  139.8887  143.6980  152.3148 LP  0  0  0  0  0  0  0  0  0  0  0  0  # atno 17343 bound_to 10162
  157.1421  131.0299  151.2923 LP  0  0  0  0  0  0  0  0  0  0  0  0  # atno 17370 bound_to 10713
  157.4463  130.7573  149.7112 LP  0  0  0  0  0  0  0  0  0  0  0  0  # atno 17371 bound_to 10713
  139.8965  134.8658  156.2085 LP  0  0  0  0  0  0  0  0  0  0  0  0  # atno 17394 bound_to 11000
  141.0351  133.6968  156.1498 LP  0  0  0  0  0  0  0  0  0  0  0  0  # atno 17395 bound_to 11000

$$$$
