AV-unprocessed.smi:290|AV-procd|sdf|2239|dock7
  -GOLD-   2262022113D 1   1.00000     0.00000
 Structure written by MMmdl.
 59 62  0  0  0  0  0  0  0  0  2 V2000
  151.4801  144.0954  156.8747 C   0  0  0  0  0  0  0  0  0  0  0  0
  151.1090  144.0508  158.3615 C   0  0  2  0  0  0  0  0  0  0  0  0
  151.6245  145.2184  158.9886 O   0  0  0  0  0  0  0  0  0  0  0  0
  151.6659  144.9724  160.3804 C   0  0  0  0  0  0  0  0  0  0  0  0
  152.2445  143.5669  160.4320 C   0  0  0  0  0  0  0  0  0  0  0  0
  151.6215  142.8578  159.2257 C   0  0  1  0  0  0  0  0  0  0  0  0
  150.4867  142.1516  159.6947 O   0  0  0  0  0  0  0  0  0  0  0  0
  152.6472  141.8650  158.6006 C   0  0  0  0  0  0  0  0  0  0  0  0
  153.2320  140.8862  159.5105 N   0  0  0  0  0  0  0  0  0  0  0  0
  154.1404  141.1298  160.5147 C   0  0  0  0  0  0  0  0  0  0  0  0
  154.5030  140.0844  161.2044 N   0  0  0  0  0  0  0  0  0  0  0  0
  153.7529  139.0399  160.6753 C   0  0  0  0  0  0  0  0  0  0  0  0
  153.6333  137.6443  160.9556 C   0  0  0  0  0  0  0  0  0  0  0  0
  154.3145  136.9710  161.9214 N   0  0  0  0  0  0  0  0  0  0  0  0
  154.5861  137.5783  163.2125 C   0  0  0  0  0  0  0  0  0  0  0  0
  154.5499  136.4172  164.1966 C   0  0  0  0  0  0  0  0  0  0  0  0
  155.0408  135.2108  163.3793 C   0  0  1  0  0  0  0  0  0  0  0  0
  154.5797  133.9115  163.9640 N   0  3  2  0  0  0  0  0  0  0  0  0
  154.9622  133.7918  165.3955 C   0  0  0  0  0  0  0  0  0  0  0  0
  154.9607  132.7039  163.1754 C   0  0  0  0  0  0  0  0  0  0  0  0
  154.4916  131.3737  163.7950 C   0  0  0  0  0  0  0  0  0  0  0  0
  153.1111  131.4319  164.0870 O   0  0  0  0  0  0  0  0  0  0  0  0
  154.5280  135.5268  161.9479 C   0  0  2  0  0  0  0  0  0  0  0  0
  155.5367  135.1202  160.8505 C   0  0  0  0  0  0  0  0  0  0  0  0
  152.7596  136.9332  160.1954 N   0  0  0  0  0  0  0  0  0  0  0  0
  152.0446  137.5308  159.2392 C   0  0  0  0  0  0  0  0  0  0  0  0
  152.0522  138.8120  158.8724 N   0  0  0  0  0  0  0  0  0  0  0  0
  152.9377  139.5356  159.6154 C   0  0  0  0  0  0  0  0  0  0  0  0
  156.1325  135.2260  163.3713 H   0  0  0  0  0  0  0  0  0  0  0  0
  153.5649  135.0403  161.7988 H   0  0  0  0  0  0  0  0  0  0  0  0
  150.9942  143.2904  156.3263 H   0  0  0  0  0  0  0  0  0  0  0  0
  152.5567  144.0333  156.7197 H   0  0  0  0  0  0  0  0  0  0  0  0
  151.1417  145.0298  156.4267 H   0  0  0  0  0  0  0  0  0  0  0  0
  150.0216  144.1220  158.4347 H   0  0  0  0  0  0  0  0  0  0  0  0
  152.2833  145.7037  160.9020 H   0  0  0  0  0  0  0  0  0  0  0  0
  150.6581  145.0031  160.7978 H   0  0  0  0  0  0  0  0  0  0  0  0
  153.3262  143.6386  160.3089 H   0  0  0  0  0  0  0  0  0  0  0  0
  152.0597  143.0671  161.3841 H   0  0  0  0  0  0  0  0  0  0  0  0
  149.9072  141.9932  158.9649 H   0  0  0  0  0  0  0  0  0  0  0  0
  152.2050  141.3389  157.7542 H   0  0  0  0  0  0  0  0  0  0  0  0
  153.4792  142.4338  158.1828 H   0  0  0  0  0  0  0  0  0  0  0  0
  154.5352  142.1136  160.7218 H   0  0  0  0  0  0  0  0  0  0  0  0
  155.5744  138.0388  163.1871 H   0  0  0  0  0  0  0  0  0  0  0  0
  153.8562  138.3425  163.4826 H   0  0  0  0  0  0  0  0  0  0  0  0
  155.1555  136.6192  165.0802 H   0  0  0  0  0  0  0  0  0  0  0  0
  153.5211  136.2551  164.5221 H   0  0  0  0  0  0  0  0  0  0  0  0
  156.0410  133.6704  165.5011 H   0  0  0  0  0  0  0  0  0  0  0  0
  154.4731  132.9462  165.8759 H   0  0  0  0  0  0  0  0  0  0  0  0
  154.6656  134.6671  165.9715 H   0  0  0  0  0  0  0  0  0  0  0  0
  154.5170  132.7459  162.1830 H   0  0  0  0  0  0  0  0  0  0  0  0
  156.0430  132.6897  163.0387 H   0  0  0  0  0  0  0  0  0  0  0  0
  154.6510  130.5659  163.0802 H   0  0  0  0  0  0  0  0  0  0  0  0
  155.0541  131.1026  164.6873 H   0  0  0  0  0  0  0  0  0  0  0  0
  152.6410  130.9494  163.4233 H   0  0  0  0  0  0  0  0  0  0  0  0
  155.7545  134.0541  160.8558 H   0  0  0  0  0  0  0  0  0  0  0  0
  156.4850  135.6426  160.9811 H   0  0  0  0  0  0  0  0  0  0  0  0
  155.1718  135.3651  159.8537 H   0  0  0  0  0  0  0  0  0  0  0  0
  151.3699  136.8907  158.6899 H   0  0  0  0  0  0  0  0  0  0  0  0
  153.5702  133.9421  163.9375 H   0  0  0  0  0  0  0  0  0  0  0  0
  1  2  1  0  0  0  0
  1 31  1  0  0  0  0
  1 32  1  0  0  0  0
  1 33  1  0  0  0  0
  2  6  1  0  0  0  0
  2  3  1  0  0  0  0
  2 34  1  0  0  0  0
  3  4  1  0  0  0  0
  4  5  1  0  0  0  0
  4 35  1  0  0  0  0
  4 36  1  0  0  0  0
  5  6  1  0  0  0  0
  5 37  1  0  0  0  0
  5 38  1  0  0  0  0
  6  7  1  0  0  0  0
  6  8  1  0  0  0  0
  7 39  1  0  0  0  0
  8  9  1  0  0  0  0
  8 40  1  0  0  0  0
  8 41  1  0  0  0  0
  9 28  1  0  0  0  0
  9 10  1  0  0  0  0
 10 11  2  0  0  0  0
 10 42  1  0  0  0  0
 11 12  1  0  0  0  0
 12 28  2  0  0  0  0
 12 13  1  0  0  0  0
 13 14  1  0  0  0  0
 13 25  2  0  0  0  0
 14 23  1  0  0  0  0
 14 15  1  0  0  0  0
 15 16  1  0  0  0  0
 15 43  1  0  0  0  0
 15 44  1  0  0  0  0
 16 17  1  0  0  0  0
 16 45  1  0  0  0  0
 16 46  1  0  0  0  0
 17 29  1  0  0  0  0
 17 18  1  0  0  0  0
 17 23  1  0  0  0  0
 18 19  1  0  0  0  0
 18 20  1  0  0  0  0
 18 59  1  0  0  0  0
 19 47  1  0  0  0  0
 19 48  1  0  0  0  0
 19 49  1  0  0  0  0
 20 21  1  0  0  0  0
 20 50  1  0  0  0  0
 20 51  1  0  0  0  0
 21 22  1  0  0  0  0
 21 52  1  0  0  0  0
 21 53  1  0  0  0  0
 22 54  1  0  0  0  0
 23 30  1  0  0  0  0
 23 24  1  0  0  0  0
 24 55  1  0  0  0  0
 24 56  1  0  0  0  0
 24 57  1  0  0  0  0
 25 26  1  0  0  0  0
 26 27  2  0  0  0  0
 26 58  1  0  0  0  0
 27 28  1  0  0  0  0
M  CHG  1  18   1
M  END
> <s_m_source_file>
AV-unprocessed.smi

> <i_m_source_file_index>
290

> <i_lp_mmshare_version>
43012

> <i_f3d_flags>
0

> <s_epik_input>
W0NIMl0xW0NIMl1PW0NAQEhdKFtDSDNdKVtDQEBdMShbT0hdKVtDSDJdbihbY0hdbjIpYyhjMjMpbltjSF1uYzNONFtDSDJdW0NIMl1bQ0BIXShbQ0BIXTRbQ0gzXSlOKFtDSDNdKVtDSDJdW0NIMl1bT0hd

> <s_epik_cmdline>
J2VwaWtfcHl0aG9uJywgJy1waCcsICc3LjAnLCAnLXRuJywgJzgnLCAnLW1hJywgJzIwMCcsICctbWV0YWxfYmluZGluZycsICctaW1hZScsICc8aW5maWxlLm1hZT4nLCAnLW9tYWUnLCAnPG91dGZpbGUubWFlPic=

> <r_lp_tautomer_probability>
1

> <r_epik_Ionization_Penalty>
0.0036983

> <r_epik_Ionization_Penalty_Charging>
0.0032725

> <r_epik_Ionization_Penalty_Neutral>
0.000425798

> <r_epik_State_Penalty>
-0

> <r_epik_Charging_Adjusted_Penalty>
0.0032725

> <i_epik_Tot_Q>
1

> <i_epik_Tot_abs_Q>
1

> <r_epik_Metal_State_Penalty>
-0

> <b_epik_Metal_Only>
0

> <s_lp_Force_Field>
OPLS_2005

> <r_lp_Energy>
66.2506

> <b_lp_Chiralities_Consistent>
1

> <s_lp_Variant>
AV-unprocessed.smi:290-25

> <Gold.Version>
5.8.1

> <Gold.Id.Protein>
6NUR|6NUR_protein|mol2

> <Gold.PLP.Fitness>
55.7878

> <Gold.PLP.PLP>
-54.2555

> <Gold.PLP.part.hbond>
-1.7735

> <Gold.PLP.part.metal>
0.0000

> <Gold.PLP.part.buried>
-6.8430

> <Gold.PLP.part.nonpolar>
-46.8551

> <Gold.PLP.part.repulsive>
0.1005

> <Gold.PLP.ligand.clash>
0.0000

> <Gold.PLP.ligand.torsion>
0.6222

> <Gold.PLP.Chemscore.Hbond>
0.8613

> <Gold.PLP.Chemscore.CHOScore>
0.0000

> <Gold.PLP.Chemscore.Metal>
0.0000

> <Gold.Chemscore.Hbonds>
donor molecule, donor type, donor heavy atom, donor atom, acceptor molecule, acceptor atom, score
      P1  H  6896  6909       L1    25  1.00

> <Gold.PLP.Chemscore.Internal.Correction>
0.1929

> <Gold.Rescore>
     Score         DG    S(hbond)    S(metal)    S(lipo)     H(rot)  DE(clash)    DE(int)     intcor
     12.64     -13.41       0.38        0.00     130.15       3.35       0.06       0.71       ----

> <Gold.Chemscore.Fitness>
12.6356

> <Gold.Chemscore.DG>
-13.4111

> <Gold.Chemscore.ZeroCoef>
-5.4800

> <Gold.Chemscore.Hbond>
0.3846

> <Gold.Chemscore.Metal>
0.0000

> <Gold.Chemscore.Lipo>
130.1467

> <Gold.Chemscore.Internal_Hbond>
0.0000

> <Gold.Chemscore.DEClash>
0.0607

> <Gold.Chemscore.DEInternal>
0.7148

> <Gold.Chemscore.Rot>
3.3518

> <Gold.Chemscore.Internal.Correction>
   9.000000E+99

> <Gold.Chemscore.Hbonds>
donor molecule, donor type, donor heavy atom, donor atom, acceptor molecule, acceptor atom, score
      P1  H  6896  6909       L1    25  0.24

> <Gold.Chemscore.Hbond.Weighted>
-1.2845

> <Gold.Chemscore.Metal.Weighted>
-0.0000

> <Gold.Chemscore.Lipo.Weighted>
-15.2272

> <Gold.Chemscore.Internal_Hbond.Weighted>
0.0000

> <Gold.Chemscore.DEClash.Weighted>
0.0607

> <Gold.Chemscore.DEInternal.Weighted>
0.7148

> <Gold.Chemscore.Rot.Weighted>
8.5806

> <Gold.Chemscore.Internal.Correction.Weighted>
   9.000000E+99

> <Gold.Protein.RotatedTorsions>
[ 6907 6896 6895 6894 ] final  146.68 input  -60.11 | X-H torsion
[ 7974 7965 7964 7962 ] final  -40.86 input  175.53 | X-H torsion
[ 8008 7997 7996 7995 ] final -105.93 input   59.86 | X-H torsion
[ 10167 10162 10161 10158 ] final    9.64 input  -65.29 | X-H torsion
[ 10718 10713 10712 10709 ] final  112.68 input   66.30 | X-H torsion
[ 10763 10752 10751 10750 ] final  173.74 input  -60.55 | X-H torsion
[ 11005 11000 10999 10996 ] final   45.29 input  -57.11 | X-H torsion

> <Gold.Protein.ActiveResidues>
 VAL166  LYS551  ARG553  GLY616  TRP617  ASP618  TYR619  PRO620  LYS621  CYS622 
 ASP623  PHE694  ASN695  SER759  ASP760  ASP761  ALA762  ILE779  LEU786  VAL792 
 PHE793  MET794  SER795  GLU796  ALA797  LYS798  CYS799  TRP800  GLU811  SER814 

> <Gold.Protein.RotatedAtoms>
  152.1647  133.4604  159.4878 H   0  0  0  0  0  0  0  0  0  0  0  0  # atno 6907 bound_to 6896
  150.6911  134.2028  159.4338 H   0  0  0  0  0  0  0  0  0  0  0  0  # atno 6908 bound_to 6896
  151.9932  134.9968  160.0613 H   0  0  0  0  0  0  0  0  0  0  0  0  # atno 6909 bound_to 6896
  146.0265  140.6785  142.9153 H   0  0  0  0  0  0  0  0  0  0  0  0  # atno 7974 bound_to 7965
  154.9070  140.0411  157.1925 H   0  0  0  0  0  0  0  0  0  0  0  0  # atno 8008 bound_to 7997
  154.8386  140.2910  155.5653 H   0  0  0  0  0  0  0  0  0  0  0  0  # atno 8009 bound_to 7997
  156.2991  140.2487  156.3325 H   0  0  0  0  0  0  0  0  0  0  0  0  # atno 8010 bound_to 7997
  140.6242  143.8137  150.7213 H   0  0  0  0  0  0  0  0  0  0  0  0  # atno 10167 bound_to 10162
  157.6379  131.0971  150.6930 H   0  0  0  0  0  0  0  0  0  0  0  0  # atno 10718 bound_to 10713
  154.4443  135.2763  155.1826 H   0  0  0  0  0  0  0  0  0  0  0  0  # atno 10763 bound_to 10752
  154.3679  135.6115  153.5728 H   0  0  0  0  0  0  0  0  0  0  0  0  # atno 10764 bound_to 10752
  152.9843  135.5850  154.4776 H   0  0  0  0  0  0  0  0  0  0  0  0  # atno 10765 bound_to 10752
  140.1474  134.4506  155.8406 H   0  0  0  0  0  0  0  0  0  0  0  0  # atno 11005 bound_to 11000
  144.7012  140.3660  143.7154 LP  0  0  0  0  0  0  0  0  0  0  0  0  # atno 17320 bound_to 7965
  145.7109  139.1684  143.2539 LP  0  0  0  0  0  0  0  0  0  0  0  0  # atno 17321 bound_to 7965
  140.1734  143.4175  152.1985 LP  0  0  0  0  0  0  0  0  0  0  0  0  # atno 17342 bound_to 10162
  139.5465  144.7303  151.4566 LP  0  0  0  0  0  0  0  0  0  0  0  0  # atno 17343 bound_to 10162
  156.7259  130.4695  149.5511 LP  0  0  0  0  0  0  0  0  0  0  0  0  # atno 17370 bound_to 10713
  156.1634  130.6389  151.0748 LP  0  0  0  0  0  0  0  0  0  0  0  0  # atno 17371 bound_to 10713
  141.2194  133.6858  156.7358 LP  0  0  0  0  0  0  0  0  0  0  0  0  # atno 17394 bound_to 11000
  140.2647  134.8439  157.3791 LP  0  0  0  0  0  0  0  0  0  0  0  0  # atno 17395 bound_to 11000

$$$$
