AV-unprocessed.smi:2009|AV-procd|sdf|8146|dock2
  -GOLD-   2272010383D 1   1.00000     0.00000
 Structure written by MMmdl.
 38 39  0  0  0  0  0  0  0  0  1 V2000
  154.1185  140.2365  160.7984 C   0  0  0  0  0  0  0  0  0  0  0  0
  153.0701  141.1703  160.1748 C   0  0  1  0  0  0  0  0  0  0  0  0
  153.3638  142.6699  160.4104 C   0  0  0  0  0  0  0  0  0  0  0  0
  152.3382  143.5593  159.8889 N   0  0  0  0  0  0  0  0  0  0  0  0
  151.6928  144.5953  160.5316 C   0  0  0  0  0  0  0  0  0  0  0  0
  150.8087  145.1375  159.6436 C   0  0  0  0  0  0  0  0  0  0  0  0
  150.9845  144.3529  158.4698 C   0  0  0  0  0  0  0  0  0  0  0  0
  151.8974  143.4076  158.6206 N   0  0  0  0  0  0  0  0  0  0  0  0
  152.9605  140.8767  158.7435 N   0  0  0  0  0  0  0  0  0  0  0  0
  152.3466  139.3562  158.2082 S   0  0  0  0  0  0  0  0  0  0  0  0
  153.2271  138.8648  157.1371 O   0  0  0  0  0  0  0  0  0  0  0  0
  152.0451  138.5209  159.3806 O   0  0  0  0  0  0  0  0  0  0  0  0
  150.8516  139.8864  157.5128 N   0  0  0  0  0  0  0  0  0  0  0  0
  149.8838  140.5263  158.4256 C   0  0  0  0  0  0  0  0  0  0  0  0
  148.4816  140.6010  157.7978 C   0  0  0  0  0  0  0  0  0  0  0  0
  148.5185  141.2992  156.4353 C   0  0  0  0  0  0  0  0  0  0  0  0
  149.5170  140.5789  155.5249 C   0  0  0  0  0  0  0  0  0  0  0  0
  150.9096  140.5093  156.1726 C   0  0  0  0  0  0  0  0  0  0  0  0
  154.2271  140.4292  161.8660 H   0  0  0  0  0  0  0  0  0  0  0  0
  155.0979  140.3608  160.3352 H   0  0  0  0  0  0  0  0  0  0  0  0
  153.8299  139.1915  160.6813 H   0  0  0  0  0  0  0  0  0  0  0  0
  152.1093  140.9391  160.6361 H   0  0  0  0  0  0  0  0  0  0  0  0
  153.5021  142.8790  161.4713 H   0  0  0  0  0  0  0  0  0  0  0  0
  154.3080  142.9326  159.9318 H   0  0  0  0  0  0  0  0  0  0  0  0
  151.9163  144.8582  161.5551 H   0  0  0  0  0  0  0  0  0  0  0  0
  150.1371  145.9668  159.8078 H   0  0  0  0  0  0  0  0  0  0  0  0
  150.4779  144.4397  157.5200 H   0  0  0  0  0  0  0  0  0  0  0  0
  153.7590  141.1962  158.1959 H   0  0  0  0  0  0  0  0  0  0  0  0
  149.8315  139.9648  159.3584 H   0  0  0  0  0  0  0  0  0  0  0  0
  150.2426  141.5250  158.6776 H   0  0  0  0  0  0  0  0  0  0  0  0
  148.0805  139.5933  157.6827 H   0  0  0  0  0  0  0  0  0  0  0  0
  147.8028  141.1289  158.4680 H   0  0  0  0  0  0  0  0  0  0  0  0
  147.5266  141.2994  155.9830 H   0  0  0  0  0  0  0  0  0  0  0  0
  148.8111  142.3425  156.5587 H   0  0  0  0  0  0  0  0  0  0  0  0
  149.1612  139.5691  155.3155 H   0  0  0  0  0  0  0  0  0  0  0  0
  149.5798  141.0896  154.5639 H   0  0  0  0  0  0  0  0  0  0  0  0
  151.3343  141.5095  156.2663 H   0  0  0  0  0  0  0  0  0  0  0  0
  151.5799  139.9461  155.5243 H   0  0  0  0  0  0  0  0  0  0  0  0
  1  2  1  0  0  0  0
  1 19  1  0  0  0  0
  1 20  1  0  0  0  0
  1 21  1  0  0  0  0
  2  3  1  0  0  0  0
  2  9  1  0  0  0  0
  2 22  1  0  0  0  0
  3  4  1  0  0  0  0
  3 23  1  0  0  0  0
  3 24  1  0  0  0  0
  4  8  1  0  0  0  0
  4  5  1  0  0  0  0
  5  6  2  0  0  0  0
  5 25  1  0  0  0  0
  6  7  1  0  0  0  0
  6 26  1  0  0  0  0
  7  8  2  0  0  0  0
  7 27  1  0  0  0  0
  9 10  1  0  0  0  0
  9 28  1  0  0  0  0
 10 11  2  0  0  0  0
 10 12  2  0  0  0  0
 10 13  1  0  0  0  0
 13 18  1  0  0  0  0
 13 14  1  0  0  0  0
 14 15  1  0  0  0  0
 14 29  1  0  0  0  0
 14 30  1  0  0  0  0
 15 16  1  0  0  0  0
 15 31  1  0  0  0  0
 15 32  1  0  0  0  0
 16 17  1  0  0  0  0
 16 33  1  0  0  0  0
 16 34  1  0  0  0  0
 17 18  1  0  0  0  0
 17 35  1  0  0  0  0
 17 36  1  0  0  0  0
 18 37  1  0  0  0  0
 18 38  1  0  0  0  0
M  END
> <s_m_source_file>
AV-unprocessed.smi

> <i_m_source_file_index>
2009

> <i_lp_mmshare_version>
43012

> <i_f3d_flags>
0

> <s_epik_input>
bjFbY0hdW2NIXVtjSF1uMVtDSDJdW0NAQEhdKFtDSDNdKVtOSF1TKD1PKSg9TylOMltDSDJdW0NIMl1bQ0gyXVtDSDJdW0NIMl0y

> <s_epik_cmdline>
J2VwaWtfcHl0aG9uJywgJy1waCcsICc3LjAnLCAnLXRuJywgJzgnLCAnLW1hJywgJzIwMCcsICctbWV0YWxfYmluZGluZycsICctaW1hZScsICc8aW5maWxlLm1hZT4nLCAnLW9tYWUnLCAnPG91dGZpbGUubWFlPic=

> <r_lp_tautomer_probability>
1

> <r_epik_Ionization_Penalty>
0.0313937

> <r_epik_Ionization_Penalty_Charging>
0

> <r_epik_Ionization_Penalty_Neutral>
0.0313937

> <r_epik_State_Penalty>
0.0259441

> <r_epik_Charging_Adjusted_Penalty>
0.0259441

> <i_epik_Tot_Q>
0

> <i_epik_Tot_abs_Q>
0

> <r_epik_Metal_State_Penalty>
0.365037

> <b_epik_Metal_Only>
0

> <s_lp_Force_Field>
OPLS_2005

> <r_lp_Energy>
8.11637

> <b_lp_Chiralities_Consistent>
1

> <s_lp_Variant>
AV-unprocessed.smi:2009-2

> <Gold.Version>
5.8.1

> <Gold.Id.Protein>
6NUR|6NUR_protein|mol2

> <Gold.PLP.Fitness>
43.4013

> <Gold.PLP.PLP>
-37.9235

> <Gold.PLP.part.hbond>
-1.8184

> <Gold.PLP.part.metal>
0.0000

> <Gold.PLP.part.buried>
-2.3596

> <Gold.PLP.part.nonpolar>
-33.0911

> <Gold.PLP.part.repulsive>
0.0267

> <Gold.PLP.ligand.clash>
0.0000

> <Gold.PLP.ligand.torsion>
0.6850

> <Gold.PLP.Chemscore.Hbond>
1.0000

> <Gold.PLP.Chemscore.CHOScore>
1.0000

> <Gold.PLP.Chemscore.Metal>
0.0000

> <Gold.Chemscore.Hbonds>
donor molecule, donor type, donor heavy atom, donor atom, acceptor molecule, acceptor atom, score
      P1  H  7997  8009       L1    11  1.00
      L1  C     7    27       P1  8028  1.00

> <Gold.PLP.Chemscore.Internal.Correction>
0.8478

> <Gold.Rescore>
     Score         DG    S(hbond)    S(metal)    S(lipo)     H(rot)  DE(clash)    DE(int)     intcor
     11.68     -13.99       0.92        0.00      86.54       1.82       0.15       2.17       ----

> <Gold.Chemscore.Fitness>
11.6768

> <Gold.Chemscore.DG>
-13.9949

> <Gold.Chemscore.ZeroCoef>
-5.4800

> <Gold.Chemscore.Hbond>
0.9155

> <Gold.Chemscore.Metal>
0.0000

> <Gold.Chemscore.Lipo>
86.5440

> <Gold.Chemscore.Internal_Hbond>
0.0000

> <Gold.Chemscore.DEClash>
0.1458

> <Gold.Chemscore.DEInternal>
2.1724

> <Gold.Chemscore.Rot>
1.8237

> <Gold.Chemscore.Internal.Correction>
   9.000000E+99

> <Gold.Chemscore.Hbonds>
donor molecule, donor type, donor heavy atom, donor atom, acceptor molecule, acceptor atom, score
      P1  H  7997  8009       L1    11  0.78

> <Gold.Chemscore.Hbond.Weighted>
-3.0578

> <Gold.Chemscore.Metal.Weighted>
-0.0000

> <Gold.Chemscore.Lipo.Weighted>
-10.1256

> <Gold.Chemscore.Internal_Hbond.Weighted>
0.0000

> <Gold.Chemscore.DEClash.Weighted>
0.1458

> <Gold.Chemscore.DEInternal.Weighted>
2.1724

> <Gold.Chemscore.Rot.Weighted>
4.6686

> <Gold.Chemscore.Internal.Correction.Weighted>
   9.000000E+99

> <Gold.Protein.RotatedTorsions>
[ 6907 6896 6895 6894 ] final   38.62 input  -60.11 | X-H torsion
[ 7974 7965 7964 7962 ] final  -94.71 input  175.53 | X-H torsion
[ 8008 7997 7996 7995 ] final  174.18 input   59.86 | X-H torsion
[ 10167 10162 10161 10158 ] final   66.18 input  -65.29 | X-H torsion
[ 10718 10713 10712 10709 ] final   29.40 input   66.30 | X-H torsion
[ 10763 10752 10751 10750 ] final -139.04 input  -60.55 | X-H torsion
[ 11005 11000 10999 10996 ] final   73.78 input  -57.11 | X-H torsion

> <Gold.Protein.ActiveResidues>
 VAL166  LYS551  ARG553  GLY616  TRP617  ASP618  TYR619  PRO620  LYS621  CYS622 
 ASP623  PHE694  ASN695  SER759  ASP760  ASP761  ALA762  ILE779  LEU786  VAL792 
 PHE793  MET794  SER795  GLU796  ALA797  LYS798  CYS799  TRP800  GLU811  SER814 

> <Gold.Protein.RotatedAtoms>
  152.1588  134.8929  160.0542 H   0  0  0  0  0  0  0  0  0  0  0  0  # atno 6907 bound_to 6896
  151.9932  133.3793  159.4161 H   0  0  0  0  0  0  0  0  0  0  0  0  # atno 6908 bound_to 6896
  150.6885  134.3836  159.5089 H   0  0  0  0  0  0  0  0  0  0  0  0  # atno 6909 bound_to 6896
  145.3697  140.9503  143.2454 H   0  0  0  0  0  0  0  0  0  0  0  0  # atno 7974 bound_to 7965
  156.1000  140.1441  156.9480 H   0  0  0  0  0  0  0  0  0  0  0  0  # atno 8008 bound_to 7997
  154.4696  140.0914  156.7156 H   0  0  0  0  0  0  0  0  0  0  0  0  # atno 8009 bound_to 7997
  155.4776  140.3444  155.4337 H   0  0  0  0  0  0  0  0  0  0  0  0  # atno 8010 bound_to 7997
  140.1032  144.4885  150.7024 H   0  0  0  0  0  0  0  0  0  0  0  0  # atno 10167 bound_to 10162
  157.2460  130.7092  149.6382 H   0  0  0  0  0  0  0  0  0  0  0  0  # atno 10718 bound_to 10713
  154.8620  135.3594  154.5482 H   0  0  0  0  0  0  0  0  0  0  0  0  # atno 10763 bound_to 10752
  153.6101  135.7009  153.5355 H   0  0  0  0  0  0  0  0  0  0  0  0  # atno 10764 bound_to 10752
  153.3217  135.4149  155.1383 H   0  0  0  0  0  0  0  0  0  0  0  0  # atno 10765 bound_to 10752
  139.9423  134.7377  156.1068 H   0  0  0  0  0  0  0  0  0  0  0  0  # atno 11005 bound_to 11000
  144.8586  139.5212  143.6823 LP  0  0  0  0  0  0  0  0  0  0  0  0  # atno 17320 bound_to 7965
  146.2891  139.7087  142.9174 LP  0  0  0  0  0  0  0  0  0  0  0  0  # atno 17321 bound_to 7965
  140.6966  143.2408  151.4983 LP  0  0  0  0  0  0  0  0  0  0  0  0  # atno 17342 bound_to 10162
  139.5659  144.2043  152.1764 LP  0  0  0  0  0  0  0  0  0  0  0  0  # atno 17343 bound_to 10162
  155.9668  130.4443  150.5454 LP  0  0  0  0  0  0  0  0  0  0  0  0  # atno 17370 bound_to 10713
  157.3328  131.0702  151.1848 LP  0  0  0  0  0  0  0  0  0  0  0  0  # atno 17371 bound_to 10713
  141.1061  133.6659  156.2868 LP  0  0  0  0  0  0  0  0  0  0  0  0  # atno 17394 bound_to 11000
  140.5921  134.5640  157.5501 LP  0  0  0  0  0  0  0  0  0  0  0  0  # atno 17395 bound_to 11000

$$$$
