AV-unprocessed.smi:2158|AV-procd|sdf|8790|dock7
  -GOLD-   2272011573D 1   1.00000     0.00000
 Structure written by MMmdl.
 30 30  0  0  0  0  0  0  0  0  2 V2000
  151.6045  144.5064  158.7375 C   0  0  0  0  0  0  0  0  0  0  0  0
  152.0166  143.9979  160.1267 C   0  0  0  0  0  0  0  0  0  0  0  0
  153.0964  142.9007  160.0876 C   0  0  1  0  0  0  0  0  0  0  0  0
  153.6790  142.6283  161.4834 C   0  0  0  0  0  0  0  0  0  0  0  0
  152.5413  141.6707  159.5287 N   0  0  0  0  0  0  0  0  0  0  0  0
  153.2075  140.7889  158.7684 C   0  0  0  0  0  0  0  0  0  0  0  0
  154.3980  140.9102  158.4766 O   0  0  0  0  0  0  0  0  0  0  0  0
  152.4059  139.5692  158.2948 C   0  0  0  0  0  0  0  0  0  0  0  0
  151.4632  139.8910  157.2121 N   0  0  0  0  0  0  0  0  0  0  0  0
  150.0883  139.8087  157.4953 C   0  0  0  0  0  0  0  0  0  0  0  0
  149.1540  140.0815  156.5648 C   0  0  0  0  0  0  0  0  0  0  0  0
  149.5995  140.4708  155.2326 C   0  0  0  0  0  0  0  0  0  0  0  0
  148.7600  140.7268  154.3717 O   0  0  0  0  0  0  0  0  0  0  0  0
  150.9445  140.5323  155.0058 N   0  5  0  0  0  0  0  0  0  0  0  0
  151.8836  140.2494  155.9614 C   0  0  0  0  0  0  0  0  0  0  0  0
  153.0929  140.3078  155.7350 O   0  0  0  0  0  0  0  0  0  0  0  0
  150.8751  145.3122  158.8217 H   0  0  0  0  0  0  0  0  0  0  0  0
  151.1537  143.7160  158.1367 H   0  0  0  0  0  0  0  0  0  0  0  0
  152.4646  144.8931  158.1904 H   0  0  0  0  0  0  0  0  0  0  0  0
  152.3854  144.8427  160.7094 H   0  0  0  0  0  0  0  0  0  0  0  0
  151.1343  143.6299  160.6522 H   0  0  0  0  0  0  0  0  0  0  0  0
  153.9051  143.2533  159.4443 H   0  0  0  0  0  0  0  0  0  0  0  0
  154.1153  143.5323  161.9086 H   0  0  0  0  0  0  0  0  0  0  0  0
  154.4662  141.8745  161.4429 H   0  0  0  0  0  0  0  0  0  0  0  0
  152.9117  142.2727  162.1720 H   0  0  0  0  0  0  0  0  0  0  0  0
  151.5670  141.4857  159.7176 H   0  0  0  0  0  0  0  0  0  0  0  0
  153.1134  138.8054  157.9696 H   0  0  0  0  0  0  0  0  0  0  0  0
  151.8718  139.1245  159.1368 H   0  0  0  0  0  0  0  0  0  0  0  0
  149.8433  139.5065  158.5029 H   0  0  0  0  0  0  0  0  0  0  0  0
  148.1018  140.0107  156.7975 H   0  0  0  0  0  0  0  0  0  0  0  0
  1  2  1  0  0  0  0
  1 17  1  0  0  0  0
  1 18  1  0  0  0  0
  1 19  1  0  0  0  0
  2  3  1  0  0  0  0
  2 20  1  0  0  0  0
  2 21  1  0  0  0  0
  3  4  1  0  0  0  0
  3  5  1  0  0  0  0
  3 22  1  0  0  0  0
  4 23  1  0  0  0  0
  4 24  1  0  0  0  0
  4 25  1  0  0  0  0
  5  6  1  0  0  0  0
  5 26  1  0  0  0  0
  6  7  2  0  0  0  0
  6  8  1  0  0  0  0
  8  9  1  0  0  0  0
  8 27  1  0  0  0  0
  8 28  1  0  0  0  0
  9 15  1  0  0  0  0
  9 10  1  0  0  0  0
 10 11  2  0  0  0  0
 10 29  1  0  0  0  0
 11 12  1  0  0  0  0
 11 30  1  0  0  0  0
 12 13  2  0  0  0  0
 12 14  1  0  0  0  0
 14 15  1  0  0  0  0
 15 16  2  0  0  0  0
M  CHG  1  14  -1
M  END
> <s_m_source_file>
AV-unprocessed.smi

> <i_m_source_file_index>
2158

> <i_lp_mmshare_version>
43012

> <i_f3d_flags>
0

> <s_epik_input>
W0NIM11bQ0gyXVtDQEhdKFtDSDNdKVtOSF1DKD1PKVtDSDJdbjFbY0hdW2NIXWMoPU8pW25IXWMxPU8=

> <s_epik_cmdline>
J2VwaWtfcHl0aG9uJywgJy1waCcsICc3LjAnLCAnLXRuJywgJzgnLCAnLW1hJywgJzIwMCcsICctbWV0YWxfYmluZGluZycsICctaW1hZScsICc8aW5maWxlLm1hZT4nLCAnLW9tYWUnLCAnPG91dGZpbGUubWFlPic=

> <r_lp_tautomer_probability>
0.999537

> <r_epik_Ionization_Penalty>
3.08395

> <r_epik_Ionization_Penalty_Charging>
2.76809e-08

> <r_epik_Ionization_Penalty_Neutral>
3.08395

> <r_epik_State_Penalty>
3.08299

> <r_epik_Charging_Adjusted_Penalty>
3.08299

> <i_epik_Tot_Q>
-1

> <i_epik_Tot_abs_Q>
1

> <r_epik_Metal_State_Penalty>
0.460296

> <b_epik_Metal_Only>
1

> <s_lp_Force_Field>
OPLS_2005

> <r_lp_Energy>
11.8207

> <b_lp_Chiralities_Consistent>
1

> <s_lp_Variant>
AV-unprocessed.smi:2158-4

> <Gold.Version>
5.8.1

> <Gold.Id.Protein>
6NUR|6NUR_protein|mol2

> <Gold.PLP.Fitness>
42.1746

> <Gold.PLP.PLP>
-35.1002

> <Gold.PLP.part.hbond>
-4.2859

> <Gold.PLP.part.metal>
0.0000

> <Gold.PLP.part.buried>
-5.3676

> <Gold.PLP.part.nonpolar>
-26.6562

> <Gold.PLP.part.repulsive>
1.0776

> <Gold.PLP.ligand.clash>
0.0000

> <Gold.PLP.ligand.torsion>
0.6456

> <Gold.PLP.Chemscore.Hbond>
2.7840

> <Gold.PLP.Chemscore.CHOScore>
0.0000

> <Gold.PLP.Chemscore.Metal>
0.0000

> <Gold.Chemscore.Hbonds>
donor molecule, donor type, donor heavy atom, donor atom, acceptor molecule, acceptor atom, score
      P1  H  7989  7998       L1    14  1.00
      P1  H  7997  8008       L1    16  0.52
      P1  H  7997  8010       L1     7  0.10

> <Gold.PLP.Chemscore.Internal.Correction>
0.0136

> <Gold.Rescore>
     Score         DG    S(hbond)    S(metal)    S(lipo)     H(rot)  DE(clash)    DE(int)     intcor
     15.10     -15.57       2.44        0.00      59.09       1.94       0.03       0.44       ----

> <Gold.Chemscore.Fitness>
15.1023

> <Gold.Chemscore.DG>
-15.5733

> <Gold.Chemscore.ZeroCoef>
-5.4800

> <Gold.Chemscore.Hbond>
2.4427

> <Gold.Chemscore.Metal>
0.0000

> <Gold.Chemscore.Lipo>
59.0932

> <Gold.Chemscore.Internal_Hbond>
0.0000

> <Gold.Chemscore.DEClash>
0.0270

> <Gold.Chemscore.DEInternal>
0.4440

> <Gold.Chemscore.Rot>
1.9449

> <Gold.Chemscore.Internal.Correction>
   9.000000E+99

> <Gold.Chemscore.Hbonds>
donor molecule, donor type, donor heavy atom, donor atom, acceptor molecule, acceptor atom, score
      P1  H  7989  7998       L1    14  0.77
      P1  H  7997  8008       L1    16  0.50
      P1  H  7997  8010       L1     7  0.12

> <Gold.Chemscore.Hbond.Weighted>
-8.1585

> <Gold.Chemscore.Metal.Weighted>
-0.0000

> <Gold.Chemscore.Lipo.Weighted>
-6.9139

> <Gold.Chemscore.Internal_Hbond.Weighted>
0.0000

> <Gold.Chemscore.DEClash.Weighted>
0.0270

> <Gold.Chemscore.DEInternal.Weighted>
0.4440

> <Gold.Chemscore.Rot.Weighted>
4.9791

> <Gold.Chemscore.Internal.Correction.Weighted>
   9.000000E+99

> <Gold.Protein.RotatedTorsions>
[ 6907 6896 6895 6894 ] final   87.56 input  -60.11 | X-H torsion
[ 7974 7965 7964 7962 ] final -152.78 input  175.53 | X-H torsion
[ 8008 7997 7996 7995 ] final  -21.85 input   59.86 | X-H torsion
[ 10167 10162 10161 10158 ] final   63.05 input  -65.29 | X-H torsion
[ 10718 10713 10712 10709 ] final  138.87 input   66.30 | X-H torsion
[ 10763 10752 10751 10750 ] final  -55.31 input  -60.55 | X-H torsion
[ 11005 11000 10999 10996 ] final  153.25 input  -57.11 | X-H torsion

> <Gold.Protein.ActiveResidues>
 VAL166  LYS551  ARG553  GLY616  TRP617  ASP618  TYR619  PRO620  LYS621  CYS622 
 ASP623  PHE694  ASN695  SER759  ASP760  ASP761  ALA762  ILE779  LEU786  VAL792 
 PHE793  MET794  SER795  GLU796  ALA797  LYS798  CYS799  TRP800  GLU811  SER814 

> <Gold.Protein.RotatedAtoms>
  152.5413  134.2257  159.8804 H   0  0  0  0  0  0  0  0  0  0  0  0  # atno 6907 bound_to 6896
  151.2232  133.4484  159.2609 H   0  0  0  0  0  0  0  0  0  0  0  0  # atno 6908 bound_to 6896
  151.0786  134.9857  159.8400 H   0  0  0  0  0  0  0  0  0  0  0  0  # atno 6909 bound_to 6896
  144.7776  140.4615  143.5862 H   0  0  0  0  0  0  0  0  0  0  0  0  # atno 7974 bound_to 7965
  154.4680  140.2023  156.0068 H   0  0  0  0  0  0  0  0  0  0  0  0  # atno 8008 bound_to 7997
  156.0961  140.3251  155.7850 H   0  0  0  0  0  0  0  0  0  0  0  0  # atno 8009 bound_to 7997
  155.4876  140.0543  157.2949 H   0  0  0  0  0  0  0  0  0  0  0  0  # atno 8010 bound_to 7997
  140.1372  144.4587  150.6831 H   0  0  0  0  0  0  0  0  0  0  0  0  # atno 10167 bound_to 10162
  157.4206  131.1038  151.0358 H   0  0  0  0  0  0  0  0  0  0  0  0  # atno 10718 bound_to 10713
  154.1887  135.6431  153.5054 H   0  0  0  0  0  0  0  0  0  0  0  0  # atno 10763 bound_to 10752
  153.0040  135.5423  154.6438 H   0  0  0  0  0  0  0  0  0  0  0  0  # atno 10764 bound_to 10752
  154.5821  135.2926  155.0695 H   0  0  0  0  0  0  0  0  0  0  0  0  # atno 10765 bound_to 10752
  140.1381  134.8757  157.2294 H   0  0  0  0  0  0  0  0  0  0  0  0  # atno 11005 bound_to 11000
  145.6142  139.1516  143.3058 LP  0  0  0  0  0  0  0  0  0  0  0  0  # atno 17320 bound_to 7965
  146.1964  140.6257  142.9122 LP  0  0  0  0  0  0  0  0  0  0  0  0  # atno 17321 bound_to 7965
  140.6782  143.2314  151.5453 LP  0  0  0  0  0  0  0  0  0  0  0  0  # atno 17342 bound_to 10162
  139.5490  144.2445  152.1495 LP  0  0  0  0  0  0  0  0  0  0  0  0  # atno 17343 bound_to 10162
  157.1289  130.6094  149.5524 LP  0  0  0  0  0  0  0  0  0  0  0  0  # atno 17370 bound_to 10713
  155.9879  130.4920  150.7147 LP  0  0  0  0  0  0  0  0  0  0  0  0  # atno 17371 bound_to 10713
  140.2757  134.3408  155.7359 LP  0  0  0  0  0  0  0  0  0  0  0  0  # atno 17394 bound_to 11000
  141.2181  133.7449  156.9289 LP  0  0  0  0  0  0  0  0  0  0  0  0  # atno 17395 bound_to 11000

$$$$
