AV-unprocessed.smi:1399|AV-procd|sdf|5683|dock7
  -GOLD-   22720 5303D 1   1.00000     0.00000
 Structure written by MMmdl.
 38 39  0  0  0  0  0  0  0  0  2 V2000
  144.3354  132.9606  148.3672 N   0  0  0  0  0  0  0  0  0  0  0  0
  144.3571  132.4596  149.6042 C   0  0  0  0  0  0  0  0  0  0  0  0
  143.4947  131.6837  150.0123 O   0  0  0  0  0  0  0  0  0  0  0  0
  145.5047  132.9111  150.5133 C   0  0  0  0  0  0  0  0  0  0  0  0
  145.0830  133.9074  151.5319 N   0  3  2  0  0  0  0  0  0  0  0  0
  145.0970  135.2958  151.0048 C   0  0  0  0  0  0  0  0  0  0  0  0
  144.5091  136.2849  152.0276 C   0  0  0  0  0  0  0  0  0  0  0  0
  145.2263  136.2075  153.3866 C   0  0  2  0  0  0  0  0  0  0  0  0
  146.5748  136.7683  153.2912 N   0  0  0  0  0  0  0  0  0  0  0  0
  147.0434  137.8175  153.9830 C   0  0  0  0  0  0  0  0  0  0  0  0
  146.3790  138.4480  154.8046 O   0  0  0  0  0  0  0  0  0  0  0  0
  148.3199  138.0791  153.6592 N   0  0  0  0  0  0  0  0  0  0  0  0
  149.1399  139.1156  154.1709 C   0  0  0  0  0  0  0  0  0  0  0  0
  150.5399  139.1092  154.4419 C   0  0  0  0  0  0  0  0  0  0  0  0
  150.9407  140.2788  154.9197 N   0  0  0  0  0  0  0  0  0  0  0  0
  149.8158  141.0279  154.9577 N   0  0  0  0  0  0  0  0  0  0  0  0
  148.6975  140.3591  154.5117 C   0  0  0  0  0  0  0  0  0  0  0  0
  145.2753  134.7491  153.8748 C   0  0  0  0  0  0  0  0  0  0  0  0
  145.8446  133.7998  152.8053 C   0  0  0  0  0  0  0  0  0  0  0  0
  149.8278  141.9828  155.2869 H   0  0  0  0  0  0  0  0  0  0  0  0
  143.5940  132.6960  147.7340 H   0  0  0  0  0  0  0  0  0  0  0  0
  145.0516  133.6055  148.0651 H   0  0  0  0  0  0  0  0  0  0  0  0
  145.9703  132.0522  150.9999 H   0  0  0  0  0  0  0  0  0  0  0  0
  146.2613  133.3503  149.8617 H   0  0  0  0  0  0  0  0  0  0  0  0
  146.1186  135.5778  150.7448 H   0  0  0  0  0  0  0  0  0  0  0  0
  144.5125  135.3471  150.0857 H   0  0  0  0  0  0  0  0  0  0  0  0
  144.5513  137.3017  151.6349 H   0  0  0  0  0  0  0  0  0  0  0  0
  143.4510  136.0603  152.1699 H   0  0  0  0  0  0  0  0  0  0  0  0
  144.6411  136.7821  154.1062 H   0  0  0  0  0  0  0  0  0  0  0  0
  147.2044  136.3224  152.6408 H   0  0  0  0  0  0  0  0  0  0  0  0
  148.7504  137.4766  152.9732 H   0  0  0  0  0  0  0  0  0  0  0  0
  151.2674  138.3212  154.3164 H   0  0  0  0  0  0  0  0  0  0  0  0
  147.7183  140.8137  154.4779 H   0  0  0  0  0  0  0  0  0  0  0  0
  145.8614  134.6768  154.7921 H   0  0  0  0  0  0  0  0  0  0  0  0
  144.2666  134.4252  154.1345 H   0  0  0  0  0  0  0  0  0  0  0  0
  145.8050  132.7779  153.1828 H   0  0  0  0  0  0  0  0  0  0  0  0
  146.8967  134.0235  152.6219 H   0  0  0  0  0  0  0  0  0  0  0  0
  144.1186  133.6948  151.7462 H   0  0  0  0  0  0  0  0  0  0  0  0
  1  2  1  0  0  0  0
  1 21  1  0  0  0  0
  1 22  1  0  0  0  0
  2  3  2  0  0  0  0
  2  4  1  0  0  0  0
  4  5  1  0  0  0  0
  4 23  1  0  0  0  0
  4 24  1  0  0  0  0
  5 19  1  0  0  0  0
  5  6  1  0  0  0  0
  5 38  1  0  0  0  0
  6  7  1  0  0  0  0
  6 25  1  0  0  0  0
  6 26  1  0  0  0  0
  7  8  1  0  0  0  0
  7 27  1  0  0  0  0
  7 28  1  0  0  0  0
  8  9  1  0  0  0  0
  8 18  1  0  0  0  0
  8 29  1  0  0  0  0
  9 10  1  0  0  0  0
  9 30  1  0  0  0  0
 10 11  2  0  0  0  0
 10 12  1  0  0  0  0
 12 13  1  0  0  0  0
 12 31  1  0  0  0  0
 13 17  2  0  0  0  0
 13 14  1  0  0  0  0
 14 15  2  0  0  0  0
 14 32  1  0  0  0  0
 15 16  1  0  0  0  0
 16 20  1  0  0  0  0
 16 17  1  0  0  0  0
 17 33  1  0  0  0  0
 18 19  1  0  0  0  0
 18 34  1  0  0  0  0
 18 35  1  0  0  0  0
 19 36  1  0  0  0  0
 19 37  1  0  0  0  0
M  CHG  1   5   1
M  END
> <s_m_source_file>
AV-unprocessed.smi

> <i_m_source_file_index>
1399

> <i_lp_mmshare_version>
43012

> <i_f3d_flags>
0

> <s_epik_input>
W05IMl1DKD1PKVtDSDJdTjFbQ0gyXVtDSDJdW0NIXShbQ0gyXVtDSDJdMSlbTkhdQyg9TylbTkhdYzJbY0hdbltuSF1bY0hdMg==

> <s_epik_cmdline>
J2VwaWtfcHl0aG9uJywgJy1waCcsICc3LjAnLCAnLXRuJywgJzgnLCAnLW1hJywgJzIwMCcsICctbWV0YWxfYmluZGluZycsICctaW1hZScsICc8aW5maWxlLm1hZT4nLCAnLW9tYWUnLCAnPG91dGZpbGUubWFlPic=

> <r_lp_tautomer_probability>
0.5

> <r_epik_Ionization_Penalty>
0.838927

> <r_epik_Ionization_Penalty_Charging>
0.838844

> <r_epik_Ionization_Penalty_Neutral>
8.28742e-05

> <r_epik_State_Penalty>
0.8734

> <r_epik_Charging_Adjusted_Penalty>
1.71224

> <i_epik_Tot_Q>
1

> <i_epik_Tot_abs_Q>
1

> <r_epik_Metal_State_Penalty>
0.890702

> <b_epik_Metal_Only>
0

> <s_lp_Force_Field>
OPLS_2005

> <r_lp_Energy>
14.6422

> <b_lp_Chiralities_Consistent>
1

> <s_lp_Variant>
AV-unprocessed.smi:1399-3

> <Gold.Version>
5.8.1

> <Gold.Id.Protein>
6NUR|6NUR_protein|mol2

> <Gold.PLP.Fitness>
40.7523

> <Gold.PLP.PLP>
-27.5437

> <Gold.PLP.part.hbond>
-5.0000

> <Gold.PLP.part.metal>
0.0000

> <Gold.PLP.part.buried>
-5.1720

> <Gold.PLP.part.nonpolar>
-18.7008

> <Gold.PLP.part.repulsive>
2.7160

> <Gold.PLP.ligand.clash>
0.0000

> <Gold.PLP.ligand.torsion>
0.7870

> <Gold.PLP.Chemscore.Hbond>
4.9180

> <Gold.PLP.Chemscore.CHOScore>
0.0000

> <Gold.PLP.Chemscore.Metal>
0.0000

> <Gold.Chemscore.Hbonds>
donor molecule, donor type, donor heavy atom, donor atom, acceptor molecule, acceptor atom, score
      L1  H     1    22       P1  7921  1.00
      L1  H     9    30       P1  7948  0.99
      L1  H    12    31       P1  7948  1.00
      P1  H  7989  7998       L1    15  0.90
      P1  H 10785 10796       L1     3  0.99

> <Gold.PLP.Chemscore.Internal.Correction>
0.0286

> <Gold.Rescore>
     Score         DG    S(hbond)    S(metal)    S(lipo)     H(rot)  DE(clash)    DE(int)     intcor
     16.21     -18.38       3.81        0.00      47.28       2.09       0.29       1.89       ----

> <Gold.Chemscore.Fitness>
16.2113

> <Gold.Chemscore.DG>
-18.3834

> <Gold.Chemscore.ZeroCoef>
-5.4800

> <Gold.Chemscore.Hbond>
3.8062

> <Gold.Chemscore.Metal>
0.0000

> <Gold.Chemscore.Lipo>
47.2823

> <Gold.Chemscore.Internal_Hbond>
0.0000

> <Gold.Chemscore.DEClash>
0.2870

> <Gold.Chemscore.DEInternal>
1.8852

> <Gold.Chemscore.Rot>
2.0865

> <Gold.Chemscore.Internal.Correction>
   9.000000E+99

> <Gold.Chemscore.Hbonds>
donor molecule, donor type, donor heavy atom, donor atom, acceptor molecule, acceptor atom, score
      L1  H     1    22       P1  7921  0.74
      L1  H     9    30       P1  7948  0.93
      L1  H    12    31       P1  7948  1.00
      P1  H  7989  7998       L1    15  0.05
      P1  H 10785 10796       L1     3  0.72

> <Gold.Chemscore.Hbond.Weighted>
-12.7129

> <Gold.Chemscore.Metal.Weighted>
-0.0000

> <Gold.Chemscore.Lipo.Weighted>
-5.5320

> <Gold.Chemscore.Internal_Hbond.Weighted>
0.0000

> <Gold.Chemscore.DEClash.Weighted>
0.2870

> <Gold.Chemscore.DEInternal.Weighted>
1.8852

> <Gold.Chemscore.Rot.Weighted>
5.3415

> <Gold.Chemscore.Internal.Correction.Weighted>
   9.000000E+99

> <Gold.Protein.RotatedTorsions>
[ 6907 6896 6895 6894 ] final  -55.24 input  -60.11 | X-H torsion
[ 7974 7965 7964 7962 ] final  -12.47 input  175.53 | X-H torsion
[ 8008 7997 7996 7995 ] final   16.86 input   59.86 | X-H torsion
[ 10167 10162 10161 10158 ] final  -52.38 input  -65.29 | X-H torsion
[ 10718 10713 10712 10709 ] final -166.19 input   66.30 | X-H torsion
[ 10763 10752 10751 10750 ] final   97.25 input  -60.55 | X-H torsion
[ 11005 11000 10999 10996 ] final -168.19 input  -57.11 | X-H torsion

> <Gold.Protein.ActiveResidues>
 VAL166  LYS551  ARG553  GLY616  TRP617  ASP618  TYR619  PRO620  LYS621  CYS622 
 ASP623  PHE694  ASN695  SER759  ASP760  ASP761  ALA762  ILE779  LEU786  VAL792 
 PHE793  MET794  SER795  GLU796  ALA797  LYS798  CYS799  TRP800  GLU811  SER814 

> <Gold.Protein.RotatedAtoms>
  150.8268  134.7503  159.6819 H   0  0  0  0  0  0  0  0  0  0  0  0  # atno 6907 bound_to 6896
  152.4378  134.5648  159.9914 H   0  0  0  0  0  0  0  0  0  0  0  0  # atno 6908 bound_to 6896
  151.5819  133.3339  159.3046 H   0  0  0  0  0  0  0  0  0  0  0  0  # atno 6909 bound_to 6896
  146.2151  140.3062  142.8379 H   0  0  0  0  0  0  0  0  0  0  0  0  # atno 7974 bound_to 7965
  154.8830  140.2975  155.5414 H   0  0  0  0  0  0  0  0  0  0  0  0  # atno 8008 bound_to 7997
  156.3022  140.2439  156.3769 H   0  0  0  0  0  0  0  0  0  0  0  0  # atno 8009 bound_to 7997
  154.8697  140.0402  157.1706 H   0  0  0  0  0  0  0  0  0  0  0  0  # atno 8010 bound_to 7997
  140.6540  143.2586  151.4639 H   0  0  0  0  0  0  0  0  0  0  0  0  # atno 10167 bound_to 10162
  156.6643  130.9058  151.3034 H   0  0  0  0  0  0  0  0  0  0  0  0  # atno 10718 bound_to 10713
  153.2747  135.4190  155.1021 H   0  0  0  0  0  0  0  0  0  0  0  0  # atno 10763 bound_to 10752
  154.8468  135.3480  154.6195 H   0  0  0  0  0  0  0  0  0  0  0  0  # atno 10764 bound_to 10752
  153.6615  135.7048  153.5233 H   0  0  0  0  0  0  0  0  0  0  0  0  # atno 10765 bound_to 10752
  140.5447  134.5487  157.5108 H   0  0  0  0  0  0  0  0  0  0  0  0  # atno 11005 bound_to 11000
  144.9021  140.7655  143.5860 LP  0  0  0  0  0  0  0  0  0  0  0  0  # atno 17320 bound_to 7965
  145.2988  139.1857  143.4700 LP  0  0  0  0  0  0  0  0  0  0  0  0  # atno 17321 bound_to 7965
  139.5760  144.1819  152.1903 LP  0  0  0  0  0  0  0  0  0  0  0  0  # atno 17342 bound_to 10162
  140.1129  144.5441  150.6913 LP  0  0  0  0  0  0  0  0  0  0  0  0  # atno 17343 bound_to 10162
  157.7099  130.9428  150.1053 LP  0  0  0  0  0  0  0  0  0  0  0  0  # atno 17370 bound_to 10713
  156.1987  130.3659  149.8816 LP  0  0  0  0  0  0  0  0  0  0  0  0  # atno 17371 bound_to 10713
  139.9486  134.7658  156.0503 LP  0  0  0  0  0  0  0  0  0  0  0  0  # atno 17394 bound_to 11000
  141.1206  133.6614  156.3206 LP  0  0  0  0  0  0  0  0  0  0  0  0  # atno 17395 bound_to 11000

$$$$
