#       Name:                AV-unprocessed.smi:2570
#       Creating user name   scv26
#       Creation time:       Fri Mar 27 14:12:26 2020


#       File generated by GOLD software.
#

@<TRIPOS>MOLECULE
AV-unprocessed.smi:2570
    39    40     1
SMALL
NO_CHARGES


@<TRIPOS>ATOM
      1 ****        -1.2827   2.4783  -2.0738 C.3            1 S1                 0.0000
      2 ****        -2.3563   1.8555  -1.3709 O.3            1 S1                 0.0000
      3 ****        -2.1468   0.5593  -0.9335 C.2            1 S1                 0.0000
      4 ****        -3.1890  -0.0877  -0.1646 C.2            1 S1                 0.0000
      5 ****        -2.9896  -1.3478   0.2791 C.2            1 S1                 0.0000
      6 ****        -1.7493  -2.0734   0.0062 C.2            1 S1                 0.0000
      7 ****        -1.5310  -3.2140   0.4134 O.2            1 S1                 0.0000
      8 ****        -0.8471  -1.3634  -0.7334 N.am           1 S1                 0.0000
      9 ****         0.4686  -1.9261  -1.0669 C.3            1 S1                 0.0000
     10 ****         1.4719  -1.8336   0.1069 C.3            1 S1                 0.0000
     11 ****         2.7294  -2.3060  -0.3312 O.3            1 S1                 0.0000
     12 ****         1.5551  -0.4374   0.7164 C.ar           1 S1                 0.0000
     13 ****         1.0228  -0.2070   2.0038 C.ar           1 S1                 0.0000
     14 ****         1.0587   1.0817   2.5699 C.ar           1 S1                 0.0000
     15 ****         1.6277   2.1503   1.8521 C.ar           1 S1                 0.0000
     16 ****         1.6598   3.3904   2.3949 F              1 S1                 0.0000
     17 ****         2.1609   1.9291   0.5685 C.ar           1 S1                 0.0000
     18 ****         2.1252   0.6411  -0.0005 C.ar           1 S1                 0.0000
     19 ****         2.6297   0.4523  -1.2434 F              1 S1                 0.0000
     20 ****        -1.0491  -0.0750  -1.1990 N.2            1 S1                 0.0000
     21 ****        -1.5747   3.4929  -2.3441 H              1 S1                 0.0000
     22 ****        -1.0423   1.9514  -2.9989 H              1 S1                 0.0000
     23 ****        -0.3835   2.5512  -1.4591 H              1 S1                 0.0000
     24 ****        -4.1078   0.4394   0.0458 H              1 S1                 0.0000
     25 ****        -3.7645  -1.8335   0.8536 H              1 S1                 0.0000
     26 ****         0.3637  -2.9631  -1.3910 H              1 S1                 0.0000
     27 ****         0.8724  -1.3978  -1.9330 H              1 S1                 0.0000
     28 ****         1.1483  -2.5233   0.8872 H              1 S1                 0.0000
     29 ****         3.3043  -2.3663   0.4164 H              1 S1                 0.0000
     30 ****         0.5748  -1.0174   2.5602 H              1 S1                 0.0000
     31 ****         0.6465   1.2505   3.5537 H              1 S1                 0.0000
     32 ****         2.5942   2.7499   0.0163 H              1 S1                 0.0000
     33 ****        -3.1503   1.8451  -1.9788 LP             1 S1                 0.0000
     34 ****        -2.5584   2.4167  -0.5683 LP             1 S1                 0.0000
     35 ****        -2.2198  -3.6902   0.9600 LP             1 S1                 0.0000
     36 ****        -0.6648  -3.6647   0.1976 LP             1 S1                 0.0000
     37 ****         3.1133  -1.6711  -1.0016 LP             1 S1                 0.0000
     38 ****         2.6238  -3.2083  -0.7492 LP             1 S1                 0.0000
     39 ****        -0.3402   0.3703  -1.7459 LP             1 S1                 0.0000
@<TRIPOS>BOND
    1    1    2 1     
    2    1   21 1     
    3    1   22 1     
    4    1   23 1     
    5    2    3 1     
    6    3   20 2     
    7    3    4 1     
    8    4    5 2     
    9    4   24 1     
   10    5    6 1     
   11    5   25 1     
   12    6    7 2     
   13    6    8 am    
   14    8    9 1     
   15    8   20 1     
   16    9   10 1     
   17    9   26 1     
   18    9   27 1     
   19   10   11 1     
   20   10   12 1     
   21   10   28 1     
   22   11   29 1     
   23   12   18 ar    
   24   12   13 ar    
   25   13   14 ar    
   26   13   30 1     
   27   14   15 ar    
   28   14   31 1     
   29   15   16 1     
   30   15   17 ar    
   31   17   18 ar    
   32   17   32 1     
   33   18   19 1     
   34    2   33 1     
   35    2   34 1     
   36    7   35 1     
   37    7   36 1     
   38   11   37 1     
   39   11   38 1     
   40   20   39 1     
@<TRIPOS>SUBSTRUCTURE
      1 S1             1
@<TRIPOS>SET
LONE_PAIRS      STATIC     ATOMS    <user>   **** ""
7 33 34 35 36 37 38 39
DONOR_HYDROGENS      STATIC     ATOMS    <user>   **** ""
1 29
ATOM$BLUE        STATIC     ATOMS    COLORGROUP SYSTEM
7 33 34 35 36 37 38 39
ATOM$RED        STATIC     ATOMS    COLORGROUP SYSTEM
1 29
