AV-unprocessed.smi:2232|AV-procd|sdf|9039|dock4
  -GOLD-   2272012243D 1   1.00000     0.00000
 Structure written by MMmdl.
 43 44  0  0  0  0  0  0  0  0  2 V2000
  146.6137  128.8872  152.9728 C   0  0  0  0  0  0  0  0  0  0  0  0
  146.3702  130.3040  152.4972 C   0  0  0  0  0  0  0  0  0  0  0  0
  145.3030  130.6004  151.6279 C   0  0  0  0  0  0  0  0  0  0  0  0
  145.1302  131.9373  151.2191 C   0  0  0  0  0  0  0  0  0  0  0  0
  144.0021  132.3282  150.2878 C   0  0  0  0  0  0  0  0  0  0  0  0
  145.9395  132.9407  151.6201 N   0  0  0  0  0  0  0  0  0  0  0  0
  146.9717  132.6667  152.4560 C   0  0  0  0  0  0  0  0  0  0  0  0
  147.8817  133.6485  152.9304 N   0  0  0  0  0  0  0  0  0  0  0  0
  148.6573  133.5987  154.0277 C   0  0  0  0  0  0  0  0  0  0  0  0
  148.7257  132.6514  154.8117 O   0  0  0  0  0  0  0  0  0  0  0  0
  149.3644  134.7283  154.1788 N   0  0  0  0  0  0  0  0  0  0  0  0
  150.2929  134.9844  155.2739 C   0  0  0  0  0  0  0  0  0  0  0  0
  149.8440  136.1880  156.1256 C   0  0  0  0  0  0  0  0  0  0  0  0
  150.7547  137.3516  155.9896 N   0  3  0  0  0  0  0  0  0  0  0  0
  151.2731  137.5019  154.6087 C   0  0  0  0  0  0  0  0  0  0  0  0
  152.2455  138.6903  154.5227 C   0  0  0  0  0  0  0  0  0  0  0  0
  151.5893  139.8751  154.9556 O   0  0  0  0  0  0  0  0  0  0  0  0
  151.1631  139.7818  156.3089 C   0  0  0  0  0  0  0  0  0  0  0  0
  150.1575  138.6276  156.4579 C   0  0  0  0  0  0  0  0  0  0  0  0
  147.2143  131.3527  152.9150 C   0  0  0  0  0  0  0  0  0  0  0  0
  145.7514  128.2502  152.7733 H   0  0  0  0  0  0  0  0  0  0  0  0
  146.8048  128.8730  154.0463 H   0  0  0  0  0  0  0  0  0  0  0  0
  147.4789  128.4628  152.4631 H   0  0  0  0  0  0  0  0  0  0  0  0
  144.6350  129.8242  151.2837 H   0  0  0  0  0  0  0  0  0  0  0  0
  143.4192  131.4580  149.9847 H   0  0  0  0  0  0  0  0  0  0  0  0
  144.3982  132.8021  149.3893 H   0  0  0  0  0  0  0  0  0  0  0  0
  143.3315  133.0325  150.7810 H   0  0  0  0  0  0  0  0  0  0  0  0
  147.9374  134.4902  152.3765 H   0  0  0  0  0  0  0  0  0  0  0  0
  149.2548  135.4576  153.4890 H   0  0  0  0  0  0  0  0  0  0  0  0
  150.3883  134.0805  155.8760 H   0  0  0  0  0  0  0  0  0  0  0  0
  151.2772  135.1780  154.8467 H   0  0  0  0  0  0  0  0  0  0  0  0
  148.8438  136.4776  155.7996 H   0  0  0  0  0  0  0  0  0  0  0  0
  149.7567  135.9171  157.1790 H   0  0  0  0  0  0  0  0  0  0  0  0
  151.7845  136.5887  154.3022 H   0  0  0  0  0  0  0  0  0  0  0  0
  150.4404  137.6508  153.9193 H   0  0  0  0  0  0  0  0  0  0  0  0
  153.1363  138.5106  155.1265 H   0  0  0  0  0  0  0  0  0  0  0  0
  152.5803  138.8278  153.4944 H   0  0  0  0  0  0  0  0  0  0  0  0
  152.0229  139.6373  156.9650 H   0  0  0  0  0  0  0  0  0  0  0  0
  150.6977  140.7244  156.5977 H   0  0  0  0  0  0  0  0  0  0  0  0
  149.2570  138.8442  155.8808 H   0  0  0  0  0  0  0  0  0  0  0  0
  149.8554  138.5496  157.5015 H   0  0  0  0  0  0  0  0  0  0  0  0
  148.0404  131.1472  153.5804 H   0  0  0  0  0  0  0  0  0  0  0  0
  151.5562  137.1647  156.5750 H   0  0  0  0  0  0  0  0  0  0  0  0
  1  2  1  0  0  0  0
  1 21  1  0  0  0  0
  1 22  1  0  0  0  0
  1 23  1  0  0  0  0
  2 20  1  0  0  0  0
  2  3  2  0  0  0  0
  3  4  1  0  0  0  0
  3 24  1  0  0  0  0
  4  5  1  0  0  0  0
  4  6  2  0  0  0  0
  5 25  1  0  0  0  0
  5 26  1  0  0  0  0
  5 27  1  0  0  0  0
  6  7  1  0  0  0  0
  7  8  1  0  0  0  0
  7 20  2  0  0  0  0
  8  9  1  0  0  0  0
  8 28  1  0  0  0  0
  9 10  2  0  0  0  0
  9 11  1  0  0  0  0
 11 12  1  0  0  0  0
 11 29  1  0  0  0  0
 12 13  1  0  0  0  0
 12 30  1  0  0  0  0
 12 31  1  0  0  0  0
 13 14  1  0  0  0  0
 13 32  1  0  0  0  0
 13 33  1  0  0  0  0
 14 19  1  0  0  0  0
 14 15  1  0  0  0  0
 14 43  1  0  0  0  0
 15 16  1  0  0  0  0
 15 34  1  0  0  0  0
 15 35  1  0  0  0  0
 16 17  1  0  0  0  0
 16 36  1  0  0  0  0
 16 37  1  0  0  0  0
 17 18  1  0  0  0  0
 18 19  1  0  0  0  0
 18 38  1  0  0  0  0
 18 39  1  0  0  0  0
 19 40  1  0  0  0  0
 19 41  1  0  0  0  0
 20 42  1  0  0  0  0
M  CHG  1  14   1
M  END
> <s_m_source_file>
AV-unprocessed.smi

> <i_m_source_file_index>
2232

> <i_lp_mmshare_version>
43012

> <i_f3d_flags>
0

> <s_epik_input>
W0NIM11jMVtjSF1jKFtDSDNdKW5jKFtjSF0xKVtOSF1DKD1PKVtOSF1bQ0gyXVtDSDJdTjJbQ0gyXVtDSDJdT1tDSDJdW0NIMl0y

> <s_epik_cmdline>
J2VwaWtfcHl0aG9uJywgJy1waCcsICc3LjAnLCAnLXRuJywgJzgnLCAnLW1hJywgJzIwMCcsICctbWV0YWxfYmluZGluZycsICctaW1hZScsICc8aW5maWxlLm1hZT4nLCAnLW9tYWUnLCAnPG91dGZpbGUubWFlPic=

> <r_epik_Ionization_Penalty>
0.602717

> <r_epik_Ionization_Penalty_Charging>
0.602531

> <r_epik_Ionization_Penalty_Neutral>
0.000186219

> <r_epik_State_Penalty>
0.617039

> <r_epik_Charging_Adjusted_Penalty>
1.21957

> <i_epik_Tot_Q>
1

> <i_epik_Tot_abs_Q>
1

> <r_epik_Metal_State_Penalty>
0.617067

> <b_epik_Metal_Only>
0

> <s_lp_Force_Field>
OPLS_2005

> <r_lp_Energy>
15.6528

> <b_lp_Chiralities_Consistent>
1

> <s_lp_Variant>
AV-unprocessed.smi:2232-2

> <Gold.Version>
5.8.1

> <Gold.Id.Protein>
6NUR|6NUR_protein|mol2

> <Gold.PLP.Fitness>
42.6709

> <Gold.PLP.PLP>
-35.0329

> <Gold.PLP.part.hbond>
-3.0000

> <Gold.PLP.part.metal>
0.0000

> <Gold.PLP.part.buried>
-5.1127

> <Gold.PLP.part.nonpolar>
-26.4377

> <Gold.PLP.part.repulsive>
0.2824

> <Gold.PLP.ligand.clash>
0.0000

> <Gold.PLP.ligand.torsion>
0.6572

> <Gold.PLP.Chemscore.Hbond>
2.9760

> <Gold.PLP.Chemscore.CHOScore>
0.0000

> <Gold.PLP.Chemscore.Metal>
0.0000

> <Gold.Chemscore.Hbonds>
donor molecule, donor type, donor heavy atom, donor atom, acceptor molecule, acceptor atom, score
      L1  H     8    28       P1  7948  0.98
      L1  H    11    29       P1  7948  1.00
      P1  H  7989  7998       L1    17  1.00

> <Gold.PLP.Chemscore.Internal.Correction>
0.0244

> <Gold.Rescore>
     Score         DG    S(hbond)    S(metal)    S(lipo)     H(rot)  DE(clash)    DE(int)     intcor
     17.43     -19.65       2.36        0.00      86.34       1.49       0.03       2.20       ----

> <Gold.Chemscore.Fitness>
17.4253

> <Gold.Chemscore.DG>
-19.6519

> <Gold.Chemscore.ZeroCoef>
-5.4800

> <Gold.Chemscore.Hbond>
2.3631

> <Gold.Chemscore.Metal>
0.0000

> <Gold.Chemscore.Lipo>
86.3356

> <Gold.Chemscore.Internal_Hbond>
0.0000

> <Gold.Chemscore.DEClash>
0.0270

> <Gold.Chemscore.DEInternal>
2.1997

> <Gold.Chemscore.Rot>
1.4930

> <Gold.Chemscore.Internal.Correction>
   9.000000E+99

> <Gold.Chemscore.Hbonds>
donor molecule, donor type, donor heavy atom, donor atom, acceptor molecule, acceptor atom, score
      L1  H     8    28       P1  7948  0.34
      L1  H    11    29       P1  7948  0.34
      P1  H  7989  7998       L1    17  0.29

> <Gold.Chemscore.Hbond.Weighted>
-7.8926

> <Gold.Chemscore.Metal.Weighted>
-0.0000

> <Gold.Chemscore.Lipo.Weighted>
-10.1013

> <Gold.Chemscore.Internal_Hbond.Weighted>
0.0000

> <Gold.Chemscore.DEClash.Weighted>
0.0270

> <Gold.Chemscore.DEInternal.Weighted>
2.1997

> <Gold.Chemscore.Rot.Weighted>
3.8220

> <Gold.Chemscore.Internal.Correction.Weighted>
   9.000000E+99

> <Gold.Protein.RotatedTorsions>
[ 6907 6896 6895 6894 ] final  -78.81 input  -60.11 | X-H torsion
[ 7974 7965 7964 7962 ] final  -70.81 input  175.53 | X-H torsion
[ 8008 7997 7996 7995 ] final  -71.97 input   59.86 | X-H torsion
[ 10167 10162 10161 10158 ] final  114.33 input  -65.29 | X-H torsion
[ 10718 10713 10712 10709 ] final   49.02 input   66.30 | X-H torsion
[ 10763 10752 10751 10750 ] final   92.22 input  -60.55 | X-H torsion
[ 11005 11000 10999 10996 ] final  -69.93 input  -57.11 | X-H torsion

> <Gold.Protein.ActiveResidues>
 VAL166  LYS551  ARG553  GLY616  TRP617  ASP618  TYR619  PRO620  LYS621  CYS622 
 ASP623  PHE694  ASN695  SER759  ASP760  ASP761  ALA762  ILE779  LEU786  VAL792 
 PHE793  MET794  SER795  GLU796  ALA797  LYS798  CYS799  TRP800  GLU811  SER814 

> <Gold.Protein.RotatedAtoms>
  150.6964  134.4216  159.5207 H   0  0  0  0  0  0  0  0  0  0  0  0  # atno 6907 bound_to 6896
  152.1958  134.8629  160.0522 H   0  0  0  0  0  0  0  0  0  0  0  0  # atno 6908 bound_to 6896
  151.9568  133.3648  159.4057 H   0  0  0  0  0  0  0  0  0  0  0  0  # atno 6909 bound_to 6896
  145.6862  140.9170  143.0806 H   0  0  0  0  0  0  0  0  0  0  0  0  # atno 7974 bound_to 7965
  154.5129  140.0806  156.8025 H   0  0  0  0  0  0  0  0  0  0  0  0  # atno 8008 bound_to 7997
  155.3745  140.3424  155.4226 H   0  0  0  0  0  0  0  0  0  0  0  0  # atno 8009 bound_to 7997
  156.1594  140.1583  156.8625 H   0  0  0  0  0  0  0  0  0  0  0  0  # atno 8010 bound_to 7997
  139.6396  144.7123  151.2263 H   0  0  0  0  0  0  0  0  0  0  0  0  # atno 10167 bound_to 10162
  157.4745  130.8276  149.8024 H   0  0  0  0  0  0  0  0  0  0  0  0  # atno 10718 bound_to 10713
  153.2168  135.4369  155.0443 H   0  0  0  0  0  0  0  0  0  0  0  0  # atno 10763 bound_to 10752
  154.8229  135.3346  154.6987 H   0  0  0  0  0  0  0  0  0  0  0  0  # atno 10764 bound_to 10752
  153.7421  135.7004  153.5020 H   0  0  0  0  0  0  0  0  0  0  0  0  # atno 10765 bound_to 10752
  141.1564  133.6777  156.6675 H   0  0  0  0  0  0  0  0  0  0  0  0  # atno 11005 bound_to 11000
  144.7010  139.8761  143.7444 LP  0  0  0  0  0  0  0  0  0  0  0  0  # atno 17320 bound_to 7965
  146.0921  139.3912  143.0399 LP  0  0  0  0  0  0  0  0  0  0  0  0  # atno 17321 bound_to 7965
  140.7484  143.6335  150.8401 LP  0  0  0  0  0  0  0  0  0  0  0  0  # atno 17342 bound_to 10162
  139.9970  143.5785  152.2889 LP  0  0  0  0  0  0  0  0  0  0  0  0  # atno 17343 bound_to 10162
  156.0090  130.3842  150.2330 LP  0  0  0  0  0  0  0  0  0  0  0  0  # atno 17370 bound_to 10713
  157.0514  131.0064  151.3252 LP  0  0  0  0  0  0  0  0  0  0  0  0  # atno 17371 bound_to 10713
  140.3200  134.8016  157.4245 LP  0  0  0  0  0  0  0  0  0  0  0  0  # atno 17394 bound_to 11000
  140.1105  134.5352  155.8270 LP  0  0  0  0  0  0  0  0  0  0  0  0  # atno 17395 bound_to 11000

$$$$
