AV-unprocessed.smi:2212|AV-procd|sdf|8954|dock9
  -GOLD-   2272012173D 1   1.00000     0.00000
 Structure written by MMmdl.
 31 32  0  0  0  0  0  0  0  0  1 V2000
  152.8327  142.6742  162.0306 C   0  0  0  0  0  0  0  0  0  0  0  0
  151.7128  142.8215  161.1674 O   0  0  0  0  0  0  0  0  0  0  0  0
  152.0090  142.9952  159.7812 C   0  0  0  0  0  0  0  0  0  0  0  0
  152.7229  141.7726  159.1880 C   0  0  0  0  0  0  0  0  0  0  0  0
  151.7572  140.8073  158.6795 N   0  0  0  0  0  0  0  0  0  0  0  0
  152.0689  139.6828  158.0212 C   0  0  0  0  0  0  0  0  0  0  0  0
  153.2407  139.3836  157.7700 O   0  0  0  0  0  0  0  0  0  0  0  0
  150.9157  138.9931  157.6779 N   0  0  0  0  0  0  0  0  0  0  0  0
  150.8386  138.4093  156.5213 C   0  0  0  0  0  0  0  0  0  0  0  0
  151.7121  138.3295  155.4397 N   0  0  0  0  0  0  0  0  0  0  0  0
  151.1131  137.5844  154.4628 C   0  0  0  0  0  0  0  0  0  0  0  0
  149.9160  137.2114  154.9052 C   0  0  0  0  0  0  0  0  0  0  0  0
  149.7196  137.7019  156.1611 O   0  0  0  0  0  0  0  0  0  0  0  0
  150.7278  143.4843  159.0796 C   0  0  0  0  0  0  0  0  0  0  0  0
  151.5687  144.5457  158.3677 C   0  0  0  0  0  0  0  0  0  0  0  0
  152.5849  144.3978  159.5013 C   0  0  0  0  0  0  0  0  0  0  0  0
  152.4863  142.6510  163.0637 H   0  0  0  0  0  0  0  0  0  0  0  0
  153.5334  143.5038  161.9347 H   0  0  0  0  0  0  0  0  0  0  0  0
  153.3651  141.7412  161.8473 H   0  0  0  0  0  0  0  0  0  0  0  0
  153.3794  142.0827  158.3735 H   0  0  0  0  0  0  0  0  0  0  0  0
  153.3656  141.2903  159.9247 H   0  0  0  0  0  0  0  0  0  0  0  0
  150.7814  141.0053  158.8498 H   0  0  0  0  0  0  0  0  0  0  0  0
  152.6329  138.7345  155.3492 H   0  0  0  0  0  0  0  0  0  0  0  0
  151.6222  137.3955  153.5292 H   0  0  0  0  0  0  0  0  0  0  0  0
  149.1230  136.6230  154.4675 H   0  0  0  0  0  0  0  0  0  0  0  0
  150.2612  142.7577  158.4138 H   0  0  0  0  0  0  0  0  0  0  0  0
  149.9999  143.9202  159.7663 H   0  0  0  0  0  0  0  0  0  0  0  0
  151.9538  144.2070  157.4045 H   0  0  0  0  0  0  0  0  0  0  0  0
  151.1014  145.5280  158.2967 H   0  0  0  0  0  0  0  0  0  0  0  0
  152.4086  145.1084  160.3111 H   0  0  0  0  0  0  0  0  0  0  0  0
  153.6263  144.4093  159.1787 H   0  0  0  0  0  0  0  0  0  0  0  0
  1  2  1  0  0  0  0
  1 17  1  0  0  0  0
  1 18  1  0  0  0  0
  1 19  1  0  0  0  0
  2  3  1  0  0  0  0
  3 16  1  0  0  0  0
  3  4  1  0  0  0  0
  3 14  1  0  0  0  0
  4  5  1  0  0  0  0
  4 20  1  0  0  0  0
  4 21  1  0  0  0  0
  5 22  1  0  0  0  0
  5  6  1  0  0  0  0
  6  8  1  0  0  0  0
  6  7  2  0  0  0  0
  8  9  2  0  0  0  0
  9 13  1  0  0  0  0
  9 10  1  0  0  0  0
 10 23  1  0  0  0  0
 10 11  1  0  0  0  0
 11 24  1  0  0  0  0
 11 12  2  0  0  0  0
 12 25  1  0  0  0  0
 12 13  1  0  0  0  0
 14 15  1  0  0  0  0
 14 26  1  0  0  0  0
 14 27  1  0  0  0  0
 15 16  1  0  0  0  0
 15 28  1  0  0  0  0
 15 29  1  0  0  0  0
 16 30  1  0  0  0  0
 16 31  1  0  0  0  0
M  END
> <s_m_source_file>
AV-unprocessed.smi

> <i_m_source_file_index>
2212

> <i_lp_mmshare_version>
43012

> <i_f3d_flags>
0

> <s_epik_input>
W0NIMl0xW0NIMl1bQ0gyXUMxKE9bQ0gzXSlbQ0gyXVtOSF1DKD1PKVtOSF1jMm5bY0hdW2NIXW8y

> <s_epik_cmdline>
J2VwaWtfcHl0aG9uJywgJy1waCcsICc3LjAnLCAnLXRuJywgJzgnLCAnLW1hJywgJzIwMCcsICctbWV0YWxfYmluZGluZycsICctaW1hZScsICc8aW5maWxlLm1hZT4nLCAnLW9tYWUnLCAnPG91dGZpbGUubWFlPic=

> <r_lp_tautomer_probability>
0.107061

> <r_epik_Ionization_Penalty>
1.29244

> <r_epik_Ionization_Penalty_Charging>
1.29208

> <r_epik_Ionization_Penalty_Neutral>
0.000357989

> <r_epik_State_Penalty>
2.59896

> <r_epik_Charging_Adjusted_Penalty>
3.89105

> <i_epik_Tot_Q>
0

> <i_epik_Tot_abs_Q>
0

> <r_epik_Metal_State_Penalty>
3.62496

> <b_epik_Metal_Only>
0

> <s_lp_Force_Field>
OPLS_2005

> <r_lp_Energy>
41.2438

> <b_lp_Chiralities_Consistent>
1

> <s_lp_Variant>
AV-unprocessed.smi:2212-4

> <Gold.Version>
5.8.1

> <Gold.Id.Protein>
6NUR|6NUR_protein|mol2

> <Gold.PLP.Fitness>
37.4953

> <Gold.PLP.PLP>
-29.8397

> <Gold.PLP.part.hbond>
-2.0000

> <Gold.PLP.part.metal>
0.0000

> <Gold.PLP.part.buried>
-5.0691

> <Gold.PLP.part.nonpolar>
-24.5674

> <Gold.PLP.part.repulsive>
0.4006

> <Gold.PLP.ligand.clash>
0.0000

> <Gold.PLP.ligand.torsion>
0.9924

> <Gold.PLP.Chemscore.Hbond>
1.2457

> <Gold.PLP.Chemscore.CHOScore>
1.8779

> <Gold.PLP.Chemscore.Metal>
0.0000

> <Gold.Chemscore.Hbonds>
donor molecule, donor type, donor heavy atom, donor atom, acceptor molecule, acceptor atom, score
      P1  H  6933  6945       L1     2  0.20
      P1  H  7997  8009       L1     7  0.99
      L1  C    11    24       P1  7949  1.00
      L1  C    12    25       P1  7948  0.63

> <Gold.PLP.Chemscore.Internal.Correction>
0.2695

> <Gold.Rescore>
     Score         DG    S(hbond)    S(metal)    S(lipo)     H(rot)  DE(clash)    DE(int)     intcor
     15.00     -16.14       1.69        0.00      78.69       1.64       0.13       1.01       ----

> <Gold.Chemscore.Fitness>
15.0008

> <Gold.Chemscore.DG>
-16.1449

> <Gold.Chemscore.ZeroCoef>
-5.4800

> <Gold.Chemscore.Hbond>
1.6945

> <Gold.Chemscore.Metal>
0.0000

> <Gold.Chemscore.Lipo>
78.6874

> <Gold.Chemscore.Internal_Hbond>
0.0000

> <Gold.Chemscore.DEClash>
0.1308

> <Gold.Chemscore.DEInternal>
1.0134

> <Gold.Chemscore.Rot>
1.6411

> <Gold.Chemscore.Internal.Correction>
   9.000000E+99

> <Gold.Chemscore.Hbonds>
donor molecule, donor type, donor heavy atom, donor atom, acceptor molecule, acceptor atom, score
      P1  H  6933  6945       L1     2  0.11
      P1  H  7997  8009       L1     7  0.94

> <Gold.Chemscore.Hbond.Weighted>
-5.6596

> <Gold.Chemscore.Metal.Weighted>
-0.0000

> <Gold.Chemscore.Lipo.Weighted>
-9.2064

> <Gold.Chemscore.Internal_Hbond.Weighted>
0.0000

> <Gold.Chemscore.DEClash.Weighted>
0.1308

> <Gold.Chemscore.DEInternal.Weighted>
1.0134

> <Gold.Chemscore.Rot.Weighted>
4.2011

> <Gold.Chemscore.Internal.Correction.Weighted>
   9.000000E+99

> <Gold.Protein.RotatedTorsions>
[ 6907 6896 6895 6894 ] final -141.72 input  -60.11 | X-H torsion
[ 7974 7965 7964 7962 ] final  174.12 input  175.53 | X-H torsion
[ 8008 7997 7996 7995 ] final  140.85 input   59.86 | X-H torsion
[ 10167 10162 10161 10158 ] final   56.79 input  -65.29 | X-H torsion
[ 10718 10713 10712 10709 ] final  153.23 input   66.30 | X-H torsion
[ 10763 10752 10751 10750 ] final   53.57 input  -60.55 | X-H torsion
[ 11005 11000 10999 10996 ] final   35.93 input  -57.11 | X-H torsion

> <Gold.Protein.ActiveResidues>
 VAL166  LYS551  ARG553  GLY616  TRP617  ASP618  TYR619  PRO620  LYS621  CYS622 
 ASP623  PHE694  ASN695  SER759  ASP760  ASP761  ALA762  ILE779  LEU786  VAL792 
 PHE793  MET794  SER795  GLU796  ALA797  LYS798  CYS799  TRP800  GLU811  SER814 

> <Gold.Protein.RotatedAtoms>
  151.0775  133.5416  159.2622 H   0  0  0  0  0  0  0  0  0  0  0  0  # atno 6907 bound_to 6896
  151.2332  135.0561  159.9006 H   0  0  0  0  0  0  0  0  0  0  0  0  # atno 6908 bound_to 6896
  152.5419  134.0561  159.8185 H   0  0  0  0  0  0  0  0  0  0  0  0  # atno 6909 bound_to 6896
  144.7228  139.9749  143.6438 H   0  0  0  0  0  0  0  0  0  0  0  0  # atno 7974 bound_to 7965
  156.2974  140.2330  156.4469 H   0  0  0  0  0  0  0  0  0  0  0  0  # atno 8008 bound_to 7997
  154.8136  140.0441  157.1381 H   0  0  0  0  0  0  0  0  0  0  0  0  # atno 8009 bound_to 7997
  154.9395  140.3027  155.5131 H   0  0  0  0  0  0  0  0  0  0  0  0  # atno 8010 bound_to 7997
  140.2049  144.3949  150.6513 H   0  0  0  0  0  0  0  0  0  0  0  0  # atno 10167 bound_to 10162
  157.2475  131.0772  151.1752 H   0  0  0  0  0  0  0  0  0  0  0  0  # atno 10718 bound_to 10713
  152.9796  135.5774  154.4764 H   0  0  0  0  0  0  0  0  0  0  0  0  # atno 10763 bound_to 10752
  154.4319  135.2774  155.1908 H   0  0  0  0  0  0  0  0  0  0  0  0  # atno 10764 bound_to 10752
  154.3613  135.6188  153.5746 H   0  0  0  0  0  0  0  0  0  0  0  0  # atno 10765 bound_to 10752
  140.2377  134.3452  155.7938 H   0  0  0  0  0  0  0  0  0  0  0  0  # atno 11005 bound_to 11000
  146.0533  139.3532  143.0626 LP  0  0  0  0  0  0  0  0  0  0  0  0  # atno 17320 bound_to 7965
  145.8187  140.9690  143.0910 LP  0  0  0  0  0  0  0  0  0  0  0  0  # atno 17321 bound_to 7965
  140.6364  143.2195  151.6385 LP  0  0  0  0  0  0  0  0  0  0  0  0  # atno 17342 bound_to 10162
  139.5202  144.3229  152.0895 LP  0  0  0  0  0  0  0  0  0  0  0  0  # atno 17343 bound_to 10162
  157.3313  130.6986  149.6326 LP  0  0  0  0  0  0  0  0  0  0  0  0  # atno 17370 bound_to 10713
  155.9667  130.4306  150.4886 LP  0  0  0  0  0  0  0  0  0  0  0  0  # atno 17371 bound_to 10713
  141.2213  133.7281  156.8834 LP  0  0  0  0  0  0  0  0  0  0  0  0  # atno 17394 bound_to 11000
  140.1686  134.9116  157.2804 LP  0  0  0  0  0  0  0  0  0  0  0  0  # atno 17395 bound_to 11000

$$$$
