#       Name:                AV-unprocessed.smi:3157
#       Creating user name   scv26
#       Creation time:       Fri Mar 27 17:45:48 2020


#       File generated by GOLD software.
#

@<TRIPOS>MOLECULE
AV-unprocessed.smi:3157
    41    42     1
SMALL
NO_CHARGES


@<TRIPOS>ATOM
      1 ****        -2.1228  -1.0866  -1.7240 C.3            1 S1                 0.0000
      2 ****        -1.7116  -0.5298  -0.3473 C.3            1 S1                 0.0000
      3 ****        -0.2391  -0.3715  -0.2904 N.4            1 S1                 1.0000
      4 ****         0.2923   0.8534  -0.9231 C.3            1 S1                 0.0000
      5 ****         1.8203   0.9315  -0.7771 C.3            1 S1                 0.0000
      6 ****         2.4154   2.2432  -1.2940 C.3            1 S1                 0.0000
      7 ****         3.9006   1.9428  -1.5225 C.3            1 S1                 0.0000
      8 ****         4.0060   0.4228  -1.7192 C.3            1 S1                 0.0000
      9 ****         2.5828  -0.1289  -1.5781 C.3            1 S1                 0.0000
     10 ****        -2.1882  -1.4262   0.8255 C.3            1 S1                 0.0000
     11 ****        -3.7118  -1.6508   0.8514 C.3            1 S1                 0.0000
     12 ****        -1.7489  -0.8778   2.1044 N.pl3          1 S1                 0.0000
     13 ****        -2.2217   0.2293   2.7816 C.2            1 S1                 0.0000
     14 ****        -1.4734   0.3656   3.9153 C.2            1 S1                 0.0000
     15 ****        -0.5481  -0.7122   3.8412 C.2            1 S1                 0.0000
     16 ****        -0.7085  -1.4468   2.7525 N.2            1 S1                 0.0000
     17 ****        -3.2061  -1.1287  -1.8339 H              1 S1                 0.0000
     18 ****        -1.7323  -2.0933  -1.8768 H              1 S1                 0.0000
     19 ****        -1.7544  -0.4630  -2.5381 H              1 S1                 0.0000
     20 ****        -2.1659   0.4546  -0.2222 H              1 S1                 0.0000
     21 ****         0.0240  -0.3406   0.6849 H              1 S1                 0.0000
     22 ****         0.0122   0.8888  -1.9759 H              1 S1                 0.0000
     23 ****        -0.1630   1.7203  -0.4421 H              1 S1                 0.0000
     24 ****         2.0877   0.8327   0.2766 H              1 S1                 0.0000
     25 ****         1.9515   2.5138  -2.2439 H              1 S1                 0.0000
     26 ****         2.2607   3.0734  -0.6042 H              1 S1                 0.0000
     27 ****         4.2918   2.4945  -2.3780 H              1 S1                 0.0000
     28 ****         4.4823   2.2410  -0.6494 H              1 S1                 0.0000
     29 ****         4.4361   0.1663  -2.6880 H              1 S1                 0.0000
     30 ****         4.6535  -0.0039  -0.9522 H              1 S1                 0.0000
     31 ****         2.5648  -1.1089  -1.1001 H              1 S1                 0.0000
     32 ****         2.1391  -0.2383  -2.5688 H              1 S1                 0.0000
     33 ****        -1.7238  -2.4082   0.7132 H              1 S1                 0.0000
     34 ****        -4.0484  -2.2279  -0.0094 H              1 S1                 0.0000
     35 ****        -4.2577  -0.7070   0.8549 H              1 S1                 0.0000
     36 ****        -4.0085  -2.2093   1.7401 H              1 S1                 0.0000
     37 ****        -3.0422   0.8229   2.4059 H              1 S1                 0.0000
     38 ****        -1.5708   1.1214   4.6806 H              1 S1                 0.0000
     39 ****         0.2331  -0.9777   4.5382 H              1 S1                 0.0000
     40 ****         0.1941  -1.1822  -0.7089 H              1 S1                 0.0000
     41 ****        -0.1774  -2.2461   2.4715 LP             1 S1                 0.0000
@<TRIPOS>BOND
    1    1    2 1     
    2    1   17 1     
    3    1   18 1     
    4    1   19 1     
    5    2    3 1     
    6    2   10 1     
    7    2   20 1     
    8    3    4 1     
    9    3   21 1     
   10    3   40 1     
   11    4    5 1     
   12    4   22 1     
   13    4   23 1     
   14    5    9 1     
   15    5    6 1     
   16    5   24 1     
   17    6    7 1     
   18    6   25 1     
   19    6   26 1     
   20    7    8 1     
   21    7   27 1     
   22    7   28 1     
   23    8    9 1     
   24    8   29 1     
   25    8   30 1     
   26    9   31 1     
   27    9   32 1     
   28   10   11 1     
   29   10   12 1     
   30   10   33 1     
   31   11   34 1     
   32   11   35 1     
   33   11   36 1     
   34   12   16 1     
   35   12   13 1     
   36   13   14 2     
   37   13   37 1     
   38   14   15 1     
   39   14   38 1     
   40   15   16 2     
   41   15   39 1     
   42   16   41 1     
@<TRIPOS>SUBSTRUCTURE
      1 S1             1
@<TRIPOS>SET
LONE_PAIRS      STATIC     ATOMS    <user>   **** ""
1 41
DONOR_HYDROGENS      STATIC     ATOMS    <user>   **** ""
2 21 40
ATOM$BLUE        STATIC     ATOMS    COLORGROUP SYSTEM
1 41
ATOM$RED        STATIC     ATOMS    COLORGROUP SYSTEM
2 21 40
