AV-unprocessed.smi:188|AV-procd|sdf|1472|dock8
  -GOLD-   2262019293D 1   1.00000     0.00000
 Structure written by MMmdl.
 49 53  0  0  0  0  0  0  0  0  1 V2000
  143.4107  132.0945  148.1875 O   0  0  0  0  0  0  0  0  0  0  0  0
  143.9472  132.6806  149.1247 C   0  0  0  0  0  0  0  0  0  0  0  0
  145.0700  132.3086  149.7461 N   0  0  0  0  0  0  0  0  0  0  0  0
  145.4105  133.1419  150.7274 C   0  0  0  0  0  0  0  0  0  0  0  0
  146.3928  133.0434  151.4606 O   0  0  0  0  0  0  0  0  0  0  0  0
  144.3645  134.2545  150.7927 C   0  0  0  0  0  0  0  0  0  0  0  0
  144.9469  135.6556  150.4948 C   0  0  0  0  0  0  0  0  0  0  0  0
  145.7430  136.2269  151.6833 C   0  0  0  0  0  0  0  0  0  0  0  0
  144.9502  136.1931  152.9123 N   0  0  0  0  0  0  0  0  0  0  0  0
  145.4323  136.9735  153.9132 C   0  0  0  0  0  0  0  0  0  0  0  0
  145.2124  136.6277  155.2102 N   0  0  0  0  0  0  0  0  0  0  0  0
  145.6953  137.3816  156.2020 C   0  0  0  0  0  0  0  0  0  0  0  0
  146.4088  138.5061  156.1232 N   0  0  0  0  0  0  0  0  0  0  0  0
  146.6222  138.8677  154.8262 C   0  0  0  0  0  0  0  0  0  0  0  0
  146.1764  138.1630  153.6715 C   0  0  0  0  0  0  0  0  0  0  0  0
  146.5789  138.8354  152.5236 N   0  0  0  0  0  0  0  0  0  0  0  0
  147.2332  139.8709  152.9734 C   0  0  0  0  0  0  0  0  0  0  0  0
  147.2998  139.9748  154.3449 N   0  0  0  0  0  0  0  0  0  0  0  0
  147.9604  141.0273  155.1032 C   0  0  0  0  0  0  0  0  0  0  0  0
  149.1755  140.5498  155.9266 C   0  0  0  0  0  0  0  0  0  0  0  0
  149.9764  139.4850  155.1564 C   0  0  0  0  0  0  0  0  0  0  0  0
  150.4238  139.9778  153.9093 O   0  0  0  0  0  0  0  0  0  0  0  0
  150.0365  141.6533  156.5589 C   0  0  0  0  0  0  0  0  0  0  0  0
  149.9804  141.0284  157.8582 O   0  0  0  0  0  0  0  0  0  0  0  0
  148.8915  140.2024  157.3947 C   0  0  0  0  0  0  0  0  0  0  0  0
  144.4195  134.8783  153.2782 C   0  0  0  0  0  0  0  0  0  0  0  0
  143.5881  134.2789  152.1293 C   0  0  0  0  0  0  0  0  0  0  0  0
  143.5093  133.8062  149.7045 N   0  0  0  0  0  0  0  0  0  0  0  0
  145.6016  131.4866  149.4993 H   0  0  0  0  0  0  0  0  0  0  0  0
  145.5846  135.6272  149.6100 H   0  0  0  0  0  0  0  0  0  0  0  0
  144.1316  136.3402  150.2558 H   0  0  0  0  0  0  0  0  0  0  0  0
  146.6571  135.6534  151.8395 H   0  0  0  0  0  0  0  0  0  0  0  0
  146.0575  137.2419  151.4428 H   0  0  0  0  0  0  0  0  0  0  0  0
  145.4785  137.0339  157.2012 H   0  0  0  0  0  0  0  0  0  0  0  0
  147.6806  140.5985  152.3118 H   0  0  0  0  0  0  0  0  0  0  0  0
  148.2560  141.8075  154.4008 H   0  0  0  0  0  0  0  0  0  0  0  0
  147.2195  141.4912  155.7554 H   0  0  0  0  0  0  0  0  0  0  0  0
  150.8324  139.1297  155.7302 H   0  0  0  0  0  0  0  0  0  0  0  0
  149.3592  138.6064  154.9649 H   0  0  0  0  0  0  0  0  0  0  0  0
  149.8085  139.7115  153.2431 H   0  0  0  0  0  0  0  0  0  0  0  0
  151.0501  141.7121  156.1607 H   0  0  0  0  0  0  0  0  0  0  0  0
  149.5659  142.6372  156.5725 H   0  0  0  0  0  0  0  0  0  0  0  0
  147.9277  140.5636  157.7574 H   0  0  0  0  0  0  0  0  0  0  0  0
  149.0296  139.1486  157.6395 H   0  0  0  0  0  0  0  0  0  0  0  0
  145.2444  134.2139  153.5375 H   0  0  0  0  0  0  0  0  0  0  0  0
  143.7911  134.9655  154.1657 H   0  0  0  0  0  0  0  0  0  0  0  0
  142.6790  134.8693  152.0061 H   0  0  0  0  0  0  0  0  0  0  0  0
  143.2598  133.2751  152.4031 H   0  0  0  0  0  0  0  0  0  0  0  0
  142.6748  134.3017  149.4260 H   0  0  0  0  0  0  0  0  0  0  0  0
  1  2  2  0  0  0  0
  2 28  1  0  0  0  0
  2  3  1  0  0  0  0
  3  4  1  0  0  0  0
  3 29  1  0  0  0  0
  4  5  2  0  0  0  0
  4  6  1  0  0  0  0
  6 27  1  0  0  0  0
  6  7  1  0  0  0  0
  6 28  1  0  0  0  0
  7  8  1  0  0  0  0
  7 30  1  0  0  0  0
  7 31  1  0  0  0  0
  8  9  1  0  0  0  0
  8 32  1  0  0  0  0
  8 33  1  0  0  0  0
  9 10  1  0  0  0  0
  9 26  1  0  0  0  0
 10 15  1  0  0  0  0
 10 11  2  0  0  0  0
 11 12  1  0  0  0  0
 12 13  2  0  0  0  0
 12 34  1  0  0  0  0
 13 14  1  0  0  0  0
 14 18  1  0  0  0  0
 14 15  2  0  0  0  0
 15 16  1  0  0  0  0
 16 17  2  0  0  0  0
 17 18  1  0  0  0  0
 17 35  1  0  0  0  0
 18 19  1  0  0  0  0
 19 20  1  0  0  0  0
 19 36  1  0  0  0  0
 19 37  1  0  0  0  0
 20 25  1  0  0  0  0
 20 21  1  0  0  0  0
 20 23  1  0  0  0  0
 21 22  1  0  0  0  0
 21 38  1  0  0  0  0
 21 39  1  0  0  0  0
 22 40  1  0  0  0  0
 23 24  1  0  0  0  0
 23 41  1  0  0  0  0
 23 42  1  0  0  0  0
 24 25  1  0  0  0  0
 25 43  1  0  0  0  0
 25 44  1  0  0  0  0
 26 27  1  0  0  0  0
 26 45  1  0  0  0  0
 26 46  1  0  0  0  0
 27 47  1  0  0  0  0
 27 48  1  0  0  0  0
 28 49  1  0  0  0  0
M  END
> <s_m_source_file>
AV-unprocessed.smi

> <i_m_source_file_index>
188

> <i_lp_mmshare_version>
43012

> <i_f3d_flags>
0

> <s_epik_input>
Tz1DKFtOSF0xKVtOSF1DKD1PKUMxMltDSDJdW0NIMl1OKFtDSDJdW0NIMl0yKWMobltjSF1uMyljKGMzNCluW2NIXW40W0NIMl1DNShbQ0gyXVtPSF0pW0NIMl1PW0NIMl01

> <s_epik_cmdline>
J2VwaWtfcHl0aG9uJywgJy1waCcsICc3LjAnLCAnLXRuJywgJzgnLCAnLW1hJywgJzIwMCcsICctbWV0YWxfYmluZGluZycsICctaW1hZScsICc8aW5maWxlLm1hZT4nLCAnLW9tYWUnLCAnPG91dGZpbGUubWFlPic=

> <r_lp_tautomer_probability>
1

> <r_epik_Ionization_Penalty>
0.00868263

> <r_epik_Ionization_Penalty_Charging>
0

> <r_epik_Ionization_Penalty_Neutral>
0.00868263

> <r_epik_State_Penalty>
0.00519311

> <r_epik_Charging_Adjusted_Penalty>
0.00519311

> <i_epik_Tot_Q>
0

> <i_epik_Tot_abs_Q>
0

> <r_epik_Metal_State_Penalty>
0.404007

> <b_epik_Metal_Only>
0

> <s_lp_Force_Field>
OPLS_2005

> <r_lp_Energy>
48.5208

> <b_lp_Chiralities_Consistent>
1

> <s_lp_Variant>
AV-unprocessed.smi:188-1

> <Gold.Version>
5.8.1

> <Gold.Id.Protein>
6NUR|6NUR_protein|mol2

> <Gold.PLP.Fitness>
43.9878

> <Gold.PLP.PLP>
-33.4151

> <Gold.PLP.part.hbond>
-3.6869

> <Gold.PLP.part.metal>
0.0000

> <Gold.PLP.part.buried>
-5.1442

> <Gold.PLP.part.nonpolar>
-24.7295

> <Gold.PLP.part.repulsive>
1.1601

> <Gold.PLP.ligand.clash>
0.0000

> <Gold.PLP.ligand.torsion>
0.9746

> <Gold.PLP.Chemscore.Hbond>
3.1804

> <Gold.PLP.Chemscore.CHOScore>
0.7505

> <Gold.PLP.Chemscore.Metal>
0.0000

> <Gold.Chemscore.Hbonds>
donor molecule, donor type, donor heavy atom, donor atom, acceptor molecule, acceptor atom, score
      L1  H    22    40       P1  7957  0.56
      L1  H    28    49       P1 10186  0.96
      P1  H  7989  7998       L1    22  1.00
      P1  H 10785 10796       L1     1  0.61
      L1  C    17    35       P1  7957  0.80

> <Gold.PLP.Chemscore.Internal.Correction>
0.7293

> <Gold.Rescore>
     Score         DG    S(hbond)    S(metal)    S(lipo)     H(rot)  DE(clash)    DE(int)     intcor
     12.39     -14.56       3.06        0.00      53.31       2.88       0.04       2.13       ----

> <Gold.Chemscore.Fitness>
12.3903

> <Gold.Chemscore.DG>
-14.5616

> <Gold.Chemscore.ZeroCoef>
-5.4800

> <Gold.Chemscore.Hbond>
3.0566

> <Gold.Chemscore.Metal>
0.0000

> <Gold.Chemscore.Lipo>
53.3134

> <Gold.Chemscore.Internal_Hbond>
0.0000

> <Gold.Chemscore.DEClash>
0.0363

> <Gold.Chemscore.DEInternal>
2.1350

> <Gold.Chemscore.Rot>
2.8770

> <Gold.Chemscore.Internal.Correction>
   9.000000E+99

> <Gold.Chemscore.Hbonds>
donor molecule, donor type, donor heavy atom, donor atom, acceptor molecule, acceptor atom, score
      L1  H    22    40       P1  7957  0.55
      L1  H    28    49       P1 10186  0.92
      P1  H  7989  7998       L1    22  0.85
      P1  H 10785 10796       L1     1  0.37

> <Gold.Chemscore.Hbond.Weighted>
-10.2090

> <Gold.Chemscore.Metal.Weighted>
-0.0000

> <Gold.Chemscore.Lipo.Weighted>
-6.2377

> <Gold.Chemscore.Internal_Hbond.Weighted>
0.0000

> <Gold.Chemscore.DEClash.Weighted>
0.0363

> <Gold.Chemscore.DEInternal.Weighted>
2.1350

> <Gold.Chemscore.Rot.Weighted>
7.3651

> <Gold.Chemscore.Internal.Correction.Weighted>
   9.000000E+99

> <Gold.Protein.RotatedTorsions>
[ 6907 6896 6895 6894 ] final -162.37 input  -60.11 | X-H torsion
[ 7974 7965 7964 7962 ] final -165.30 input  175.53 | X-H torsion
[ 8008 7997 7996 7995 ] final -129.84 input   59.86 | X-H torsion
[ 10167 10162 10161 10158 ] final  113.11 input  -65.29 | X-H torsion
[ 10718 10713 10712 10709 ] final  -55.97 input   66.30 | X-H torsion
[ 10763 10752 10751 10750 ] final  113.26 input  -60.55 | X-H torsion
[ 11005 11000 10999 10996 ] final  127.09 input  -57.11 | X-H torsion

> <Gold.Protein.ActiveResidues>
 VAL166  LYS551  ARG553  GLY616  TRP617  ASP618  TYR619  PRO620  LYS621  CYS622 
 ASP623  PHE694  ASN695  SER759  ASP760  ASP761  ALA762  ILE779  LEU786  VAL792 
 PHE793  MET794  SER795  GLU796  ALA797  LYS798  CYS799  TRP800  GLU811  SER814 

> <Gold.Protein.RotatedAtoms>
  151.3792  133.3827  159.2707 H   0  0  0  0  0  0  0  0  0  0  0  0  # atno 6907 bound_to 6896
  150.9590  134.8982  159.7729 H   0  0  0  0  0  0  0  0  0  0  0  0  # atno 6908 bound_to 6896
  152.5142  134.3751  159.9384 H   0  0  0  0  0  0  0  0  0  0  0  0  # atno 6909 bound_to 6896
  144.7273  140.2834  143.6232 H   0  0  0  0  0  0  0  0  0  0  0  0  # atno 7974 bound_to 7965
  155.2859  140.0446  157.3019 H   0  0  0  0  0  0  0  0  0  0  0  0  # atno 8008 bound_to 7997
  154.5569  140.2334  155.8364 H   0  0  0  0  0  0  0  0  0  0  0  0  # atno 8009 bound_to 7997
  156.2015  140.3024  155.9543 H   0  0  0  0  0  0  0  0  0  0  0  0  # atno 8010 bound_to 7997
  139.6486  144.7127  151.2094 H   0  0  0  0  0  0  0  0  0  0  0  0  # atno 10167 bound_to 10162
  156.1326  130.4158  150.0242 H   0  0  0  0  0  0  0  0  0  0  0  0  # atno 10718 bound_to 10713
  153.4899  135.3661  155.2486 H   0  0  0  0  0  0  0  0  0  0  0  0  # atno 10763 bound_to 10752
  154.8752  135.3974  154.3601 H   0  0  0  0  0  0  0  0  0  0  0  0  # atno 10764 bound_to 10752
  153.4219  135.7080  153.6354 H   0  0  0  0  0  0  0  0  0  0  0  0  # atno 10765 bound_to 10752
  139.9489  134.9625  156.8803 H   0  0  0  0  0  0  0  0  0  0  0  0  # atno 11005 bound_to 11000
  145.7926  139.1933  143.2094 LP  0  0  0  0  0  0  0  0  0  0  0  0  # atno 17320 bound_to 7965
  146.0743  140.7835  142.9673 LP  0  0  0  0  0  0  0  0  0  0  0  0  # atno 17321 bound_to 7965
  140.7526  143.6189  150.8532 LP  0  0  0  0  0  0  0  0  0  0  0  0  # atno 17342 bound_to 10162
  139.9835  143.5925  152.2935 LP  0  0  0  0  0  0  0  0  0  0  0  0  # atno 17343 bound_to 10162
  156.8150  130.9338  151.3643 LP  0  0  0  0  0  0  0  0  0  0  0  0  # atno 17370 bound_to 10713
  157.6502  130.8878  149.9618 LP  0  0  0  0  0  0  0  0  0  0  0  0  # atno 17371 bound_to 10713
  140.5766  134.0392  155.7449 LP  0  0  0  0  0  0  0  0  0  0  0  0  # atno 17394 bound_to 11000
  141.1147  133.9559  157.2844 LP  0  0  0  0  0  0  0  0  0  0  0  0  # atno 17395 bound_to 11000

$$$$
