AV-unprocessed.smi:1209|AV-procd|sdf|5069|dock9
  -GOLD-   22720 4113D 1   1.00000     0.00000
 Structure written by MMmdl.
 48 50  0  0  0  0  0  0  0  0  1 V2000
  145.5809  134.0302  161.6052 C   0  0  0  0  0  0  0  0  0  0  0  0
  146.4200  135.0844  160.9687 C   0  0  0  0  0  0  0  0  0  0  0  0
  147.3962  135.0469  160.0145 C   0  0  0  0  0  0  0  0  0  0  0  0
  147.7806  136.4092  159.8728 C   0  0  0  0  0  0  0  0  0  0  0  0
  148.8236  136.9982  158.9595 C   0  0  0  0  0  0  0  0  0  0  0  0
  149.4918  136.0041  158.1173 N   0  0  0  0  0  0  0  0  0  0  0  0
  148.6200  135.5731  157.0239 C   0  0  0  0  0  0  0  0  0  0  0  0
  150.7660  136.5313  157.6195 C   0  0  0  0  0  0  0  0  0  0  0  0
  150.6655  137.7149  156.6349 C   0  0  2  0  0  0  0  0  0  0  0  0
  150.5792  137.1988  155.3205 O   0  0  0  0  0  0  0  0  0  0  0  0
  151.8963  138.6364  156.7365 C   0  0  0  0  0  0  0  0  0  0  0  0
  151.5377  140.0430  156.7908 N   0  0  0  0  0  0  0  0  0  0  0  0
  150.8800  140.7483  155.8505 C   0  0  0  0  0  0  0  0  0  0  0  0
  150.6519  142.0341  156.1022 N   0  0  0  0  0  0  0  0  0  0  0  0
  151.2285  142.1805  157.3523 C   0  0  0  0  0  0  0  0  0  0  0  0
  151.3315  143.3143  158.1880 C   0  0  0  0  0  0  0  0  0  0  0  0
  151.9771  143.2335  159.4427 C   0  0  0  0  0  0  0  0  0  0  0  0
  152.0666  144.4775  160.3089 C   0  0  0  0  0  0  0  0  0  0  0  0
  152.5318  142.0034  159.8785 C   0  0  0  0  0  0  0  0  0  0  0  0
  153.2317  141.8928  161.2212 C   0  0  0  0  0  0  0  0  0  0  0  0
  152.4358  140.8607  159.0570 C   0  0  0  0  0  0  0  0  0  0  0  0
  151.7913  140.9537  157.8110 C   0  0  0  0  0  0  0  0  0  0  0  0
  147.0915  137.1992  160.6799 N   0  0  0  0  0  0  0  0  0  0  0  0
  146.2192  136.3616  161.3840 O   0  0  0  0  0  0  0  0  0  0  0  0
  145.5322  133.1406  160.9771 H   0  0  0  0  0  0  0  0  0  0  0  0
  144.5629  134.3862  161.7647 H   0  0  0  0  0  0  0  0  0  0  0  0
  145.9943  133.7403  162.5713 H   0  0  0  0  0  0  0  0  0  0  0  0
  147.7773  134.1806  159.4945 H   0  0  0  0  0  0  0  0  0  0  0  0
  148.3854  137.7765  158.3322 H   0  0  0  0  0  0  0  0  0  0  0  0
  149.5660  137.5017  159.5800 H   0  0  0  0  0  0  0  0  0  0  0  0
  149.0734  134.7735  156.4407 H   0  0  0  0  0  0  0  0  0  0  0  0
  148.3943  136.4008  156.3504 H   0  0  0  0  0  0  0  0  0  0  0  0
  147.6759  135.1812  157.4025 H   0  0  0  0  0  0  0  0  0  0  0  0
  151.3823  136.8247  158.4710 H   0  0  0  0  0  0  0  0  0  0  0  0
  151.3190  135.7338  157.1206 H   0  0  0  0  0  0  0  0  0  0  0  0
  149.7765  138.3127  156.8297 H   0  0  0  0  0  0  0  0  0  0  0  0
  149.6695  137.1805  155.0648 H   0  0  0  0  0  0  0  0  0  0  0  0
  152.4703  138.3977  157.6329 H   0  0  0  0  0  0  0  0  0  0  0  0
  152.5655  138.4788  155.8895 H   0  0  0  0  0  0  0  0  0  0  0  0
  150.5510  140.2916  154.9284 H   0  0  0  0  0  0  0  0  0  0  0  0
  150.9097  144.2513  157.8552 H   0  0  0  0  0  0  0  0  0  0  0  0
  151.5769  144.3106  161.2686 H   0  0  0  0  0  0  0  0  0  0  0  0
  151.5845  145.3308  159.8315 H   0  0  0  0  0  0  0  0  0  0  0  0
  153.1084  144.7413  160.4920 H   0  0  0  0  0  0  0  0  0  0  0  0
  153.6167  140.8863  161.3870 H   0  0  0  0  0  0  0  0  0  0  0  0
  152.5413  142.1250  162.0324 H   0  0  0  0  0  0  0  0  0  0  0  0
  154.0729  142.5842  161.2726 H   0  0  0  0  0  0  0  0  0  0  0  0
  152.8557  139.9181  159.3758 H   0  0  0  0  0  0  0  0  0  0  0  0
  1  2  1  0  0  0  0
  1 25  1  0  0  0  0
  1 26  1  0  0  0  0
  1 27  1  0  0  0  0
  2 24  1  0  0  0  0
  2  3  2  0  0  0  0
  3  4  1  0  0  0  0
  3 28  1  0  0  0  0
  4  5  1  0  0  0  0
  4 23  2  0  0  0  0
  5  6  1  0  0  0  0
  5 29  1  0  0  0  0
  5 30  1  0  0  0  0
  6  7  1  0  0  0  0
  6  8  1  0  0  0  0
  7 31  1  0  0  0  0
  7 32  1  0  0  0  0
  7 33  1  0  0  0  0
  8  9  1  0  0  0  0
  8 34  1  0  0  0  0
  8 35  1  0  0  0  0
  9 10  1  0  0  0  0
  9 11  1  0  0  0  0
  9 36  1  0  0  0  0
 10 37  1  0  0  0  0
 11 12  1  0  0  0  0
 11 38  1  0  0  0  0
 11 39  1  0  0  0  0
 12 22  1  0  0  0  0
 12 13  1  0  0  0  0
 13 14  2  0  0  0  0
 13 40  1  0  0  0  0
 14 15  1  0  0  0  0
 15 22  2  0  0  0  0
 15 16  1  0  0  0  0
 16 17  2  0  0  0  0
 16 41  1  0  0  0  0
 17 18  1  0  0  0  0
 17 19  1  0  0  0  0
 18 42  1  0  0  0  0
 18 43  1  0  0  0  0
 18 44  1  0  0  0  0
 19 20  1  0  0  0  0
 19 21  2  0  0  0  0
 20 45  1  0  0  0  0
 20 46  1  0  0  0  0
 20 47  1  0  0  0  0
 21 22  1  0  0  0  0
 21 48  1  0  0  0  0
 23 24  1  0  0  0  0
M  END
> <s_m_source_file>
AV-unprocessed.smi

> <i_m_source_file_index>
1209

> <i_lp_mmshare_version>
43012

> <i_f3d_flags>
0

> <s_epik_input>
W0NIM11jMVtjSF1jKG5vMSlbQ0gyXU4oW0NIM10pW0NIMl1bQ0BIXShbT0hdKVtDSDJdbihbY0hdbjIpYyhjMjMpW2NIXWMoW0NIM10pYyhbY0hdMylbQ0gzXQ==

> <s_epik_cmdline>
J2VwaWtfcHl0aG9uJywgJy1waCcsICc3LjAnLCAnLXRuJywgJzgnLCAnLW1hJywgJzIwMCcsICctbWV0YWxfYmluZGluZycsICctaW1hZScsICc8aW5maWxlLm1hZT4nLCAnLW9tYWUnLCAnPG91dGZpbGUubWFlPic=

> <r_epik_Ionization_Penalty>
0.103258

> <r_epik_Ionization_Penalty_Charging>
0

> <r_epik_Ionization_Penalty_Neutral>
0.103258

> <r_epik_State_Penalty>
0.0919675

> <r_epik_Charging_Adjusted_Penalty>
0.0919675

> <i_epik_Tot_Q>
0

> <i_epik_Tot_abs_Q>
0

> <r_epik_Metal_State_Penalty>
0.0812522

> <b_epik_Metal_Only>
0

> <s_lp_Force_Field>
OPLS_2005

> <r_lp_Energy>
18.8485

> <b_lp_Chiralities_Consistent>
1

> <s_lp_Variant>
AV-unprocessed.smi:1209-1

> <Gold.Version>
5.8.1

> <Gold.Id.Protein>
6NUR|6NUR_protein|mol2

> <Gold.PLP.Fitness>
53.0732

> <Gold.PLP.PLP>
-46.8225

> <Gold.PLP.part.hbond>
-3.0000

> <Gold.PLP.part.metal>
0.0000

> <Gold.PLP.part.buried>
-5.8611

> <Gold.PLP.part.nonpolar>
-38.6686

> <Gold.PLP.part.repulsive>
0.1329

> <Gold.PLP.ligand.clash>
0.0000

> <Gold.PLP.ligand.torsion>
1.1875

> <Gold.PLP.Chemscore.Hbond>
2.8080

> <Gold.PLP.Chemscore.CHOScore>
0.0000

> <Gold.PLP.Chemscore.Metal>
0.0000

> <Gold.Chemscore.Hbonds>
donor molecule, donor type, donor heavy atom, donor atom, acceptor molecule, acceptor atom, score
      P1  H  6896  6908       L1     6  0.10
      P1  H  6934  6947       L1    23  1.00

> <Gold.PLP.Chemscore.Internal.Correction>
0.2017

> <Gold.Rescore>
     Score         DG    S(hbond)    S(metal)    S(lipo)     H(rot)  DE(clash)    DE(int)     intcor
     16.16     -18.58       1.36        0.00     126.52       2.45       0.08       2.34       ----

> <Gold.Chemscore.Fitness>
16.1582

> <Gold.Chemscore.DG>
-18.5790

> <Gold.Chemscore.ZeroCoef>
-5.4800

> <Gold.Chemscore.Hbond>
1.3646

> <Gold.Chemscore.Metal>
0.0000

> <Gold.Chemscore.Lipo>
126.5247

> <Gold.Chemscore.Internal_Hbond>
0.0000

> <Gold.Chemscore.DEClash>
0.0784

> <Gold.Chemscore.DEInternal>
2.3424

> <Gold.Chemscore.Rot>
2.4462

> <Gold.Chemscore.Internal.Correction>
   9.000000E+99

> <Gold.Chemscore.Hbonds>
donor molecule, donor type, donor heavy atom, donor atom, acceptor molecule, acceptor atom, score
      P1  H  6934  6947       L1    23  0.99

> <Gold.Chemscore.Hbond.Weighted>
-4.5579

> <Gold.Chemscore.Metal.Weighted>
-0.0000

> <Gold.Chemscore.Lipo.Weighted>
-14.8034

> <Gold.Chemscore.Internal_Hbond.Weighted>
0.0000

> <Gold.Chemscore.DEClash.Weighted>
0.0784

> <Gold.Chemscore.DEInternal.Weighted>
2.3424

> <Gold.Chemscore.Rot.Weighted>
6.2623

> <Gold.Chemscore.Internal.Correction.Weighted>
   9.000000E+99

> <Gold.Protein.RotatedTorsions>
[ 6907 6896 6895 6894 ] final  171.80 input  -60.11 | X-H torsion
[ 7974 7965 7964 7962 ] final -105.93 input  175.53 | X-H torsion
[ 8008 7997 7996 7995 ] final  -49.83 input   59.86 | X-H torsion
[ 10167 10162 10161 10158 ] final   27.50 input  -65.29 | X-H torsion
[ 10718 10713 10712 10709 ] final  143.75 input   66.30 | X-H torsion
[ 10763 10752 10751 10750 ] final  177.19 input  -60.55 | X-H torsion
[ 11005 11000 10999 10996 ] final  -75.21 input  -57.11 | X-H torsion

> <Gold.Protein.ActiveResidues>
 VAL166  LYS551  ARG553  GLY616  TRP617  ASP618  TYR619  PRO620  LYS621  CYS622 
 ASP623  PHE694  ASN695  SER759  ASP760  ASP761  ALA762  ILE779  LEU786  VAL792 
 PHE793  MET794  SER795  GLU796  ALA797  LYS798  CYS799  TRP800  GLU811  SER814 

> <Gold.Protein.RotatedAtoms>
  151.7944  133.3363  159.3508 H   0  0  0  0  0  0  0  0  0  0  0  0  # atno 6907 bound_to 6896
  150.7380  134.5812  159.5949 H   0  0  0  0  0  0  0  0  0  0  0  0  # atno 6908 bound_to 6896
  152.3187  134.7409  160.0370 H   0  0  0  0  0  0  0  0  0  0  0  0  # atno 6909 bound_to 6896
  145.2242  140.9146  143.3242 H   0  0  0  0  0  0  0  0  0  0  0  0  # atno 7974 bound_to 7965
  154.4051  140.1287  156.4567 H   0  0  0  0  0  0  0  0  0  0  0  0  # atno 8008 bound_to 7997
  155.7313  140.3491  155.5041 H   0  0  0  0  0  0  0  0  0  0  0  0  # atno 8009 bound_to 7997
  155.9124  140.1038  157.1259 H   0  0  0  0  0  0  0  0  0  0  0  0  # atno 8010 bound_to 7997
  140.4933  144.0432  150.6305 H   0  0  0  0  0  0  0  0  0  0  0  0  # atno 10167 bound_to 10162
  157.3653  131.0971  151.0878 H   0  0  0  0  0  0  0  0  0  0  0  0  # atno 10718 bound_to 10713
  154.4912  135.2779  155.1495 H   0  0  0  0  0  0  0  0  0  0  0  0  # atno 10763 bound_to 10752
  154.3165  135.6218  153.5492 H   0  0  0  0  0  0  0  0  0  0  0  0  # atno 10764 bound_to 10752
  152.9888  135.5732  154.5334 H   0  0  0  0  0  0  0  0  0  0  0  0  # atno 10765 bound_to 10752
  141.1643  133.6938  156.7482 H   0  0  0  0  0  0  0  0  0  0  0  0  # atno 11005 bound_to 11000
  144.9737  139.3854  143.6296 LP  0  0  0  0  0  0  0  0  0  0  0  0  # atno 17320 bound_to 7965
  146.3368  139.8846  142.8819 LP  0  0  0  0  0  0  0  0  0  0  0  0  # atno 17321 bound_to 7965
  140.3707  143.2856  152.0281 LP  0  0  0  0  0  0  0  0  0  0  0  0  # atno 17342 bound_to 10162
  139.4856  144.6232  151.7216 LP  0  0  0  0  0  0  0  0  0  0  0  0  # atno 17343 bound_to 10162
  157.2002  130.6391  149.5736 LP  0  0  0  0  0  0  0  0  0  0  0  0  # atno 17370 bound_to 10713
  155.9745  130.4693  150.6391 LP  0  0  0  0  0  0  0  0  0  0  0  0  # atno 17371 bound_to 10713
  140.2623  134.8457  157.3770 LP  0  0  0  0  0  0  0  0  0  0  0  0  # atno 17394 bound_to 11000
  140.1599  134.4742  155.7902 LP  0  0  0  0  0  0  0  0  0  0  0  0  # atno 17395 bound_to 11000

$$$$
