#       Name:                AV-unprocessed.smi:2514
#       Creating user name   scv26
#       Creation time:       Fri Mar 27 13:53:11 2020


#       File generated by GOLD software.
#

@<TRIPOS>MOLECULE
AV-unprocessed.smi:2514
    29    30     1
SMALL
NO_CHARGES


@<TRIPOS>ATOM
      1 ****        -3.4199   0.0017  -1.4697 C.3            1 S1                 0.0000
      2 ****        -2.8066   0.8545  -0.3521 C.3            1 S1                 0.0000
      3 ****        -3.1247   2.2151  -0.5638 O.3            1 S1                 0.0000
      4 ****        -1.3077   0.7526  -0.3021 C.2            1 S1                 0.0000
      5 ****        -0.5268   0.1155   0.6203 C.2            1 S1                 0.0000
      6 ****         0.7549   0.3296   0.1587 N.pl3          1 S1                 0.0000
      7 ****         1.9856  -0.0588   0.7818 C.3            1 S1                 0.0000
      8 ****         3.2403  -0.3438  -0.0482 C.3            1 S1                 0.0000
      9 ****         3.5496  -1.3801   0.9221 N.3            1 S1                 0.0000
     10 ****         2.1594  -1.4744   1.3344 C.3            1 S1                 0.0000
     11 ****         0.7619   1.0957  -0.9572 N.2            1 S1                 0.0000
     12 ****        -0.4747   1.3384  -1.2591 N.2            1 S1                 0.0000
     13 ****        -3.1890  -1.0539  -1.3257 H              1 S1                 0.0000
     14 ****        -3.0400   0.2949  -2.4490 H              1 S1                 0.0000
     15 ****        -4.5053   0.1031  -1.4894 H              1 S1                 0.0000
     16 ****        -3.2355   0.5542   0.6045 H              1 S1                 0.0000
     17 ****        -2.7738   2.7191   0.1544 H              1 S1                 0.0000
     18 ****        -0.7584  -0.4431   1.5150 H              1 S1                 0.0000
     19 ****         2.1875   0.6901   1.5511 H              1 S1                 0.0000
     20 ****         3.0445  -0.7558  -1.0393 H              1 S1                 0.0000
     21 ****         3.9608   0.4742  -0.0685 H              1 S1                 0.0000
     22 ****         3.8806  -2.2291   0.4861 H              1 S1                 0.0000
     23 ****         2.0201  -1.5554   2.4126 H              1 S1                 0.0000
     24 ****         1.6181  -2.2442   0.7822 H              1 S1                 0.0000
     25 ****        -4.1176   2.3277  -0.6019 LP             1 S1                 0.0000
     26 ****        -2.7207   2.5264  -1.4239 LP             1 S1                 0.0000
     27 ****         4.2583  -1.2184   1.6088 LP             1 S1                 0.0000
     28 ****         1.5688   1.4142  -1.4546 LP             1 S1                 0.0000
     29 ****        -0.7844   1.8626  -2.0524 LP             1 S1                 0.0000
@<TRIPOS>BOND
    1    1    2 1     
    2    1   13 1     
    3    1   14 1     
    4    1   15 1     
    5    2    3 1     
    6    2    4 1     
    7    2   16 1     
    8    3   17 1     
    9    4   12 1     
   10    4    5 2     
   11    5    6 1     
   12    5   18 1     
   13    6    7 1     
   14    6   11 1     
   15    7   10 1     
   16    7    8 1     
   17    7   19 1     
   18    8    9 1     
   19    8   20 1     
   20    8   21 1     
   21    9   10 1     
   22    9   22 1     
   23   10   23 1     
   24   10   24 1     
   25   11   12 2     
   26    3   25 1     
   27    3   26 1     
   28    9   27 1     
   29   11   28 1     
   30   12   29 1     
@<TRIPOS>SUBSTRUCTURE
      1 S1             1
@<TRIPOS>SET
LONE_PAIRS      STATIC     ATOMS    <user>   **** ""
5 25 26 27 28 29
DONOR_HYDROGENS      STATIC     ATOMS    <user>   **** ""
2 17 22
ATOM$BLUE        STATIC     ATOMS    COLORGROUP SYSTEM
5 25 26 27 28 29
ATOM$RED        STATIC     ATOMS    COLORGROUP SYSTEM
2 17 22
