#       Name:                AV-unprocessed.smi:532
#       Creating user name   scv26
#       Creation time:       Thu Mar 26 23:33:57 2020


#       File generated by GOLD software.
#

@<TRIPOS>MOLECULE
AV-unprocessed.smi:532
    56    58     1
SMALL
NO_CHARGES


@<TRIPOS>ATOM
      1 ****        -3.4745   3.4909   1.2282 C.3            1 S1                 0.0000
      2 ****        -3.1512   2.1237   1.0455 O.3            1 S1                 0.0000
      3 ****        -1.7994   1.8387   1.3614 C.3            1 S1                 0.0000
      4 ****        -1.5457   0.3404   1.1288 C.3            1 S1                 0.0000
      5 ****        -0.1416  -0.0207   1.3009 N.pl3          1 S1                 0.0000
      6 ****         0.8110  -0.2953   0.3607 C.2            1 S1                 0.0000
      7 ****         0.5823  -0.2444  -1.0225 N.pl3          1 S1                 0.0000
      8 ****         1.3022  -1.0862  -1.9813 C.3            1 S1                 0.0000
      9 ****         0.3413  -1.8453  -2.9176 C.3            1 S1                 0.0000
     10 ****         1.1058  -2.7646  -3.8797 C.3            1 S1                 0.0000
     11 ****        -0.5479  -0.8479  -3.6783 C.3            1 S1                 0.0000
     12 ****        -1.2362   0.1120  -2.6949 C.3            1 S1                 0.0000
     13 ****        -2.0629   1.1772  -3.4272 C.3            1 S1                 0.0000
     14 ****        -0.1800   0.7558  -1.7740 C.3            1 S1                 0.0000
     15 ****         1.9930  -0.6538   0.8740 N.2            1 S1                 0.0000
     16 ****         1.7888  -0.5898   2.2417 C.2            1 S1                 0.0000
     17 ****         0.5142  -0.2201   2.5188 C.2            1 S1                 0.0000
     18 ****         0.0138  -0.1021   3.8963 C.2            1 S1                 0.0000
     19 ****        -1.1417   0.2099   4.1755 O.2            1 S1                 0.0000
     20 ****         0.9563  -0.3754   4.8308 N.am           1 S1                 0.0000
     21 ****         2.2564  -0.7429   4.6179 C.2            1 S1                 0.0000
     22 ****         3.0007  -0.9543   5.5751 O.2            1 S1                 0.0000
     23 ****         2.6798  -0.8613   3.3190 N.am           1 S1                 0.0000
     24 ****         4.0602  -1.2559   3.0313 C.3            1 S1                 0.0000
     25 ****         0.6652  -0.3020   5.7947 H              1 S1                 0.0000
     26 ****        -4.5211   3.6574   0.9730 H              1 S1                 0.0000
     27 ****        -2.8662   4.1291   0.5859 H              1 S1                 0.0000
     28 ****        -3.3278   3.7961   2.2651 H              1 S1                 0.0000
     29 ****        -1.1377   2.4477   0.7454 H              1 S1                 0.0000
     30 ****        -1.5973   2.1056   2.3989 H              1 S1                 0.0000
     31 ****        -2.1453  -0.2516   1.8200 H              1 S1                 0.0000
     32 ****        -1.8840   0.0383   0.1414 H              1 S1                 0.0000
     33 ****         1.9887  -0.4666  -2.5603 H              1 S1                 0.0000
     34 ****         1.9200  -1.8088  -1.4472 H              1 S1                 0.0000
     35 ****        -0.3024  -2.4750  -2.3012 H              1 S1                 0.0000
     36 ****         1.7740  -2.1941  -4.5255 H              1 S1                 0.0000
     37 ****         0.4197  -3.3213  -4.5185 H              1 S1                 0.0000
     38 ****         1.7095  -3.4893  -3.3330 H              1 S1                 0.0000
     39 ****         0.0593  -0.2779  -4.3831 H              1 S1                 0.0000
     40 ****        -1.2937  -1.3816  -4.2685 H              1 S1                 0.0000
     41 ****        -1.9233  -0.4721  -2.0820 H              1 S1                 0.0000
     42 ****        -1.4324   1.8031  -4.0595 H              1 S1                 0.0000
     43 ****        -2.5761   1.8285  -2.7190 H              1 S1                 0.0000
     44 ****        -2.8212   0.7182  -4.0621 H              1 S1                 0.0000
     45 ****        -0.6497   1.4675  -1.1027 H              1 S1                 0.0000
     46 ****         0.5170   1.3455  -2.3714 H              1 S1                 0.0000
     47 ****         4.3129  -2.1853   3.5435 H              1 S1                 0.0000
     48 ****         4.7527  -0.4830   3.3669 H              1 S1                 0.0000
     49 ****         4.2369  -1.4163   1.9680 H              1 S1                 0.0000
     50 ****        -3.3154   1.8803   0.0896 LP             1 S1                 0.0000
     51 ****        -3.7415   1.5729   1.6357 LP             1 S1                 0.0000
     52 ****         2.8274  -0.9081   0.3851 LP             1 S1                 0.0000
     53 ****        -1.7987   0.3994   3.4458 LP             1 S1                 0.0000
     54 ****        -1.4250   0.2743   5.1324 LP             1 S1                 0.0000
     55 ****         2.6548  -0.8574   6.5084 LP             1 S1                 0.0000
     56 ****         3.9512  -1.2230   5.4195 LP             1 S1                 0.0000
@<TRIPOS>BOND
    1    1    2 1     
    2    1   26 1     
    3    1   27 1     
    4    1   28 1     
    5    2    3 1     
    6    3    4 1     
    7    3   29 1     
    8    3   30 1     
    9    4    5 1     
   10    4   31 1     
   11    4   32 1     
   12    5   17 1     
   13    5    6 1     
   14    6    7 1     
   15    6   15 2     
   16    7   14 1     
   17    7    8 1     
   18    8    9 1     
   19    8   33 1     
   20    8   34 1     
   21    9   10 1     
   22    9   11 1     
   23    9   35 1     
   24   10   36 1     
   25   10   37 1     
   26   10   38 1     
   27   11   12 1     
   28   11   39 1     
   29   11   40 1     
   30   12   13 1     
   31   12   14 1     
   32   12   41 1     
   33   13   42 1     
   34   13   43 1     
   35   13   44 1     
   36   14   45 1     
   37   14   46 1     
   38   15   16 1     
   39   16   23 1     
   40   16   17 2     
   41   17   18 1     
   42   18   19 2     
   43   18   20 1     
   44   20   25 1     
   45   20   21 1     
   46   21   22 2     
   47   21   23 1     
   48   23   24 1     
   49   24   47 1     
   50   24   48 1     
   51   24   49 1     
   52    2   50 1     
   53    2   51 1     
   54   15   52 1     
   55   19   53 1     
   56   19   54 1     
   57   22   55 1     
   58   22   56 1     
@<TRIPOS>SUBSTRUCTURE
      1 S1             1
@<TRIPOS>SET
LONE_PAIRS      STATIC     ATOMS    <user>   **** ""
7 50 51 52 53 54 55 56
DONOR_HYDROGENS      STATIC     ATOMS    <user>   **** ""
1 25
ATOM$BLUE        STATIC     ATOMS    COLORGROUP SYSTEM
7 50 51 52 53 54 55 56
ATOM$RED        STATIC     ATOMS    COLORGROUP SYSTEM
1 25
