AV-unprocessed.smi:819|AV-procd|sdf|3834|dock7
  -GOLD-   22720 1273D 1   1.00000     0.00000
 Structure written by MMmdl.
 40 41  0  0  0  0  0  0  0  0  1 V2000
  147.2195  133.3537  155.4841 C   0  0  0  0  0  0  0  0  0  0  0  0
  148.4153  133.2460  154.5228 C   0  0  2  0  0  0  0  0  0  0  0  0
  148.8386  134.5990  154.1654 N   0  0  0  0  0  0  0  0  0  0  0  0
  149.6239  135.3838  154.9189 C   0  0  0  0  0  0  0  0  0  0  0  0
  150.0540  135.0503  156.0231 O   0  0  0  0  0  0  0  0  0  0  0  0
  149.8882  136.5469  154.2996 N   0  0  0  0  0  0  0  0  0  0  0  0
  150.6894  137.6278  154.7574 C   0  0  0  0  0  0  0  0  0  0  0  0
  151.6986  137.3492  155.7018 C   0  0  0  0  0  0  0  0  0  0  0  0
  152.5170  138.3984  156.1616 C   0  0  0  0  0  0  0  0  0  0  0  0
  152.2989  139.6916  155.6488 C   0  0  0  0  0  0  0  0  0  0  0  0
  151.3486  139.9738  154.7332 N   0  0  0  0  0  0  0  0  0  0  0  0
  150.5659  138.9628  154.2976 C   0  0  0  0  0  0  0  0  0  0  0  0
  147.9682  132.4854  153.2647 C   0  0  0  0  0  0  0  0  0  0  0  0
  148.3752  131.3430  153.0467 O   0  0  0  0  0  0  0  0  0  0  0  0
  147.1234  133.1341  152.4494 N   0  0  0  0  0  0  0  0  0  0  0  0
  146.5454  132.5830  151.2273 C   0  0  0  0  0  0  0  0  0  0  0  0
  145.6712  133.6327  150.5143 C   0  0  0  0  0  0  0  0  0  0  0  0
  144.3564  132.9288  150.1742 C   0  0  0  0  0  0  0  0  0  0  0  0
  144.1942  131.8824  151.2717 C   0  0  0  0  0  0  0  0  0  0  0  0
  145.6176  131.3875  151.5287 C   0  0  0  0  0  0  0  0  0  0  0  0
  146.8561  132.3672  155.7750 H   0  0  0  0  0  0  0  0  0  0  0  0
  146.3849  133.8979  155.0391 H   0  0  0  0  0  0  0  0  0  0  0  0
  147.5021  133.8765  156.3984 H   0  0  0  0  0  0  0  0  0  0  0  0
  149.2332  132.7185  155.0180 H   0  0  0  0  0  0  0  0  0  0  0  0
  148.5375  134.9466  153.2669 H   0  0  0  0  0  0  0  0  0  0  0  0
  149.5292  136.6409  153.3607 H   0  0  0  0  0  0  0  0  0  0  0  0
  151.8430  136.3456  156.0750 H   0  0  0  0  0  0  0  0  0  0  0  0
  153.2939  138.2163  156.8893 H   0  0  0  0  0  0  0  0  0  0  0  0
  152.9079  140.5204  155.9784 H   0  0  0  0  0  0  0  0  0  0  0  0
  149.8432  139.2459  153.5486 H   0  0  0  0  0  0  0  0  0  0  0  0
  146.8391  134.0678  152.7082 H   0  0  0  0  0  0  0  0  0  0  0  0
  147.3473  132.2630  150.5591 H   0  0  0  0  0  0  0  0  0  0  0  0
  145.4593  134.4724  151.1782 H   0  0  0  0  0  0  0  0  0  0  0  0
  146.1570  134.0399  149.6269 H   0  0  0  0  0  0  0  0  0  0  0  0
  143.5125  133.6173  150.1214 H   0  0  0  0  0  0  0  0  0  0  0  0
  144.4440  132.4332  149.2065 H   0  0  0  0  0  0  0  0  0  0  0  0
  143.8000  132.3531  152.1734 H   0  0  0  0  0  0  0  0  0  0  0  0
  143.5142  131.0779  150.9904 H   0  0  0  0  0  0  0  0  0  0  0  0
  145.8454  130.5747  150.8382 H   0  0  0  0  0  0  0  0  0  0  0  0
  145.7316  130.9885  152.5377 H   0  0  0  0  0  0  0  0  0  0  0  0
  1  2  1  0  0  0  0
  1 21  1  0  0  0  0
  1 22  1  0  0  0  0
  1 23  1  0  0  0  0
  2  3  1  0  0  0  0
  2 13  1  0  0  0  0
  2 24  1  0  0  0  0
  3  4  1  0  0  0  0
  3 25  1  0  0  0  0
  4  5  2  0  0  0  0
  4  6  1  0  0  0  0
  6  7  1  0  0  0  0
  6 26  1  0  0  0  0
  7 12  1  0  0  0  0
  7  8  2  0  0  0  0
  8  9  1  0  0  0  0
  8 27  1  0  0  0  0
  9 10  2  0  0  0  0
  9 28  1  0  0  0  0
 10 11  1  0  0  0  0
 10 29  1  0  0  0  0
 11 12  2  0  0  0  0
 12 30  1  0  0  0  0
 13 14  2  0  0  0  0
 13 15  1  0  0  0  0
 15 16  1  0  0  0  0
 15 31  1  0  0  0  0
 16 20  1  0  0  0  0
 16 17  1  0  0  0  0
 16 32  1  0  0  0  0
 17 18  1  0  0  0  0
 17 33  1  0  0  0  0
 17 34  1  0  0  0  0
 18 19  1  0  0  0  0
 18 35  1  0  0  0  0
 18 36  1  0  0  0  0
 19 20  1  0  0  0  0
 19 37  1  0  0  0  0
 19 38  1  0  0  0  0
 20 39  1  0  0  0  0
 20 40  1  0  0  0  0
M  END
> <s_m_source_file>
AV-unprocessed.smi

> <i_m_source_file_index>
819

> <i_lp_mmshare_version>
43012

> <i_f3d_flags>
0

> <s_epik_input>
W0NIMl0xW0NIMl1bQ0gyXVtDSDJdW0NIXTFbTkhdQyg9TylbQ0BIXShbQ0gzXSlbTkhdQyg9TylbTkhdYzJbY0hdW2NIXVtjSF1uW2NIXTI=

> <s_epik_cmdline>
J2VwaWtfcHl0aG9uJywgJy1waCcsICc3LjAnLCAnLXRuJywgJzgnLCAnLW1hJywgJzIwMCcsICctbWV0YWxfYmluZGluZycsICctaW1hZScsICc8aW5maWxlLm1hZT4nLCAnLW9tYWUnLCAnPG91dGZpbGUubWFlPic=

> <r_epik_Ionization_Penalty>
0.00416979

> <r_epik_Ionization_Penalty_Charging>
0

> <r_epik_Ionization_Penalty_Neutral>
0.00416979

> <r_epik_State_Penalty>
0.00297037

> <r_epik_Charging_Adjusted_Penalty>
0.00297037

> <i_epik_Tot_Q>
0

> <i_epik_Tot_abs_Q>
0

> <r_epik_Metal_State_Penalty>
-0

> <b_epik_Metal_Only>
0

> <s_lp_Force_Field>
OPLS_2005

> <r_lp_Energy>
20.2836

> <b_lp_Chiralities_Consistent>
1

> <s_lp_Variant>
AV-unprocessed.smi:819-1

> <Gold.Version>
5.8.1

> <Gold.Id.Protein>
6NUR|6NUR_protein|mol2

> <Gold.PLP.Fitness>
42.8569

> <Gold.PLP.PLP>
-32.4764

> <Gold.PLP.part.hbond>
-3.3129

> <Gold.PLP.part.metal>
0.0000

> <Gold.PLP.part.buried>
-3.7197

> <Gold.PLP.part.nonpolar>
-25.9254

> <Gold.PLP.part.repulsive>
0.8802

> <Gold.PLP.ligand.clash>
0.0000

> <Gold.PLP.ligand.torsion>
0.6605

> <Gold.PLP.Chemscore.Hbond>
2.8960

> <Gold.PLP.Chemscore.CHOScore>
1.0000

> <Gold.PLP.Chemscore.Metal>
0.0000

> <Gold.Chemscore.Hbonds>
donor molecule, donor type, donor heavy atom, donor atom, acceptor molecule, acceptor atom, score
      L1  H     3    25       P1  7948  0.86
      L1  H     6    26       P1  7948  1.00
      P1  H  7989  7998       L1    11  1.00
      L1  C    12    30       P1  7957  1.00

> <Gold.PLP.Chemscore.Internal.Correction>
0.0134

> <Gold.Rescore>
     Score         DG    S(hbond)    S(metal)    S(lipo)     H(rot)  DE(clash)    DE(int)     intcor
     16.72     -18.59       2.28        0.00      80.19       1.52       0.00       1.87       ----

> <Gold.Chemscore.Fitness>
16.7192

> <Gold.Chemscore.DG>
-18.5919

> <Gold.Chemscore.ZeroCoef>
-5.4800

> <Gold.Chemscore.Hbond>
2.2835

> <Gold.Chemscore.Metal>
0.0000

> <Gold.Chemscore.Lipo>
80.1933

> <Gold.Chemscore.Internal_Hbond>
0.0000

> <Gold.Chemscore.DEClash>
0.0038

> <Gold.Chemscore.DEInternal>
1.8688

> <Gold.Chemscore.Rot>
1.5225

> <Gold.Chemscore.Internal.Correction>
   9.000000E+99

> <Gold.Chemscore.Hbonds>
donor molecule, donor type, donor heavy atom, donor atom, acceptor molecule, acceptor atom, score
      L1  H     3    25       P1  7948  0.60
      L1  H     6    26       P1  7948  0.69
      P1  H  7989  7998       L1    11  0.57

> <Gold.Chemscore.Hbond.Weighted>
-7.6270

> <Gold.Chemscore.Metal.Weighted>
-0.0000

> <Gold.Chemscore.Lipo.Weighted>
-9.3826

> <Gold.Chemscore.Internal_Hbond.Weighted>
0.0000

> <Gold.Chemscore.DEClash.Weighted>
0.0038

> <Gold.Chemscore.DEInternal.Weighted>
1.8688

> <Gold.Chemscore.Rot.Weighted>
3.8977

> <Gold.Chemscore.Internal.Correction.Weighted>
   9.000000E+99

> <Gold.Protein.RotatedTorsions>
[ 6907 6896 6895 6894 ] final  164.37 input  -60.11 | X-H torsion
[ 7974 7965 7964 7962 ] final   76.77 input  175.53 | X-H torsion
[ 8008 7997 7996 7995 ] final  130.09 input   59.86 | X-H torsion
[ 10167 10162 10161 10158 ] final   14.74 input  -65.29 | X-H torsion
[ 10718 10713 10712 10709 ] final  -34.81 input   66.30 | X-H torsion
[ 10763 10752 10751 10750 ] final   29.07 input  -60.55 | X-H torsion
[ 11005 11000 10999 10996 ] final  150.29 input  -57.11 | X-H torsion

> <Gold.Protein.ActiveResidues>
 VAL166  LYS551  ARG553  GLY616  TRP617  ASP618  TYR619  PRO620  LYS621  CYS622 
 ASP623  PHE694  ASN695  SER759  ASP760  ASP761  ALA762  ILE779  LEU786  VAL792 
 PHE793  MET794  SER795  GLU796  ALA797  LYS798  CYS799  TRP800  GLU811  SER814 

> <Gold.Protein.RotatedAtoms>
  151.9109  133.3561  159.3862 H   0  0  0  0  0  0  0  0  0  0  0  0  # atno 6907 bound_to 6896
  150.7058  134.4733  159.5445 H   0  0  0  0  0  0  0  0  0  0  0  0  # atno 6908 bound_to 6896
  152.2339  134.8295  160.0520 H   0  0  0  0  0  0  0  0  0  0  0  0  # atno 6909 bound_to 6896
  145.6986  139.2575  143.1718 H   0  0  0  0  0  0  0  0  0  0  0  0  # atno 7974 bound_to 7965
  156.2948  140.2604  156.2704 H   0  0  0  0  0  0  0  0  0  0  0  0  # atno 8008 bound_to 7997
  154.9700  140.0391  157.2248 H   0  0  0  0  0  0  0  0  0  0  0  0  # atno 8009 bound_to 7997
  154.7867  140.2804  155.6027 H   0  0  0  0  0  0  0  0  0  0  0  0  # atno 8010 bound_to 7997
  140.5915  143.8786  150.6878 H   0  0  0  0  0  0  0  0  0  0  0  0  # atno 10167 bound_to 10162
  156.3461  130.4301  149.7745 H   0  0  0  0  0  0  0  0  0  0  0  0  # atno 10718 bound_to 10713
  153.0452  135.6498  154.0835 H   0  0  0  0  0  0  0  0  0  0  0  0  # atno 10763 bound_to 10752
  154.0534  135.2894  155.3338 H   0  0  0  0  0  0  0  0  0  0  0  0  # atno 10764 bound_to 10752
  154.6705  135.5358  153.8198 H   0  0  0  0  0  0  0  0  0  0  0  0  # atno 10765 bound_to 10752
  140.1119  134.8919  157.1948 H   0  0  0  0  0  0  0  0  0  0  0  0  # atno 11005 bound_to 11000
  146.0818  140.7755  142.9638 LP  0  0  0  0  0  0  0  0  0  0  0  0  # atno 17320 bound_to 7965
  144.6975  140.3501  143.7183 LP  0  0  0  0  0  0  0  0  0  0  0  0  # atno 17321 bound_to 7965
  140.2310  143.3735  152.1565 LP  0  0  0  0  0  0  0  0  0  0  0  0  # atno 17342 bound_to 10162
  139.5230  144.7066  151.5334 LP  0  0  0  0  0  0  0  0  0  0  0  0  # atno 17343 bound_to 10162
  156.4963  130.8108  151.3115 LP  0  0  0  0  0  0  0  0  0  0  0  0  # atno 17370 bound_to 10713
  157.7454  130.9959  150.2760 LP  0  0  0  0  0  0  0  0  0  0  0  0  # atno 17371 bound_to 10713
  140.3080  134.3056  155.7273 LP  0  0  0  0  0  0  0  0  0  0  0  0  # atno 17394 bound_to 11000
  141.2132  133.7633  156.9736 LP  0  0  0  0  0  0  0  0  0  0  0  0  # atno 17395 bound_to 11000

$$$$
