AV-unprocessed.smi:21|AV-procd|sdf|148|dock9
  -GOLD-   2262015363D 1   1.00000     0.00000
 Structure written by MMmdl.
 62 65  0  0  0  0  0  0  0  0  2 V2000
  146.6614  137.7852  152.1679 C   0  0  0  0  0  0  0  0  0  0  0  0
  147.1022  137.0175  153.2770 O   0  0  0  0  0  0  0  0  0  0  0  0
  146.3607  135.8215  153.4804 C   0  0  2  0  0  0  0  0  0  0  0  0
  146.8471  135.0540  154.7102 C   0  0  0  0  0  0  0  0  0  0  0  0
  148.0631  134.2429  154.2268 C   0  0  2  0  0  0  0  0  0  0  0  0
  149.4204  134.8524  154.6372 C   0  0  0  0  0  0  0  0  0  0  0  0
  149.6064  134.9225  156.0884 N   0  0  0  0  0  0  0  0  0  0  0  0
  149.5376  133.6931  156.8699 C   0  0  0  0  0  0  0  0  0  0  0  0
  149.9260  136.1058  156.6886 C   0  0  0  0  0  0  0  0  0  0  0  0
  149.5865  136.2778  157.9952 N   0  0  0  0  0  0  0  0  0  0  0  0
  149.8653  137.4165  158.6340 C   0  0  0  0  0  0  0  0  0  0  0  0
  150.4665  138.5081  158.1633 N   0  0  0  0  0  0  0  0  0  0  0  0
  150.8117  138.3542  156.8540 C   0  0  0  0  0  0  0  0  0  0  0  0
  150.5877  137.1993  156.0476 C   0  0  0  0  0  0  0  0  0  0  0  0
  151.0783  137.4333  154.7661 N   0  0  0  0  0  0  0  0  0  0  0  0
  151.5579  138.6451  154.8124 C   0  0  0  0  0  0  0  0  0  0  0  0
  151.4193  139.2800  156.0239 N   0  0  0  0  0  0  0  0  0  0  0  0
  151.8549  140.6263  156.3510 C   0  0  0  0  0  0  0  0  0  0  0  0
  151.0930  141.2777  157.5351 C   0  0  2  0  0  0  0  0  0  0  0  0
  150.0138  142.2199  156.9470 C   0  0  0  0  0  0  0  0  0  0  0  0
  150.5849  143.3060  156.2470 O   0  0  0  0  0  0  0  0  0  0  0  0
  152.0373  142.0133  158.5363 C   0  0  1  0  0  0  0  0  0  0  0  0
  151.3457  142.9017  159.5591 C   0  0  0  0  0  0  0  0  0  0  0  0
  152.4285  143.0890  160.6104 C   0  0  0  0  0  0  0  0  0  0  0  0
  153.0499  141.8171  160.6950 O   0  0  0  0  0  0  0  0  0  0  0  0
  152.8652  141.1129  159.4701 C   0  0  0  0  0  0  0  0  0  0  0  0
  147.9646  134.2065  152.7476 N   0  3  1  0  0  0  0  0  0  0  0  0
  148.1746  132.8712  152.1494 C   0  0  0  0  0  0  0  0  0  0  0  0
  146.7002  134.8576  152.3468 C   0  0  0  0  0  0  0  0  0  0  0  0
  145.2900  136.0307  153.5108 H   0  0  0  0  0  0  0  0  0  0  0  0
  147.9817  133.2300  154.6243 H   0  0  0  0  0  0  0  0  0  0  0  0
  147.2875  138.6719  152.0695 H   0  0  0  0  0  0  0  0  0  0  0  0
  145.6307  138.1192  152.2865 H   0  0  0  0  0  0  0  0  0  0  0  0
  146.7397  137.2172  151.2402 H   0  0  0  0  0  0  0  0  0  0  0  0
  147.0530  135.6902  155.5689 H   0  0  0  0  0  0  0  0  0  0  0  0
  146.0643  134.3599  155.0196 H   0  0  0  0  0  0  0  0  0  0  0  0
  150.2377  134.2803  154.1961 H   0  0  0  0  0  0  0  0  0  0  0  0
  149.5127  135.8518  154.2106 H   0  0  0  0  0  0  0  0  0  0  0  0
  148.9018  133.8279  157.7456 H   0  0  0  0  0  0  0  0  0  0  0  0
  150.5309  133.3884  157.1998 H   0  0  0  0  0  0  0  0  0  0  0  0
  149.1187  132.8744  156.2846 H   0  0  0  0  0  0  0  0  0  0  0  0
  149.5601  137.4611  159.6691 H   0  0  0  0  0  0  0  0  0  0  0  0
  152.0166  139.1168  153.9556 H   0  0  0  0  0  0  0  0  0  0  0  0
  152.9259  140.6151  156.5560 H   0  0  0  0  0  0  0  0  0  0  0  0
  151.7258  141.2230  155.4472 H   0  0  0  0  0  0  0  0  0  0  0  0
  150.5735  140.4803  158.0690 H   0  0  0  0  0  0  0  0  0  0  0  0
  149.3343  141.6745  156.2915 H   0  0  0  0  0  0  0  0  0  0  0  0
  149.4027  142.6542  157.7386 H   0  0  0  0  0  0  0  0  0  0  0  0
  149.9035  143.9323  156.0552 H   0  0  0  0  0  0  0  0  0  0  0  0
  152.7266  142.6420  157.9698 H   0  0  0  0  0  0  0  0  0  0  0  0
  151.0039  143.8503  159.1443 H   0  0  0  0  0  0  0  0  0  0  0  0
  150.4901  142.3876  159.9991 H   0  0  0  0  0  0  0  0  0  0  0  0
  153.1630  143.8244  160.2786 H   0  0  0  0  0  0  0  0  0  0  0  0
  152.0327  143.4089  161.5744 H   0  0  0  0  0  0  0  0  0  0  0  0
  152.3430  140.1821  159.6925 H   0  0  0  0  0  0  0  0  0  0  0  0
  153.8359  140.8651  159.0434 H   0  0  0  0  0  0  0  0  0  0  0  0
  147.4040  132.1692  152.4712 H   0  0  0  0  0  0  0  0  0  0  0  0
  149.1462  132.4716  152.4428 H   0  0  0  0  0  0  0  0  0  0  0  0
  148.1501  132.9339  151.0612 H   0  0  0  0  0  0  0  0  0  0  0  0
  145.9133  134.1056  152.2682 H   0  0  0  0  0  0  0  0  0  0  0  0
  146.7868  135.3514  151.3783 H   0  0  0  0  0  0  0  0  0  0  0  0
  148.7046  134.8058  152.4097 H   0  0  0  0  0  0  0  0  0  0  0  0
  1  2  1  0  0  0  0
  1 32  1  0  0  0  0
  1 33  1  0  0  0  0
  1 34  1  0  0  0  0
  2  3  1  0  0  0  0
  3 30  1  0  0  0  0
  3 29  1  0  0  0  0
  3  4  1  0  0  0  0
  4  5  1  0  0  0  0
  4 35  1  0  0  0  0
  4 36  1  0  0  0  0
  5 31  1  0  0  0  0
  5  6  1  0  0  0  0
  5 27  1  0  0  0  0
  6  7  1  0  0  0  0
  6 37  1  0  0  0  0
  6 38  1  0  0  0  0
  7  8  1  0  0  0  0
  7  9  1  0  0  0  0
  8 39  1  0  0  0  0
  8 40  1  0  0  0  0
  8 41  1  0  0  0  0
  9 14  1  0  0  0  0
  9 10  2  0  0  0  0
 10 11  1  0  0  0  0
 11 12  2  0  0  0  0
 11 42  1  0  0  0  0
 12 13  1  0  0  0  0
 13 17  1  0  0  0  0
 13 14  2  0  0  0  0
 14 15  1  0  0  0  0
 15 16  2  0  0  0  0
 16 17  1  0  0  0  0
 16 43  1  0  0  0  0
 17 18  1  0  0  0  0
 18 19  1  0  0  0  0
 18 44  1  0  0  0  0
 18 45  1  0  0  0  0
 19 20  1  0  0  0  0
 19 22  1  0  0  0  0
 19 46  1  0  0  0  0
 20 21  1  0  0  0  0
 20 47  1  0  0  0  0
 20 48  1  0  0  0  0
 21 49  1  0  0  0  0
 22 26  1  0  0  0  0
 22 23  1  0  0  0  0
 22 50  1  0  0  0  0
 23 24  1  0  0  0  0
 23 51  1  0  0  0  0
 23 52  1  0  0  0  0
 24 25  1  0  0  0  0
 24 53  1  0  0  0  0
 24 54  1  0  0  0  0
 25 26  1  0  0  0  0
 26 55  1  0  0  0  0
 26 56  1  0  0  0  0
 27 28  1  0  0  0  0
 27 29  1  0  0  0  0
 27 62  1  0  0  0  0
 28 57  1  0  0  0  0
 28 58  1  0  0  0  0
 28 59  1  0  0  0  0
 29 60  1  0  0  0  0
 29 61  1  0  0  0  0
M  CHG  1  27   1
M  END
> <s_m_source_file>
AV-unprocessed.smi

> <i_m_source_file_index>
21

> <i_lp_mmshare_version>
43012

> <i_f3d_flags>
0

> <s_epik_input>
W0NIM11PW0NASF0xW0NIMl1bQ0BIXShOKFtDSDNdKVtDSDJdMSlbQ0gyXU4oW0NIM10pYyhuW2NIXW4yKWMoYzIzKW5bY0hdbjNbQ0gyXVtDQEhdKFtDSDJdW09IXSlbQ0BASF00W0NIMl1bQ0gyXU9bQ0gyXTQ=

> <s_epik_cmdline>
J2VwaWtfcHl0aG9uJywgJy1waCcsICc3LjAnLCAnLXRuJywgJzgnLCAnLW1hJywgJzIwMCcsICctbWV0YWxfYmluZGluZycsICctaW1hZScsICc8aW5maWxlLm1hZT4nLCAnLW9tYWUnLCAnPG91dGZpbGUubWFlPic=

> <r_lp_tautomer_probability>
1

> <r_epik_Ionization_Penalty>
0.0157465

> <r_epik_Ionization_Penalty_Charging>
0.015354

> <r_epik_Ionization_Penalty_Neutral>
0.000392529

> <r_epik_State_Penalty>
0.0120612

> <r_epik_Charging_Adjusted_Penalty>
0.0274152

> <i_epik_Tot_Q>
1

> <i_epik_Tot_abs_Q>
1

> <r_epik_Metal_State_Penalty>
0.0121253

> <b_epik_Metal_Only>
0

> <s_lp_Force_Field>
OPLS_2005

> <r_lp_Energy>
58.7805

> <b_lp_Chiralities_Consistent>
1

> <s_lp_Variant>
AV-unprocessed.smi:21-28

> <Gold.Version>
5.8.1

> <Gold.Id.Protein>
6NUR|6NUR_protein|mol2

> <Gold.PLP.Fitness>
47.4274

> <Gold.PLP.PLP>
-38.2845

> <Gold.PLP.part.hbond>
-3.0000

> <Gold.PLP.part.metal>
0.0000

> <Gold.PLP.part.buried>
-7.4890

> <Gold.PLP.part.nonpolar>
-29.1972

> <Gold.PLP.part.repulsive>
0.3170

> <Gold.PLP.ligand.clash>
0.0000

> <Gold.PLP.ligand.torsion>
1.5122

> <Gold.PLP.Chemscore.Hbond>
3.9511

> <Gold.PLP.Chemscore.CHOScore>
0.0000

> <Gold.PLP.Chemscore.Metal>
0.0000

> <Gold.Chemscore.Hbonds>
donor molecule, donor type, donor heavy atom, donor atom, acceptor molecule, acceptor atom, score
      L1  H    21    49       P1  8028  0.52
      L1  H    27    62       P1  7948  0.85

> <Gold.PLP.Chemscore.Internal.Correction>
0.3140

> <Gold.Rescore>
     Score         DG    S(hbond)    S(metal)    S(lipo)     H(rot)  DE(clash)    DE(int)     intcor
     12.80     -14.96       2.13        0.00      87.40       3.08       0.02       2.14       ----

> <Gold.Chemscore.Fitness>
12.8035

> <Gold.Chemscore.DG>
-14.9613

> <Gold.Chemscore.ZeroCoef>
-5.4800

> <Gold.Chemscore.Hbond>
2.1346

> <Gold.Chemscore.Metal>
0.0000

> <Gold.Chemscore.Lipo>
87.4001

> <Gold.Chemscore.Internal_Hbond>
0.0000

> <Gold.Chemscore.DEClash>
0.0208

> <Gold.Chemscore.DEInternal>
2.1370

> <Gold.Chemscore.Rot>
3.0758

> <Gold.Chemscore.Internal.Correction>
   9.000000E+99

> <Gold.Chemscore.Hbonds>
donor molecule, donor type, donor heavy atom, donor atom, acceptor molecule, acceptor atom, score
      L1  H    21    49       P1  8028  0.52
      L1  H    27    62       P1  7948  0.02

> <Gold.Chemscore.Hbond.Weighted>
-7.1296

> <Gold.Chemscore.Metal.Weighted>
-0.0000

> <Gold.Chemscore.Lipo.Weighted>
-10.2258

> <Gold.Chemscore.Internal_Hbond.Weighted>
0.0000

> <Gold.Chemscore.DEClash.Weighted>
0.0208

> <Gold.Chemscore.DEInternal.Weighted>
2.1370

> <Gold.Chemscore.Rot.Weighted>
7.8741

> <Gold.Chemscore.Internal.Correction.Weighted>
   9.000000E+99

> <Gold.Protein.RotatedTorsions>
[ 6907 6896 6895 6894 ] final  175.03 input  -60.11 | X-H torsion
[ 7974 7965 7964 7962 ] final   29.07 input  175.53 | X-H torsion
[ 8008 7997 7996 7995 ] final -116.49 input   59.86 | X-H torsion
[ 10167 10162 10161 10158 ] final    5.55 input  -65.29 | X-H torsion
[ 10718 10713 10712 10709 ] final -114.49 input   66.30 | X-H torsion
[ 10763 10752 10751 10750 ] final  -84.82 input  -60.55 | X-H torsion
[ 11005 11000 10999 10996 ] final  -65.91 input  -57.11 | X-H torsion

> <Gold.Protein.ActiveResidues>
 VAL166  LYS551  ARG553  GLY616  TRP617  ASP618  TYR619  PRO620  LYS621  CYS622 
 ASP623  PHE694  ASN695  SER759  ASP760  ASP761  ALA762  ILE779  LEU786  VAL792 
 PHE793  MET794  SER795  GLU796  ALA797  LYS798  CYS799  TRP800  GLU811  SER814 

> <Gold.Protein.RotatedAtoms>
  151.7427  133.3323  159.3369 H   0  0  0  0  0  0  0  0  0  0  0  0  # atno 6907 bound_to 6896
  150.7567  134.6263  159.6172 H   0  0  0  0  0  0  0  0  0  0  0  0  # atno 6908 bound_to 6896
  152.3520  134.6995  160.0285 H   0  0  0  0  0  0  0  0  0  0  0  0  # atno 6909 bound_to 6896
  146.1692  139.6971  142.8979 H   0  0  0  0  0  0  0  0  0  0  0  0  # atno 7974 bound_to 7965
  155.0687  140.0393  157.2601 H   0  0  0  0  0  0  0  0  0  0  0  0  # atno 8008 bound_to 7997
  154.7000  140.2671  155.6704 H   0  0  0  0  0  0  0  0  0  0  0  0  # atno 8009 bound_to 7997
  156.2757  140.2742  156.1608 H   0  0  0  0  0  0  0  0  0  0  0  0  # atno 8010 bound_to 7997
  140.6476  143.7625  150.7523 H   0  0  0  0  0  0  0  0  0  0  0  0  # atno 10167 bound_to 10162
  156.0834  130.6030  150.8782 H   0  0  0  0  0  0  0  0  0  0  0  0  # atno 10718 bound_to 10713
  154.6040  135.5507  153.7403 H   0  0  0  0  0  0  0  0  0  0  0  0  # atno 10763 bound_to 10752
  153.0166  135.6373  154.1674 H   0  0  0  0  0  0  0  0  0  0  0  0  # atno 10764 bound_to 10752
  154.1613  135.2897  155.3088 H   0  0  0  0  0  0  0  0  0  0  0  0  # atno 10765 bound_to 10752
  141.1468  133.6690  156.6059 H   0  0  0  0  0  0  0  0  0  0  0  0  # atno 11005 bound_to 11000
  145.4384  141.0420  143.2871 LP  0  0  0  0  0  0  0  0  0  0  0  0  # atno 17320 bound_to 7965
  144.8138  139.5913  143.7017 LP  0  0  0  0  0  0  0  0  0  0  0  0  # atno 17321 bound_to 7965
  140.1269  143.4561  152.2279 LP  0  0  0  0  0  0  0  0  0  0  0  0  # atno 17342 bound_to 10162
  139.5687  144.7450  151.3949 LP  0  0  0  0  0  0  0  0  0  0  0  0  # atno 17343 bound_to 10162
  157.5959  131.0943  150.9042 LP  0  0  0  0  0  0  0  0  0  0  0  0  # atno 17370 bound_to 10713
  156.9208  130.5314  149.5279 LP  0  0  0  0  0  0  0  0  0  0  0  0  # atno 17371 bound_to 10713
  140.3652  134.7653  157.4561 LP  0  0  0  0  0  0  0  0  0  0  0  0  # atno 17394 bound_to 11000
  140.0753  134.5805  155.8597 LP  0  0  0  0  0  0  0  0  0  0  0  0  # atno 17395 bound_to 11000

$$$$
