AV-unprocessed.smi:2706|AV-procd|sdf|10455|dock4
  -GOLD-   2272014493D 1   1.00000     0.00000
 Structure written by MMmdl.
 43 46  0  0  0  0  0  0  0  0  1 V2000
  151.3702  144.8501  158.0258 C   0  0  0  0  0  0  0  0  0  0  0  0
  152.0179  144.3558  159.2289 N   0  0  0  0  0  0  0  0  0  0  0  0
  151.9370  145.2197  160.3944 C   0  0  0  0  0  0  0  0  0  0  0  0
  152.4139  143.0367  159.3400 C   0  0  0  0  0  0  0  0  0  0  0  0
  153.0109  142.6191  160.4725 C   0  0  0  0  0  0  0  0  0  0  0  0
  153.4275  141.2374  160.5929 C   0  0  0  0  0  0  0  0  0  0  0  0
  153.2273  140.3600  159.5884 C   0  0  0  0  0  0  0  0  0  0  0  0
  152.5867  140.7711  158.3507 C   0  0  0  0  0  0  0  0  0  0  0  0
  152.4058  139.9034  157.3972 N   0  0  0  0  0  0  0  0  0  0  0  0
  151.8003  140.2269  156.1875 C   0  0  0  0  0  0  0  0  0  0  0  0
  152.2070  140.0245  155.0395 O   0  0  0  0  0  0  0  0  0  0  0  0
  150.6281  140.8335  156.4205 N   0  0  0  0  0  0  0  0  0  0  0  0
  149.7125  141.3162  155.4370 C   0  0  2  0  0  0  0  0  0  0  0  0
  148.2759  140.8277  155.3932 C   0  0  2  0  0  0  0  0  0  0  0  0
  147.6566  139.4830  155.7916 C   0  0  2  0  0  0  0  0  0  0  0  0
  148.6382  138.5550  156.5356 C   0  0  0  0  0  0  0  0  0  0  0  0
  149.6280  138.1575  155.4188 C   0  0  0  0  0  0  0  0  0  0  0  0
  149.0696  138.9154  154.1975 C   0  0  1  0  0  0  0  0  0  0  0  0
  147.5720  138.7727  154.4452 C   0  0  0  0  0  0  0  0  0  0  0  0
  149.2546  140.4347  154.2892 C   0  0  2  0  0  0  0  0  0  0  0  0
  152.2090  142.1265  158.3044 N   0  0  0  0  0  0  0  0  0  0  0  0
  151.6884  144.2787  157.1532 H   0  0  0  0  0  0  0  0  0  0  0  0
  151.6190  145.8975  157.8527 H   0  0  0  0  0  0  0  0  0  0  0  0
  150.2873  144.7621  158.1164 H   0  0  0  0  0  0  0  0  0  0  0  0
  152.6470  144.9039  161.1595 H   0  0  0  0  0  0  0  0  0  0  0  0
  150.9347  145.1843  160.8220 H   0  0  0  0  0  0  0  0  0  0  0  0
  152.1638  146.2527  160.1292 H   0  0  0  0  0  0  0  0  0  0  0  0
  153.1813  143.3049  161.2899 H   0  0  0  0  0  0  0  0  0  0  0  0
  153.9063  140.9047  161.5021 H   0  0  0  0  0  0  0  0  0  0  0  0
  153.5597  139.3428  159.7369 H   0  0  0  0  0  0  0  0  0  0  0  0
  150.3580  140.9664  157.3846 H   0  0  0  0  0  0  0  0  0  0  0  0
  149.8333  142.3651  155.1706 H   0  0  0  0  0  0  0  0  0  0  0  0
  147.5347  141.5771  155.1214 H   0  0  0  0  0  0  0  0  0  0  0  0
  146.6993  139.6094  156.2979 H   0  0  0  0  0  0  0  0  0  0  0  0
  149.1060  139.0282  157.3978 H   0  0  0  0  0  0  0  0  0  0  0  0
  148.1172  137.6709  156.9049 H   0  0  0  0  0  0  0  0  0  0  0  0
  150.6668  138.4013  155.6369 H   0  0  0  0  0  0  0  0  0  0  0  0
  149.5858  137.0810  155.2482 H   0  0  0  0  0  0  0  0  0  0  0  0
  149.4101  138.5207  153.2399 H   0  0  0  0  0  0  0  0  0  0  0  0
  147.2312  137.7376  154.5115 H   0  0  0  0  0  0  0  0  0  0  0  0
  146.9604  139.3042  153.7137 H   0  0  0  0  0  0  0  0  0  0  0  0
  149.1179  140.9413  153.3355 H   0  0  0  0  0  0  0  0  0  0  0  0
  151.7569  142.4991  157.4818 H   0  0  0  0  0  0  0  0  0  0  0  0
  1  2  1  0  0  0  0
  1 22  1  0  0  0  0
  1 23  1  0  0  0  0
  1 24  1  0  0  0  0
  2  3  1  0  0  0  0
  2  4  1  0  0  0  0
  3 25  1  0  0  0  0
  3 26  1  0  0  0  0
  3 27  1  0  0  0  0
  4 21  1  0  0  0  0
  4  5  2  0  0  0  0
  5  6  1  0  0  0  0
  5 28  1  0  0  0  0
  6  7  2  0  0  0  0
  6 29  1  0  0  0  0
  7  8  1  0  0  0  0
  7 30  1  0  0  0  0
  8  9  2  0  0  0  0
  8 21  1  0  0  0  0
  9 10  1  0  0  0  0
 10 11  2  0  0  0  0
 10 12  1  0  0  0  0
 12 13  1  0  0  0  0
 12 31  1  0  0  0  0
 13 20  1  0  0  0  0
 13 14  1  0  0  0  0
 13 32  1  0  0  0  0
 14 20  1  0  0  0  0
 14 15  1  0  0  0  0
 14 33  1  0  0  0  0
 15 19  1  0  0  0  0
 15 16  1  0  0  0  0
 15 34  1  0  0  0  0
 16 17  1  0  0  0  0
 16 35  1  0  0  0  0
 16 36  1  0  0  0  0
 17 18  1  0  0  0  0
 17 37  1  0  0  0  0
 17 38  1  0  0  0  0
 18 19  1  0  0  0  0
 18 20  1  0  0  0  0
 18 39  1  0  0  0  0
 19 40  1  0  0  0  0
 19 41  1  0  0  0  0
 20 42  1  0  0  0  0
 21 43  1  0  0  0  0
M  END
> <s_m_source_file>
AV-unprocessed.smi

> <i_m_source_file_index>
2706

> <i_lp_mmshare_version>
43012

> <i_f3d_flags>
0

> <s_epik_input>
W0NIM11OKFtDSDNdKWMxW2NIXVtjSF1bY0hdYyhuMSlbTkhdQyg9TylbTkhdW0NASF0yW0NAQEhdM1tDQEBIXShbQ0gyXTQpW0NIMl1bQ0gyXVtDQEBIXTRbQ0BIXTIz

> <s_epik_cmdline>
J2VwaWtfcHl0aG9uJywgJy1waCcsICc3LjAnLCAnLXRuJywgJzgnLCAnLW1hJywgJzIwMCcsICctbWV0YWxfYmluZGluZycsICctaW1hZScsICc8aW5maWxlLm1hZT4nLCAnLW9tYWUnLCAnPG91dGZpbGUubWFlPic=

> <r_lp_tautomer_probability>
0.999994

> <r_epik_Ionization_Penalty>
2.07242

> <r_epik_Ionization_Penalty_Charging>
2.07242

> <r_epik_Ionization_Penalty_Neutral>
9.73808e-07

> <r_epik_State_Penalty>
3.96009

> <r_epik_Charging_Adjusted_Penalty>
6.03251

> <i_epik_Tot_Q>
0

> <i_epik_Tot_abs_Q>
0

> <r_epik_Metal_State_Penalty>
3.98849

> <b_epik_Metal_Only>
1

> <s_lp_Force_Field>
OPLS_2005

> <r_lp_Energy>
108.692

> <b_lp_Chiralities_Consistent>
1

> <s_lp_Variant>
AV-unprocessed.smi:2706-12

> <Gold.Version>
5.8.1

> <Gold.Id.Protein>
6NUR|6NUR_protein|mol2

> <Gold.PLP.Fitness>
44.2928

> <Gold.PLP.PLP>
-41.7279

> <Gold.PLP.part.hbond>
-1.9085

> <Gold.PLP.part.metal>
0.0000

> <Gold.PLP.part.buried>
-3.6372

> <Gold.PLP.part.nonpolar>
-35.4936

> <Gold.PLP.part.repulsive>
0.1813

> <Gold.PLP.ligand.clash>
0.0000

> <Gold.PLP.ligand.torsion>
0.5583

> <Gold.PLP.Chemscore.Hbond>
1.1709

> <Gold.PLP.Chemscore.CHOScore>
0.0000

> <Gold.PLP.Chemscore.Metal>
0.0000

> <Gold.Chemscore.Hbonds>
donor molecule, donor type, donor heavy atom, donor atom, acceptor molecule, acceptor atom, score
      P1  H  7989  7998       L1    11  0.72
      P1  H  7997  8010       L1     9  0.41

> <Gold.PLP.Chemscore.Internal.Correction>
0.1688

> <Gold.Rescore>
     Score         DG    S(hbond)    S(metal)    S(lipo)     H(rot)  DE(clash)    DE(int)     intcor
     13.89     -15.91       0.76        0.00      89.41       1.00       0.05       1.97       ----

> <Gold.Chemscore.Fitness>
13.8927

> <Gold.Chemscore.DG>
-15.9125

> <Gold.Chemscore.ZeroCoef>
-5.4800

> <Gold.Chemscore.Hbond>
0.7579

> <Gold.Chemscore.Metal>
0.0000

> <Gold.Chemscore.Lipo>
89.4105

> <Gold.Chemscore.Internal_Hbond>
0.0000

> <Gold.Chemscore.DEClash>
0.0531

> <Gold.Chemscore.DEInternal>
1.9667

> <Gold.Chemscore.Rot>
1.0000

> <Gold.Chemscore.Internal.Correction>
   9.000000E+99

> <Gold.Chemscore.Hbonds>
donor molecule, donor type, donor heavy atom, donor atom, acceptor molecule, acceptor atom, score
      P1  H  7989  7998       L1    11  0.72

> <Gold.Chemscore.Hbond.Weighted>
-2.5315

> <Gold.Chemscore.Metal.Weighted>
-0.0000

> <Gold.Chemscore.Lipo.Weighted>
-10.4610

> <Gold.Chemscore.Internal_Hbond.Weighted>
0.0000

> <Gold.Chemscore.DEClash.Weighted>
0.0531

> <Gold.Chemscore.DEInternal.Weighted>
1.9667

> <Gold.Chemscore.Rot.Weighted>
2.5600

> <Gold.Chemscore.Internal.Correction.Weighted>
   9.000000E+99

> <Gold.Protein.RotatedTorsions>
[ 6907 6896 6895 6894 ] final    3.47 input  -60.11 | X-H torsion
[ 7974 7965 7964 7962 ] final  164.10 input  175.53 | X-H torsion
[ 8008 7997 7996 7995 ] final   53.70 input   59.86 | X-H torsion
[ 10167 10162 10161 10158 ] final   37.77 input  -65.29 | X-H torsion
[ 10718 10713 10712 10709 ] final  -56.48 input   66.30 | X-H torsion
[ 10763 10752 10751 10750 ] final  -90.91 input  -60.55 | X-H torsion
[ 11005 11000 10999 10996 ] final -124.79 input  -57.11 | X-H torsion

> <Gold.Protein.ActiveResidues>
 VAL166  LYS551  ARG553  GLY616  TRP617  ASP618  TYR619  PRO620  LYS621  CYS622 
 ASP623  PHE694  ASN695  SER759  ASP760  ASP761  ALA762  ILE779  LEU786  VAL792 
 PHE793  MET794  SER795  GLU796  ALA797  LYS798  CYS799  TRP800  GLU811  SER814 

> <Gold.Protein.RotatedAtoms>
  151.6255  135.1028  160.0110 H   0  0  0  0  0  0  0  0  0  0  0  0  # atno 6907 bound_to 6896
  152.4134  133.6996  159.6427 H   0  0  0  0  0  0  0  0  0  0  0  0  # atno 6908 bound_to 6896
  150.8024  133.8500  159.3243 H   0  0  0  0  0  0  0  0  0  0  0  0  # atno 6909 bound_to 6896
  144.7560  139.8277  143.6349 H   0  0  0  0  0  0  0  0  0  0  0  0  # atno 7974 bound_to 7965
  155.4725  140.3465  155.4328 H   0  0  0  0  0  0  0  0  0  0  0  0  # atno 8008 bound_to 7997
  156.1091  140.1456  156.9392 H   0  0  0  0  0  0  0  0  0  0  0  0  # atno 8009 bound_to 7997
  154.4744  140.0890  156.7204 H   0  0  0  0  0  0  0  0  0  0  0  0  # atno 8010 bound_to 7997
  140.4000  144.1736  150.6133 H   0  0  0  0  0  0  0  0  0  0  0  0  # atno 10167 bound_to 10162
  156.1285  130.4161  150.0311 H   0  0  0  0  0  0  0  0  0  0  0  0  # atno 10718 bound_to 10713
  154.6706  135.5287  153.8134 H   0  0  0  0  0  0  0  0  0  0  0  0  # atno 10763 bound_to 10752
  153.0499  135.6528  154.0730 H   0  0  0  0  0  0  0  0  0  0  0  0  # atno 10764 bound_to 10752
  154.0629  135.2960  155.3301 H   0  0  0  0  0  0  0  0  0  0  0  0  # atno 10765 bound_to 10752
  140.9813  134.0669  157.3761 H   0  0  0  0  0  0  0  0  0  0  0  0  # atno 11005 bound_to 11000
  146.1571  139.4672  143.0012 LP  0  0  0  0  0  0  0  0  0  0  0  0  # atno 17320 bound_to 7965
  145.6778  141.0199  143.1623 LP  0  0  0  0  0  0  0  0  0  0  0  0  # atno 17321 bound_to 7965
  140.4749  143.2399  151.9037 LP  0  0  0  0  0  0  0  0  0  0  0  0  # atno 17342 bound_to 10162
  139.4785  144.5330  151.8638 LP  0  0  0  0  0  0  0  0  0  0  0  0  # atno 17343 bound_to 10162
  156.8229  130.9365  151.3640 LP  0  0  0  0  0  0  0  0  0  0  0  0  # atno 17370 bound_to 10713
  157.6465  130.8849  149.9549 LP  0  0  0  0  0  0  0  0  0  0  0  0  # atno 17371 bound_to 10713
  139.8951  135.0139  156.6987 LP  0  0  0  0  0  0  0  0  0  0  0  0  # atno 17394 bound_to 11000
  140.7182  133.9164  155.8129 LP  0  0  0  0  0  0  0  0  0  0  0  0  # atno 17395 bound_to 11000

$$$$
