AV-unprocessed.smi:943|AV-procd|sdf|4229|dock8
  -GOLD-   22720 2133D 1   1.00000     0.00000
 Structure written by MMmdl.
 43 44  0  0  0  0  0  0  0  0  1 V2000
  149.6828  141.4108  155.6796 C   0  0  0  0  0  0  0  0  0  0  0  0
  150.5768  140.4595  156.4937 C   0  0  2  0  0  0  0  0  0  0  0  0
  151.7708  141.2231  157.1159 C   0  0  0  0  0  0  0  0  0  0  0  0
  151.4203  142.3907  158.0708 C   0  0  0  0  0  0  0  0  0  0  0  0
  151.6298  143.7774  157.4217 C   0  0  0  0  0  0  0  0  0  0  0  0
  151.3251  144.9210  158.4026 C   0  0  0  0  0  0  0  0  0  0  0  0
  152.1537  144.7958  159.6882 C   0  0  0  0  0  0  0  0  0  0  0  0
  151.9323  143.4278  160.3486 C   0  0  0  0  0  0  0  0  0  0  0  0
  152.2448  142.2838  159.3711 C   0  0  0  0  0  0  0  0  0  0  0  0
  151.0391  139.2878  155.6158 C   0  0  0  0  0  0  0  0  0  0  0  0
  151.8400  139.4741  154.6992 O   0  0  0  0  0  0  0  0  0  0  0  0
  150.5361  138.0831  155.9179 N   0  0  0  0  0  0  0  0  0  0  0  0
  150.8919  136.8445  155.2382 C   0  0  0  0  0  0  0  0  0  0  0  0
  150.7444  135.6292  156.1684 C   0  0  0  0  0  0  0  0  0  0  0  0
  150.3261  134.3781  155.4511 C   0  0  0  0  0  0  0  0  0  0  0  0
  149.4583  134.2885  154.3887 C   0  0  0  0  0  0  0  0  0  0  0  0
  149.2477  132.6438  153.8513 S   0  0  0  0  0  0  0  0  0  0  0  0
  150.3605  132.1402  155.1120 C   0  0  0  0  0  0  0  0  0  0  0  0
  150.8341  133.1393  155.8569 N   0  0  0  0  0  0  0  0  0  0  0  0
  148.8460  140.8787  155.2248 H   0  0  0  0  0  0  0  0  0  0  0  0
  150.2397  141.9010  154.8799 H   0  0  0  0  0  0  0  0  0  0  0  0
  149.2639  142.1911  156.3154 H   0  0  0  0  0  0  0  0  0  0  0  0
  149.9604  140.0621  157.3010 H   0  0  0  0  0  0  0  0  0  0  0  0
  152.3988  140.5096  157.6520 H   0  0  0  0  0  0  0  0  0  0  0  0
  152.3955  141.6090  156.3093 H   0  0  0  0  0  0  0  0  0  0  0  0
  150.3698  142.3082  158.3528 H   0  0  0  0  0  0  0  0  0  0  0  0
  152.6569  143.8667  157.0652 H   0  0  0  0  0  0  0  0  0  0  0  0
  150.9875  143.8905  156.5486 H   0  0  0  0  0  0  0  0  0  0  0  0
  151.5224  145.8814  157.9260 H   0  0  0  0  0  0  0  0  0  0  0  0
  150.2638  144.9113  158.6530 H   0  0  0  0  0  0  0  0  0  0  0  0
  153.2117  144.9257  159.4573 H   0  0  0  0  0  0  0  0  0  0  0  0
  151.8869  145.5930  160.3825 H   0  0  0  0  0  0  0  0  0  0  0  0
  152.5584  143.3388  161.2367 H   0  0  0  0  0  0  0  0  0  0  0  0
  150.8989  143.3479  160.6886 H   0  0  0  0  0  0  0  0  0  0  0  0
  152.0476  141.3288  159.8595 H   0  0  0  0  0  0  0  0  0  0  0  0
  153.3095  142.2929  159.1339 H   0  0  0  0  0  0  0  0  0  0  0  0
  149.8870  138.0154  156.6883 H   0  0  0  0  0  0  0  0  0  0  0  0
  150.2628  136.7176  154.3562 H   0  0  0  0  0  0  0  0  0  0  0  0
  151.9232  136.9148  154.8877 H   0  0  0  0  0  0  0  0  0  0  0  0
  151.6914  135.4592  156.6820 H   0  0  0  0  0  0  0  0  0  0  0  0
  150.0246  135.8661  156.9527 H   0  0  0  0  0  0  0  0  0  0  0  0
  148.9324  135.0891  153.8902 H   0  0  0  0  0  0  0  0  0  0  0  0
  150.6605  131.1205  155.3029 H   0  0  0  0  0  0  0  0  0  0  0  0
  1  2  1  0  0  0  0
  1 20  1  0  0  0  0
  1 21  1  0  0  0  0
  1 22  1  0  0  0  0
  2  3  1  0  0  0  0
  2 10  1  0  0  0  0
  2 23  1  0  0  0  0
  3  4  1  0  0  0  0
  3 24  1  0  0  0  0
  3 25  1  0  0  0  0
  4  9  1  0  0  0  0
  4  5  1  0  0  0  0
  4 26  1  0  0  0  0
  5  6  1  0  0  0  0
  5 27  1  0  0  0  0
  5 28  1  0  0  0  0
  6  7  1  0  0  0  0
  6 29  1  0  0  0  0
  6 30  1  0  0  0  0
  7  8  1  0  0  0  0
  7 31  1  0  0  0  0
  7 32  1  0  0  0  0
  8  9  1  0  0  0  0
  8 33  1  0  0  0  0
  8 34  1  0  0  0  0
  9 35  1  0  0  0  0
  9 36  1  0  0  0  0
 10 11  2  0  0  0  0
 10 12  1  0  0  0  0
 12 13  1  0  0  0  0
 12 37  1  0  0  0  0
 13 14  1  0  0  0  0
 13 38  1  0  0  0  0
 13 39  1  0  0  0  0
 14 15  1  0  0  0  0
 14 40  1  0  0  0  0
 14 41  1  0  0  0  0
 15 19  1  0  0  0  0
 15 16  2  0  0  0  0
 16 17  1  0  0  0  0
 16 42  1  0  0  0  0
 17 18  1  0  0  0  0
 18 19  2  0  0  0  0
 18 43  1  0  0  0  0
M  END
> <s_m_source_file>
AV-unprocessed.smi

> <i_m_source_file_index>
943

> <i_lp_mmshare_version>
43012

> <i_f3d_flags>
0

> <s_epik_input>
W0NIMl0xW0NIMl1bQ0gyXVtDSDJdW0NIMl1bQ0hdMVtDSDJdW0NAQEhdKFtDSDNdKUMoPU8pW05IXVtDSDJdW0NIMl1jMltjSF1zW2NIXW4y

> <s_epik_cmdline>
J2VwaWtfcHl0aG9uJywgJy1waCcsICc3LjAnLCAnLXRuJywgJzgnLCAnLW1hJywgJzIwMCcsICctbWV0YWxfYmluZGluZycsICctaW1hZScsICc8aW5maWxlLm1hZT4nLCAnLW9tYWUnLCAnPG91dGZpbGUubWFlPic=

> <r_lp_tautomer_probability>
1

> <r_epik_Ionization_Penalty>
0.000194757

> <r_epik_Ionization_Penalty_Charging>
0

> <r_epik_Ionization_Penalty_Neutral>
0.000194757

> <r_epik_State_Penalty>
-0

> <r_epik_Charging_Adjusted_Penalty>
0

> <i_epik_Tot_Q>
0

> <i_epik_Tot_abs_Q>
0

> <r_epik_Metal_State_Penalty>
-0

> <b_epik_Metal_Only>
0

> <s_lp_Force_Field>
OPLS_2005

> <r_lp_Energy>
6.00362

> <b_lp_Chiralities_Consistent>
1

> <s_lp_Variant>
AV-unprocessed.smi:943-1

> <Gold.Version>
5.8.1

> <Gold.Id.Protein>
6NUR|6NUR_protein|mol2

> <Gold.PLP.Fitness>
43.9522

> <Gold.PLP.PLP>
-40.8340

> <Gold.PLP.part.hbond>
-1.0000

> <Gold.PLP.part.metal>
0.0000

> <Gold.PLP.part.buried>
-5.3422

> <Gold.PLP.part.nonpolar>
-34.2313

> <Gold.PLP.part.repulsive>
0.0844

> <Gold.PLP.ligand.clash>
0.0000

> <Gold.PLP.ligand.torsion>
1.5021

> <Gold.PLP.Chemscore.Hbond>
1.0000

> <Gold.PLP.Chemscore.CHOScore>
1.0000

> <Gold.PLP.Chemscore.Metal>
0.0000

> <Gold.Chemscore.Hbonds>
donor molecule, donor type, donor heavy atom, donor atom, acceptor molecule, acceptor atom, score
      P1  H  7989  7998       L1    11  1.00
      L1  C    16    42       P1  7948  1.00

> <Gold.PLP.Chemscore.Internal.Correction>
0.1225

> <Gold.Rescore>
     Score         DG    S(hbond)    S(metal)    S(lipo)     H(rot)  DE(clash)    DE(int)     intcor
     16.94     -18.35       0.98        0.00     116.60       1.58       0.02       1.39       ----

> <Gold.Chemscore.Fitness>
16.9371

> <Gold.Chemscore.DG>
-18.3478

> <Gold.Chemscore.ZeroCoef>
-5.4800

> <Gold.Chemscore.Hbond>
0.9783

> <Gold.Chemscore.Metal>
0.0000

> <Gold.Chemscore.Lipo>
116.6004

> <Gold.Chemscore.Internal_Hbond>
0.0000

> <Gold.Chemscore.DEClash>
0.0174

> <Gold.Chemscore.DEInternal>
1.3933

> <Gold.Chemscore.Rot>
1.5789

> <Gold.Chemscore.Internal.Correction>
   9.000000E+99

> <Gold.Chemscore.Hbonds>
donor molecule, donor type, donor heavy atom, donor atom, acceptor molecule, acceptor atom, score
      P1  H  7989  7998       L1    11  0.95

> <Gold.Chemscore.Hbond.Weighted>
-3.2674

> <Gold.Chemscore.Metal.Weighted>
-0.0000

> <Gold.Chemscore.Lipo.Weighted>
-13.6422

> <Gold.Chemscore.Internal_Hbond.Weighted>
0.0000

> <Gold.Chemscore.DEClash.Weighted>
0.0174

> <Gold.Chemscore.DEInternal.Weighted>
1.3933

> <Gold.Chemscore.Rot.Weighted>
4.0419

> <Gold.Chemscore.Internal.Correction.Weighted>
   9.000000E+99

> <Gold.Protein.RotatedTorsions>
[ 6907 6896 6895 6894 ] final   15.24 input  -60.11 | X-H torsion
[ 7974 7965 7964 7962 ] final   90.93 input  175.53 | X-H torsion
[ 8008 7997 7996 7995 ] final  105.03 input   59.86 | X-H torsion
[ 10167 10162 10161 10158 ] final  -46.97 input  -65.29 | X-H torsion
[ 10718 10713 10712 10709 ] final  -68.91 input   66.30 | X-H torsion
[ 10763 10752 10751 10750 ] final  -91.66 input  -60.55 | X-H torsion
[ 11005 11000 10999 10996 ] final  171.84 input  -57.11 | X-H torsion

> <Gold.Protein.ActiveResidues>
 VAL166  LYS551  ARG553  GLY616  TRP617  ASP618  TYR619  PRO620  LYS621  CYS622 
 ASP623  PHE694  ASN695  SER759  ASP760  ASP761  ALA762  ILE779  LEU786  VAL792 
 PHE793  MET794  SER795  GLU796  ALA797  LYS798  CYS799  TRP800  GLU811  SER814 

> <Gold.Protein.RotatedAtoms>
  151.8150  135.0669  160.0417 H   0  0  0  0  0  0  0  0  0  0  0  0  # atno 6907 bound_to 6896
  152.2993  133.5634  159.5616 H   0  0  0  0  0  0  0  0  0  0  0  0  # atno 6908 bound_to 6896
  150.7266  134.0231  159.3750 H   0  0  0  0  0  0  0  0  0  0  0  0  # atno 6909 bound_to 6896
  145.5125  139.2277  143.2717 H   0  0  0  0  0  0  0  0  0  0  0  0  # atno 7974 bound_to 7965
  156.1624  140.3137  155.8830 H   0  0  0  0  0  0  0  0  0  0  0  0  # atno 8008 bound_to 7997
  155.3755  140.0484  157.3062 H   0  0  0  0  0  0  0  0  0  0  0  0  # atno 8009 bound_to 7997
  154.5159  140.2181  155.9077 H   0  0  0  0  0  0  0  0  0  0  0  0  # atno 8010 bound_to 7997
  140.6795  143.2806  151.3859 H   0  0  0  0  0  0  0  0  0  0  0  0  # atno 10167 bound_to 10162
  156.0481  130.4303  150.2070 H   0  0  0  0  0  0  0  0  0  0  0  0  # atno 10718 bound_to 10713
  154.6782  135.5260  153.8228 H   0  0  0  0  0  0  0  0  0  0  0  0  # atno 10763 bound_to 10752
  153.0547  135.6546  154.0617 H   0  0  0  0  0  0  0  0  0  0  0  0  # atno 10764 bound_to 10752
  154.0507  135.2969  155.3320 H   0  0  0  0  0  0  0  0  0  0  0  0  # atno 10765 bound_to 10752
  140.3233  134.7419  157.4080 H   0  0  0  0  0  0  0  0  0  0  0  0  # atno 11005 bound_to 11000
  146.2158  140.5932  142.9039 LP  0  0  0  0  0  0  0  0  0  0  0  0  # atno 17320 bound_to 7965
  144.7720  140.5658  143.6664 LP  0  0  0  0  0  0  0  0  0  0  0  0  # atno 17321 bound_to 7965
  139.6108  144.1102  152.2297 LP  0  0  0  0  0  0  0  0  0  0  0  0  # atno 17342 bound_to 10162
  140.0516  144.5928  150.7332 LP  0  0  0  0  0  0  0  0  0  0  0  0  # atno 17343 bound_to 10162
  157.0157  130.9964  151.3353 LP  0  0  0  0  0  0  0  0  0  0  0  0  # atno 17370 bound_to 10713
  157.5379  130.8101  149.7994 LP  0  0  0  0  0  0  0  0  0  0  0  0  # atno 17371 bound_to 10713
  140.0923  134.5584  155.8432 LP  0  0  0  0  0  0  0  0  0  0  0  0  # atno 17394 bound_to 11000
  141.2081  133.6671  156.6351 LP  0  0  0  0  0  0  0  0  0  0  0  0  # atno 17395 bound_to 11000

$$$$
