AV-unprocessed.smi:48|AV-procd|sdf|447|dock7
  -GOLD-   2262016313D 1   1.00000     0.00000
 Structure written by MMmdl.
 30 32  0  0  0  0  0  0  0  0  1 V2000
  147.9195  138.5528  153.1340 O   0  0  0  0  0  0  0  0  0  0  0  0
  148.6745  139.6278  153.6504 C   0  0  0  0  0  0  0  0  0  0  0  0
  150.0604  139.1347  154.0929 C   0  0  1  0  0  0  0  0  0  0  0  0
  150.7700  140.1946  154.7223 O   0  0  0  0  0  0  0  0  0  0  0  0
  151.7583  139.6651  155.5502 C   0  0  1  0  0  0  0  0  0  0  0  0
  151.8025  140.4898  156.7950 N   0  0  0  0  0  0  0  0  0  0  0  0
  151.0832  141.5969  157.0707 C   0  0  0  0  0  0  0  0  0  0  0  0
  151.2774  142.1763  158.2547 N   0  0  0  0  0  0  0  0  0  0  0  0
  152.2287  141.3417  158.8179 C   0  0  0  0  0  0  0  0  0  0  0  0
  152.8954  141.3520  160.0671 C   0  0  0  0  0  0  0  0  0  0  0  0
  152.5770  142.5827  161.2339 Cl  0  0  0  0  0  0  0  0  0  0  0  0
  153.7925  140.3712  160.3274 N   0  0  0  0  0  0  0  0  0  0  0  0
  154.0203  139.4290  159.4043 C   0  0  0  0  0  0  0  0  0  0  0  0
  153.4739  139.2921  158.1908 N   0  0  0  0  0  0  0  0  0  0  0  0
  152.5698  140.2820  157.9299 C   0  0  0  0  0  0  0  0  0  0  0  0
  151.3814  138.2063  155.8621 C   0  0  2  0  0  0  0  0  0  0  0  0
  152.3305  137.3130  155.3085 O   0  0  0  0  0  0  0  0  0  0  0  0
  150.0098  138.0797  155.1993 C   0  0  2  0  0  0  0  0  0  0  0  0
  149.7345  136.7802  154.7098 O   0  0  0  0  0  0  0  0  0  0  0  0
  150.6409  138.7582  153.2480 H   0  0  0  0  0  0  0  0  0  0  0  0
  152.7450  139.7788  155.0979 H   0  0  0  0  0  0  0  0  0  0  0  0
  151.3230  138.0320  156.9376 H   0  0  0  0  0  0  0  0  0  0  0  0
  149.2375  138.3452  155.9213 H   0  0  0  0  0  0  0  0  0  0  0  0
  148.4635  138.0638  152.5357 H   0  0  0  0  0  0  0  0  0  0  0  0
  148.7544  140.4270  152.9128 H   0  0  0  0  0  0  0  0  0  0  0  0
  148.1288  140.0291  154.5049 H   0  0  0  0  0  0  0  0  0  0  0  0
  150.3776  142.0034  156.3609 H   0  0  0  0  0  0  0  0  0  0  0  0
  154.7463  138.6767  159.6752 H   0  0  0  0  0  0  0  0  0  0  0  0
  152.9058  137.7993  154.7383 H   0  0  0  0  0  0  0  0  0  0  0  0
  149.4399  136.8537  153.8150 H   0  0  0  0  0  0  0  0  0  0  0  0
  1  2  1  0  0  0  0
  1 24  1  0  0  0  0
  2  3  1  0  0  0  0
  2 25  1  0  0  0  0
  2 26  1  0  0  0  0
  3 20  1  0  0  0  0
  3 18  1  0  0  0  0
  3  4  1  0  0  0  0
  4  5  1  0  0  0  0
  5 21  1  0  0  0  0
  5  6  1  0  0  0  0
  5 16  1  0  0  0  0
  6 15  1  0  0  0  0
  6  7  1  0  0  0  0
  7  8  2  0  0  0  0
  7 27  1  0  0  0  0
  8  9  1  0  0  0  0
  9 15  2  0  0  0  0
  9 10  1  0  0  0  0
 10 11  1  0  0  0  0
 10 12  2  0  0  0  0
 12 13  1  0  0  0  0
 13 14  2  0  0  0  0
 13 28  1  0  0  0  0
 14 15  1  0  0  0  0
 16 22  1  0  0  0  0
 16 17  1  0  0  0  0
 16 18  1  0  0  0  0
 17 29  1  0  0  0  0
 18 23  1  0  0  0  0
 18 19  1  0  0  0  0
 19 30  1  0  0  0  0
M  END
> <s_m_source_file>
AV-unprocessed.smi

> <i_m_source_file_index>
48

> <i_lp_mmshare_version>
43012

> <i_f3d_flags>
0

> <s_epik_input>
W09IXVtDSDJdW0NASF0xT1tDQEhdKFtDQEhdKFtPSF0pW0NAQEhdMVtPSF0pbihbY0hdbjIpYyhjMjMpbltjSF1uYzNDbA==

> <s_epik_cmdline>
J2VwaWtfcHl0aG9uJywgJy1waCcsICc3LjAnLCAnLXRuJywgJzgnLCAnLW1hJywgJzIwMCcsICctbWV0YWxfYmluZGluZycsICctaW1hZScsICc8aW5maWxlLm1hZT4nLCAnLW9tYWUnLCAnPG91dGZpbGUubWFlPic=

> <r_lp_tautomer_probability>
1

> <r_epik_Ionization_Penalty>
3.45505e-06

> <r_epik_Ionization_Penalty_Charging>
0

> <r_epik_Ionization_Penalty_Neutral>
3.45505e-06

> <r_epik_State_Penalty>
-0

> <r_epik_Charging_Adjusted_Penalty>
0

> <i_epik_Tot_Q>
0

> <i_epik_Tot_abs_Q>
0

> <r_epik_Metal_State_Penalty>
-0

> <b_epik_Metal_Only>
0

> <s_epik_Chemistry_Notes>
This compound contains an acetal/aminal-like group ( X-CH(R)-Y where X, Y are N, S, or O) that may be acid/base labile, releasing an aldehyde.

> <s_lp_Force_Field>
OPLS_2005

> <r_lp_Energy>
36.5243

> <b_lp_Chiralities_Consistent>
1

> <s_lp_Variant>
AV-unprocessed.smi:48-1

> <Gold.Version>
5.8.1

> <Gold.Id.Protein>
6NUR|6NUR_protein|mol2

> <Gold.PLP.Fitness>
43.9430

> <Gold.PLP.PLP>
-31.4236

> <Gold.PLP.part.hbond>
-6.0000

> <Gold.PLP.part.metal>
0.0000

> <Gold.PLP.part.buried>
-0.3027

> <Gold.PLP.part.nonpolar>
-24.8165

> <Gold.PLP.part.repulsive>
0.1082

> <Gold.PLP.ligand.clash>
0.0000

> <Gold.PLP.ligand.torsion>
0.0284

> <Gold.PLP.Chemscore.Hbond>
4.1868

> <Gold.PLP.Chemscore.CHOScore>
0.0000

> <Gold.PLP.Chemscore.Metal>
0.0000

> <Gold.Chemscore.Hbonds>
donor molecule, donor type, donor heavy atom, donor atom, acceptor molecule, acceptor atom, score
      L1  H     1    24       P1  7948  0.94
      L1  H    19    30       P1  7948  0.88
      P1  H  7989  7998       L1     4  1.00
      P1  H  7997  8008       L1    14  0.66
      P1  H 10752 10765       L1    17  0.56

> <Gold.PLP.Chemscore.Internal.Correction>
0.0157

> <Gold.Rescore>
     Score         DG    S(hbond)    S(metal)    S(lipo)     H(rot)  DE(clash)    DE(int)     intcor
      8.28      -8.93       2.22        0.00      49.29       3.80       0.59       0.06       ----

> <Gold.Chemscore.Fitness>
8.2757

> <Gold.Chemscore.DG>
-8.9269

> <Gold.Chemscore.ZeroCoef>
-5.4800

> <Gold.Chemscore.Hbond>
2.2194

> <Gold.Chemscore.Metal>
0.0000

> <Gold.Chemscore.Lipo>
49.2876

> <Gold.Chemscore.Internal_Hbond>
0.0000

> <Gold.Chemscore.DEClash>
0.5921

> <Gold.Chemscore.DEInternal>
0.0591

> <Gold.Chemscore.Rot>
3.8017

> <Gold.Chemscore.Internal.Correction>
   9.000000E+99

> <Gold.Chemscore.Hbonds>
donor molecule, donor type, donor heavy atom, donor atom, acceptor molecule, acceptor atom, score
      L1  H     1    24       P1  7948  0.89
      L1  H    19    30       P1  7948  0.79
      P1  H  7989  7998       L1     4  0.18
      P1  H  7997  8008       L1    14  0.02
      P1  H 10752 10765       L1    17  0.08

> <Gold.Chemscore.Hbond.Weighted>
-7.4126

> <Gold.Chemscore.Metal.Weighted>
-0.0000

> <Gold.Chemscore.Lipo.Weighted>
-5.7666

> <Gold.Chemscore.Internal_Hbond.Weighted>
0.0000

> <Gold.Chemscore.DEClash.Weighted>
0.5921

> <Gold.Chemscore.DEInternal.Weighted>
0.0591

> <Gold.Chemscore.Rot.Weighted>
9.7324

> <Gold.Chemscore.Internal.Correction.Weighted>
   9.000000E+99

> <Gold.Protein.RotatedTorsions>
[ 6907 6896 6895 6894 ] final   13.63 input  -60.11 | X-H torsion
[ 7974 7965 7964 7962 ] final   82.83 input  175.53 | X-H torsion
[ 8008 7997 7996 7995 ] final -112.63 input   59.86 | X-H torsion
[ 10167 10162 10161 10158 ] final -178.26 input  -65.29 | X-H torsion
[ 10718 10713 10712 10709 ] final   40.71 input   66.30 | X-H torsion
[ 10763 10752 10751 10750 ] final -161.27 input  -60.55 | X-H torsion
[ 11005 11000 10999 10996 ] final -154.03 input  -57.11 | X-H torsion

> <Gold.Protein.ActiveResidues>
 VAL166  LYS551  ARG553  GLY616  TRP617  ASP618  TYR619  PRO620  LYS621  CYS622 
 ASP623  PHE694  ASN695  SER759  ASP760  ASP761  ALA762  ILE779  LEU786  VAL792 
 PHE793  MET794  SER795  GLU796  ALA797  LYS798  CYS799  TRP800  GLU811  SER814 

> <Gold.Protein.RotatedAtoms>
  151.7893  135.0740  160.0384 H   0  0  0  0  0  0  0  0  0  0  0  0  # atno 6907 bound_to 6896
  152.3168  133.5806  159.5726 H   0  0  0  0  0  0  0  0  0  0  0  0  # atno 6908 bound_to 6896
  150.7348  133.9987  159.3673 H   0  0  0  0  0  0  0  0  0  0  0  0  # atno 6909 bound_to 6896
  145.6199  139.2384  143.2144 H   0  0  0  0  0  0  0  0  0  0  0  0  # atno 7974 bound_to 7965
  155.0082  140.0394  157.2388 H   0  0  0  0  0  0  0  0  0  0  0  0  # atno 8008 bound_to 7997
  154.7484  140.2762  155.6290 H   0  0  0  0  0  0  0  0  0  0  0  0  # atno 8009 bound_to 7997
  156.2880  140.2652  156.2230 H   0  0  0  0  0  0  0  0  0  0  0  0  # atno 8010 bound_to 7997
  139.5441  144.2284  152.0953 H   0  0  0  0  0  0  0  0  0  0  0  0  # atno 10167 bound_to 10162
  157.3853  130.7776  149.7225 H   0  0  0  0  0  0  0  0  0  0  0  0  # atno 10718 bound_to 10713
  154.7318  135.3048  154.8878 H   0  0  0  0  0  0  0  0  0  0  0  0  # atno 10763 bound_to 10752
  153.9718  135.6741  153.4751 H   0  0  0  0  0  0  0  0  0  0  0  0  # atno 10764 bound_to 10752
  153.0926  135.4952  154.8639 H   0  0  0  0  0  0  0  0  0  0  0  0  # atno 10765 bound_to 10752
  140.7017  134.3930  157.5209 H   0  0  0  0  0  0  0  0  0  0  0  0  # atno 11005 bound_to 11000
  146.1439  140.7019  142.9354 LP  0  0  0  0  0  0  0  0  0  0  0  0  # atno 17320 bound_to 7965
  144.7235  140.4451  143.6990 LP  0  0  0  0  0  0  0  0  0  0  0  0  # atno 17321 bound_to 7965
  140.1767  144.4884  150.6550 LP  0  0  0  0  0  0  0  0  0  0  0  0  # atno 17342 bound_to 10162
  140.6682  143.2276  151.5690 LP  0  0  0  0  0  0  0  0  0  0  0  0  # atno 17343 bound_to 10162
  155.9785  130.4050  150.3644 LP  0  0  0  0  0  0  0  0  0  0  0  0  # atno 17370 bound_to 10713
  157.1753  131.0379  151.2775 LP  0  0  0  0  0  0  0  0  0  0  0  0  # atno 17371 bound_to 10713
  139.8895  134.8829  156.2418 LP  0  0  0  0  0  0  0  0  0  0  0  0  # atno 17394 bound_to 11000
  141.0158  133.7069  156.1186 LP  0  0  0  0  0  0  0  0  0  0  0  0  # atno 17395 bound_to 11000

$$$$
