AV-unprocessed.smi:1328|AV-procd|sdf|5479|dock9
  -GOLD-   22720 5 53D 1   1.00000     0.00000
 Structure written by MMmdl.
 38 39  0  0  0  0  0  0  0  0  1 V2000
  149.9113  130.3791  154.4330 C   0  0  0  0  0  0  0  0  0  0  0  0
  150.1209  131.8124  154.8294 C   0  0  0  0  0  0  0  0  0  0  0  0
  150.7636  132.0888  155.9515 N   0  0  0  0  0  0  0  0  0  0  0  0
  150.7944  133.4835  156.0422 O   0  0  0  0  0  0  0  0  0  0  0  0
  150.1638  133.9986  154.9564 C   0  0  0  0  0  0  0  0  0  0  0  0
  150.0839  135.4855  154.8745 C   0  0  0  0  0  0  0  0  0  0  0  0
  149.7131  132.9936  154.1447 C   0  0  0  0  0  0  0  0  0  0  0  0
  148.9602  133.1018  152.8437 C   0  0  0  0  0  0  0  0  0  0  0  0
  147.5781  132.4695  153.0015 C   0  0  0  0  0  0  0  0  0  0  0  0
  146.8140  132.8736  153.8775 O   0  0  0  0  0  0  0  0  0  0  0  0
  147.2794  131.4742  152.1515 N   0  0  0  0  0  0  0  0  0  0  0  0
  146.0514  130.6818  152.1503 C   0  0  2  0  0  0  0  0  0  0  0  0
  146.3582  129.3111  151.5292 C   0  0  0  0  0  0  0  0  0  0  0  0
  144.9279  131.4178  151.3907 C   0  0  2  0  0  0  0  0  0  0  0  0
  145.2627  131.7987  149.9466 C   0  0  0  0  0  0  0  0  0  0  0  0
  144.3200  132.9551  149.7083 C   0  0  0  0  0  0  0  0  0  0  0  0
  144.3621  133.6685  151.0555 C   0  0  0  0  0  0  0  0  0  0  0  0
  144.6233  132.6583  152.0264 O   0  0  0  0  0  0  0  0  0  0  0  0
  150.6970  130.0448  153.7557 H   0  0  0  0  0  0  0  0  0  0  0  0
  148.9560  130.2458  153.9257 H   0  0  0  0  0  0  0  0  0  0  0  0
  149.9153  129.7187  155.3009 H   0  0  0  0  0  0  0  0  0  0  0  0
  149.2460  135.8580  155.4640 H   0  0  0  0  0  0  0  0  0  0  0  0
  149.9436  135.8135  153.8445 H   0  0  0  0  0  0  0  0  0  0  0  0
  150.9966  135.9461  155.2528 H   0  0  0  0  0  0  0  0  0  0  0  0
  148.8421  134.1422  152.5390 H   0  0  0  0  0  0  0  0  0  0  0  0
  149.4924  132.6095  152.0288 H   0  0  0  0  0  0  0  0  0  0  0  0
  147.9760  131.2220  151.4660 H   0  0  0  0  0  0  0  0  0  0  0  0
  145.7210  130.5111  153.1765 H   0  0  0  0  0  0  0  0  0  0  0  0
  145.4791  128.6662  151.5416 H   0  0  0  0  0  0  0  0  0  0  0  0
  147.1472  128.7986  152.0805 H   0  0  0  0  0  0  0  0  0  0  0  0
  146.6846  129.4082  150.4930 H   0  0  0  0  0  0  0  0  0  0  0  0
  144.0176  130.8157  151.3933 H   0  0  0  0  0  0  0  0  0  0  0  0
  146.2959  132.1403  149.8673 H   0  0  0  0  0  0  0  0  0  0  0  0
  145.1182  130.9779  149.2436 H   0  0  0  0  0  0  0  0  0  0  0  0
  144.6212  133.5935  148.8775 H   0  0  0  0  0  0  0  0  0  0  0  0
  143.3140  132.5836  149.5092 H   0  0  0  0  0  0  0  0  0  0  0  0
  145.1805  134.3889  151.0789 H   0  0  0  0  0  0  0  0  0  0  0  0
  143.4358  134.2009  151.2728 H   0  0  0  0  0  0  0  0  0  0  0  0
  1  2  1  0  0  0  0
  1 19  1  0  0  0  0
  1 20  1  0  0  0  0
  1 21  1  0  0  0  0
  2  7  1  0  0  0  0
  2  3  2  0  0  0  0
  3  4  1  0  0  0  0
  4  5  1  0  0  0  0
  5  6  1  0  0  0  0
  5  7  2  0  0  0  0
  6 22  1  0  0  0  0
  6 23  1  0  0  0  0
  6 24  1  0  0  0  0
  7  8  1  0  0  0  0
  8  9  1  0  0  0  0
  8 25  1  0  0  0  0
  8 26  1  0  0  0  0
  9 10  2  0  0  0  0
  9 11  1  0  0  0  0
 11 12  1  0  0  0  0
 11 27  1  0  0  0  0
 12 13  1  0  0  0  0
 12 14  1  0  0  0  0
 12 28  1  0  0  0  0
 13 29  1  0  0  0  0
 13 30  1  0  0  0  0
 13 31  1  0  0  0  0
 14 18  1  0  0  0  0
 14 15  1  0  0  0  0
 14 32  1  0  0  0  0
 15 16  1  0  0  0  0
 15 33  1  0  0  0  0
 15 34  1  0  0  0  0
 16 17  1  0  0  0  0
 16 35  1  0  0  0  0
 16 36  1  0  0  0  0
 17 18  1  0  0  0  0
 17 37  1  0  0  0  0
 17 38  1  0  0  0  0
M  END
> <s_m_source_file>
AV-unprocessed.smi

> <i_m_source_file_index>
1328

> <i_lp_mmshare_version>
43012

> <i_f3d_flags>
0

> <s_epik_input>
W0NIM11jMW5vYyhbQ0gzXSljMVtDSDJdQyg9TylbTkhdW0NASF0oW0NIM10pW0NAQEhdMltDSDJdW0NIMl1bQ0gyXU8y

> <s_epik_cmdline>
J2VwaWtfcHl0aG9uJywgJy1waCcsICc3LjAnLCAnLXRuJywgJzgnLCAnLW1hJywgJzIwMCcsICctbWV0YWxfYmluZGluZycsICctaW1hZScsICc8aW5maWxlLm1hZT4nLCAnLW9tYWUnLCAnPG91dGZpbGUubWFlPic=

> <r_lp_tautomer_probability>
1

> <r_epik_Ionization_Penalty>
2.66156e-08

> <r_epik_Ionization_Penalty_Charging>
0

> <r_epik_Ionization_Penalty_Neutral>
2.66156e-08

> <r_epik_State_Penalty>
-0

> <r_epik_Charging_Adjusted_Penalty>
0

> <i_epik_Tot_Q>
0

> <i_epik_Tot_abs_Q>
0

> <r_epik_Metal_State_Penalty>
-0

> <b_epik_Metal_Only>
0

> <s_lp_Force_Field>
OPLS_2005

> <r_lp_Energy>
12.1854

> <b_lp_Chiralities_Consistent>
1

> <s_lp_Variant>
AV-unprocessed.smi:1328-1

> <Gold.Version>
5.8.1

> <Gold.Id.Protein>
6NUR|6NUR_protein|mol2

> <Gold.PLP.Fitness>
38.1672

> <Gold.PLP.PLP>
-35.9013

> <Gold.PLP.part.hbond>
-1.0000

> <Gold.PLP.part.metal>
0.0000

> <Gold.PLP.part.buried>
-5.7281

> <Gold.PLP.part.nonpolar>
-28.6839

> <Gold.PLP.part.repulsive>
0.2185

> <Gold.PLP.ligand.clash>
0.0000

> <Gold.PLP.ligand.torsion>
0.3748

> <Gold.PLP.Chemscore.Hbond>
1.0000

> <Gold.PLP.Chemscore.CHOScore>
0.0000

> <Gold.PLP.Chemscore.Metal>
0.0000

> <Gold.Chemscore.Hbonds>
donor molecule, donor type, donor heavy atom, donor atom, acceptor molecule, acceptor atom, score
      L1  H    11    27       P1 10747  1.00

> <Gold.PLP.Chemscore.Internal.Correction>
0.0156

> <Gold.Rescore>
     Score         DG    S(hbond)    S(metal)    S(lipo)     H(rot)  DE(clash)    DE(int)     intcor
     15.29     -15.98       1.00        0.00      94.48       1.52       0.36       0.33       ----

> <Gold.Chemscore.Fitness>
15.2926

> <Gold.Chemscore.DG>
-15.9822

> <Gold.Chemscore.ZeroCoef>
-5.4800

> <Gold.Chemscore.Hbond>
0.9966

> <Gold.Chemscore.Metal>
0.0000

> <Gold.Chemscore.Lipo>
94.4816

> <Gold.Chemscore.Internal_Hbond>
0.0000

> <Gold.Chemscore.DEClash>
0.3607

> <Gold.Chemscore.DEInternal>
0.3289

> <Gold.Chemscore.Rot>
1.5159

> <Gold.Chemscore.Internal.Correction>
   9.000000E+99

> <Gold.Chemscore.Hbonds>
donor molecule, donor type, donor heavy atom, donor atom, acceptor molecule, acceptor atom, score
      L1  H    11    27       P1 10747  0.98

> <Gold.Chemscore.Hbond.Weighted>
-3.3286

> <Gold.Chemscore.Metal.Weighted>
-0.0000

> <Gold.Chemscore.Lipo.Weighted>
-11.0543

> <Gold.Chemscore.Internal_Hbond.Weighted>
0.0000

> <Gold.Chemscore.DEClash.Weighted>
0.3607

> <Gold.Chemscore.DEInternal.Weighted>
0.3289

> <Gold.Chemscore.Rot.Weighted>
3.8807

> <Gold.Chemscore.Internal.Correction.Weighted>
   9.000000E+99

> <Gold.Protein.RotatedTorsions>
[ 6907 6896 6895 6894 ] final  167.48 input  -60.11 | X-H torsion
[ 7974 7965 7964 7962 ] final   57.69 input  175.53 | X-H torsion
[ 8008 7997 7996 7995 ] final  -62.61 input   59.86 | X-H torsion
[ 10167 10162 10161 10158 ] final  101.90 input  -65.29 | X-H torsion
[ 10718 10713 10712 10709 ] final  -95.33 input   66.30 | X-H torsion
[ 10763 10752 10751 10750 ] final -170.91 input  -60.55 | X-H torsion
[ 11005 11000 10999 10996 ] final   60.40 input  -57.11 | X-H torsion

> <Gold.Protein.ActiveResidues>
 VAL166  LYS551  ARG553  GLY616  TRP617  ASP618  TYR619  PRO620  LYS621  CYS622 
 ASP623  PHE694  ASN695  SER759  ASP760  ASP761  ALA762  ILE779  LEU786  VAL792 
 PHE793  MET794  SER795  GLU796  ALA797  LYS798  CYS799  TRP800  GLU811  SER814 

> <Gold.Protein.RotatedAtoms>
  151.8627  133.3460  159.3708 H   0  0  0  0  0  0  0  0  0  0  0  0  # atno 6907 bound_to 6896
  150.7174  134.5190  159.5654 H   0  0  0  0  0  0  0  0  0  0  0  0  # atno 6908 bound_to 6896
  152.2707  134.7936  160.0465 H   0  0  0  0  0  0  0  0  0  0  0  0  # atno 6909 bound_to 6896
  145.9263  139.3770  143.0448 H   0  0  0  0  0  0  0  0  0  0  0  0  # atno 7974 bound_to 7965
  154.4509  140.0992  156.6614 H   0  0  0  0  0  0  0  0  0  0  0  0  # atno 8008 bound_to 7997
  155.5289  140.3481  155.4403 H   0  0  0  0  0  0  0  0  0  0  0  0  # atno 8009 bound_to 7997
  156.0678  140.1342  156.9853 H   0  0  0  0  0  0  0  0  0  0  0  0  # atno 8010 bound_to 7997
  139.7397  144.7014  151.0595 H   0  0  0  0  0  0  0  0  0  0  0  0  # atno 10167 bound_to 10162
  156.0041  130.5104  150.6060 H   0  0  0  0  0  0  0  0  0  0  0  0  # atno 10718 bound_to 10713
  154.6363  135.2893  155.0157 H   0  0  0  0  0  0  0  0  0  0  0  0  # atno 10763 bound_to 10752
  154.1299  135.6535  153.4924 H   0  0  0  0  0  0  0  0  0  0  0  0  # atno 10764 bound_to 10752
  153.0304  135.5308  154.7211 H   0  0  0  0  0  0  0  0  0  0  0  0  # atno 10765 bound_to 10752
  140.0234  134.6118  155.9607 H   0  0  0  0  0  0  0  0  0  0  0  0  # atno 11005 bound_to 11000
  145.8484  140.9542  143.0762 LP  0  0  0  0  0  0  0  0  0  0  0  0  # atno 17320 bound_to 7965
  144.6759  140.0375  143.7481 LP  0  0  0  0  0  0  0  0  0  0  0  0  # atno 17321 bound_to 7965
  140.7784  143.4940  150.9856 LP  0  0  0  0  0  0  0  0  0  0  0  0  # atno 17342 bound_to 10162
  139.8628  143.7292  152.3172 LP  0  0  0  0  0  0  0  0  0  0  0  0  # atno 17343 bound_to 10162
  157.3900  131.0794  151.1402 LP  0  0  0  0  0  0  0  0  0  0  0  0  # atno 17370 bound_to 10713
  157.2096  130.6432  149.5769 LP  0  0  0  0  0  0  0  0  0  0  0  0  # atno 17371 bound_to 10713
  141.1788  133.6543  156.4936 LP  0  0  0  0  0  0  0  0  0  0  0  0  # atno 17394 bound_to 11000
  140.4347  134.7070  157.4960 LP  0  0  0  0  0  0  0  0  0  0  0  0  # atno 17395 bound_to 11000

$$$$
