AV-unprocessed.smi:234|AV-procd|sdf|1787|dock9
  -GOLD-   2262020343D 1   1.00000     0.00000
 Structure written by MMmdl.
 59 62  0  0  0  0  0  0  0  0  1 V2000
  151.9429  144.9123  160.7966 C   0  0  0  0  0  0  0  0  0  0  0  0
  150.6639  144.9093  159.9489 C   0  0  0  0  0  0  0  0  0  0  0  0
  150.1113  143.6075  159.8188 O   0  0  0  0  0  0  0  0  0  0  0  0
  150.0799  143.1046  158.4894 C   0  0  2  0  0  0  0  0  0  0  0  0
  149.7042  141.6250  158.4457 C   0  0  0  0  0  0  0  0  0  0  0  0
  150.7319  141.5062  157.3118 C   0  0  2  0  0  0  0  0  0  0  0  0
  151.4923  140.2532  157.3197 N   0  0  0  0  0  0  0  0  0  0  0  0
  151.8510  139.6507  156.0409 C   0  0  0  0  0  0  0  0  0  0  0  0
  151.1654  139.3210  158.2462 C   0  0  0  0  0  0  0  0  0  0  0  0
  152.1149  139.0025  159.1620 N   0  0  0  0  0  0  0  0  0  0  0  0
  151.8572  138.0952  160.1084 C   0  0  0  0  0  0  0  0  0  0  0  0
  150.7395  137.3950  160.3116 N   0  0  0  0  0  0  0  0  0  0  0  0
  149.7878  137.6993  159.3833 C   0  0  0  0  0  0  0  0  0  0  0  0
  149.9171  138.6370  158.3194 C   0  0  0  0  0  0  0  0  0  0  0  0
  148.7490  138.6564  157.5654 N   0  0  0  0  0  0  0  0  0  0  0  0
  147.9701  137.7945  158.1585 C   0  0  0  0  0  0  0  0  0  0  0  0
  148.5090  137.1819  159.2670 N   0  0  0  0  0  0  0  0  0  0  0  0
  147.8611  136.1955  160.1187 C   0  0  0  0  0  0  0  0  0  0  0  0
  146.6289  136.7557  160.8777 C   0  0  1  0  0  0  0  0  0  0  0  0
  147.0398  137.9126  161.5867 O   0  0  0  0  0  0  0  0  0  0  0  0
  145.4788  137.1583  159.9575 C   0  0  0  0  0  0  0  0  0  0  0  0
  144.2507  136.9537  160.8306 C   0  0  0  0  0  0  0  0  0  0  0  0
  144.5693  135.7631  161.5281 O   0  0  0  0  0  0  0  0  0  0  0  0
  145.9461  135.7978  161.8951 C   0  0  1  0  0  0  0  0  0  0  0  0
  146.4551  134.3485  161.9352 C   0  0  0  0  0  0  0  0  0  0  0  0
  151.4747  142.7273  157.9250 C   0  0  0  0  0  0  0  0  0  0  0  0
  152.0687  143.7250  156.9295 C   0  0  0  0  0  0  0  0  0  0  0  0
  152.5602  142.4400  158.9770 C   0  0  0  0  0  0  0  0  0  0  0  0
  152.2890  145.9315  160.9689 H   0  0  0  0  0  0  0  0  0  0  0  0
  152.7517  144.3731  160.3045 H   0  0  0  0  0  0  0  0  0  0  0  0
  151.7693  144.4498  161.7684 H   0  0  0  0  0  0  0  0  0  0  0  0
  149.9157  145.5363  160.4341 H   0  0  0  0  0  0  0  0  0  0  0  0
  150.8444  145.3469  158.9659 H   0  0  0  0  0  0  0  0  0  0  0  0
  149.4734  143.6864  157.7905 H   0  0  0  0  0  0  0  0  0  0  0  0
  149.9767  141.0824  159.3530 H   0  0  0  0  0  0  0  0  0  0  0  0
  148.6723  141.4295  158.1531 H   0  0  0  0  0  0  0  0  0  0  0  0
  150.2952  141.7485  156.3410 H   0  0  0  0  0  0  0  0  0  0  0  0
  151.2938  138.7300  155.8597 H   0  0  0  0  0  0  0  0  0  0  0  0
  152.9149  139.4135  156.0259 H   0  0  0  0  0  0  0  0  0  0  0  0
  151.6453  140.3258  155.2119 H   0  0  0  0  0  0  0  0  0  0  0  0
  152.6620  137.9032  160.8029 H   0  0  0  0  0  0  0  0  0  0  0  0
  146.9716  137.5851  157.8035 H   0  0  0  0  0  0  0  0  0  0  0  0
  147.5708  135.3569  159.4854 H   0  0  0  0  0  0  0  0  0  0  0  0
  148.6014  135.8110  160.8215 H   0  0  0  0  0  0  0  0  0  0  0  0
  146.5205  137.9834  162.3728 H   0  0  0  0  0  0  0  0  0  0  0  0
  145.5621  138.1718  159.5623 H   0  0  0  0  0  0  0  0  0  0  0  0
  145.4205  136.4752  159.1094 H   0  0  0  0  0  0  0  0  0  0  0  0
  144.1255  137.7761  161.5367 H   0  0  0  0  0  0  0  0  0  0  0  0
  143.3333  136.8487  160.2512 H   0  0  0  0  0  0  0  0  0  0  0  0
  146.0065  136.2099  162.9043 H   0  0  0  0  0  0  0  0  0  0  0  0
  147.5052  134.3031  162.2237 H   0  0  0  0  0  0  0  0  0  0  0  0
  146.3427  133.8568  160.9687 H   0  0  0  0  0  0  0  0  0  0  0  0
  145.8927  133.7651  162.6643 H   0  0  0  0  0  0  0  0  0  0  0  0
  152.9559  143.3273  156.4376 H   0  0  0  0  0  0  0  0  0  0  0  0
  152.3617  144.6529  157.4205 H   0  0  0  0  0  0  0  0  0  0  0  0
  151.3540  143.9835  156.1481 H   0  0  0  0  0  0  0  0  0  0  0  0
  153.4731  142.0567  158.5205 H   0  0  0  0  0  0  0  0  0  0  0  0
  152.2363  141.7039  159.7129 H   0  0  0  0  0  0  0  0  0  0  0  0
  152.8288  143.3427  159.5266 H   0  0  0  0  0  0  0  0  0  0  0  0
  1  2  1  0  0  0  0
  1 29  1  0  0  0  0
  1 30  1  0  0  0  0
  1 31  1  0  0  0  0
  2  3  1  0  0  0  0
  2 32  1  0  0  0  0
  2 33  1  0  0  0  0
  3  4  1  0  0  0  0
  4 26  1  0  0  0  0
  4  5  1  0  0  0  0
  4 34  1  0  0  0  0
  5  6  1  0  0  0  0
  5 35  1  0  0  0  0
  5 36  1  0  0  0  0
  6  7  1  0  0  0  0
  6 26  1  0  0  0  0
  6 37  1  0  0  0  0
  7  8  1  0  0  0  0
  7  9  1  0  0  0  0
  8 38  1  0  0  0  0
  8 39  1  0  0  0  0
  8 40  1  0  0  0  0
  9 14  1  0  0  0  0
  9 10  2  0  0  0  0
 10 11  1  0  0  0  0
 11 12  2  0  0  0  0
 11 41  1  0  0  0  0
 12 13  1  0  0  0  0
 13 17  1  0  0  0  0
 13 14  2  0  0  0  0
 14 15  1  0  0  0  0
 15 16  2  0  0  0  0
 16 17  1  0  0  0  0
 16 42  1  0  0  0  0
 17 18  1  0  0  0  0
 18 19  1  0  0  0  0
 18 43  1  0  0  0  0
 18 44  1  0  0  0  0
 19 24  1  0  0  0  0
 19 20  1  0  0  0  0
 19 21  1  0  0  0  0
 20 45  1  0  0  0  0
 21 22  1  0  0  0  0
 21 46  1  0  0  0  0
 21 47  1  0  0  0  0
 22 23  1  0  0  0  0
 22 48  1  0  0  0  0
 22 49  1  0  0  0  0
 23 24  1  0  0  0  0
 24 25  1  0  0  0  0
 24 50  1  0  0  0  0
 25 51  1  0  0  0  0
 25 52  1  0  0  0  0
 25 53  1  0  0  0  0
 26 27  1  0  0  0  0
 26 28  1  0  0  0  0
 27 54  1  0  0  0  0
 27 55  1  0  0  0  0
 27 56  1  0  0  0  0
 28 57  1  0  0  0  0
 28 58  1  0  0  0  0
 28 59  1  0  0  0  0
M  END
> <s_m_source_file>
AV-unprocessed.smi

> <i_m_source_file_index>
234

> <i_lp_mmshare_version>
43012

> <i_f3d_flags>
0

> <s_epik_input>
W0NIM11bQ0gyXU9bQ0BASF0oQzEoW0NIM10pW0NIM10pW0NIMl1bQ0BIXTFOKFtDSDNdKWMobltjSF1uMiljKGMyMyluW2NIXW4zW0NIMl1bQ0BAXTQoW09IXSlbQ0gyXVtDSDJdT1tDQEhdNFtDSDNd

> <s_epik_cmdline>
J2VwaWtfcHl0aG9uJywgJy1waCcsICc3LjAnLCAnLXRuJywgJzgnLCAnLW1hJywgJzIwMCcsICctbWV0YWxfYmluZGluZycsICctaW1hZScsICc8aW5maWxlLm1hZT4nLCAnLW9tYWUnLCAnPG91dGZpbGUubWFlPic=

> <r_lp_tautomer_probability>
1

> <r_epik_Ionization_Penalty>
0.00349132

> <r_epik_Ionization_Penalty_Charging>
0

> <r_epik_Ionization_Penalty_Neutral>
0.00349132

> <r_epik_State_Penalty>
0.00242418

> <r_epik_Charging_Adjusted_Penalty>
0.00242418

> <i_epik_Tot_Q>
0

> <i_epik_Tot_abs_Q>
0

> <r_epik_Metal_State_Penalty>
-0

> <b_epik_Metal_Only>
0

> <s_lp_Force_Field>
OPLS_2005

> <r_lp_Energy>
50.018

> <b_lp_Chiralities_Consistent>
1

> <s_lp_Variant>
AV-unprocessed.smi:234-3

> <Gold.Version>
5.8.1

> <Gold.Id.Protein>
6NUR|6NUR_protein|mol2

> <Gold.PLP.Fitness>
47.0652

> <Gold.PLP.PLP>
-42.8544

> <Gold.PLP.part.hbond>
-3.9733

> <Gold.PLP.part.metal>
0.0000

> <Gold.PLP.part.buried>
-5.7482

> <Gold.PLP.part.nonpolar>
-33.7396

> <Gold.PLP.part.repulsive>
0.0928

> <Gold.PLP.ligand.clash>
0.5856

> <Gold.PLP.ligand.torsion>
2.0430

> <Gold.PLP.Chemscore.Hbond>
2.5980

> <Gold.PLP.Chemscore.CHOScore>
0.0000

> <Gold.PLP.Chemscore.Metal>
0.0000

> <Gold.Chemscore.Hbonds>
donor molecule, donor type, donor heavy atom, donor atom, acceptor molecule, acceptor atom, score
      P1  H  6896  6907       L1    12  0.18
      P1  H  6931  6943       L1    20  0.46
      P1  H  6934  6947       L1    20  0.32

> <Gold.PLP.Chemscore.Internal.Correction>
1.0884

> <Gold.Rescore>
     Score         DG    S(hbond)    S(metal)    S(lipo)     H(rot)  DE(clash)    DE(int)     intcor
     13.04     -16.88       1.49        0.00     112.33       2.62       2.03       1.81       ----

> <Gold.Chemscore.Fitness>
13.0398

> <Gold.Chemscore.DG>
-16.8838

> <Gold.Chemscore.ZeroCoef>
-5.4800

> <Gold.Chemscore.Hbond>
1.4891

> <Gold.Chemscore.Metal>
0.0000

> <Gold.Chemscore.Lipo>
112.3279

> <Gold.Chemscore.Internal_Hbond>
0.0000

> <Gold.Chemscore.DEClash>
2.0297

> <Gold.Chemscore.DEInternal>
1.8143

> <Gold.Chemscore.Rot>
2.6219

> <Gold.Chemscore.Internal.Correction>
   9.000000E+99

> <Gold.Chemscore.Hbonds>
donor molecule, donor type, donor heavy atom, donor atom, acceptor molecule, acceptor atom, score
      P1  H  6896  6907       L1    12  0.06
      P1  H  6931  6943       L1    20  0.36
      P1  H  6934  6947       L1    20  0.27

> <Gold.Chemscore.Hbond.Weighted>
-4.9735

> <Gold.Chemscore.Metal.Weighted>
-0.0000

> <Gold.Chemscore.Lipo.Weighted>
-13.1424

> <Gold.Chemscore.Internal_Hbond.Weighted>
0.0000

> <Gold.Chemscore.DEClash.Weighted>
2.0297

> <Gold.Chemscore.DEInternal.Weighted>
1.8143

> <Gold.Chemscore.Rot.Weighted>
6.7121

> <Gold.Chemscore.Internal.Correction.Weighted>
   9.000000E+99

> <Gold.Protein.RotatedTorsions>
[ 6907 6896 6895 6894 ] final  -22.00 input  -60.11 | X-H torsion
[ 7974 7965 7964 7962 ] final   25.69 input  175.53 | X-H torsion
[ 8008 7997 7996 7995 ] final -130.98 input   59.86 | X-H torsion
[ 10167 10162 10161 10158 ] final  -53.33 input  -65.29 | X-H torsion
[ 10718 10713 10712 10709 ] final  151.20 input   66.30 | X-H torsion
[ 10763 10752 10751 10750 ] final   89.46 input  -60.55 | X-H torsion
[ 11005 11000 10999 10996 ] final   77.89 input  -57.11 | X-H torsion

> <Gold.Protein.ActiveResidues>
 VAL166  LYS551  ARG553  GLY616  TRP617  ASP618  TYR619  PRO620  LYS621  CYS622 
 ASP623  PHE694  ASN695  SER759  ASP760  ASP761  ALA762  ILE779  LEU786  VAL792 
 PHE793  MET794  SER795  GLU796  ALA797  LYS798  CYS799  TRP800  GLU811  SER814 

> <Gold.Protein.RotatedAtoms>
  151.2251  135.0533  159.8964 H   0  0  0  0  0  0  0  0  0  0  0  0  # atno 6907 bound_to 6896
  152.5411  134.0598  159.8157 H   0  0  0  0  0  0  0  0  0  0  0  0  # atno 6908 bound_to 6896
  151.0770  133.5372  159.2655 H   0  0  0  0  0  0  0  0  0  0  0  0  # atno 6909 bound_to 6896
  146.1876  139.7430  142.8855 H   0  0  0  0  0  0  0  0  0  0  0  0  # atno 7974 bound_to 7965
  155.3047  140.0454  157.3031 H   0  0  0  0  0  0  0  0  0  0  0  0  # atno 8008 bound_to 7997
  154.5467  140.2304  155.8519 H   0  0  0  0  0  0  0  0  0  0  0  0  # atno 8009 bound_to 7997
  156.1930  140.3045  155.9377 H   0  0  0  0  0  0  0  0  0  0  0  0  # atno 8010 bound_to 7997
  140.6490  143.2554  151.4777 H   0  0  0  0  0  0  0  0  0  0  0  0  # atno 10167 bound_to 10162
  157.2737  131.0822  151.1581 H   0  0  0  0  0  0  0  0  0  0  0  0  # atno 10718 bound_to 10713
  153.1874  135.4469  155.0106 H   0  0  0  0  0  0  0  0  0  0  0  0  # atno 10763 bound_to 10752
  154.8069  135.3278  154.7411 H   0  0  0  0  0  0  0  0  0  0  0  0  # atno 10764 bound_to 10752
  153.7869  135.6973  153.4933 H   0  0  0  0  0  0  0  0  0  0  0  0  # atno 10765 bound_to 10752
  139.9235  134.7720  156.1580 H   0  0  0  0  0  0  0  0  0  0  0  0  # atno 11005 bound_to 11000
  145.3893  141.0370  143.3133 LP  0  0  0  0  0  0  0  0  0  0  0  0  # atno 17320 bound_to 7965
  144.8425  139.5449  143.6893 LP  0  0  0  0  0  0  0  0  0  0  0  0  # atno 17321 bound_to 7965
  139.5703  144.1943  152.1827 LP  0  0  0  0  0  0  0  0  0  0  0  0  # atno 17342 bound_to 10162
  140.1238  144.5350  150.6846 LP  0  0  0  0  0  0  0  0  0  0  0  0  # atno 17343 bound_to 10162
  157.3043  130.6858  149.6181 LP  0  0  0  0  0  0  0  0  0  0  0  0  # atno 17370 bound_to 10713
  155.9663  130.4383  150.5210 LP  0  0  0  0  0  0  0  0  0  0  0  0  # atno 17371 bound_to 10713
  141.0775  133.6769  156.2267 LP  0  0  0  0  0  0  0  0  0  0  0  0  # atno 17394 bound_to 11000
  140.6404  134.5172  157.5569 LP  0  0  0  0  0  0  0  0  0  0  0  0  # atno 17395 bound_to 11000

$$$$
