AV-unprocessed.smi:203|AV-procd|sdf|1597|dock4
  -GOLD-   2262019503D 1   1.00000     0.00000
 Structure written by MMmdl.
 57 61  0  0  0  0  0  0  0  0  1 V2000
  154.3148  136.9953  161.3530 O   0  0  0  0  0  0  0  0  0  0  0  0
  153.9982  137.5865  160.3234 C   0  0  0  0  0  0  0  0  0  0  0  0
  154.5898  138.9222  159.9076 C   0  0  0  0  0  0  0  0  0  0  0  0
  153.7210  139.3466  158.7060 C   0  0  2  0  0  0  0  0  0  0  0  0
  152.7990  140.5780  158.9770 C   0  0  1  0  0  0  0  0  0  0  0  0
  153.4560  141.6248  159.9159 C   0  0  0  0  0  0  0  0  0  0  0  0
  152.5330  142.8249  160.1651 C   0  0  0  0  0  0  0  0  0  0  0  0
  152.1198  143.4504  158.8289 C   0  0  0  0  0  0  0  0  0  0  0  0
  151.4664  142.3960  157.9261 C   0  0  0  0  0  0  0  0  0  0  0  0
  152.3404  141.2378  157.7408 N   0  0  0  0  0  0  0  0  0  0  0  0
  151.8522  140.4338  156.7699 C   0  0  0  0  0  0  0  0  0  0  0  0
  152.6427  140.2193  155.6898 N   0  0  0  0  0  0  0  0  0  0  0  0
  152.2194  139.4271  154.7001 C   0  0  0  0  0  0  0  0  0  0  0  0
  151.0630  138.7683  154.5939 N   0  0  0  0  0  0  0  0  0  0  0  0
  150.2639  138.9901  155.6766 C   0  0  0  0  0  0  0  0  0  0  0  0
  150.5751  139.8056  156.8004 C   0  0  0  0  0  0  0  0  0  0  0  0
  149.5170  139.7960  157.7016 N   0  0  0  0  0  0  0  0  0  0  0  0
  148.6318  139.0155  157.1439 C   0  0  0  0  0  0  0  0  0  0  0  0
  148.9987  138.4892  155.9262 N   0  0  0  0  0  0  0  0  0  0  0  0
  148.2100  137.5948  155.0960 C   0  0  0  0  0  0  0  0  0  0  0  0
  147.6629  138.2891  153.8304 C   0  0  1  0  0  0  0  0  0  0  0  0
  148.7424  138.4966  152.9396 O   0  0  0  0  0  0  0  0  0  0  0  0
  146.6005  137.4499  153.0920 C   0  0  1  0  0  0  0  0  0  0  0  0
  146.2875  137.9145  151.6680 C   0  0  0  0  0  0  0  0  0  0  0  0
  145.7491  136.6635  150.9939 C   0  0  0  0  0  0  0  0  0  0  0  0
  146.2425  135.5248  151.8894 C   0  0  0  0  0  0  0  0  0  0  0  0
  147.0982  136.1440  152.8400 O   0  0  0  0  0  0  0  0  0  0  0  0
  152.9429  138.0736  158.3085 C   0  0  0  0  0  0  0  0  0  0  0  0
  153.1104  137.1644  159.4255 N   0  0  0  0  0  0  0  0  0  0  0  0
  154.5730  139.6386  160.7292 H   0  0  0  0  0  0  0  0  0  0  0  0
  155.6281  138.7771  159.6084 H   0  0  0  0  0  0  0  0  0  0  0  0
  154.3807  139.5763  157.8687 H   0  0  0  0  0  0  0  0  0  0  0  0
  151.9091  140.2100  159.4885 H   0  0  0  0  0  0  0  0  0  0  0  0
  153.7177  141.1789  160.8747 H   0  0  0  0  0  0  0  0  0  0  0  0
  154.3892  141.9874  159.4848 H   0  0  0  0  0  0  0  0  0  0  0  0
  151.6469  142.5031  160.7137 H   0  0  0  0  0  0  0  0  0  0  0  0
  153.0369  143.5649  160.7871 H   0  0  0  0  0  0  0  0  0  0  0  0
  151.4308  144.2782  158.9974 H   0  0  0  0  0  0  0  0  0  0  0  0
  152.9955  143.8687  158.3307 H   0  0  0  0  0  0  0  0  0  0  0  0
  150.5221  142.0700  158.3644 H   0  0  0  0  0  0  0  0  0  0  0  0
  151.2299  142.8433  156.9592 H   0  0  0  0  0  0  0  0  0  0  0  0
  152.9056  139.3027  153.8754 H   0  0  0  0  0  0  0  0  0  0  0  0
  147.6795  138.8017  157.6074 H   0  0  0  0  0  0  0  0  0  0  0  0
  148.8223  136.7338  154.8241 H   0  0  0  0  0  0  0  0  0  0  0  0
  147.3931  137.2128  155.7086 H   0  0  0  0  0  0  0  0  0  0  0  0
  147.2415  139.2572  154.1044 H   0  0  0  0  0  0  0  0  0  0  0  0
  148.7695  137.7770  152.3277 H   0  0  0  0  0  0  0  0  0  0  0  0
  145.6757  137.3895  153.6702 H   0  0  0  0  0  0  0  0  0  0  0  0
  145.5819  138.7452  151.6383 H   0  0  0  0  0  0  0  0  0  0  0  0
  147.2033  138.2312  151.1668 H   0  0  0  0  0  0  0  0  0  0  0  0
  144.6590  136.6728  150.9569 H   0  0  0  0  0  0  0  0  0  0  0  0
  146.1202  136.5735  149.9723 H   0  0  0  0  0  0  0  0  0  0  0  0
  145.4065  135.0544  152.4083 H   0  0  0  0  0  0  0  0  0  0  0  0
  146.7748  134.7543  151.3315 H   0  0  0  0  0  0  0  0  0  0  0  0
  151.8889  138.2578  158.0993 H   0  0  0  0  0  0  0  0  0  0  0  0
  153.3772  137.6158  157.4190 H   0  0  0  0  0  0  0  0  0  0  0  0
  152.5974  136.2980  159.5027 H   0  0  0  0  0  0  0  0  0  0  0  0
  1  2  2  0  0  0  0
  2 29  1  0  0  0  0
  2  3  1  0  0  0  0
  3  4  1  0  0  0  0
  3 30  1  0  0  0  0
  3 31  1  0  0  0  0
  4  5  1  0  0  0  0
  4 28  1  0  0  0  0
  4 32  1  0  0  0  0
  5 10  1  0  0  0  0
  5  6  1  0  0  0  0
  5 33  1  0  0  0  0
  6  7  1  0  0  0  0
  6 34  1  0  0  0  0
  6 35  1  0  0  0  0
  7  8  1  0  0  0  0
  7 36  1  0  0  0  0
  7 37  1  0  0  0  0
  8  9  1  0  0  0  0
  8 38  1  0  0  0  0
  8 39  1  0  0  0  0
  9 10  1  0  0  0  0
  9 40  1  0  0  0  0
  9 41  1  0  0  0  0
 10 11  1  0  0  0  0
 11 16  1  0  0  0  0
 11 12  2  0  0  0  0
 12 13  1  0  0  0  0
 13 14  2  0  0  0  0
 13 42  1  0  0  0  0
 14 15  1  0  0  0  0
 15 19  1  0  0  0  0
 15 16  2  0  0  0  0
 16 17  1  0  0  0  0
 17 18  2  0  0  0  0
 18 19  1  0  0  0  0
 18 43  1  0  0  0  0
 19 20  1  0  0  0  0
 20 21  1  0  0  0  0
 20 44  1  0  0  0  0
 20 45  1  0  0  0  0
 21 22  1  0  0  0  0
 21 23  1  0  0  0  0
 21 46  1  0  0  0  0
 22 47  1  0  0  0  0
 23 27  1  0  0  0  0
 23 24  1  0  0  0  0
 23 48  1  0  0  0  0
 24 25  1  0  0  0  0
 24 49  1  0  0  0  0
 24 50  1  0  0  0  0
 25 26  1  0  0  0  0
 25 51  1  0  0  0  0
 25 52  1  0  0  0  0
 26 27  1  0  0  0  0
 26 53  1  0  0  0  0
 26 54  1  0  0  0  0
 28 29  1  0  0  0  0
 28 55  1  0  0  0  0
 28 56  1  0  0  0  0
 29 57  1  0  0  0  0
M  END
> <s_m_source_file>
AV-unprocessed.smi

> <i_m_source_file_index>
203

> <i_lp_mmshare_version>
43012

> <i_f3d_flags>
0

> <s_epik_input>
Tz1DMVtDSDJdW0NASF0oW0NIMl1bTkhdMSlbQ0BASF0yW0NIMl1bQ0gyXVtDSDJdW0NIMl1OMmMobltjSF1uMyljKGMzNCluW2NIXW40W0NIMl1bQ0BIXShbT0hdKVtDQEBIXTVbQ0gyXVtDSDJdW0NIMl1PNQ==

> <s_epik_cmdline>
J2VwaWtfcHl0aG9uJywgJy1waCcsICc3LjAnLCAnLXRuJywgJzgnLCAnLW1hJywgJzIwMCcsICctbWV0YWxfYmluZGluZycsICctaW1hZScsICc8aW5maWxlLm1hZT4nLCAnLW9tYWUnLCAnPG91dGZpbGUubWFlPic=

> <r_lp_tautomer_probability>
1

> <r_epik_Ionization_Penalty>
0.00175146

> <r_epik_Ionization_Penalty_Charging>
0

> <r_epik_Ionization_Penalty_Neutral>
0.00175146

> <r_epik_State_Penalty>
0.00109045

> <r_epik_Charging_Adjusted_Penalty>
0.00109045

> <i_epik_Tot_Q>
0

> <i_epik_Tot_abs_Q>
0

> <r_epik_Metal_State_Penalty>
-0

> <b_epik_Metal_Only>
0

> <s_lp_Force_Field>
OPLS_2005

> <r_lp_Energy>
57.64

> <b_lp_Chiralities_Consistent>
1

> <s_lp_Variant>
AV-unprocessed.smi:203-16

> <Gold.Version>
5.8.1

> <Gold.Id.Protein>
6NUR|6NUR_protein|mol2

> <Gold.PLP.Fitness>
43.1427

> <Gold.PLP.PLP>
-38.7422

> <Gold.PLP.part.hbond>
-2.3610

> <Gold.PLP.part.metal>
0.0000

> <Gold.PLP.part.buried>
-7.2026

> <Gold.PLP.part.nonpolar>
-31.0429

> <Gold.PLP.part.repulsive>
1.4245

> <Gold.PLP.ligand.clash>
0.0000

> <Gold.PLP.ligand.torsion>
0.9541

> <Gold.PLP.Chemscore.Hbond>
2.0000

> <Gold.PLP.Chemscore.CHOScore>
0.0000

> <Gold.PLP.Chemscore.Metal>
0.0000

> <Gold.Chemscore.Hbonds>
donor molecule, donor type, donor heavy atom, donor atom, acceptor molecule, acceptor atom, score
      L1  H    22    47       P1  7948  1.00
      P1  H  7997  8008       L1    12  1.00

> <Gold.PLP.Chemscore.Internal.Correction>
0.3086

> <Gold.Rescore>
     Score         DG    S(hbond)    S(metal)    S(lipo)     H(rot)  DE(clash)    DE(int)     intcor
     13.68     -14.77       1.90        0.00      84.67       2.72       0.06       1.03       ----

> <Gold.Chemscore.Fitness>
13.6760

> <Gold.Chemscore.DG>
-14.7658

> <Gold.Chemscore.ZeroCoef>
-5.4800

> <Gold.Chemscore.Hbond>
1.8967

> <Gold.Chemscore.Metal>
0.0000

> <Gold.Chemscore.Lipo>
84.6709

> <Gold.Chemscore.Internal_Hbond>
0.0000

> <Gold.Chemscore.DEClash>
0.0584

> <Gold.Chemscore.DEInternal>
1.0314

> <Gold.Chemscore.Rot>
2.7171

> <Gold.Chemscore.Internal.Correction>
   9.000000E+99

> <Gold.Chemscore.Hbonds>
donor molecule, donor type, donor heavy atom, donor atom, acceptor molecule, acceptor atom, score
      L1  H    22    47       P1  7948  0.97
      P1  H  7997  8008       L1    12  0.84

> <Gold.Chemscore.Hbond.Weighted>
-6.3350

> <Gold.Chemscore.Metal.Weighted>
-0.0000

> <Gold.Chemscore.Lipo.Weighted>
-9.9065

> <Gold.Chemscore.Internal_Hbond.Weighted>
0.0000

> <Gold.Chemscore.DEClash.Weighted>
0.0584

> <Gold.Chemscore.DEInternal.Weighted>
1.0314

> <Gold.Chemscore.Rot.Weighted>
6.9557

> <Gold.Chemscore.Internal.Correction.Weighted>
   9.000000E+99

> <Gold.Protein.RotatedTorsions>
[ 6907 6896 6895 6894 ] final  179.38 input  -60.11 | X-H torsion
[ 7974 7965 7964 7962 ] final   30.50 input  175.53 | X-H torsion
[ 8008 7997 7996 7995 ] final  -20.57 input   59.86 | X-H torsion
[ 10167 10162 10161 10158 ] final  -94.03 input  -65.29 | X-H torsion
[ 10718 10713 10712 10709 ] final  146.26 input   66.30 | X-H torsion
[ 10763 10752 10751 10750 ] final  113.25 input  -60.55 | X-H torsion
[ 11005 11000 10999 10996 ] final  -73.80 input  -57.11 | X-H torsion

> <Gold.Protein.ActiveResidues>
 VAL166  LYS551  ARG553  GLY616  TRP617  ASP618  TYR619  PRO620  LYS621  CYS622 
 ASP623  PHE694  ASN695  SER759  ASP760  ASP761  ALA762  ILE779  LEU786  VAL792 
 PHE793  MET794  SER795  GLU796  ALA797  LYS798  CYS799  TRP800  GLU811  SER814 

> <Gold.Protein.RotatedAtoms>
  151.6727  133.3313  159.3200 H   0  0  0  0  0  0  0  0  0  0  0  0  # atno 6907 bound_to 6896
  150.7860  134.6849  159.6474 H   0  0  0  0  0  0  0  0  0  0  0  0  # atno 6908 bound_to 6896
  152.3930  134.6415  160.0152 H   0  0  0  0  0  0  0  0  0  0  0  0  # atno 6909 bound_to 6896
  146.1608  139.6781  142.9035 H   0  0  0  0  0  0  0  0  0  0  0  0  # atno 7974 bound_to 7965
  154.4761  140.2058  155.9875 H   0  0  0  0  0  0  0  0  0  0  0  0  # atno 8008 bound_to 7997
  156.1091  140.3232  155.8018 H   0  0  0  0  0  0  0  0  0  0  0  0  # atno 8009 bound_to 7997
  155.4666  140.0528  157.2975 H   0  0  0  0  0  0  0  0  0  0  0  0  # atno 8010 bound_to 7997
  140.3186  143.3062  152.0071 H   0  0  0  0  0  0  0  0  0  0  0  0  # atno 10167 bound_to 10162
  157.3353  131.0927  151.1128 H   0  0  0  0  0  0  0  0  0  0  0  0  # atno 10718 bound_to 10713
  153.4897  135.3661  155.2485 H   0  0  0  0  0  0  0  0  0  0  0  0  # atno 10763 bound_to 10752
  154.8752  135.3974  154.3603 H   0  0  0  0  0  0  0  0  0  0  0  0  # atno 10764 bound_to 10752
  153.4221  135.7080  153.6353 H   0  0  0  0  0  0  0  0  0  0  0  0  # atno 10765 bound_to 10752
  141.1627  133.6890  156.7268 H   0  0  0  0  0  0  0  0  0  0  0  0  # atno 11005 bound_to 11000
  145.4593  141.0432  143.2761 LP  0  0  0  0  0  0  0  0  0  0  0  0  # atno 17320 bound_to 7965
  144.8024  139.6114  143.7065 LP  0  0  0  0  0  0  0  0  0  0  0  0  # atno 17321 bound_to 7965
  139.4879  144.6329  151.7034 LP  0  0  0  0  0  0  0  0  0  0  0  0  # atno 17342 bound_to 10162
  140.5504  144.0434  150.6124 LP  0  0  0  0  0  0  0  0  0  0  0  0  # atno 17343 bound_to 10162
  157.2361  130.6547  149.5870 LP  0  0  0  0  0  0  0  0  0  0  0  0  # atno 17370 bound_to 10713
  155.9700  130.4583  150.5995 LP  0  0  0  0  0  0  0  0  0  0  0  0  # atno 17371 bound_to 10713
  140.2775  134.8343  157.3903 LP  0  0  0  0  0  0  0  0  0  0  0  0  # atno 17394 bound_to 11000
  140.1464  134.4906  155.7993 LP  0  0  0  0  0  0  0  0  0  0  0  0  # atno 17395 bound_to 11000

$$$$
