#       Name:                AV-unprocessed.smi:218
#       Creating user name   scv26
#       Creation time:       Thu Mar 26 20:08:41 2020


#       File generated by GOLD software.
#

@<TRIPOS>MOLECULE
AV-unprocessed.smi:218
    68    71     1
SMALL
NO_CHARGES


@<TRIPOS>ATOM
      1 ****        -3.0280   6.2366  -5.1586 C.3            1 S1                 0.0000
      2 ****        -2.6097   6.2874  -3.6841 C.3            1 S1                 0.0000
      3 ****        -1.4560   7.2816  -3.4666 C.3            1 S1                 0.0000
      4 ****        -2.2019   4.9667  -3.3212 O.3            1 S1                 0.0000
      5 ****        -2.1746   4.5889  -1.9923 C.ar           1 S1                 0.0000
      6 ****        -1.7110   3.2958  -1.6744 C.ar           1 S1                 0.0000
      7 ****        -1.6846   2.8950  -0.3235 C.ar           1 S1                 0.0000
      8 ****        -1.1843   1.5193   0.0608 C.3            1 S1                 0.0000
      9 ****         0.2653   1.4198   0.0180 N.pl3          1 S1                 0.0000
     10 ****         0.8916   0.2714   0.3504 C.ar           1 S1                 0.0000
     11 ****         2.2452   0.3206   0.3309 N.ar           1 S1                 0.0000
     12 ****         2.9615  -0.7619   0.6453 C.ar           1 S1                 0.0000
     13 ****         2.5294  -1.9721   1.0019 N.ar           1 S1                 0.0000
     14 ****         1.1666  -2.0318   1.0247 C.ar           1 S1                 0.0000
     15 ****         0.2762  -0.9640   0.7136 C.ar           1 S1                 0.0000
     16 ****        -1.0351  -1.4107   0.8450 N.2            1 S1                 0.0000
     17 ****        -0.9200  -2.6589   1.2085 C.2            1 S1                 0.0000
     18 ****         0.3713  -3.1113   1.3492 N.pl3          1 S1                 0.0000
     19 ****         0.8238  -4.4779   1.7450 C.3            1 S1                 0.0000
     20 ****         1.7069  -4.9263   0.7661 O.3            1 S1                 0.0000
     21 ****         2.7487  -5.6800   1.3666 C.3            1 S1                 0.0000
     22 ****         2.4464  -7.1898   1.2577 C.3            1 S1                 0.0000
     23 ****         1.4536  -7.6225   2.1649 O.3            1 S1                 0.0000
     24 ****         2.9035  -5.1202   2.7887 C.3            1 S1                 0.0000
     25 ****         3.9471  -4.1656   2.7972 O.3            1 S1                 0.0000
     26 ****         1.5640  -4.4480   3.0969 C.3            1 S1                 0.0000
     27 ****         0.8716  -5.1966   4.0758 O.3            1 S1                 0.0000
     28 ****        -2.1193   3.8042   0.6609 C.ar           1 S1                 0.0000
     29 ****        -2.5660   5.0738   0.2470 C.ar           1 S1                 0.0000
     30 ****        -2.5970   5.4633  -1.0451 N.ar           1 S1                 0.0000
     31 ****        -0.0787  -5.0913   1.7509 H              1 S1                 0.0000
     32 ****         3.6519  -5.4992   0.7814 H              1 S1                 0.0000
     33 ****         3.1663  -5.8982   3.5071 H              1 S1                 0.0000
     34 ****         1.6884  -3.4252   3.4568 H              1 S1                 0.0000
     35 ****        -3.3644   7.2141  -5.5055 H              1 S1                 0.0000
     36 ****        -3.8473   5.5328  -5.3071 H              1 S1                 0.0000
     37 ****        -2.2000   5.9226  -5.7948 H              1 S1                 0.0000
     38 ****        -3.4846   6.6010  -3.1127 H              1 S1                 0.0000
     39 ****        -1.7453   8.2871  -3.7729 H              1 S1                 0.0000
     40 ****        -0.5776   6.9968  -4.0463 H              1 S1                 0.0000
     41 ****        -1.1580   7.3336  -2.4197 H              1 S1                 0.0000
     42 ****        -1.3817   2.6253  -2.4549 H              1 S1                 0.0000
     43 ****        -1.5375   1.2775   1.0641 H              1 S1                 0.0000
     44 ****        -1.6201   0.7909  -0.6239 H              1 S1                 0.0000
     45 ****         0.7559   2.2645  -0.2373 H              1 S1                 0.0000
     46 ****         4.0341  -0.6409   0.6070 H              1 S1                 0.0000
     47 ****        -1.7808  -3.2867   1.3879 H              1 S1                 0.0000
     48 ****         2.1488  -7.4482   0.2411 H              1 S1                 0.0000
     49 ****         3.3527  -7.7559   1.4740 H              1 S1                 0.0000
     50 ****         1.3375  -8.5548   2.0616 H              1 S1                 0.0000
     51 ****         3.7350  -3.4874   2.1729 H              1 S1                 0.0000
     52 ****         0.0389  -4.7804   4.2376 H              1 S1                 0.0000
     53 ****        -2.1106   3.5396   1.7081 H              1 S1                 0.0000
     54 ****        -2.9071   5.7968   0.9730 H              1 S1                 0.0000
     55 ****        -1.2744   4.8444  -3.6744 LP             1 S1                 0.0000
     56 ****        -2.8220   4.3356  -3.7873 LP             1 S1                 0.0000
     57 ****         2.7095   1.1700   0.0804 LP             1 S1                 0.0000
     58 ****         3.1296  -2.7403   1.2249 LP             1 S1                 0.0000
     59 ****        -1.8767  -0.8919   0.6947 LP             1 S1                 0.0000
     60 ****         2.0990  -4.1405   0.2878 LP             1 S1                 0.0000
     61 ****         1.2144  -5.5021   0.1135 LP             1 S1                 0.0000
     62 ****         0.5925  -7.1522   1.9719 LP             1 S1                 0.0000
     63 ****         1.7412  -7.4203   3.1011 LP             1 S1                 0.0000
     64 ****         4.8084  -4.6041   2.5404 LP             1 S1                 0.0000
     65 ****         4.0346  -3.7686   3.7109 LP             1 S1                 0.0000
     66 ****         1.4056  -5.2226   4.9209 LP             1 S1                 0.0000
     67 ****         0.7243  -6.1290   3.7458 LP             1 S1                 0.0000
     68 ****        -2.9234   6.3741  -1.2978 LP             1 S1                 0.0000
@<TRIPOS>BOND
    1    1    2 1     
    2    1   35 1     
    3    1   36 1     
    4    1   37 1     
    5    2    3 1     
    6    2    4 1     
    7    2   38 1     
    8    3   39 1     
    9    3   40 1     
   10    3   41 1     
   11    4    5 1     
   12    5   30 ar    
   13    5    6 ar    
   14    6    7 ar    
   15    6   42 1     
   16    7    8 1     
   17    7   28 ar    
   18    8    9 1     
   19    8   43 1     
   20    8   44 1     
   21    9   10 1     
   22    9   45 1     
   23   10   15 ar    
   24   10   11 ar    
   25   11   12 ar    
   26   12   13 ar    
   27   12   46 1     
   28   13   14 ar    
   29   14   18 1     
   30   14   15 ar    
   31   15   16 1     
   32   16   17 2     
   33   17   18 1     
   34   17   47 1     
   35   18   19 1     
   36   19   31 1     
   37   19   26 1     
   38   19   20 1     
   39   20   21 1     
   40   21   32 1     
   41   21   22 1     
   42   21   24 1     
   43   22   23 1     
   44   22   48 1     
   45   22   49 1     
   46   23   50 1     
   47   24   33 1     
   48   24   25 1     
   49   24   26 1     
   50   25   51 1     
   51   26   34 1     
   52   26   27 1     
   53   27   52 1     
   54   28   29 ar    
   55   28   53 1     
   56   29   30 ar    
   57   29   54 1     
   58    4   55 1     
   59    4   56 1     
   60   11   57 1     
   61   13   58 1     
   62   16   59 1     
   63   20   60 1     
   64   20   61 1     
   65   23   62 1     
   66   23   63 1     
   67   25   64 1     
   68   25   65 1     
   69   27   66 1     
   70   27   67 1     
   71   30   68 1     
@<TRIPOS>SUBSTRUCTURE
      1 S1             1
@<TRIPOS>SET
LONE_PAIRS      STATIC     ATOMS    <user>   **** ""
14 55 56 57 58 59 60 61 62 63 64 65 66 67 68
DONOR_HYDROGENS      STATIC     ATOMS    <user>   **** ""
4 45 50 51 52
ATOM$BLUE        STATIC     ATOMS    COLORGROUP SYSTEM
14 55 56 57 58 59 60 61 62 63 64 65 66 67 68
ATOM$RED        STATIC     ATOMS    COLORGROUP SYSTEM
4 45 50 51 52
