#       Name:                AV-unprocessed.smi:3338
#       Creating user name   scv26
#       Creation time:       Fri Mar 27 19:27:40 2020


#       File generated by GOLD software.
#

@<TRIPOS>MOLECULE
AV-unprocessed.smi:3338
    47    48     1
SMALL
NO_CHARGES


@<TRIPOS>ATOM
      1 ****        -3.6612  -0.6857   2.9730 C.3            1 S1                 0.0000
      2 ****        -3.8872  -0.2437   1.5166 C.3            1 S1                 0.0000
      3 ****        -4.4287   1.1937   1.4047 C.3            1 S1                 0.0000
      4 ****        -3.3310   2.2276   1.6930 C.3            1 S1                 0.0000
      5 ****        -2.0958   1.9822   0.8123 C.3            1 S1                 0.0000
      6 ****        -1.5823   0.5992   0.9858 N.4            1 S1                 1.0000
      7 ****        -0.3032   0.3796   0.2662 C.3            1 S1                 0.0000
      8 ****         0.5296  -0.7565   0.8908 C.3            1 S1                 0.0000
      9 ****         1.7929  -0.9396   0.1869 N.am           1 S1                 0.0000
     10 ****         1.9280  -1.5599  -0.9964 C.2            1 S1                 0.0000
     11 ****         0.9765  -2.0541  -1.6028 O.2            1 S1                 0.0000
     12 ****         3.3520  -1.6261  -1.5741 C.3            1 S1                 0.0000
     13 ****         3.5082  -2.7051  -2.6646 C.3            1 S1                 0.0000
     14 ****         3.7770  -0.3133  -2.0473 N.pl3          1 S1                 0.0000
     15 ****         4.6966   0.5402  -1.4716 C.2            1 S1                 0.0000
     16 ****         4.7604   1.6607  -2.2493 C.2            1 S1                 0.0000
     17 ****         3.8269   1.4027  -3.2911 C.2            1 S1                 0.0000
     18 ****         3.2350   0.2263  -3.1645 N.2            1 S1                 0.0000
     19 ****        -2.6204  -0.4145   0.6527 C.3            1 S1                 0.0000
     20 ****        -2.8887  -0.0942   3.4643 H              1 S1                 0.0000
     21 ****        -3.3546  -1.7311   3.0199 H              1 S1                 0.0000
     22 ****        -4.5762  -0.5883   3.5582 H              1 S1                 0.0000
     23 ****        -4.6502  -0.9091   1.1107 H              1 S1                 0.0000
     24 ****        -4.8113   1.3548   0.3960 H              1 S1                 0.0000
     25 ****        -5.2740   1.3399   2.0781 H              1 S1                 0.0000
     26 ****        -3.7155   3.2333   1.5198 H              1 S1                 0.0000
     27 ****        -3.0471   2.1869   2.7451 H              1 S1                 0.0000
     28 ****        -2.3387   2.1532  -0.2378 H              1 S1                 0.0000
     29 ****        -1.3211   2.7017   1.0803 H              1 S1                 0.0000
     30 ****        -0.5065   0.1897  -0.7891 H              1 S1                 0.0000
     31 ****         0.2954   1.2910   0.3025 H              1 S1                 0.0000
     32 ****         0.7529  -0.5228   1.9321 H              1 S1                 0.0000
     33 ****        -0.0167  -1.7000   0.8964 H              1 S1                 0.0000
     34 ****         2.6220  -0.5634   0.6242 H              1 S1                 0.0000
     35 ****         4.0154  -1.9018  -0.7528 H              1 S1                 0.0000
     36 ****         3.2555  -3.6934  -2.2791 H              1 S1                 0.0000
     37 ****         4.5370  -2.7487  -3.0226 H              1 S1                 0.0000
     38 ****         2.8687  -2.5121  -3.5268 H              1 S1                 0.0000
     39 ****         5.2257   0.2815  -0.5662 H              1 S1                 0.0000
     40 ****         5.3800   2.5321  -2.0972 H              1 S1                 0.0000
     41 ****         3.5614   2.0317  -4.1281 H              1 S1                 0.0000
     42 ****        -2.2298  -1.4232   0.7831 H              1 S1                 0.0000
     43 ****        -2.8809  -0.3211  -0.4029 H              1 S1                 0.0000
     44 ****        -1.3765   0.4992   1.9696 H              1 S1                 0.0000
     45 ****         0.0558  -2.0026  -1.2157 LP             1 S1                 0.0000
     46 ****         1.1246  -2.5068  -2.4820 LP             1 S1                 0.0000
     47 ****         2.5410  -0.1755  -3.7618 LP             1 S1                 0.0000
@<TRIPOS>BOND
    1    1    2 1     
    2    1   20 1     
    3    1   21 1     
    4    1   22 1     
    5    2   19 1     
    6    2    3 1     
    7    2   23 1     
    8    3    4 1     
    9    3   24 1     
   10    3   25 1     
   11    4    5 1     
   12    4   26 1     
   13    4   27 1     
   14    5    6 1     
   15    5   28 1     
   16    5   29 1     
   17    6    7 1     
   18    6   19 1     
   19    6   44 1     
   20    7    8 1     
   21    7   30 1     
   22    7   31 1     
   23    8    9 1     
   24    8   32 1     
   25    8   33 1     
   26    9   10 am    
   27    9   34 1     
   28   10   11 2     
   29   10   12 1     
   30   12   13 1     
   31   12   14 1     
   32   12   35 1     
   33   13   36 1     
   34   13   37 1     
   35   13   38 1     
   36   14   18 1     
   37   14   15 1     
   38   15   16 2     
   39   15   39 1     
   40   16   17 1     
   41   16   40 1     
   42   17   18 2     
   43   17   41 1     
   44   19   42 1     
   45   19   43 1     
   46   11   45 1     
   47   11   46 1     
   48   18   47 1     
@<TRIPOS>SUBSTRUCTURE
      1 S1             1
@<TRIPOS>SET
LONE_PAIRS      STATIC     ATOMS    <user>   **** ""
3 45 46 47
DONOR_HYDROGENS      STATIC     ATOMS    <user>   **** ""
2 44 34
ATOM$BLUE        STATIC     ATOMS    COLORGROUP SYSTEM
3 45 46 47
ATOM$RED        STATIC     ATOMS    COLORGROUP SYSTEM
2 44 34
