AV-unprocessed.smi:526|AV-procd|sdf|2812|dock6
  -GOLD-   2262023293D 1   1.00000     0.00000
 Structure written by MMmdl.
 30 30  0  0  0  0  0  0  0  0  2 V2000
  152.5229  144.0000  161.5514 C   0  0  0  0  0  0  0  0  0  0  0  0
  152.3433  144.3341  160.2626 C   0  0  0  0  0  0  0  0  0  0  0  0
  152.1750  145.7764  159.8232 C   0  0  0  0  0  0  0  0  0  0  0  0
  152.2980  143.2932  159.1589 C   0  0  0  0  0  0  0  0  0  0  0  0
  150.9278  143.5790  157.9947 S   0  0  0  0  0  0  0  0  0  0  0  0
  150.9622  142.1259  156.8862 C   0  0  0  0  0  0  0  0  0  0  0  0
  149.9394  142.1430  155.9477 N   0  0  0  0  0  0  0  0  0  0  0  0
  149.8295  141.0958  155.0520 C   0  0  0  0  0  0  0  0  0  0  0  0
  148.6669  141.2150  154.0823 C   0  0  0  0  0  0  0  0  0  0  0  0
  150.7094  140.0659  155.0684 C   0  0  0  0  0  0  0  0  0  0  0  0
  150.6253  138.8843  154.1000 C   0  0  0  0  0  0  0  0  0  0  0  0
  150.2452  137.5450  154.7434 C   0  0  0  0  0  0  0  0  0  0  0  0
  149.0994  137.4728  155.2383 O   0  0  0  0  0  0  0  0  0  0  0  0
  151.0862  136.6184  154.7354 O   0  5  0  0  0  0  0  0  0  0  0  0
  151.7962  140.0909  156.0705 C   0  0  0  0  0  0  0  0  0  0  0  0
  152.6402  139.1978  156.1307 O   0  0  0  0  0  0  0  0  0  0  0  0
  151.8438  141.1735  156.9626 N   0  0  0  0  0  0  0  0  0  0  0  0
  149.2617  142.8883  155.8866 H   0  0  0  0  0  0  0  0  0  0  0  0
  152.5535  144.7518  162.3265 H   0  0  0  0  0  0  0  0  0  0  0  0
  152.6431  142.9695  161.8522 H   0  0  0  0  0  0  0  0  0  0  0  0
  151.2226  145.9061  159.3088 H   0  0  0  0  0  0  0  0  0  0  0  0
  152.9749  146.0665  159.1420 H   0  0  0  0  0  0  0  0  0  0  0  0
  152.1947  146.4567  160.6753 H   0  0  0  0  0  0  0  0  0  0  0  0
  153.2387  143.3085  158.6068 H   0  0  0  0  0  0  0  0  0  0  0  0
  152.2005  142.3054  159.6105 H   0  0  0  0  0  0  0  0  0  0  0  0
  149.0265  141.1975  153.0533 H   0  0  0  0  0  0  0  0  0  0  0  0
  148.1155  142.1446  154.2277 H   0  0  0  0  0  0  0  0  0  0  0  0
  147.9708  140.3873  154.2190 H   0  0  0  0  0  0  0  0  0  0  0  0
  151.5916  138.7591  153.6114 H   0  0  0  0  0  0  0  0  0  0  0  0
  149.9247  139.0957  153.2917 H   0  0  0  0  0  0  0  0  0  0  0  0
  1  2  2  0  0  0  0
  1 19  1  0  0  0  0
  1 20  1  0  0  0  0
  2  3  1  0  0  0  0
  2  4  1  0  0  0  0
  3 21  1  0  0  0  0
  3 22  1  0  0  0  0
  3 23  1  0  0  0  0
  4 24  1  0  0  0  0
  4 25  1  0  0  0  0
  4  5  1  0  0  0  0
  5  6  1  0  0  0  0
  6 17  2  0  0  0  0
  6  7  1  0  0  0  0
  7  8  1  0  0  0  0
  7 18  1  0  0  0  0
  8 10  2  0  0  0  0
  8  9  1  0  0  0  0
  9 26  1  0  0  0  0
  9 27  1  0  0  0  0
  9 28  1  0  0  0  0
 10 15  1  0  0  0  0
 10 11  1  0  0  0  0
 11 12  1  0  0  0  0
 11 29  1  0  0  0  0
 11 30  1  0  0  0  0
 12 13  2  0  0  0  0
 12 14  1  0  0  0  0
 15 17  1  0  0  0  0
 15 16  2  0  0  0  0
M  CHG  1  14  -1
M  END
> <s_m_source_file>
AV-unprocessed.smi

> <i_m_source_file_index>
526

> <i_lp_mmshare_version>
43012

> <i_f3d_flags>
0

> <s_epik_input>
W0NIMl09QyhbQ0gzXSlbQ0gyXVNjMW5jKFtDSDNdKWMoYyg9TylbbkhdMSlbQ0gyXUMoPU8pW09IXQ==

> <s_epik_cmdline>
J2VwaWtfcHl0aG9uJywgJy1waCcsICc3LjAnLCAnLXRuJywgJzgnLCAnLW1hJywgJzIwMCcsICctbWV0YWxfYmluZGluZycsICctaW1hZScsICc8aW5maWxlLm1hZT4nLCAnLW9tYWUnLCAnPG91dGZpbGUubWFlPic=

> <r_lp_tautomer_probability>
0.273662

> <r_epik_Ionization_Penalty>
0.012426

> <r_epik_Ionization_Penalty_Charging>
0.012254

> <r_epik_Ionization_Penalty_Neutral>
0.000171952

> <r_epik_State_Penalty>
0.787696

> <r_epik_Charging_Adjusted_Penalty>
0.79995

> <i_epik_Tot_Q>
-1

> <i_epik_Tot_abs_Q>
1

> <r_epik_Metal_State_Penalty>
0.901144

> <b_epik_Metal_Only>
0

> <s_lp_Force_Field>
OPLS_2005

> <r_lp_Energy>
7.99396

> <b_lp_Chiralities_Consistent>
1

> <s_lp_Variant>
AV-unprocessed.smi:526-2

> <Gold.Version>
5.8.1

> <Gold.Id.Protein>
6NUR|6NUR_protein|mol2

> <Gold.PLP.Fitness>
50.3625

> <Gold.PLP.PLP>
-39.4921

> <Gold.PLP.part.hbond>
-3.0000

> <Gold.PLP.part.metal>
0.0000

> <Gold.PLP.part.buried>
-2.2919

> <Gold.PLP.part.nonpolar>
-33.8608

> <Gold.PLP.part.repulsive>
0.3743

> <Gold.PLP.ligand.clash>
0.0000

> <Gold.PLP.ligand.torsion>
0.2904

> <Gold.PLP.Chemscore.Hbond>
3.8130

> <Gold.PLP.Chemscore.CHOScore>
0.0000

> <Gold.PLP.Chemscore.Metal>
0.0000

> <Gold.Chemscore.Hbonds>
donor molecule, donor type, donor heavy atom, donor atom, acceptor molecule, acceptor atom, score
      L1  H     7    18       P1  8028  0.99
      P1  H  7997  8008       L1    16  1.00
      P1  H 10752 10763       L1    14  1.62

> <Gold.PLP.Chemscore.Internal.Correction>
0.0121

> <Gold.Rescore>
     Score         DG    S(hbond)    S(metal)    S(lipo)     H(rot)  DE(clash)    DE(int)     intcor
     17.52     -18.32       2.55        0.00      88.22       2.34       0.61       0.19       ----

> <Gold.Chemscore.Fitness>
17.5180

> <Gold.Chemscore.DG>
-18.3182

> <Gold.Chemscore.ZeroCoef>
-5.4800

> <Gold.Chemscore.Hbond>
2.5487

> <Gold.Chemscore.Metal>
0.0000

> <Gold.Chemscore.Lipo>
88.2152

> <Gold.Chemscore.Internal_Hbond>
0.0000

> <Gold.Chemscore.DEClash>
0.6076

> <Gold.Chemscore.DEInternal>
0.1927

> <Gold.Chemscore.Rot>
2.3420

> <Gold.Chemscore.Internal.Correction>
   9.000000E+99

> <Gold.Chemscore.Hbonds>
donor molecule, donor type, donor heavy atom, donor atom, acceptor molecule, acceptor atom, score
      L1  H     7    18       P1  8028  0.94
      P1  H  7997  8008       L1    16  0.54
      P1  H 10752 10763       L1    14  0.80

> <Gold.Chemscore.Hbond.Weighted>
-8.5126

> <Gold.Chemscore.Metal.Weighted>
-0.0000

> <Gold.Chemscore.Lipo.Weighted>
-10.3212

> <Gold.Chemscore.Internal_Hbond.Weighted>
0.0000

> <Gold.Chemscore.DEClash.Weighted>
0.6076

> <Gold.Chemscore.DEInternal.Weighted>
0.1927

> <Gold.Chemscore.Rot.Weighted>
5.9955

> <Gold.Chemscore.Internal.Correction.Weighted>
   9.000000E+99

> <Gold.Protein.RotatedTorsions>
[ 6907 6896 6895 6894 ] final   77.09 input  -60.11 | X-H torsion
[ 7974 7965 7964 7962 ] final  -24.38 input  175.53 | X-H torsion
[ 8008 7997 7996 7995 ] final  -51.86 input   59.86 | X-H torsion
[ 10167 10162 10161 10158 ] final  -21.55 input  -65.29 | X-H torsion
[ 10718 10713 10712 10709 ] final  123.69 input   66.30 | X-H torsion
[ 10763 10752 10751 10750 ] final   51.18 input  -60.55 | X-H torsion
[ 11005 11000 10999 10996 ] final  175.52 input  -57.11 | X-H torsion

> <Gold.Protein.ActiveResidues>
 VAL166  LYS551  ARG553  GLY616  TRP617  ASP618  TYR619  PRO620  LYS621  CYS622 
 ASP623  PHE694  ASN695  SER759  ASP760  ASP761  ALA762  ILE779  LEU786  VAL792 
 PHE793  MET794  SER795  GLU796  ALA797  LYS798  CYS799  TRP800  GLU811  SER814 

> <Gold.Protein.RotatedAtoms>
  152.5102  134.3869  159.9370 H   0  0  0  0  0  0  0  0  0  0  0  0  # atno 6907 bound_to 6896
  151.3828  133.3809  159.2720 H   0  0  0  0  0  0  0  0  0  0  0  0  # atno 6908 bound_to 6896
  150.9492  134.8914  159.7720 H   0  0  0  0  0  0  0  0  0  0  0  0  # atno 6909 bound_to 6896
  146.1558  140.4743  142.8592 H   0  0  0  0  0  0  0  0  0  0  0  0  # atno 7974 bound_to 7965
  154.4093  140.1237  156.4898 H   0  0  0  0  0  0  0  0  0  0  0  0  # atno 8008 bound_to 7997
  155.7001  140.3495  155.4910 H   0  0  0  0  0  0  0  0  0  0  0  0  # atno 8009 bound_to 7997
  155.9392  140.1084  157.1059 H   0  0  0  0  0  0  0  0  0  0  0  0  # atno 8010 bound_to 7997
  140.7282  143.4617  151.0370 H   0  0  0  0  0  0  0  0  0  0  0  0  # atno 10167 bound_to 10162
  157.5645  131.1087  150.8480 H   0  0  0  0  0  0  0  0  0  0  0  0  # atno 10718 bound_to 10713
  152.9785  135.5854  154.4373 H   0  0  0  0  0  0  0  0  0  0  0  0  # atno 10763 bound_to 10752
  154.3978  135.2768  155.2117 H   0  0  0  0  0  0  0  0  0  0  0  0  # atno 10764 bound_to 10752
  154.3961  135.6114  153.5925 H   0  0  0  0  0  0  0  0  0  0  0  0  # atno 10765 bound_to 10752
  140.3631  134.7095  157.4344 H   0  0  0  0  0  0  0  0  0  0  0  0  # atno 11005 bound_to 11000
  144.7962  140.6127  143.6508 LP  0  0  0  0  0  0  0  0  0  0  0  0  # atno 17320 bound_to 7965
  145.4711  139.1503  143.3813 LP  0  0  0  0  0  0  0  0  0  0  0  0  # atno 17321 bound_to 7965
  139.8302  143.7701  152.3179 LP  0  0  0  0  0  0  0  0  0  0  0  0  # atno 17342 bound_to 10162
  139.7814  144.7443  151.0083 LP  0  0  0  0  0  0  0  0  0  0  0  0  # atno 17343 bound_to 10162
  156.8968  130.5232  149.5284 LP  0  0  0  0  0  0  0  0  0  0  0  0  # atno 17370 bound_to 10713
  156.0694  130.5730  150.9353 LP  0  0  0  0  0  0  0  0  0  0  0  0  # atno 17371 bound_to 10713
  140.0611  134.5995  155.8748 LP  0  0  0  0  0  0  0  0  0  0  0  0  # atno 17394 bound_to 11000
  141.1978  133.6598  156.5759 LP  0  0  0  0  0  0  0  0  0  0  0  0  # atno 17395 bound_to 11000

$$$$
