#       Name:                AV-unprocessed.smi:686
#       Creating user name   scv26
#       Creation time:       Fri Mar 27 00:31:54 2020


#       File generated by GOLD software.
#

@<TRIPOS>MOLECULE
AV-unprocessed.smi:686
    45    46     1
SMALL
NO_CHARGES


@<TRIPOS>ATOM
      1 ****        -2.1058   0.8351   2.9276 C.3            1 S1                 0.0000
      2 ****        -0.9881   0.0621   2.2083 C.3            1 S1                 0.0000
      3 ****        -1.4754  -1.2937   1.6924 C.3            1 S1                 0.0000
      4 ****        -2.0581  -1.0315   0.3591 N.4            1 S1                 1.0000
      5 ****        -2.1762  -2.2163  -0.5373 C.3            1 S1                 0.0000
      6 ****        -2.8966  -1.8502  -1.8489 C.3            1 S1                 0.0000
      7 ****        -2.9173  -3.3798   0.1488 C.3            1 S1                 0.0000
      8 ****        -1.3196   0.1205  -0.2125 C.3            1 S1                 0.0000
      9 ****        -0.5185   0.7718   0.9314 C.3            1 S1                 0.0000
     10 ****         0.9212   0.5604   0.7475 N.3            1 S1                 0.0000
     11 ****         1.7887   1.6686  -0.2514 S.o2           1 S1                 0.0000
     12 ****         1.0203   1.8517  -1.4924 O.2            1 S1                 0.0000
     13 ****         2.1295   2.8335   0.5790 O.2            1 S1                 0.0000
     14 ****         3.3275   0.7357  -0.6446 C.3            1 S1                 0.0000
     15 ****         4.1647   1.5335  -1.6026 C.2            1 S1                 0.0000
     16 ****         4.9925   2.6573  -1.3291 C.2            1 S1                 0.0000
     17 ****         5.5080   2.9781  -2.5517 C.2            1 S1                 0.0000
     18 ****         5.0445   2.1265  -3.5011 O.3            1 S1                 0.0000
     19 ****         4.1882   1.2068  -2.8851 N.2            1 S1                 0.0000
     20 ****        -2.9628   1.0046   2.2747 H              1 S1                 0.0000
     21 ****        -1.7503   1.8082   3.2678 H              1 S1                 0.0000
     22 ****        -2.4576   0.2905   3.8043 H              1 S1                 0.0000
     23 ****        -0.1695  -0.0741   2.9171 H              1 S1                 0.0000
     24 ****        -0.6228  -1.9669   1.5863 H              1 S1                 0.0000
     25 ****        -2.1912  -1.7649   2.3669 H              1 S1                 0.0000
     26 ****        -1.1692  -2.5572  -0.7832 H              1 S1                 0.0000
     27 ****        -2.9992  -2.7230  -2.4943 H              1 S1                 0.0000
     28 ****        -2.3544  -1.0975  -2.4209 H              1 S1                 0.0000
     29 ****        -3.8981  -1.4644  -1.6559 H              1 S1                 0.0000
     30 ****        -3.0410  -4.2200  -0.5352 H              1 S1                 0.0000
     31 ****        -3.9108  -3.0769   0.4815 H              1 S1                 0.0000
     32 ****        -2.3737  -3.7585   1.0145 H              1 S1                 0.0000
     33 ****        -0.6581  -0.2014  -1.0185 H              1 S1                 0.0000
     34 ****        -2.0333   0.8243  -0.6418 H              1 S1                 0.0000
     35 ****        -0.7050   1.8456   0.9874 H              1 S1                 0.0000
     36 ****         1.3893   0.4432   1.6463 H              1 S1                 0.0000
     37 ****         3.8664   0.5470   0.2836 H              1 S1                 0.0000
     38 ****         3.0463  -0.2284  -1.0695 H              1 S1                 0.0000
     39 ****         5.1753   3.1518  -0.3866 H              1 S1                 0.0000
     40 ****         6.1854   3.7467  -2.8933 H              1 S1                 0.0000
     41 ****        -2.9955  -0.6982   0.5331 H              1 S1                 0.0000
     42 ****         0.9464  -0.2828   0.2104 LP             1 S1                 0.0000
     43 ****         5.8105   1.6437  -3.9256 LP             1 S1                 0.0000
     44 ****         4.5448   2.6384  -4.1999 LP             1 S1                 0.0000
     45 ****         3.6948   0.4560  -3.3243 LP             1 S1                 0.0000
@<TRIPOS>BOND
    1    1    2 1     
    2    1   20 1     
    3    1   21 1     
    4    1   22 1     
    5    2    9 1     
    6    2    3 1     
    7    2   23 1     
    8    3    4 1     
    9    3   24 1     
   10    3   25 1     
   11    4    5 1     
   12    4    8 1     
   13    4   41 1     
   14    5    6 1     
   15    5    7 1     
   16    5   26 1     
   17    6   27 1     
   18    6   28 1     
   19    6   29 1     
   20    7   30 1     
   21    7   31 1     
   22    7   32 1     
   23    8    9 1     
   24    8   33 1     
   25    8   34 1     
   26    9   10 1     
   27    9   35 1     
   28   10   11 1     
   29   10   36 1     
   30   11   12 2     
   31   11   13 2     
   32   11   14 1     
   33   14   15 1     
   34   14   37 1     
   35   14   38 1     
   36   15   19 2     
   37   15   16 1     
   38   16   17 2     
   39   16   39 1     
   40   17   18 1     
   41   17   40 1     
   42   18   19 1     
   43   10   42 1     
   44   18   43 1     
   45   18   44 1     
   46   19   45 1     
@<TRIPOS>SUBSTRUCTURE
      1 S1             1
@<TRIPOS>SET
LONE_PAIRS      STATIC     ATOMS    <user>   **** ""
6 42 12 13 43 44 45
DONOR_HYDROGENS      STATIC     ATOMS    <user>   **** ""
2 41 36
ATOM$BLUE        STATIC     ATOMS    COLORGROUP SYSTEM
6 42 12 13 43 44 45
ATOM$RED        STATIC     ATOMS    COLORGROUP SYSTEM
2 41 36
