AV-unprocessed.smi:1120|AV-procd|sdf|4825|dock2
  -GOLD-   22720 3383D 1   1.00000     0.00000
 Structure written by MMmdl.
 48 49  0  0  0  0  0  0  0  0  3 V2000
  151.0363  131.3821  155.3308 C   0  0  0  0  0  0  0  0  0  0  0  0
  149.9301  132.4007  155.6391 C   0  0  2  0  0  0  0  0  0  0  0  0
  149.3445  133.0211  154.3501 C   0  0  0  0  0  0  0  0  0  0  0  0
  148.2584  134.0927  154.6305 C   0  0  0  0  0  0  0  0  0  0  0  0
  148.7150  135.2287  155.5790 C   0  0  2  0  0  0  0  0  0  0  0  0
  149.6780  136.0836  154.8983 N   0  5  0  0  0  0  0  0  0  0  0  0
  150.8634  136.8101  155.7344 S   0  0  0  0  0  0  0  0  0  0  0  0
  150.3378  137.7902  156.6980 O   0  0  0  0  0  0  0  0  0  0  0  0
  151.8836  135.8693  156.2277 O   0  0  0  0  0  0  0  0  0  0  0  0
  151.6661  137.8040  154.3967 C   0  0  0  0  0  0  0  0  0  0  0  0
  152.0708  139.1851  154.9144 C   0  0  0  0  0  0  0  0  0  0  0  0
  153.2453  139.5477  154.8437 O   0  0  0  0  0  0  0  0  0  0  0  0
  151.0908  139.9496  155.4229 N   0  0  0  0  0  0  0  0  0  0  0  0
  151.2678  141.2656  156.0310 C   0  0  0  0  0  0  0  0  0  0  0  0
  150.6170  141.3767  157.4239 C   0  0  0  0  0  0  0  0  0  0  0  0
  151.0399  142.6103  158.2017 C   0  0  0  0  0  0  0  0  0  0  0  0
  151.8328  142.5316  159.3675 C   0  0  0  0  0  0  0  0  0  0  0  0
  152.1667  143.7174  160.0543 C   0  0  0  0  0  0  0  0  0  0  0  0
  151.7047  144.9550  159.5603 C   0  0  0  0  0  0  0  0  0  0  0  0
  150.9193  144.9753  158.3898 C   0  0  0  0  0  0  0  0  0  0  0  0
  150.6214  143.8182  157.7598 N   0  3  0  0  0  0  0  0  0  0  0  0
  149.3436  134.6021  156.8504 C   0  0  0  0  0  0  0  0  0  0  0  0
  150.4317  133.5358  156.5609 C   0  0  0  0  0  0  0  0  0  0  0  0
  151.8732  131.8506  154.8119 H   0  0  0  0  0  0  0  0  0  0  0  0
  150.6616  130.5767  154.6986 H   0  0  0  0  0  0  0  0  0  0  0  0
  151.4214  130.9318  156.2460 H   0  0  0  0  0  0  0  0  0  0  0  0
  149.1268  131.8745  156.1567 H   0  0  0  0  0  0  0  0  0  0  0  0
  150.1503  133.4541  153.7537 H   0  0  0  0  0  0  0  0  0  0  0  0
  148.9135  132.2326  153.7323 H   0  0  0  0  0  0  0  0  0  0  0  0
  147.9007  134.5115  153.6890 H   0  0  0  0  0  0  0  0  0  0  0  0
  147.3960  133.5968  155.0777 H   0  0  0  0  0  0  0  0  0  0  0  0
  147.8313  135.7971  155.8711 H   0  0  0  0  0  0  0  0  0  0  0  0
  152.5309  137.2557  154.0229 H   0  0  0  0  0  0  0  0  0  0  0  0
  150.9550  137.9040  153.5769 H   0  0  0  0  0  0  0  0  0  0  0  0
  150.1578  139.5629  155.4435 H   0  0  0  0  0  0  0  0  0  0  0  0
  152.3391  141.4475  156.1187 H   0  0  0  0  0  0  0  0  0  0  0  0
  150.8843  142.0443  155.3695 H   0  0  0  0  0  0  0  0  0  0  0  0
  149.5310  141.3745  157.3218 H   0  0  0  0  0  0  0  0  0  0  0  0
  150.8656  140.4932  158.0131 H   0  0  0  0  0  0  0  0  0  0  0  0
  152.1715  141.5754  159.7390 H   0  0  0  0  0  0  0  0  0  0  0  0
  152.7667  143.6774  160.9515 H   0  0  0  0  0  0  0  0  0  0  0  0
  151.9457  145.8742  160.0738 H   0  0  0  0  0  0  0  0  0  0  0  0
  150.5189  145.8742  157.9445 H   0  0  0  0  0  0  0  0  0  0  0  0
  149.7518  135.3776  157.4985 H   0  0  0  0  0  0  0  0  0  0  0  0
  148.5486  134.1297  157.4283 H   0  0  0  0  0  0  0  0  0  0  0  0
  150.7724  133.1115  157.5058 H   0  0  0  0  0  0  0  0  0  0  0  0
  151.3105  134.0097  156.1176 H   0  0  0  0  0  0  0  0  0  0  0  0
  150.0422  143.8558  156.9208 H   0  0  0  0  0  0  0  0  0  0  0  0
  1  2  1  0  0  0  0
  1 24  1  0  0  0  0
  1 25  1  0  0  0  0
  1 26  1  0  0  0  0
  2 23  1  0  0  0  0
  2  3  1  0  0  0  0
  2 27  1  0  0  0  0
  3  4  1  0  0  0  0
  3 28  1  0  0  0  0
  3 29  1  0  0  0  0
  4  5  1  0  0  0  0
  4 30  1  0  0  0  0
  4 31  1  0  0  0  0
  5  6  1  0  0  0  0
  5 22  1  0  0  0  0
  5 32  1  0  0  0  0
  6  7  1  0  0  0  0
  7  8  2  0  0  0  0
  7  9  2  0  0  0  0
  7 10  1  0  0  0  0
 10 11  1  0  0  0  0
 10 33  1  0  0  0  0
 10 34  1  0  0  0  0
 11 12  2  0  0  0  0
 11 13  1  0  0  0  0
 13 14  1  0  0  0  0
 13 35  1  0  0  0  0
 14 15  1  0  0  0  0
 14 36  1  0  0  0  0
 14 37  1  0  0  0  0
 15 16  1  0  0  0  0
 15 38  1  0  0  0  0
 15 39  1  0  0  0  0
 16 21  1  0  0  0  0
 16 17  2  0  0  0  0
 17 18  1  0  0  0  0
 17 40  1  0  0  0  0
 18 19  2  0  0  0  0
 18 41  1  0  0  0  0
 19 20  1  0  0  0  0
 19 42  1  0  0  0  0
 20 21  2  0  0  0  0
 20 43  1  0  0  0  0
 21 48  1  0  0  0  0
 22 23  1  0  0  0  0
 22 44  1  0  0  0  0
 22 45  1  0  0  0  0
 23 46  1  0  0  0  0
 23 47  1  0  0  0  0
M  CHG  1   6  -1
M  CHG  1  21   1
M  END
> <s_m_source_file>
AV-unprocessed.smi

> <i_m_source_file_index>
1120

> <i_lp_mmshare_version>
43012

> <i_f3d_flags>
0

> <s_epik_input>
W0NIM11bQ0BASF0xW0NIMl1bQ0gyXVtDQEhdKFtDSDJdW0NIMl0xKVtOSF1TKD1PKSg9TylbQ0gyXUMoPU8pW05IXVtDSDJdW0NIMl1jMltjSF1bY0hdW2NIXVtjSF1uMg==

> <s_epik_cmdline>
J2VwaWtfcHl0aG9uJywgJy1waCcsICc3LjAnLCAnLXRuJywgJzgnLCAnLW1hJywgJzIwMCcsICctbWV0YWxfYmluZGluZycsICctaW1hZScsICc8aW5maWxlLm1hZT4nLCAnLW9tYWUnLCAnPG91dGZpbGUubWFlPic=

> <r_epik_Ionization_Penalty>
7.48373

> <r_epik_Ionization_Penalty_Charging>
7.48373

> <r_epik_Ionization_Penalty_Neutral>
1.58512e-08

> <r_epik_State_Penalty>
7.71683

> <r_epik_Charging_Adjusted_Penalty>
15.2006

> <i_epik_Tot_Q>
0

> <i_epik_Tot_abs_Q>
2

> <r_epik_Metal_State_Penalty>
3.7254

> <b_epik_Metal_Only>
1

> <s_lp_Force_Field>
OPLS_2005

> <r_lp_Energy>
13.616

> <b_lp_Chiralities_Consistent>
1

> <s_lp_Variant>
AV-unprocessed.smi:1120-8

> <Gold.Version>
5.8.1

> <Gold.Id.Protein>
6NUR|6NUR_protein|mol2

> <Gold.PLP.Fitness>
53.0362

> <Gold.PLP.PLP>
-43.0731

> <Gold.PLP.part.hbond>
-4.0000

> <Gold.PLP.part.metal>
0.0000

> <Gold.PLP.part.buried>
-6.3416

> <Gold.PLP.part.nonpolar>
-33.5846

> <Gold.PLP.part.repulsive>
0.3363

> <Gold.PLP.ligand.clash>
0.0000

> <Gold.PLP.ligand.torsion>
1.5958

> <Gold.PLP.Chemscore.Hbond>
4.0000

> <Gold.PLP.Chemscore.CHOScore>
0.0000

> <Gold.PLP.Chemscore.Metal>
0.0000

> <Gold.Chemscore.Hbonds>
donor molecule, donor type, donor heavy atom, donor atom, acceptor molecule, acceptor atom, score
      L1  H    21    48       P1  8028  2.00
      P1  H  7997  8009       L1    12  1.00
      P1  H 10752 10764       L1     9  1.00

> <Gold.PLP.Chemscore.Internal.Correction>
1.1547

> <Gold.Rescore>
     Score         DG    S(hbond)    S(metal)    S(lipo)     H(rot)  DE(clash)    DE(int)     intcor
     18.60     -22.38       2.94        0.00     104.00       1.98       0.11       3.67       ----

> <Gold.Chemscore.Fitness>
18.6003

> <Gold.Chemscore.DG>
-22.3778

> <Gold.Chemscore.ZeroCoef>
-5.4800

> <Gold.Chemscore.Hbond>
2.9360

> <Gold.Chemscore.Metal>
0.0000

> <Gold.Chemscore.Lipo>
104.0047

> <Gold.Chemscore.Internal_Hbond>
0.0000

> <Gold.Chemscore.DEClash>
0.1088

> <Gold.Chemscore.DEInternal>
3.6687

> <Gold.Chemscore.Rot>
1.9832

> <Gold.Chemscore.Internal.Correction>
   9.000000E+99

> <Gold.Chemscore.Hbonds>
donor molecule, donor type, donor heavy atom, donor atom, acceptor molecule, acceptor atom, score
      L1  H    21    48       P1  8028  0.95
      P1  H  7997  8009       L1    12  1.00
      P1  H 10752 10764       L1     9  0.97

> <Gold.Chemscore.Hbond.Weighted>
-9.8062

> <Gold.Chemscore.Metal.Weighted>
-0.0000

> <Gold.Chemscore.Lipo.Weighted>
-12.1685

> <Gold.Chemscore.Internal_Hbond.Weighted>
0.0000

> <Gold.Chemscore.DEClash.Weighted>
0.1088

> <Gold.Chemscore.DEInternal.Weighted>
3.6687

> <Gold.Chemscore.Rot.Weighted>
5.0769

> <Gold.Chemscore.Internal.Correction.Weighted>
   9.000000E+99

> <Gold.Protein.RotatedTorsions>
[ 6907 6896 6895 6894 ] final   35.15 input  -60.11 | X-H torsion
[ 7974 7965 7964 7962 ] final  -89.78 input  175.53 | X-H torsion
[ 8008 7997 7996 7995 ] final -137.66 input   59.86 | X-H torsion
[ 10167 10162 10161 10158 ] final   93.58 input  -65.29 | X-H torsion
[ 10718 10713 10712 10709 ] final  163.67 input   66.30 | X-H torsion
[ 10763 10752 10751 10750 ] final  -19.43 input  -60.55 | X-H torsion
[ 11005 11000 10999 10996 ] final  145.27 input  -57.11 | X-H torsion

> <Gold.Protein.ActiveResidues>
 VAL166  LYS551  ARG553  GLY616  TRP617  ASP618  TYR619  PRO620  LYS621  CYS622 
 ASP623  PHE694  ASN695  SER759  ASP760  ASP761  ALA762  ILE779  LEU786  VAL792 
 PHE793  MET794  SER795  GLU796  ALA797  LYS798  CYS799  TRP800  GLU811  SER814 

> <Gold.Protein.RotatedAtoms>
  152.1122  134.9266  160.0566 H   0  0  0  0  0  0  0  0  0  0  0  0  # atno 6907 bound_to 6896
  152.0440  133.3985  159.4357 H   0  0  0  0  0  0  0  0  0  0  0  0  # atno 6908 bound_to 6896
  150.6844  134.3304  159.4868 H   0  0  0  0  0  0  0  0  0  0  0  0  # atno 6909 bound_to 6896
  145.4353  140.9557  143.2105 H   0  0  0  0  0  0  0  0  0  0  0  0  # atno 7974 bound_to 7965
  155.4155  140.0515  157.3029 H   0  0  0  0  0  0  0  0  0  0  0  0  # atno 8008 bound_to 7997
  154.4927  140.2126  155.9474 H   0  0  0  0  0  0  0  0  0  0  0  0  # atno 8009 bound_to 7997
  156.1363  140.3162  155.8431 H   0  0  0  0  0  0  0  0  0  0  0  0  # atno 8010 bound_to 7997
  139.8166  144.6750  150.9572 H   0  0  0  0  0  0  0  0  0  0  0  0  # atno 10167 bound_to 10162
  157.1052  131.0453  151.2481 H   0  0  0  0  0  0  0  0  0  0  0  0  # atno 10718 bound_to 10713
  153.6047  135.6998  153.5370 H   0  0  0  0  0  0  0  0  0  0  0  0  # atno 10763 bound_to 10752
  153.3067  135.4113  155.1300 H   0  0  0  0  0  0  0  0  0  0  0  0  # atno 10764 bound_to 10752
  154.8575  135.3662  154.5583 H   0  0  0  0  0  0  0  0  0  0  0  0  # atno 10765 bound_to 10752
  140.0698  134.9158  157.1326 H   0  0  0  0  0  0  0  0  0  0  0  0  # atno 11005 bound_to 11000
  144.8156  139.5882  143.7010 LP  0  0  0  0  0  0  0  0  0  0  0  0  # atno 17320 bound_to 7965
  146.2585  139.6357  142.9378 LP  0  0  0  0  0  0  0  0  0  0  0  0  # atno 17321 bound_to 7965
  140.7815  143.4132  151.0959 LP  0  0  0  0  0  0  0  0  0  0  0  0  # atno 17342 bound_to 10162
  139.7795  143.8376  152.3135 LP  0  0  0  0  0  0  0  0  0  0  0  0  # atno 17343 bound_to 10162
  157.4607  130.7651  149.7233 LP  0  0  0  0  0  0  0  0  0  0  0  0  # atno 17370 bound_to 10713
  155.9864  130.3975  150.3216 LP  0  0  0  0  0  0  0  0  0  0  0  0  # atno 17371 bound_to 10713
  140.3644  134.2459  155.7184 LP  0  0  0  0  0  0  0  0  0  0  0  0  # atno 17394 bound_to 11000
  141.2007  133.7980  157.0475 LP  0  0  0  0  0  0  0  0  0  0  0  0  # atno 17395 bound_to 11000

$$$$
