#       Name:                AV-unprocessed.smi:3263
#       Creating user name   scv26
#       Creation time:       Fri Mar 27 18:38:51 2020


#       File generated by GOLD software.
#

@<TRIPOS>MOLECULE
AV-unprocessed.smi:3263
    44    46     1
SMALL
NO_CHARGES


@<TRIPOS>ATOM
      1 ****         0.2564   1.1592  -0.7146 O.2            1 S1                 0.0000
      2 ****        -0.2208   0.0456  -0.4958 C.2            1 S1                 0.0000
      3 ****        -1.7398  -0.1521  -0.4535 C.3            1 S1                 0.0000
      4 ****        -2.4793   0.9432   0.3477 C.3            1 S1                 0.0000
      5 ****        -2.1214   0.9798   1.8537 C.3            1 S1                 0.0000
      6 ****        -3.4928   0.8588   2.5421 C.3            1 S1                 0.0000
      7 ****        -4.3009   2.1497   2.3142 C.3            1 S1                 0.0000
      8 ****        -4.6854   2.0502   0.8260 C.3            1 S1                 0.0000
      9 ****        -4.0111   0.7354   0.3886 C.3            1 S1                 0.0000
     10 ****        -4.2074  -0.1297   1.6303 C.3            1 S1                 0.0000
     11 ****         0.5279  -1.0482  -0.2878 N.am           1 S1                 0.0000
     12 ****         1.9856  -1.0766  -0.2807 C.3            1 S1                 0.0000
     13 ****         2.5568  -1.1639  -1.7056 C.3            1 S1                 0.0000
     14 ****         4.0727  -1.2167  -1.7122 C.ar           1 S1                 0.0000
     15 ****         4.8331  -0.0630  -1.9997 C.ar           1 S1                 0.0000
     16 ****         6.2377  -0.1645  -1.9846 C.ar           1 S1                 0.0000
     17 ****         6.8249  -1.4083  -1.6825 C.ar           1 S1                 0.0000
     18 ****         5.9775  -2.5004  -1.4089 C.ar           1 S1                 0.0000
     19 ****         4.6298  -2.4143  -1.4214 N.ar           1 S1                 0.0000
     20 ****        -2.1020  -0.1571  -1.4820 H              1 S1                 0.0000
     21 ****        -1.9688  -1.1370  -0.0445 H              1 S1                 0.0000
     22 ****        -2.2614   1.9101  -0.1095 H              1 S1                 0.0000
     23 ****        -1.4882   0.1371   2.1345 H              1 S1                 0.0000
     24 ****        -1.5958   1.8939   2.1320 H              1 S1                 0.0000
     25 ****        -3.4312   0.5593   3.5887 H              1 S1                 0.0000
     26 ****        -5.1939   2.1671   2.9404 H              1 S1                 0.0000
     27 ****        -3.7185   3.0451   2.5346 H              1 S1                 0.0000
     28 ****        -5.7685   1.9839   0.7151 H              1 S1                 0.0000
     29 ****        -4.3448   2.9099   0.2476 H              1 S1                 0.0000
     30 ****        -4.4281   0.3233  -0.5308 H              1 S1                 0.0000
     31 ****        -3.7135  -1.1007   1.5722 H              1 S1                 0.0000
     32 ****        -5.2563  -0.2796   1.8924 H              1 S1                 0.0000
     33 ****         0.0541  -1.9235  -0.1180 H              1 S1                 0.0000
     34 ****         2.3759  -0.1973   0.2348 H              1 S1                 0.0000
     35 ****         2.3016  -1.9428   0.3012 H              1 S1                 0.0000
     36 ****         2.1704  -2.0507  -2.2103 H              1 S1                 0.0000
     37 ****         2.2284  -0.3080  -2.2970 H              1 S1                 0.0000
     38 ****         4.3534   0.8784  -2.2248 H              1 S1                 0.0000
     39 ****         6.8532   0.6966  -2.2001 H              1 S1                 0.0000
     40 ****         7.8985  -1.5225  -1.6607 H              1 S1                 0.0000
     41 ****         6.3931  -3.4689  -1.1730 H              1 S1                 0.0000
     42 ****        -0.3481   1.9413  -0.8660 LP             1 S1                 0.0000
     43 ****         1.2485   1.2816  -0.7409 LP             1 S1                 0.0000
     44 ****         4.0609  -3.2121  -1.2216 LP             1 S1                 0.0000
@<TRIPOS>BOND
    1    1    2 2     
    2    2    3 1     
    3    2   11 am    
    4    3    4 1     
    5    3   20 1     
    6    3   21 1     
    7    4    9 1     
    8    4    5 1     
    9    4   22 1     
   10    5    6 1     
   11    5   23 1     
   12    5   24 1     
   13    6   10 1     
   14    6    7 1     
   15    6   25 1     
   16    7    8 1     
   17    7   26 1     
   18    7   27 1     
   19    8    9 1     
   20    8   28 1     
   21    8   29 1     
   22    9   10 1     
   23    9   30 1     
   24   10   31 1     
   25   10   32 1     
   26   11   12 1     
   27   11   33 1     
   28   12   13 1     
   29   12   34 1     
   30   12   35 1     
   31   13   14 1     
   32   13   36 1     
   33   13   37 1     
   34   14   19 ar    
   35   14   15 ar    
   36   15   16 ar    
   37   15   38 1     
   38   16   17 ar    
   39   16   39 1     
   40   17   18 ar    
   41   17   40 1     
   42   18   19 ar    
   43   18   41 1     
   44    1   42 1     
   45    1   43 1     
   46   19   44 1     
@<TRIPOS>SUBSTRUCTURE
      1 S1             1
@<TRIPOS>SET
LONE_PAIRS      STATIC     ATOMS    <user>   **** ""
3 42 43 44
DONOR_HYDROGENS      STATIC     ATOMS    <user>   **** ""
1 33
ATOM$BLUE        STATIC     ATOMS    COLORGROUP SYSTEM
3 42 43 44
ATOM$RED        STATIC     ATOMS    COLORGROUP SYSTEM
1 33
