AV-unprocessed.smi:67|AV-procd|sdf|630|dock6
  -GOLD-   2262016523D 1   1.00000     0.00000
 Structure written by MMmdl.
 49 51  0  0  0  0  0  0  0  0  3 V2000
  146.8732  135.1263  152.1415 O   0  0  0  0  0  0  0  0  0  0  0  0
  145.7879  136.0380  152.1428 C   0  0  2  0  0  0  0  0  0  0  0  0
  145.8034  136.8184  153.4762 C   0  0  0  0  0  0  0  0  0  0  0  0
  147.0221  137.6598  153.6144 N   0  3  2  0  0  0  0  0  0  0  0  0
  147.7933  137.3724  154.8517 C   0  0  0  0  0  0  0  0  0  0  0  0
  149.1530  138.0901  154.8347 C   0  0  0  0  0  0  0  0  0  0  0  0
  148.9729  139.6027  154.5842 C   0  0  1  0  0  0  0  0  0  0  0  0
  150.1824  140.3641  154.6316 O   0  0  0  0  0  0  0  0  0  0  0  0
  150.8059  140.7274  155.8108 C   0  0  0  0  0  0  0  0  0  0  0  0
  151.6296  139.7441  156.3964 C   0  0  0  0  0  0  0  0  0  0  0  0
  152.3179  139.9947  157.5981 C   0  0  0  0  0  0  0  0  0  0  0  0
  152.1910  141.2418  158.2355 C   0  0  0  0  0  0  0  0  0  0  0  0
  151.3724  142.2416  157.6696 C   0  0  0  0  0  0  0  0  0  0  0  0
  151.2115  143.6006  158.3341 C   0  0  0  0  0  0  0  0  0  0  0  0
  149.9370  143.7747  158.6837 F   0  0  0  0  0  0  0  0  0  0  0  0
  151.9703  143.7197  159.4240 F   0  0  0  0  0  0  0  0  0  0  0  0
  151.5528  144.5586  157.4726 F   0  0  0  0  0  0  0  0  0  0  0  0
  150.6868  141.9798  156.4644 C   0  0  0  0  0  0  0  0  0  0  0  0
  148.0639  139.9117  153.3753 C   0  0  0  0  0  0  0  0  0  0  0  0
  146.7533  139.1135  153.4610 C   0  0  0  0  0  0  0  0  0  0  0  0
  144.4934  135.2503  151.9211 C   0  0  0  0  0  0  0  0  0  0  0  0
  144.4406  135.0318  150.4066 C   0  0  0  0  0  0  0  0  0  0  0  0
  145.1972  136.1446  149.8008 N   0  3  0  0  0  0  0  0  0  0  0  0
  145.8553  136.9103  150.8787 C   0  0  0  0  0  0  0  0  0  0  0  0
  147.6722  135.6006  152.3186 H   0  0  0  0  0  0  0  0  0  0  0  0
  144.9078  137.4364  153.5615 H   0  0  0  0  0  0  0  0  0  0  0  0
  145.7384  136.1073  154.3017 H   0  0  0  0  0  0  0  0  0  0  0  0
  147.2131  137.6779  155.7241 H   0  0  0  0  0  0  0  0  0  0  0  0
  147.9606  136.2981  154.9410 H   0  0  0  0  0  0  0  0  0  0  0  0
  149.6593  137.9353  155.7880 H   0  0  0  0  0  0  0  0  0  0  0  0
  149.7838  137.6178  154.0864 H   0  0  0  0  0  0  0  0  0  0  0  0
  148.4250  139.9707  155.4527 H   0  0  0  0  0  0  0  0  0  0  0  0
  151.7359  138.7819  155.9170 H   0  0  0  0  0  0  0  0  0  0  0  0
  152.9440  139.2284  158.0309 H   0  0  0  0  0  0  0  0  0  0  0  0
  152.7247  141.4207  159.1571 H   0  0  0  0  0  0  0  0  0  0  0  0
  150.0758  142.7732  156.0725 H   0  0  0  0  0  0  0  0  0  0  0  0
  147.8404  140.9786  153.3501 H   0  0  0  0  0  0  0  0  0  0  0  0
  148.5440  139.6885  152.4263 H   0  0  0  0  0  0  0  0  0  0  0  0
  146.1669  139.2926  152.5599 H   0  0  0  0  0  0  0  0  0  0  0  0
  146.1529  139.4633  154.3026 H   0  0  0  0  0  0  0  0  0  0  0  0
  144.4491  134.3178  152.4855 H   0  0  0  0  0  0  0  0  0  0  0  0
  143.6361  135.8543  152.2224 H   0  0  0  0  0  0  0  0  0  0  0  0
  144.9347  134.0965  150.1419 H   0  0  0  0  0  0  0  0  0  0  0  0
  143.4192  134.9912  150.0276 H   0  0  0  0  0  0  0  0  0  0  0  0
  145.8965  135.7613  149.1805 H   0  0  0  0  0  0  0  0  0  0  0  0
  145.2773  137.8238  151.0216 H   0  0  0  0  0  0  0  0  0  0  0  0
  146.8711  137.2007  150.6071 H   0  0  0  0  0  0  0  0  0  0  0  0
  144.5782  136.7495  149.2796 H   0  0  0  0  0  0  0  0  0  0  0  0
  147.6248  137.3942  152.8481 H   0  0  0  0  0  0  0  0  0  0  0  0
  1  2  1  0  0  0  0
  1 25  1  0  0  0  0
  2 24  1  0  0  0  0
  2  3  1  0  0  0  0
  2 21  1  0  0  0  0
  3  4  1  0  0  0  0
  3 26  1  0  0  0  0
  3 27  1  0  0  0  0
  4 20  1  0  0  0  0
  4  5  1  0  0  0  0
  4 49  1  0  0  0  0
  5  6  1  0  0  0  0
  5 28  1  0  0  0  0
  5 29  1  0  0  0  0
  6  7  1  0  0  0  0
  6 30  1  0  0  0  0
  6 31  1  0  0  0  0
  7  8  1  0  0  0  0
  7 19  1  0  0  0  0
  7 32  1  0  0  0  0
  8  9  1  0  0  0  0
  9 18  1  0  0  0  0
  9 10  2  0  0  0  0
 10 11  1  0  0  0  0
 10 33  1  0  0  0  0
 11 12  2  0  0  0  0
 11 34  1  0  0  0  0
 12 13  1  0  0  0  0
 12 35  1  0  0  0  0
 13 14  1  0  0  0  0
 13 18  2  0  0  0  0
 14 15  1  0  0  0  0
 14 16  1  0  0  0  0
 14 17  1  0  0  0  0
 18 36  1  0  0  0  0
 19 20  1  0  0  0  0
 19 37  1  0  0  0  0
 19 38  1  0  0  0  0
 20 39  1  0  0  0  0
 20 40  1  0  0  0  0
 21 22  1  0  0  0  0
 21 41  1  0  0  0  0
 21 42  1  0  0  0  0
 22 23  1  0  0  0  0
 22 43  1  0  0  0  0
 22 44  1  0  0  0  0
 23 24  1  0  0  0  0
 23 45  1  0  0  0  0
 23 48  1  0  0  0  0
 24 46  1  0  0  0  0
 24 47  1  0  0  0  0
M  CHG  1   4   1
M  CHG  1  23   1
M  END
> <s_m_source_file>
AV-unprocessed.smi

> <i_m_source_file_index>
67

> <i_lp_mmshare_version>
43012

> <i_f3d_flags>
0

> <s_epik_input>
W0NIMl0xW05IXVtDSDJdW0NIMl1bQ0BAXTEoW09IXSlbQ0gyXU4yW0NIMl1bQ0gyXVtDSF0oW0NIMl1bQ0gyXTIpT2MzW2NIXVtjSF1bY0hdYyhDKEYpKEYpRilbY0hdMw==

> <s_epik_cmdline>
J2VwaWtfcHl0aG9uJywgJy1waCcsICc3LjAnLCAnLXRuJywgJzgnLCAnLW1hJywgJzIwMCcsICctbWV0YWxfYmluZGluZycsICctaW1hZScsICc8aW5maWxlLm1hZT4nLCAnLW9tYWUnLCAnPG91dGZpbGUubWFlPic=

> <r_lp_tautomer_probability>
1

> <r_epik_Ionization_Penalty>
0.0989853

> <r_epik_Ionization_Penalty_Charging>
0.0989662

> <r_epik_Ionization_Penalty_Neutral>
1.91014e-05

> <r_epik_State_Penalty>
0.0852826

> <r_epik_Charging_Adjusted_Penalty>
0.184249

> <i_epik_Tot_Q>
2

> <i_epik_Tot_abs_Q>
2

> <r_epik_Metal_State_Penalty>
0.0849414

> <b_epik_Metal_Only>
0

> <s_lp_Force_Field>
OPLS_2005

> <r_lp_Energy>
59.8113

> <b_lp_Chiralities_Consistent>
1

> <s_lp_Variant>
AV-unprocessed.smi:67-2

> <Gold.Version>
5.8.1

> <Gold.Id.Protein>
6NUR|6NUR_protein|mol2

> <Gold.PLP.Fitness>
58.4756

> <Gold.PLP.PLP>
-44.4359

> <Gold.PLP.part.hbond>
-4.5300

> <Gold.PLP.part.metal>
0.0000

> <Gold.PLP.part.buried>
1.4973

> <Gold.PLP.part.nonpolar>
-42.4236

> <Gold.PLP.part.repulsive>
0.2518

> <Gold.PLP.ligand.clash>
0.0000

> <Gold.PLP.ligand.torsion>
1.3331

> <Gold.PLP.Chemscore.Hbond>
5.3833

> <Gold.PLP.Chemscore.CHOScore>
0.0000

> <Gold.PLP.Chemscore.Metal>
0.0000

> <Gold.Chemscore.Hbonds>
donor molecule, donor type, donor heavy atom, donor atom, acceptor molecule, acceptor atom, score
      L1  H     1    25       P1  7948  0.85
      L1  H     4    49       P1  7948  2.00
      L1  H    23    45       P1  7921  0.90
      L1  H    23    48       P1 10171  0.59
      P1  H  7989  7998       L1     8  0.80

> <Gold.PLP.Chemscore.Internal.Correction>
0.5561

> <Gold.Rescore>
     Score         DG    S(hbond)    S(metal)    S(lipo)     H(rot)  DE(clash)    DE(int)     intcor
     19.68     -23.91       3.60        0.00     103.56       2.24       2.85       1.39       ----

> <Gold.Chemscore.Fitness>
19.6791

> <Gold.Chemscore.DG>
-23.9132

> <Gold.Chemscore.ZeroCoef>
-5.4800

> <Gold.Chemscore.Hbond>
3.6044

> <Gold.Chemscore.Metal>
0.0000

> <Gold.Chemscore.Lipo>
103.5622

> <Gold.Chemscore.Internal_Hbond>
0.0000

> <Gold.Chemscore.DEClash>
2.8454

> <Gold.Chemscore.DEInternal>
1.3886

> <Gold.Chemscore.Rot>
2.2352

> <Gold.Chemscore.Internal.Correction>
   9.000000E+99

> <Gold.Chemscore.Hbonds>
donor molecule, donor type, donor heavy atom, donor atom, acceptor molecule, acceptor atom, score
      L1  H     1    25       P1  7948  0.78
      L1  H     4    49       P1  7948  0.93
      L1  H    23    45       P1  7921  0.88
      L1  H    23    48       P1 10171  0.58
      P1  H  7989  7998       L1     8  0.11

> <Gold.Chemscore.Hbond.Weighted>
-12.0386

> <Gold.Chemscore.Metal.Weighted>
-0.0000

> <Gold.Chemscore.Lipo.Weighted>
-12.1168

> <Gold.Chemscore.Internal_Hbond.Weighted>
0.0000

> <Gold.Chemscore.DEClash.Weighted>
2.8454

> <Gold.Chemscore.DEInternal.Weighted>
1.3886

> <Gold.Chemscore.Rot.Weighted>
5.7221

> <Gold.Chemscore.Internal.Correction.Weighted>
   9.000000E+99

> <Gold.Protein.RotatedTorsions>
[ 6907 6896 6895 6894 ] final -140.40 input  -60.11 | X-H torsion
[ 7974 7965 7964 7962 ] final -129.55 input  175.53 | X-H torsion
[ 8008 7997 7996 7995 ] final  152.92 input   59.86 | X-H torsion
[ 10167 10162 10161 10158 ] final -111.09 input  -65.29 | X-H torsion
[ 10718 10713 10712 10709 ] final  177.38 input   66.30 | X-H torsion
[ 10763 10752 10751 10750 ] final  -95.16 input  -60.55 | X-H torsion
[ 11005 11000 10999 10996 ] final  -94.46 input  -57.11 | X-H torsion

> <Gold.Protein.ActiveResidues>
 VAL166  LYS551  ARG553  GLY616  TRP617  ASP618  TYR619  PRO620  LYS621  CYS622 
 ASP623  PHE694  ASN695  SER759  ASP760  ASP761  ALA762  ILE779  LEU786  VAL792 
 PHE793  MET794  SER795  GLU796  ALA797  LYS798  CYS799  TRP800  GLU811  SER814 

> <Gold.Protein.RotatedAtoms>
  151.0602  133.5550  159.2634 H   0  0  0  0  0  0  0  0  0  0  0  0  # atno 6907 bound_to 6896
  151.2528  135.0627  159.9078 H   0  0  0  0  0  0  0  0  0  0  0  0  # atno 6908 bound_to 6896
  152.5396  134.0360  159.8100 H   0  0  0  0  0  0  0  0  0  0  0  0  # atno 6909 bound_to 6896
  144.9561  140.7397  143.4758 H   0  0  0  0  0  0  0  0  0  0  0  0  # atno 7974 bound_to 7965
  156.2606  140.2008  156.6408 H   0  0  0  0  0  0  0  0  0  0  0  0  # atno 8008 bound_to 7997
  154.6611  140.0561  157.0087 H   0  0  0  0  0  0  0  0  0  0  0  0  # atno 8009 bound_to 7997
  155.1275  140.3230  155.4485 H   0  0  0  0  0  0  0  0  0  0  0  0  # atno 8010 bound_to 7997
  140.1374  143.4308  152.1586 H   0  0  0  0  0  0  0  0  0  0  0  0  # atno 10167 bound_to 10162
  156.9062  130.9895  151.3028 H   0  0  0  0  0  0  0  0  0  0  0  0  # atno 10718 bound_to 10713
  154.7122  135.5131  153.8684 H   0  0  0  0  0  0  0  0  0  0  0  0  # atno 10763 bound_to 10752
  153.0790  135.6625  154.0093 H   0  0  0  0  0  0  0  0  0  0  0  0  # atno 10764 bound_to 10752
  153.9933  135.3018  155.3389 H   0  0  0  0  0  0  0  0  0  0  0  0  # atno 10765 bound_to 10752
  141.1470  133.7957  157.0300 H   0  0  0  0  0  0  0  0  0  0  0  0  # atno 11005 bound_to 11000
  145.2770  139.1932  143.4811 LP  0  0  0  0  0  0  0  0  0  0  0  0  # atno 17320 bound_to 7965
  146.3337  140.2726  142.8606 LP  0  0  0  0  0  0  0  0  0  0  0  0  # atno 17321 bound_to 7965
  139.5489  144.7321  151.4496 LP  0  0  0  0  0  0  0  0  0  0  0  0  # atno 17342 bound_to 10162
  140.6781  143.8144  150.7085 LP  0  0  0  0  0  0  0  0  0  0  0  0  # atno 17343 bound_to 10162
  157.5996  130.8502  149.8781 LP  0  0  0  0  0  0  0  0  0  0  0  0  # atno 17370 bound_to 10713
  156.0558  130.3709  150.1095 LP  0  0  0  0  0  0  0  0  0  0  0  0  # atno 17371 bound_to 10713
  140.0760  134.9675  157.1546 LP  0  0  0  0  0  0  0  0  0  0  0  0  # atno 17394 bound_to 11000
  140.3643  134.2459  155.7184 LP  0  0  0  0  0  0  0  0  0  0  0  0  # atno 17395 bound_to 11000

$$$$
