AV-unprocessed.smi:2548|AV-procd|sdf|10007|dock10
  -GOLD-   2272014 53D 1   1.00000     0.00000
 Structure written by MMmdl.
 44 45  0  0  0  0  0  0  0  0  1 V2000
  147.0581  140.7393  152.8596 C   0  0  0  0  0  0  0  0  0  0  0  0
  146.4790  141.3870  154.0709 C   0  0  0  0  0  0  0  0  0  0  0  0
  147.0566  142.1204  155.0687 C   0  0  0  0  0  0  0  0  0  0  0  0
  145.9721  142.4593  155.9318 C   0  0  0  0  0  0  0  0  0  0  0  0
  146.0160  143.2618  157.2074 C   0  0  0  0  0  0  0  0  0  0  0  0
  147.0324  142.6988  158.2088 C   0  0  0  0  0  0  0  0  0  0  0  0
  146.6816  142.3234  159.3286 O   0  0  0  0  0  0  0  0  0  0  0  0
  148.3014  142.6319  157.7753 N   0  0  0  0  0  0  0  0  0  0  0  0
  149.4420  142.1224  158.5371 C   0  0  0  0  0  0  0  0  0  0  0  0
  150.8188  142.3601  157.8442 C   0  0  0  0  0  0  0  0  0  0  0  0
  150.7341  141.8306  156.3929 C   0  0  0  0  0  0  0  0  0  0  0  0
  151.1326  143.8813  157.7433 C   0  0  0  0  0  0  0  0  0  0  0  0
  151.1856  144.6794  159.0630 C   0  0  0  0  0  0  0  0  0  0  0  0
  152.5359  144.6761  159.7996 C   0  0  0  0  0  0  0  0  0  0  0  0
  153.2725  143.3297  159.8956 C   0  0  0  0  0  0  0  0  0  0  0  0
  152.3788  142.0810  159.9469 C   0  0  0  0  0  0  0  0  0  0  0  0
  151.9669  141.5879  158.5469 C   0  0  0  0  0  0  0  0  0  0  0  0
  144.8168  141.9672  155.5059 N   0  0  0  0  0  0  0  0  0  0  0  0
  145.1381  141.3204  154.3703 N   0  0  0  0  0  0  0  0  0  0  0  0
  144.4408  140.8422  153.8177 H   0  0  0  0  0  0  0  0  0  0  0  0
  148.1461  140.8094  152.8631 H   0  0  0  0  0  0  0  0  0  0  0  0
  146.6920  141.2193  151.9520 H   0  0  0  0  0  0  0  0  0  0  0  0
  146.7895  139.6836  152.8175 H   0  0  0  0  0  0  0  0  0  0  0  0
  148.0999  142.3812  155.1682 H   0  0  0  0  0  0  0  0  0  0  0  0
  146.2728  144.3019  157.0020 H   0  0  0  0  0  0  0  0  0  0  0  0
  145.0277  143.2728  157.6687 H   0  0  0  0  0  0  0  0  0  0  0  0
  148.4945  142.9555  156.8386 H   0  0  0  0  0  0  0  0  0  0  0  0
  149.4308  142.6288  159.5028 H   0  0  0  0  0  0  0  0  0  0  0  0
  149.2790  141.0698  158.7616 H   0  0  0  0  0  0  0  0  0  0  0  0
  151.6454  142.0503  155.8353 H   0  0  0  0  0  0  0  0  0  0  0  0
  149.9049  142.2854  155.8497 H   0  0  0  0  0  0  0  0  0  0  0  0
  150.5941  140.7498  156.3574 H   0  0  0  0  0  0  0  0  0  0  0  0
  152.0630  144.0381  157.1954 H   0  0  0  0  0  0  0  0  0  0  0  0
  150.3589  144.3387  157.1246 H   0  0  0  0  0  0  0  0  0  0  0  0
  150.9503  145.7199  158.8363 H   0  0  0  0  0  0  0  0  0  0  0  0
  150.3979  144.3700  159.7458 H   0  0  0  0  0  0  0  0  0  0  0  0
  153.2045  145.3968  159.3273 H   0  0  0  0  0  0  0  0  0  0  0  0
  152.3661  145.0573  160.8070 H   0  0  0  0  0  0  0  0  0  0  0  0
  153.9699  143.2394  159.0620 H   0  0  0  0  0  0  0  0  0  0  0  0
  153.9001  143.3532  160.7873 H   0  0  0  0  0  0  0  0  0  0  0  0
  152.9582  141.2828  160.4121 H   0  0  0  0  0  0  0  0  0  0  0  0
  151.5186  142.2318  160.5991 H   0  0  0  0  0  0  0  0  0  0  0  0
  151.6987  140.5343  158.6217 H   0  0  0  0  0  0  0  0  0  0  0  0
  152.8504  141.5935  157.9071 H   0  0  0  0  0  0  0  0  0  0  0  0
  1  2  1  0  0  0  0
  1 21  1  0  0  0  0
  1 22  1  0  0  0  0
  1 23  1  0  0  0  0
  2 19  1  0  0  0  0
  2  3  2  0  0  0  0
  3  4  1  0  0  0  0
  3 24  1  0  0  0  0
  4  5  1  0  0  0  0
  4 18  2  0  0  0  0
  5  6  1  0  0  0  0
  5 25  1  0  0  0  0
  5 26  1  0  0  0  0
  6  7  2  0  0  0  0
  6  8  1  0  0  0  0
  8  9  1  0  0  0  0
  8 27  1  0  0  0  0
  9 10  1  0  0  0  0
  9 28  1  0  0  0  0
  9 29  1  0  0  0  0
 10 17  1  0  0  0  0
 10 11  1  0  0  0  0
 10 12  1  0  0  0  0
 11 30  1  0  0  0  0
 11 31  1  0  0  0  0
 11 32  1  0  0  0  0
 12 13  1  0  0  0  0
 12 33  1  0  0  0  0
 12 34  1  0  0  0  0
 13 14  1  0  0  0  0
 13 35  1  0  0  0  0
 13 36  1  0  0  0  0
 14 15  1  0  0  0  0
 14 37  1  0  0  0  0
 14 38  1  0  0  0  0
 15 16  1  0  0  0  0
 15 39  1  0  0  0  0
 15 40  1  0  0  0  0
 16 17  1  0  0  0  0
 16 41  1  0  0  0  0
 16 42  1  0  0  0  0
 17 43  1  0  0  0  0
 17 44  1  0  0  0  0
 18 19  1  0  0  0  0
 19 20  1  0  0  0  0
M  END
> <s_m_source_file>
AV-unprocessed.smi

> <i_m_source_file_index>
2548

> <i_lp_mmshare_version>
43012

> <i_f3d_flags>
0

> <s_epik_input>
W0NIM11jMVtjSF1jKG5bbkhdMSlbQ0gyXUMoPU8pW05IXVtDSDJdQzIoW0NIM10pW0NIMl1bQ0gyXVtDSDJdW0NIMl1bQ0gyXVtDSDJdMg==

> <s_epik_cmdline>
J2VwaWtfcHl0aG9uJywgJy1waCcsICc3LjAnLCAnLXRuJywgJzgnLCAnLW1hJywgJzIwMCcsICctbWV0YWxfYmluZGluZycsICctaW1hZScsICc8aW5maWxlLm1hZT4nLCAnLW9tYWUnLCAnPG91dGZpbGUubWFlPic=

> <r_lp_tautomer_probability>
0.5

> <r_epik_Ionization_Penalty>
8.42262e-05

> <r_epik_Ionization_Penalty_Charging>
0

> <r_epik_Ionization_Penalty_Neutral>
8.42262e-05

> <r_epik_State_Penalty>
0.41068

> <r_epik_Charging_Adjusted_Penalty>
0.41068

> <i_epik_Tot_Q>
0

> <i_epik_Tot_abs_Q>
0

> <r_epik_Metal_State_Penalty>
0.410698

> <b_epik_Metal_Only>
0

> <s_lp_Force_Field>
OPLS_2005

> <r_lp_Energy>
22.9227

> <b_lp_Chiralities_Consistent>
1

> <s_lp_Variant>
AV-unprocessed.smi:2548-1

> <Gold.Version>
5.8.1

> <Gold.Id.Protein>
6NUR|6NUR_protein|mol2

> <Gold.PLP.Fitness>
40.5927

> <Gold.PLP.PLP>
-33.3894

> <Gold.PLP.part.hbond>
-2.8619

> <Gold.PLP.part.metal>
0.0000

> <Gold.PLP.part.buried>
-1.6330

> <Gold.PLP.part.nonpolar>
-30.0278

> <Gold.PLP.part.repulsive>
0.2513

> <Gold.PLP.ligand.clash>
0.0000

> <Gold.PLP.ligand.torsion>
0.1160

> <Gold.PLP.Chemscore.Hbond>
2.4744

> <Gold.PLP.Chemscore.CHOScore>
0.0000

> <Gold.PLP.Chemscore.Metal>
0.0000

> <Gold.Chemscore.Hbonds>
donor molecule, donor type, donor heavy atom, donor atom, acceptor molecule, acceptor atom, score
      L1  H     8    27       P1  8028  0.62
      L1  H    19    20       P1 10175  1.00
      P1  H  6934  6946       L1     7  0.94

> <Gold.PLP.Chemscore.Internal.Correction>
0.0121

> <Gold.Rescore>
     Score         DG    S(hbond)    S(metal)    S(lipo)     H(rot)  DE(clash)    DE(int)     intcor
     21.13     -21.45       2.20        0.00     107.61       1.55       0.22       0.09       ----

> <Gold.Chemscore.Fitness>
21.1293

> <Gold.Chemscore.DG>
-21.4450

> <Gold.Chemscore.ZeroCoef>
-5.4800

> <Gold.Chemscore.Hbond>
2.1975

> <Gold.Chemscore.Metal>
0.0000

> <Gold.Chemscore.Lipo>
107.6133

> <Gold.Chemscore.Internal_Hbond>
0.0000

> <Gold.Chemscore.DEClash>
0.2249

> <Gold.Chemscore.DEInternal>
0.0908

> <Gold.Chemscore.Rot>
1.5489

> <Gold.Chemscore.Internal.Correction>
   9.000000E+99

> <Gold.Chemscore.Hbonds>
donor molecule, donor type, donor heavy atom, donor atom, acceptor molecule, acceptor atom, score
      L1  H     8    27       P1  8028  0.39
      L1  H    19    20       P1 10175  0.88
      P1  H  6934  6946       L1     7  0.86

> <Gold.Chemscore.Hbond.Weighted>
-7.3395

> <Gold.Chemscore.Metal.Weighted>
-0.0000

> <Gold.Chemscore.Lipo.Weighted>
-12.5908

> <Gold.Chemscore.Internal_Hbond.Weighted>
0.0000

> <Gold.Chemscore.DEClash.Weighted>
0.2249

> <Gold.Chemscore.DEInternal.Weighted>
0.0908

> <Gold.Chemscore.Rot.Weighted>
3.9652

> <Gold.Chemscore.Internal.Correction.Weighted>
   9.000000E+99

> <Gold.Protein.RotatedTorsions>
[ 6907 6896 6895 6894 ] final    2.92 input  -60.11 | X-H torsion
[ 7974 7965 7964 7962 ] final   50.64 input  175.53 | X-H torsion
[ 8008 7997 7996 7995 ] final   89.65 input   59.86 | X-H torsion
[ 10167 10162 10161 10158 ] final  133.31 input  -65.29 | X-H torsion
[ 10718 10713 10712 10709 ] final   -1.41 input   66.30 | X-H torsion
[ 10763 10752 10751 10750 ] final -152.64 input  -60.55 | X-H torsion
[ 11005 11000 10999 10996 ] final  111.40 input  -57.11 | X-H torsion

> <Gold.Protein.ActiveResidues>
 VAL166  LYS551  ARG553  GLY616  TRP617  ASP618  TYR619  PRO620  LYS621  CYS622 
 ASP623  PHE694  ASN695  SER759  ASP760  ASP761  ALA762  ILE779  LEU786  VAL792 
 PHE793  MET794  SER795  GLU796  ALA797  LYS798  CYS799  TRP800  GLU811  SER814 

> <Gold.Protein.RotatedAtoms>
  151.6166  135.1036  160.0092 H   0  0  0  0  0  0  0  0  0  0  0  0  # atno 6907 bound_to 6896
  152.4180  133.7065  159.6465 H   0  0  0  0  0  0  0  0  0  0  0  0  # atno 6908 bound_to 6896
  150.8068  133.8422  159.3223 H   0  0  0  0  0  0  0  0  0  0  0  0  # atno 6909 bound_to 6896
  145.9992  139.4421  143.0025 H   0  0  0  0  0  0  0  0  0  0  0  0  # atno 7974 bound_to 7965
  156.0025  140.3358  155.6860 H   0  0  0  0  0  0  0  0  0  0  0  0  # atno 8008 bound_to 7997
  155.6270  140.0681  157.2678 H   0  0  0  0  0  0  0  0  0  0  0  0  # atno 8009 bound_to 7997
  154.4254  140.1766  156.1420 H   0  0  0  0  0  0  0  0  0  0  0  0  # atno 8010 bound_to 7997
  139.5302  144.6622  151.4977 H   0  0  0  0  0  0  0  0  0  0  0  0  # atno 10167 bound_to 10162
  156.8061  130.5409  149.5715 H   0  0  0  0  0  0  0  0  0  0  0  0  # atno 10718 bound_to 10713
  154.7980  135.3231  154.7619 H   0  0  0  0  0  0  0  0  0  0  0  0  # atno 10763 bound_to 10752
  153.8293  135.6881  153.4821 H   0  0  0  0  0  0  0  0  0  0  0  0  # atno 10764 bound_to 10752
  153.1682  135.4633  154.9809 H   0  0  0  0  0  0  0  0  0  0  0  0  # atno 10765 bound_to 10752
  139.8903  134.9507  156.6427 H   0  0  0  0  0  0  0  0  0  0  0  0  # atno 11005 bound_to 11000
  145.7513  140.9971  143.1249 LP  0  0  0  0  0  0  0  0  0  0  0  0  # atno 17320 bound_to 7965
  144.6914  139.9218  143.7468 LP  0  0  0  0  0  0  0  0  0  0  0  0  # atno 17321 bound_to 7965
  140.6475  143.8764  150.6752 LP  0  0  0  0  0  0  0  0  0  0  0  0  # atno 17342 bound_to 10162
  140.2118  143.3877  152.1712 LP  0  0  0  0  0  0  0  0  0  0  0  0  # atno 17343 bound_to 10162
  156.1072  130.6013  150.9990 LP  0  0  0  0  0  0  0  0  0  0  0  0  # atno 17370 bound_to 10713
  157.6529  131.0894  150.8010 LP  0  0  0  0  0  0  0  0  0  0  0  0  # atno 17371 bound_to 10713
  140.7581  133.8840  155.8397 LP  0  0  0  0  0  0  0  0  0  0  0  0  # atno 17394 bound_to 11000
  140.9945  134.1234  157.4377 LP  0  0  0  0  0  0  0  0  0  0  0  0  # atno 17395 bound_to 11000

$$$$
