#       Name:                AV-unprocessed.smi:401
#       Creating user name   scv26
#       Creation time:       Thu Mar 26 22:44:04 2020


#       File generated by GOLD software.
#

@<TRIPOS>MOLECULE
AV-unprocessed.smi:401
    49    50     1
SMALL
NO_CHARGES


@<TRIPOS>ATOM
      1 ****        -2.9855   2.5052   1.7844 C.3            1 S1                 0.0000
      2 ****        -3.4396   2.0552   0.3834 C.3            1 S1                 0.0000
      3 ****        -4.9695   2.1406   0.2681 C.3            1 S1                 0.0000
      4 ****        -2.9484   0.6391   0.0032 C.3            1 S1                 0.0000
      5 ****        -1.4297   0.5308  -0.1720 C.2            1 S1                 0.0000
      6 ****        -0.6922   0.5112   0.8130 O.2            1 S1                 0.0000
      7 ****        -0.9806   0.4331  -1.4331 N.am           1 S1                 0.0000
      8 ****         0.4168   0.2727  -1.8165 C.3            1 S1                 0.0000
      9 ****         0.8770  -1.1797  -1.7453 C.ar           1 S1                 0.0000
     10 ****         0.4297  -2.0858  -2.7303 C.ar           1 S1                 0.0000
     11 ****         0.8219  -3.4343  -2.6564 C.ar           1 S1                 0.0000
     12 ****         1.6495  -3.8287  -1.5900 C.ar           1 S1                 0.0000
     13 ****         2.0839  -2.9769  -0.6389 N.ar           1 S1                 0.0000
     14 ****         1.7090  -1.6759  -0.7056 C.ar           1 S1                 0.0000
     15 ****         2.1892  -0.8171   0.2976 N.3            1 S1                 0.0000
     16 ****         3.4258  -0.1377  -0.0634 C.3            1 S1                 0.0000
     17 ****         3.7376   0.9582   0.9701 C.3            1 S1                 0.0000
     18 ****         3.7843   0.3880   2.2756 O.3            1 S1                 0.0000
     19 ****         2.5448  -0.2114   2.6449 C.3            1 S1                 0.0000
     20 ****         2.2050  -1.3414   1.6584 C.3            1 S1                 0.0000
     21 ****        -3.3148   1.8035   2.5514 H              1 S1                 0.0000
     22 ****        -3.3972   3.4837   2.0331 H              1 S1                 0.0000
     23 ****        -1.9016   2.5923   1.8529 H              1 S1                 0.0000
     24 ****        -3.0258   2.7613  -0.3382 H              1 S1                 0.0000
     25 ****        -5.4576   1.4545   0.9611 H              1 S1                 0.0000
     26 ****        -5.3041   1.8903  -0.7391 H              1 S1                 0.0000
     27 ****        -5.3261   3.1469   0.4894 H              1 S1                 0.0000
     28 ****        -3.2617  -0.0797   0.7615 H              1 S1                 0.0000
     29 ****        -3.4284   0.3216  -0.9240 H              1 S1                 0.0000
     30 ****        -1.6590   0.4564  -2.1806 H              1 S1                 0.0000
     31 ****         0.5204   0.6131  -2.8471 H              1 S1                 0.0000
     32 ****         1.0462   0.9387  -1.2262 H              1 S1                 0.0000
     33 ****        -0.2120  -1.7517  -3.5326 H              1 S1                 0.0000
     34 ****         0.4935  -4.1495  -3.3960 H              1 S1                 0.0000
     35 ****         1.9709  -4.8554  -1.4973 H              1 S1                 0.0000
     36 ****         4.2385  -0.8645  -0.0961 H              1 S1                 0.0000
     37 ****         3.3453   0.2982  -1.0596 H              1 S1                 0.0000
     38 ****         4.6991   1.4216   0.7492 H              1 S1                 0.0000
     39 ****         2.9860   1.7487   0.9346 H              1 S1                 0.0000
     40 ****         2.6284  -0.6077   3.6567 H              1 S1                 0.0000
     41 ****         1.7548   0.5413   2.6603 H              1 S1                 0.0000
     42 ****         1.2326  -1.7719   1.9002 H              1 S1                 0.0000
     43 ****         2.9456  -2.1381   1.7409 H              1 S1                 0.0000
     44 ****        -1.0834   0.5661   1.7316 LP             1 S1                 0.0000
     45 ****         0.2982   0.4405   0.6947 LP             1 S1                 0.0000
     46 ****         2.6722  -3.2994   0.1025 LP             1 S1                 0.0000
     47 ****         1.4730  -0.1203   0.3373 LP             1 S1                 0.0000
     48 ****         4.0028   1.1082   2.9341 LP             1 S1                 0.0000
     49 ****         4.4991  -0.3109   2.2965 LP             1 S1                 0.0000
@<TRIPOS>BOND
    1    1    2 1     
    2    1   21 1     
    3    1   22 1     
    4    1   23 1     
    5    2    3 1     
    6    2    4 1     
    7    2   24 1     
    8    3   25 1     
    9    3   26 1     
   10    3   27 1     
   11    4    5 1     
   12    4   28 1     
   13    4   29 1     
   14    5    6 2     
   15    5    7 am    
   16    7    8 1     
   17    7   30 1     
   18    8    9 1     
   19    8   31 1     
   20    8   32 1     
   21    9   14 ar    
   22    9   10 ar    
   23   10   11 ar    
   24   10   33 1     
   25   11   12 ar    
   26   11   34 1     
   27   12   13 ar    
   28   12   35 1     
   29   13   14 ar    
   30   14   15 1     
   31   15   20 1     
   32   15   16 1     
   33   16   17 1     
   34   16   36 1     
   35   16   37 1     
   36   17   18 1     
   37   17   38 1     
   38   17   39 1     
   39   18   19 1     
   40   19   20 1     
   41   19   40 1     
   42   19   41 1     
   43   20   42 1     
   44   20   43 1     
   45    6   44 1     
   46    6   45 1     
   47   13   46 1     
   48   15   47 1     
   49   18   48 1     
   50   18   49 1     
@<TRIPOS>SUBSTRUCTURE
      1 S1             1
@<TRIPOS>SET
LONE_PAIRS      STATIC     ATOMS    <user>   **** ""
6 44 45 46 47 48 49
DONOR_HYDROGENS      STATIC     ATOMS    <user>   **** ""
1 30
ATOM$BLUE        STATIC     ATOMS    COLORGROUP SYSTEM
6 44 45 46 47 48 49
ATOM$RED        STATIC     ATOMS    COLORGROUP SYSTEM
1 30
