AV-unprocessed.smi:497|AV-procd|sdf|2724|dock1
  -GOLD-   2262023173D 1   1.00000     0.00000
 Structure written by MMmdl.
 39 41  0  0  0  0  0  0  0  0  1 V2000
  152.1508  139.3041  155.2813 C   0  0  0  0  0  0  0  0  0  0  0  0
  151.0153  139.9645  154.7505 O   0  0  0  0  0  0  0  0  0  0  0  0
  149.8037  139.4988  155.3191 C   0  0  0  0  0  0  0  0  0  0  0  0
  149.4179  140.4175  156.4848 C   0  0  0  0  0  0  0  0  0  0  0  0
  150.3917  140.3518  157.5635 N   0  0  0  0  0  0  0  0  0  0  0  0
  150.7436  139.2770  158.3145 C   0  0  0  0  0  0  0  0  0  0  0  0
  150.1048  137.9285  158.0886 C   0  0  0  0  0  0  0  0  0  0  0  0
  149.2485  137.5501  159.2109 N   0  0  0  0  0  0  0  0  0  0  0  0
  148.7417  136.3242  159.4174 C   0  0  0  0  0  0  0  0  0  0  0  0
  148.9679  135.3636  158.6817 O   0  0  0  0  0  0  0  0  0  0  0  0
  147.8659  136.1807  160.5955 C   0  0  0  0  0  0  0  0  0  0  0  0
  147.3729  135.0585  161.2055 C   0  0  0  0  0  0  0  0  0  0  0  0
  146.5772  135.5043  162.2969 C   0  0  0  0  0  0  0  0  0  0  0  0
  146.6412  136.8679  162.2763 C   0  0  0  0  0  0  0  0  0  0  0  0
  147.4217  137.2963  161.2472 O   0  0  0  0  0  0  0  0  0  0  0  0
  151.6908  139.5057  159.2300 N   0  0  0  0  0  0  0  0  0  0  0  0
  151.9680  140.8472  159.0616 C   0  0  0  0  0  0  0  0  0  0  0  0
  152.8822  141.6878  159.7359 C   0  0  0  0  0  0  0  0  0  0  0  0
  152.9977  143.0476  159.3794 C   0  0  0  0  0  0  0  0  0  0  0  0
  152.2032  143.5842  158.3455 C   0  0  0  0  0  0  0  0  0  0  0  0
  151.2862  142.7631  157.6612 C   0  0  0  0  0  0  0  0  0  0  0  0
  151.1735  141.4071  158.0227 C   0  0  0  0  0  0  0  0  0  0  0  0
  153.0544  139.6968  154.8150 H   0  0  0  0  0  0  0  0  0  0  0  0
  152.1103  138.2315  155.0863 H   0  0  0  0  0  0  0  0  0  0  0  0
  152.2314  139.4614  156.3577 H   0  0  0  0  0  0  0  0  0  0  0  0
  149.0159  139.4935  154.5643 H   0  0  0  0  0  0  0  0  0  0  0  0
  149.9280  138.4743  155.6738 H   0  0  0  0  0  0  0  0  0  0  0  0
  149.3515  141.4498  156.1394 H   0  0  0  0  0  0  0  0  0  0  0  0
  148.4296  140.1617  156.8650 H   0  0  0  0  0  0  0  0  0  0  0  0
  149.5291  137.9369  157.1623 H   0  0  0  0  0  0  0  0  0  0  0  0
  150.8876  137.1784  157.9777 H   0  0  0  0  0  0  0  0  0  0  0  0
  148.9996  138.2798  159.8627 H   0  0  0  0  0  0  0  0  0  0  0  0
  147.5613  134.0394  160.9011 H   0  0  0  0  0  0  0  0  0  0  0  0
  146.0278  134.9036  163.0064 H   0  0  0  0  0  0  0  0  0  0  0  0
  146.2139  137.6486  162.8884 H   0  0  0  0  0  0  0  0  0  0  0  0
  153.4960  141.2851  160.5279 H   0  0  0  0  0  0  0  0  0  0  0  0
  153.7004  143.6810  159.9007 H   0  0  0  0  0  0  0  0  0  0  0  0
  152.2982  144.6263  158.0776 H   0  0  0  0  0  0  0  0  0  0  0  0
  150.6777  143.1711  156.8678 H   0  0  0  0  0  0  0  0  0  0  0  0
  1  2  1  0  0  0  0
  1 23  1  0  0  0  0
  1 24  1  0  0  0  0
  1 25  1  0  0  0  0
  2  3  1  0  0  0  0
  3  4  1  0  0  0  0
  3 26  1  0  0  0  0
  3 27  1  0  0  0  0
  4  5  1  0  0  0  0
  4 28  1  0  0  0  0
  4 29  1  0  0  0  0
  5 22  1  0  0  0  0
  5  6  1  0  0  0  0
  6  7  1  0  0  0  0
  6 16  2  0  0  0  0
  7  8  1  0  0  0  0
  7 30  1  0  0  0  0
  7 31  1  0  0  0  0
  8  9  1  0  0  0  0
  8 32  1  0  0  0  0
  9 10  2  0  0  0  0
  9 11  1  0  0  0  0
 11 15  1  0  0  0  0
 11 12  2  0  0  0  0
 12 13  1  0  0  0  0
 12 33  1  0  0  0  0
 13 14  2  0  0  0  0
 13 34  1  0  0  0  0
 14 15  1  0  0  0  0
 14 35  1  0  0  0  0
 16 17  1  0  0  0  0
 17 22  2  0  0  0  0
 17 18  1  0  0  0  0
 18 19  2  0  0  0  0
 18 36  1  0  0  0  0
 19 20  1  0  0  0  0
 19 37  1  0  0  0  0
 20 21  2  0  0  0  0
 20 38  1  0  0  0  0
 21 22  1  0  0  0  0
 21 39  1  0  0  0  0
M  END
> <s_m_source_file>
AV-unprocessed.smi

> <i_m_source_file_index>
497

> <i_lp_mmshare_version>
43012

> <i_f3d_flags>
0

> <s_epik_input>
W2NIXTFbY0hdW2NIXVtjSF1jKGMxMiluKFtDSDJdW0NIMl1PW0NIM10pYyhuMilbQ0gyXVtOSF1DKD1PKWMzW2NIXVtjSF1bY0hdbzM=

> <s_epik_cmdline>
J2VwaWtfcHl0aG9uJywgJy1waCcsICc3LjAnLCAnLXRuJywgJzgnLCAnLW1hJywgJzIwMCcsICctbWV0YWxfYmluZGluZycsICctaW1hZScsICc8aW5maWxlLm1hZT4nLCAnLW9tYWUnLCAnPG91dGZpbGUubWFlPic=

> <r_epik_Ionization_Penalty>
0.0745911

> <r_epik_Ionization_Penalty_Charging>
0

> <r_epik_Ionization_Penalty_Neutral>
0.0745911

> <r_epik_State_Penalty>
0.0656752

> <r_epik_Charging_Adjusted_Penalty>
0.0656752

> <i_epik_Tot_Q>
0

> <i_epik_Tot_abs_Q>
0

> <r_epik_Metal_State_Penalty>
0.069874

> <b_epik_Metal_Only>
0

> <s_lp_Force_Field>
OPLS_2005

> <r_lp_Energy>
10.4941

> <b_lp_Chiralities_Consistent>
1

> <s_lp_Variant>
AV-unprocessed.smi:497-1

> <Gold.Version>
5.8.1

> <Gold.Id.Protein>
6NUR|6NUR_protein|mol2

> <Gold.PLP.Fitness>
56.2397

> <Gold.PLP.PLP>
-45.5126

> <Gold.PLP.part.hbond>
-4.0000

> <Gold.PLP.part.metal>
0.0000

> <Gold.PLP.part.buried>
-6.5133

> <Gold.PLP.part.nonpolar>
-36.1740

> <Gold.PLP.part.repulsive>
0.3068

> <Gold.PLP.ligand.clash>
0.0000

> <Gold.PLP.ligand.torsion>
0.4590

> <Gold.PLP.Chemscore.Hbond>
3.7920

> <Gold.PLP.Chemscore.CHOScore>
0.0000

> <Gold.PLP.Chemscore.Metal>
0.0000

> <Gold.Chemscore.Hbonds>
donor molecule, donor type, donor heavy atom, donor atom, acceptor molecule, acceptor atom, score
      P1  H  6896  6907       L1    10  0.83
      P1  H  6931  6943       L1    15  0.83
      P1  H  6934  6947       L1    15  0.96
      P1  H  7989  7998       L1     2  1.00

> <Gold.PLP.Chemscore.Internal.Correction>
0.2691

> <Gold.Rescore>
     Score         DG    S(hbond)    S(metal)    S(lipo)     H(rot)  DE(clash)    DE(int)     intcor
     22.57     -23.17       2.79        0.00     113.09       1.90       0.13       0.46       ----

> <Gold.Chemscore.Fitness>
22.5695

> <Gold.Chemscore.DG>
-23.1691

> <Gold.Chemscore.ZeroCoef>
-5.4800

> <Gold.Chemscore.Hbond>
2.7941

> <Gold.Chemscore.Metal>
0.0000

> <Gold.Chemscore.Lipo>
113.0852

> <Gold.Chemscore.Internal_Hbond>
0.0000

> <Gold.Chemscore.DEClash>
0.1349

> <Gold.Chemscore.DEInternal>
0.4647

> <Gold.Chemscore.Rot>
1.9039

> <Gold.Chemscore.Internal.Correction>
   9.000000E+99

> <Gold.Chemscore.Hbonds>
donor molecule, donor type, donor heavy atom, donor atom, acceptor molecule, acceptor atom, score
      P1  H  6896  6907       L1    10  0.18
      P1  H  6931  6943       L1    15  0.38
      P1  H  6934  6947       L1    15  0.72
      P1  H  7989  7998       L1     2  0.45

> <Gold.Chemscore.Hbond.Weighted>
-9.3321

> <Gold.Chemscore.Metal.Weighted>
-0.0000

> <Gold.Chemscore.Lipo.Weighted>
-13.2310

> <Gold.Chemscore.Internal_Hbond.Weighted>
0.0000

> <Gold.Chemscore.DEClash.Weighted>
0.1349

> <Gold.Chemscore.DEInternal.Weighted>
0.4647

> <Gold.Chemscore.Rot.Weighted>
4.8740

> <Gold.Chemscore.Internal.Correction.Weighted>
   9.000000E+99

> <Gold.Protein.RotatedTorsions>
[ 6907 6896 6895 6894 ] final  -65.02 input  -60.11 | X-H torsion
[ 7974 7965 7964 7962 ] final  117.14 input  175.53 | X-H torsion
[ 8008 7997 7996 7995 ] final -178.18 input   59.86 | X-H torsion
[ 10167 10162 10161 10158 ] final  135.90 input  -65.29 | X-H torsion
[ 10718 10713 10712 10709 ] final  -23.83 input   66.30 | X-H torsion
[ 10763 10752 10751 10750 ] final  146.46 input  -60.55 | X-H torsion
[ 11005 11000 10999 10996 ] final  165.47 input  -57.11 | X-H torsion

> <Gold.Protein.ActiveResidues>
 VAL166  LYS551  ARG553  GLY616  TRP617  ASP618  TYR619  PRO620  LYS621  CYS622 
 ASP623  PHE694  ASN695  SER759  ASP760  ASP761  ALA762  ILE779  LEU786  VAL792 
 PHE793  MET794  SER795  GLU796  ALA797  LYS798  CYS799  TRP800  GLU811  SER814 

> <Gold.Protein.RotatedAtoms>
  150.7549  134.6217  159.6139 H   0  0  0  0  0  0  0  0  0  0  0  0  # atno 6907 bound_to 6896
  152.3521  134.6987  160.0242 H   0  0  0  0  0  0  0  0  0  0  0  0  # atno 6908 bound_to 6896
  151.7405  133.3286  159.3401 H   0  0  0  0  0  0  0  0  0  0  0  0  # atno 6909 bound_to 6896
  145.1710  139.3101  143.4467 H   0  0  0  0  0  0  0  0  0  0  0  0  # atno 7974 bound_to 7965
  156.0157  140.1250  157.0408 H   0  0  0  0  0  0  0  0  0  0  0  0  # atno 8008 bound_to 7997
  154.4292  140.1079  156.5962 H   0  0  0  0  0  0  0  0  0  0  0  0  # atno 8009 bound_to 7997
  155.6016  140.3470  155.4598 H   0  0  0  0  0  0  0  0  0  0  0  0  # atno 8010 bound_to 7997
  139.5200  144.6493  151.5349 H   0  0  0  0  0  0  0  0  0  0  0  0  # atno 10167 bound_to 10162
  156.4858  130.4555  149.6785 H   0  0  0  0  0  0  0  0  0  0  0  0  # atno 10718 bound_to 10713
  154.0222  135.2905  155.3379 H   0  0  0  0  0  0  0  0  0  0  0  0  # atno 10763 bound_to 10752
  154.7039  135.5177  153.8570 H   0  0  0  0  0  0  0  0  0  0  0  0  # atno 10764 bound_to 10752
  153.0676  135.6636  154.0443 H   0  0  0  0  0  0  0  0  0  0  0  0  # atno 10765 bound_to 10752
  140.2565  134.7936  157.3550 H   0  0  0  0  0  0  0  0  0  0  0  0  # atno 11005 bound_to 11000
  146.3468  140.1856  142.8589 LP  0  0  0  0  0  0  0  0  0  0  0  0  # atno 17320 bound_to 7965
  145.0232  140.8811  143.5154 LP  0  0  0  0  0  0  0  0  0  0  0  0  # atno 17321 bound_to 7965
  140.6291  143.9111  150.6590 LP  0  0  0  0  0  0  0  0  0  0  0  0  # atno 17342 bound_to 10162
  140.2409  143.3664  152.1487 LP  0  0  0  0  0  0  0  0  0  0  0  0  # atno 17343 bound_to 10162
  156.3476  130.7415  151.2370 LP  0  0  0  0  0  0  0  0  0  0  0  0  # atno 17370 bound_to 10713
  157.7479  131.0386  150.4511 LP  0  0  0  0  0  0  0  0  0  0  0  0  # atno 17371 bound_to 10713
  140.1506  134.4854  155.7964 LP  0  0  0  0  0  0  0  0  0  0  0  0  # atno 17394 bound_to 11000
  141.2195  133.6861  156.7372 LP  0  0  0  0  0  0  0  0  0  0  0  0  # atno 17395 bound_to 11000

$$$$
