AV-unprocessed.smi:2067|AV-procd|sdf|8423|dock4
  -GOLD-   2272011113D 1   1.00000     0.00000
 Structure written by MMmdl.
 47 48  0  0  0  0  0  0  0  0  1 V2000
  152.6249  143.8343  158.3275 C   0  0  0  0  0  0  0  0  0  0  0  0
  152.3320  143.2792  159.7312 C   0  0  2  0  0  0  0  0  0  0  0  0
  152.1336  144.4299  160.7385 C   0  0  0  0  0  0  0  0  0  0  0  0
  151.8434  143.9068  162.1533 C   0  0  0  0  0  0  0  0  0  0  0  0
  152.9520  142.9570  162.6269 C   0  0  0  0  0  0  0  0  0  0  0  0
  153.1470  141.7994  161.6368 C   0  0  0  0  0  0  0  0  0  0  0  0
  153.4423  142.3162  160.2117 C   0  0  1  0  0  0  0  0  0  0  0  0
  153.4961  141.2291  159.2954 O   0  0  0  0  0  0  0  0  0  0  0  0
  152.2703  140.5337  159.1198 C   0  0  0  0  0  0  0  0  0  0  0  0
  152.5780  139.0509  158.8951 C   0  0  0  0  0  0  0  0  0  0  0  0
  151.3572  138.2617  158.8582 N   0  0  0  0  0  0  0  0  0  0  0  0
  150.9234  137.4218  157.8374 C   0  0  0  0  0  0  0  0  0  0  0  0
  151.6360  137.2687  156.6856 C   0  0  0  0  0  0  0  0  0  0  0  0
  152.8548  137.9641  156.4132 C   0  0  0  0  0  0  0  0  0  0  0  0
  153.8314  138.5463  156.1924 N   0  0  0  0  0  0  0  0  0  0  0  0
  151.1775  136.4048  155.6000 C   0  0  0  0  0  0  0  0  0  0  0  0
  151.8019  136.2292  154.5507 O   0  0  0  0  0  0  0  0  0  0  0  0
  149.9413  135.7692  155.8320 N   0  0  0  0  0  0  0  0  0  0  0  0
  149.4496  134.9156  154.7682 C   0  0  0  0  0  0  0  0  0  0  0  0
  149.1794  135.9159  157.0101 C   0  0  0  0  0  0  0  0  0  0  0  0
  148.0994  135.3372  157.1619 O   0  0  0  0  0  0  0  0  0  0  0  0
  149.7068  136.7573  158.0205 N   0  0  0  0  0  0  0  0  0  0  0  0
  148.8889  136.8509  159.2134 C   0  0  0  0  0  0  0  0  0  0  0  0
  153.5613  144.3928  158.3093 H   0  0  0  0  0  0  0  0  0  0  0  0
  151.8310  144.5048  157.9976 H   0  0  0  0  0  0  0  0  0  0  0  0
  152.7005  143.0343  157.5906 H   0  0  0  0  0  0  0  0  0  0  0  0
  151.3975  142.7186  159.6767 H   0  0  0  0  0  0  0  0  0  0  0  0
  153.0254  145.0581  160.7604 H   0  0  0  0  0  0  0  0  0  0  0  0
  151.3138  145.0715  160.4136 H   0  0  0  0  0  0  0  0  0  0  0  0
  151.7481  144.7428  162.8468 H   0  0  0  0  0  0  0  0  0  0  0  0
  150.8849  143.3864  162.1627 H   0  0  0  0  0  0  0  0  0  0  0  0
  153.8867  143.5088  162.7329 H   0  0  0  0  0  0  0  0  0  0  0  0
  152.7096  142.5651  163.6150 H   0  0  0  0  0  0  0  0  0  0  0  0
  153.9571  141.1640  161.9931 H   0  0  0  0  0  0  0  0  0  0  0  0
  152.2507  141.1779  161.6223 H   0  0  0  0  0  0  0  0  0  0  0  0
  154.3922  142.8543  160.2069 H   0  0  0  0  0  0  0  0  0  0  0  0
  151.6540  140.6404  160.0135 H   0  0  0  0  0  0  0  0  0  0  0  0
  151.7019  140.9316  158.2788 H   0  0  0  0  0  0  0  0  0  0  0  0
  153.1319  138.9102  157.9665 H   0  0  0  0  0  0  0  0  0  0  0  0
  153.2137  138.7027  159.7090 H   0  0  0  0  0  0  0  0  0  0  0  0
  151.0443  137.9985  159.7822 H   0  0  0  0  0  0  0  0  0  0  0  0
  148.4683  134.5051  155.0028 H   0  0  0  0  0  0  0  0  0  0  0  0
  150.1716  134.1063  154.6454 H   0  0  0  0  0  0  0  0  0  0  0  0
  149.3801  135.5270  153.8664 H   0  0  0  0  0  0  0  0  0  0  0  0
  147.9492  137.3266  158.9268 H   0  0  0  0  0  0  0  0  0  0  0  0
  149.3890  137.4404  159.9786 H   0  0  0  0  0  0  0  0  0  0  0  0
  148.7324  135.8381  159.5895 H   0  0  0  0  0  0  0  0  0  0  0  0
  1  2  1  0  0  0  0
  1 24  1  0  0  0  0
  1 25  1  0  0  0  0
  1 26  1  0  0  0  0
  2  7  1  0  0  0  0
  2  3  1  0  0  0  0
  2 27  1  0  0  0  0
  3  4  1  0  0  0  0
  3 28  1  0  0  0  0
  3 29  1  0  0  0  0
  4  5  1  0  0  0  0
  4 30  1  0  0  0  0
  4 31  1  0  0  0  0
  5  6  1  0  0  0  0
  5 32  1  0  0  0  0
  5 33  1  0  0  0  0
  6  7  1  0  0  0  0
  6 34  1  0  0  0  0
  6 35  1  0  0  0  0
  7  8  1  0  0  0  0
  7 36  1  0  0  0  0
  8  9  1  0  0  0  0
  9 10  1  0  0  0  0
  9 37  1  0  0  0  0
  9 38  1  0  0  0  0
 10 11  1  0  0  0  0
 10 39  1  0  0  0  0
 10 40  1  0  0  0  0
 11 12  1  0  0  0  0
 11 41  1  0  0  0  0
 12 22  1  0  0  0  0
 12 13  2  0  0  0  0
 13 14  1  0  0  0  0
 13 16  1  0  0  0  0
 14 15  3  0  0  0  0
 16 17  2  0  0  0  0
 16 18  1  0  0  0  0
 18 19  1  0  0  0  0
 18 20  1  0  0  0  0
 19 42  1  0  0  0  0
 19 43  1  0  0  0  0
 19 44  1  0  0  0  0
 20 21  2  0  0  0  0
 20 22  1  0  0  0  0
 22 23  1  0  0  0  0
 23 45  1  0  0  0  0
 23 46  1  0  0  0  0
 23 47  1  0  0  0  0
M  END
> <s_m_source_file>
AV-unprocessed.smi

> <i_m_source_file_index>
2067

> <i_lp_mmshare_version>
43012

> <i_f3d_flags>
0

> <s_epik_input>
W0NIM11bQ0BASF0xW0NIMl1bQ0gyXVtDSDJdW0NIMl1bQ0BIXTFPW0NIMl1bQ0gyXVtOSF1jMmMoQyNOKWMoPU8pbihbQ0gzXSljKD1PKW4yW0NIM10=

> <s_epik_cmdline>
J2VwaWtfcHl0aG9uJywgJy1waCcsICc3LjAnLCAnLXRuJywgJzgnLCAnLW1hJywgJzIwMCcsICctbWV0YWxfYmluZGluZycsICctaW1hZScsICc8aW5maWxlLm1hZT4nLCAnLW9tYWUnLCAnPG91dGZpbGUubWFlPic=

> <r_epik_Ionization_Penalty>
0.00056529

> <r_epik_Ionization_Penalty_Charging>
3.94678e-10

> <r_epik_Ionization_Penalty_Neutral>
0.000565289

> <r_epik_State_Penalty>
0.000354611

> <r_epik_Charging_Adjusted_Penalty>
0.000354611

> <i_epik_Tot_Q>
0

> <i_epik_Tot_abs_Q>
0

> <r_epik_Metal_State_Penalty>
-0

> <b_epik_Metal_Only>
0

> <s_lp_Force_Field>
OPLS_2005

> <r_lp_Energy>
32.0891

> <b_lp_Chiralities_Consistent>
1

> <s_lp_Variant>
AV-unprocessed.smi:2067-1

> <Gold.Version>
5.8.1

> <Gold.Id.Protein>
6NUR|6NUR_protein|mol2

> <Gold.PLP.Fitness>
46.8379

> <Gold.PLP.PLP>
-41.5680

> <Gold.PLP.part.hbond>
-2.0000

> <Gold.PLP.part.metal>
0.0000

> <Gold.PLP.part.buried>
-3.2743

> <Gold.PLP.part.nonpolar>
-36.7621

> <Gold.PLP.part.repulsive>
0.8463

> <Gold.PLP.ligand.clash>
8.7922

> <Gold.PLP.ligand.torsion>
0.2595

> <Gold.PLP.Chemscore.Hbond>
1.9280

> <Gold.PLP.Chemscore.CHOScore>
0.0000

> <Gold.PLP.Chemscore.Metal>
0.0000

> <Gold.Chemscore.Hbonds>
donor molecule, donor type, donor heavy atom, donor atom, acceptor molecule, acceptor atom, score
      P1  H  7997  8010       L1    15  0.64
      P1  H 10752 10765       L1    17  0.41

> <Gold.PLP.Chemscore.Internal.Correction>
8.7971

> <Gold.Rescore>
     Score         DG    S(hbond)    S(metal)    S(lipo)     H(rot)  DE(clash)    DE(int)     intcor
     16.01     -19.83       1.84        0.00     108.50       1.76       1.14       2.68       ----

> <Gold.Chemscore.Fitness>
16.0128

> <Gold.Chemscore.DG>
-19.8262

> <Gold.Chemscore.ZeroCoef>
-5.4800

> <Gold.Chemscore.Hbond>
1.8422

> <Gold.Chemscore.Metal>
0.0000

> <Gold.Chemscore.Lipo>
108.4990

> <Gold.Chemscore.Internal_Hbond>
0.0000

> <Gold.Chemscore.DEClash>
1.1382

> <Gold.Chemscore.DEInternal>
2.6753

> <Gold.Chemscore.Rot>
1.7583

> <Gold.Chemscore.Internal.Correction>
   9.000000E+99

> <Gold.Chemscore.Hbonds>
donor molecule, donor type, donor heavy atom, donor atom, acceptor molecule, acceptor atom, score
      P1  H  7997  8010       L1    15  0.64
      P1  H 10752 10765       L1    17  0.39

> <Gold.Chemscore.Hbond.Weighted>
-6.1530

> <Gold.Chemscore.Metal.Weighted>
-0.0000

> <Gold.Chemscore.Lipo.Weighted>
-12.6944

> <Gold.Chemscore.Internal_Hbond.Weighted>
0.0000

> <Gold.Chemscore.DEClash.Weighted>
1.1382

> <Gold.Chemscore.DEInternal.Weighted>
2.6753

> <Gold.Chemscore.Rot.Weighted>
4.5012

> <Gold.Chemscore.Internal.Correction.Weighted>
   9.000000E+99

> <Gold.Protein.RotatedTorsions>
[ 6907 6896 6895 6894 ] final   -3.32 input  -60.11 | X-H torsion
[ 7974 7965 7964 7962 ] final  -60.65 input  175.53 | X-H torsion
[ 8008 7997 7996 7995 ] final   77.40 input   59.86 | X-H torsion
[ 10167 10162 10161 10158 ] final -119.93 input  -65.29 | X-H torsion
[ 10718 10713 10712 10709 ] final  -86.27 input   66.30 | X-H torsion
[ 10763 10752 10751 10750 ] final  163.13 input  -60.55 | X-H torsion
[ 11005 11000 10999 10996 ] final   38.36 input  -57.11 | X-H torsion

> <Gold.Protein.ActiveResidues>
 VAL166  LYS551  ARG553  GLY616  TRP617  ASP618  TYR619  PRO620  LYS621  CYS622 
 ASP623  PHE694  ASN695  SER759  ASP760  ASP761  ALA762  ILE779  LEU786  VAL792 
 PHE793  MET794  SER795  GLU796  ALA797  LYS798  CYS799  TRP800  GLU811  SER814 

> <Gold.Protein.RotatedAtoms>
  151.5157  135.1066  159.9865 H   0  0  0  0  0  0  0  0  0  0  0  0  # atno 6907 bound_to 6896
  152.4642  133.7883  159.6899 H   0  0  0  0  0  0  0  0  0  0  0  0  # atno 6908 bound_to 6896
  150.8618  133.7568  159.3015 H   0  0  0  0  0  0  0  0  0  0  0  0  # atno 6909 bound_to 6896
  145.8130  140.8587  143.0172 H   0  0  0  0  0  0  0  0  0  0  0  0  # atno 7974 bound_to 7965
  155.8410  140.3462  155.5632 H   0  0  0  0  0  0  0  0  0  0  0  0  # atno 8008 bound_to 7997
  155.8140  140.0903  157.1907 H   0  0  0  0  0  0  0  0  0  0  0  0  # atno 8009 bound_to 7997
  154.4005  140.1442  156.3408 H   0  0  0  0  0  0  0  0  0  0  0  0  # atno 8010 bound_to 7997
  140.0414  143.5150  152.2128 H   0  0  0  0  0  0  0  0  0  0  0  0  # atno 10167 bound_to 10162
  155.9991  130.4759  150.4689 H   0  0  0  0  0  0  0  0  0  0  0  0  # atno 10718 bound_to 10713
  154.2890  135.2761  155.2663 H   0  0  0  0  0  0  0  0  0  0  0  0  # atno 10763 bound_to 10752
  154.5150  135.5772  153.6638 H   0  0  0  0  0  0  0  0  0  0  0  0  # atno 10764 bound_to 10752
  152.9917  135.6190  154.3054 H   0  0  0  0  0  0  0  0  0  0  0  0  # atno 10765 bound_to 10752
  140.2134  134.3727  155.8038 H   0  0  0  0  0  0  0  0  0  0  0  0  # atno 11005 bound_to 11000
  144.6755  140.0423  143.7480 LP  0  0  0  0  0  0  0  0  0  0  0  0  # atno 17320 bound_to 7965
  145.9757  139.2903  143.1072 LP  0  0  0  0  0  0  0  0  0  0  0  0  # atno 17321 bound_to 7965
  139.6012  144.7583  151.3168 LP  0  0  0  0  0  0  0  0  0  0  0  0  # atno 17342 bound_to 10162
  140.7258  143.7006  150.7848 LP  0  0  0  0  0  0  0  0  0  0  0  0  # atno 17343 bound_to 10162
  157.2706  131.0586  151.2262 LP  0  0  0  0  0  0  0  0  0  0  0  0  # atno 17370 bound_to 10713
  157.3344  130.7001  149.6344 LP  0  0  0  0  0  0  0  0  0  0  0  0  # atno 17371 bound_to 10713
  141.2225  133.7155  156.8456 LP  0  0  0  0  0  0  0  0  0  0  0  0  # atno 17394 bound_to 11000
  140.1926  134.8954  157.3078 LP  0  0  0  0  0  0  0  0  0  0  0  0  # atno 17395 bound_to 11000

$$$$
