#       Name:                AV-unprocessed.smi:3263
#       Creating user name   scv26
#       Creation time:       Fri Mar 27 18:38:43 2020


#       File generated by GOLD software.
#

@<TRIPOS>MOLECULE
AV-unprocessed.smi:3263
    44    46     1
SMALL
NO_CHARGES


@<TRIPOS>ATOM
      1 ****         1.2460   0.7499   0.0373 O.2            1 S1                 0.0000
      2 ****         0.8648  -0.3397  -0.3917 C.2            1 S1                 0.0000
      3 ****        -0.6311  -0.6528  -0.5136 C.3            1 S1                 0.0000
      4 ****        -1.5226   0.5986  -0.6840 C.3            1 S1                 0.0000
      5 ****        -1.2758   1.3797  -1.9976 C.3            1 S1                 0.0000
      6 ****        -2.6761   1.4467  -2.6326 C.3            1 S1                 0.0000
      7 ****        -3.5760   2.3788  -1.8000 C.3            1 S1                 0.0000
      8 ****        -3.8450   1.5462  -0.5321 C.3            1 S1                 0.0000
      9 ****        -3.0287   0.2646  -0.7885 C.3            1 S1                 0.0000
     10 ****        -3.2352   0.0724  -2.2882 C.3            1 S1                 0.0000
     11 ****         1.7040  -1.3199  -0.7624 N.am           1 S1                 0.0000
     12 ****         3.1627  -1.2553  -0.7075 C.3            1 S1                 0.0000
     13 ****         3.7341  -1.8866   0.5774 C.3            1 S1                 0.0000
     14 ****         3.2587  -1.2151   1.8549 C.ar           1 S1                 0.0000
     15 ****         2.2484  -1.8026   2.6469 C.ar           1 S1                 0.0000
     16 ****         1.8258  -1.1243   3.8064 C.ar           1 S1                 0.0000
     17 ****         2.4278   0.1071   4.1291 C.ar           1 S1                 0.0000
     18 ****         3.4310   0.6067   3.2750 C.ar           1 S1                 0.0000
     19 ****         3.8450  -0.0361   2.1619 N.ar           1 S1                 0.0000
     20 ****        -0.7849  -1.3387  -1.3476 H              1 S1                 0.0000
     21 ****        -0.9297  -1.1911   0.3866 H              1 S1                 0.0000
     22 ****        -1.3626   1.2532   0.1746 H              1 S1                 0.0000
     23 ****        -0.8526   2.3686  -1.8175 H              1 S1                 0.0000
     24 ****        -0.5918   0.8445  -2.6580 H              1 S1                 0.0000
     25 ****        -2.6620   1.6858  -3.6962 H              1 S1                 0.0000
     26 ****        -3.0899   3.3296  -1.5777 H              1 S1                 0.0000
     27 ****        -4.5084   2.5925  -2.3240 H              1 S1                 0.0000
     28 ****        -3.5413   2.0621   0.3795 H              1 S1                 0.0000
     29 ****        -4.9076   1.3163  -0.4447 H              1 S1                 0.0000
     30 ****        -3.3412  -0.5760  -0.1682 H              1 S1                 0.0000
     31 ****        -4.2828  -0.0509  -2.5690 H              1 S1                 0.0000
     32 ****        -2.6548  -0.7499  -2.7094 H              1 S1                 0.0000
     33 ****         1.3008  -2.1812  -1.1020 H              1 S1                 0.0000
     34 ****         3.5528  -1.7880  -1.5749 H              1 S1                 0.0000
     35 ****         3.5070  -0.2245  -0.8068 H              1 S1                 0.0000
     36 ****         3.4741  -2.9452   0.6126 H              1 S1                 0.0000
     37 ****         4.8236  -1.8466   0.5480 H              1 S1                 0.0000
     38 ****         1.7990  -2.7442   2.3678 H              1 S1                 0.0000
     39 ****         1.0521  -1.5397   4.4348 H              1 S1                 0.0000
     40 ****         2.1274   0.6559   5.0094 H              1 S1                 0.0000
     41 ****         3.9145   1.5477   3.4918 H              1 S1                 0.0000
     42 ****         0.5773   1.4415   0.3105 LP             1 S1                 0.0000
     43 ****         2.2243   0.9432   0.1125 LP             1 S1                 0.0000
     44 ****         4.5635   0.3483   1.5822 LP             1 S1                 0.0000
@<TRIPOS>BOND
    1    1    2 2     
    2    2    3 1     
    3    2   11 am    
    4    3    4 1     
    5    3   20 1     
    6    3   21 1     
    7    4    9 1     
    8    4    5 1     
    9    4   22 1     
   10    5    6 1     
   11    5   23 1     
   12    5   24 1     
   13    6   10 1     
   14    6    7 1     
   15    6   25 1     
   16    7    8 1     
   17    7   26 1     
   18    7   27 1     
   19    8    9 1     
   20    8   28 1     
   21    8   29 1     
   22    9   10 1     
   23    9   30 1     
   24   10   31 1     
   25   10   32 1     
   26   11   12 1     
   27   11   33 1     
   28   12   13 1     
   29   12   34 1     
   30   12   35 1     
   31   13   14 1     
   32   13   36 1     
   33   13   37 1     
   34   14   19 ar    
   35   14   15 ar    
   36   15   16 ar    
   37   15   38 1     
   38   16   17 ar    
   39   16   39 1     
   40   17   18 ar    
   41   17   40 1     
   42   18   19 ar    
   43   18   41 1     
   44    1   42 1     
   45    1   43 1     
   46   19   44 1     
@<TRIPOS>SUBSTRUCTURE
      1 S1             1
@<TRIPOS>SET
LONE_PAIRS      STATIC     ATOMS    <user>   **** ""
3 42 43 44
DONOR_HYDROGENS      STATIC     ATOMS    <user>   **** ""
1 33
ATOM$BLUE        STATIC     ATOMS    COLORGROUP SYSTEM
3 42 43 44
ATOM$RED        STATIC     ATOMS    COLORGROUP SYSTEM
1 33
