AV-unprocessed.smi:2856|AV-procd|sdf|10995|dock6
  -GOLD-   2272015453D 1   1.00000     0.00000
 Structure written by MMmdl.
 37 38  0  0  0  0  0  0  0  0  1 V2000
  146.4827  132.0507  152.1752 C   0  0  0  0  0  0  0  0  0  0  0  0
  147.1109  133.3152  153.3120 S   0  0  0  0  0  0  0  0  0  0  0  0
  145.7563  134.5326  153.2653 C   0  0  2  0  0  0  0  0  0  0  0  0
  145.4975  134.9982  151.8191 C   0  0  0  0  0  0  0  0  0  0  0  0
  144.3357  136.0019  151.7488 C   0  0  0  0  0  0  0  0  0  0  0  0
  144.5798  137.2035  152.6738 C   0  0  0  0  0  0  0  0  0  0  0  0
  144.8389  136.7487  154.1203 C   0  0  0  0  0  0  0  0  0  0  0  0
  145.9979  135.7326  154.2146 C   0  0  2  0  0  0  0  0  0  0  0  0
  147.2797  136.3780  153.9277 N   0  0  0  0  0  0  0  0  0  0  0  0
  147.8126  137.3918  154.6239 C   0  0  0  0  0  0  0  0  0  0  0  0
  147.2639  137.9132  155.5950 O   0  0  0  0  0  0  0  0  0  0  0  0
  149.0059  137.7519  154.1220 N   0  0  0  0  0  0  0  0  0  0  0  0
  149.8669  138.7765  154.5907 C   0  0  0  0  0  0  0  0  0  0  0  0
  149.3543  139.8824  155.3198 C   0  0  0  0  0  0  0  0  0  0  0  0
  150.4723  140.6238  155.5812 C   0  0  0  0  0  0  0  0  0  0  0  0
  150.6911  141.9106  156.3002 C   0  0  0  0  0  0  0  0  0  0  0  0
  151.5736  140.0221  155.0549 O   0  0  0  0  0  0  0  0  0  0  0  0
  151.1790  138.8375  154.4219 N   0  0  0  0  0  0  0  0  0  0  0  0
  147.2333  131.2737  152.0318 H   0  0  0  0  0  0  0  0  0  0  0  0
  146.2512  132.4895  151.2048 H   0  0  0  0  0  0  0  0  0  0  0  0
  145.5825  131.5833  152.5734 H   0  0  0  0  0  0  0  0  0  0  0  0
  144.8607  134.0090  153.6028 H   0  0  0  0  0  0  0  0  0  0  0  0
  146.3986  135.4539  151.4065 H   0  0  0  0  0  0  0  0  0  0  0  0
  145.2733  134.1381  151.1871 H   0  0  0  0  0  0  0  0  0  0  0  0
  144.2017  136.3441  150.7222 H   0  0  0  0  0  0  0  0  0  0  0  0
  143.4070  135.5055  152.0329 H   0  0  0  0  0  0  0  0  0  0  0  0
  145.4311  137.7799  152.3094 H   0  0  0  0  0  0  0  0  0  0  0  0
  143.7203  137.8740  152.6450 H   0  0  0  0  0  0  0  0  0  0  0  0
  145.0369  137.6142  154.7537 H   0  0  0  0  0  0  0  0  0  0  0  0
  143.9315  136.2900  154.5151 H   0  0  0  0  0  0  0  0  0  0  0  0
  146.0250  135.3565  155.2379 H   0  0  0  0  0  0  0  0  0  0  0  0
  147.8034  136.0109  153.1469 H   0  0  0  0  0  0  0  0  0  0  0  0
  149.3349  137.2361  153.3194 H   0  0  0  0  0  0  0  0  0  0  0  0
  148.3355  140.0994  155.6050 H   0  0  0  0  0  0  0  0  0  0  0  0
  149.8171  142.1782  156.8941 H   0  0  0  0  0  0  0  0  0  0  0  0
  150.8810  142.7189  155.5941 H   0  0  0  0  0  0  0  0  0  0  0  0
  151.5467  141.8396  156.9720 H   0  0  0  0  0  0  0  0  0  0  0  0
  1  2  1  0  0  0  0
  1 19  1  0  0  0  0
  1 20  1  0  0  0  0
  1 21  1  0  0  0  0
  2  3  1  0  0  0  0
  3  8  1  0  0  0  0
  3  4  1  0  0  0  0
  3 22  1  0  0  0  0
  4  5  1  0  0  0  0
  4 23  1  0  0  0  0
  4 24  1  0  0  0  0
  5  6  1  0  0  0  0
  5 25  1  0  0  0  0
  5 26  1  0  0  0  0
  6  7  1  0  0  0  0
  6 27  1  0  0  0  0
  6 28  1  0  0  0  0
  7  8  1  0  0  0  0
  7 29  1  0  0  0  0
  7 30  1  0  0  0  0
  8  9  1  0  0  0  0
  8 31  1  0  0  0  0
  9 10  1  0  0  0  0
  9 32  1  0  0  0  0
 10 11  2  0  0  0  0
 10 12  1  0  0  0  0
 12 13  1  0  0  0  0
 12 33  1  0  0  0  0
 13 18  2  0  0  0  0
 13 14  1  0  0  0  0
 14 15  2  0  0  0  0
 14 34  1  0  0  0  0
 15 16  1  0  0  0  0
 15 17  1  0  0  0  0
 16 35  1  0  0  0  0
 16 36  1  0  0  0  0
 16 37  1  0  0  0  0
 17 18  1  0  0  0  0
M  END
> <s_m_source_file>
AV-unprocessed.smi

> <i_m_source_file_index>
2856

> <i_lp_mmshare_version>
43012

> <i_f3d_flags>
0

> <s_epik_input>
W0NIM11TW0NAQEhdMVtDSDJdW0NIMl1bQ0gyXVtDSDJdW0NASF0xW05IXUMoPU8pW05IXWMyW2NIXWMoW0NIM10pb24y

> <s_epik_cmdline>
J2VwaWtfcHl0aG9uJywgJy1waCcsICc3LjAnLCAnLXRuJywgJzgnLCAnLW1hJywgJzIwMCcsICctbWV0YWxfYmluZGluZycsICctaW1hZScsICc8aW5maWxlLm1hZT4nLCAnLW9tYWUnLCAnPG91dGZpbGUubWFlPic=

> <r_lp_tautomer_probability>
1

> <r_epik_Ionization_Penalty>
2.20874e-05

> <r_epik_Ionization_Penalty_Charging>
0

> <r_epik_Ionization_Penalty_Neutral>
2.20874e-05

> <r_epik_State_Penalty>
-0

> <r_epik_Charging_Adjusted_Penalty>
0

> <i_epik_Tot_Q>
0

> <i_epik_Tot_abs_Q>
0

> <r_epik_Metal_State_Penalty>
-0

> <b_epik_Metal_Only>
0

> <s_lp_Force_Field>
OPLS_2005

> <r_lp_Energy>
4.88366

> <b_lp_Chiralities_Consistent>
1

> <s_lp_Variant>
AV-unprocessed.smi:2856-3

> <Gold.Version>
5.8.1

> <Gold.Id.Protein>
6NUR|6NUR_protein|mol2

> <Gold.PLP.Fitness>
31.5157

> <Gold.PLP.PLP>
-23.9959

> <Gold.PLP.part.hbond>
-3.4457

> <Gold.PLP.part.metal>
0.0000

> <Gold.PLP.part.buried>
-2.9473

> <Gold.PLP.part.nonpolar>
-17.7940

> <Gold.PLP.part.repulsive>
0.2233

> <Gold.PLP.ligand.clash>
0.0000

> <Gold.PLP.ligand.torsion>
0.1479

> <Gold.PLP.Chemscore.Hbond>
2.6000

> <Gold.PLP.Chemscore.CHOScore>
0.0000

> <Gold.PLP.Chemscore.Metal>
0.0000

> <Gold.Chemscore.Hbonds>
donor molecule, donor type, donor heavy atom, donor atom, acceptor molecule, acceptor atom, score
      L1  H     9    32       P1  7948  1.00
      L1  H    12    33       P1  7948  1.00
      P1  H  7989  7998       L1    17  0.55

> <Gold.PLP.Chemscore.Internal.Correction>
0.0156

> <Gold.Rescore>
     Score         DG    S(hbond)    S(metal)    S(lipo)     H(rot)  DE(clash)    DE(int)     intcor
     12.88     -14.39       1.90        0.00      48.52       1.21       0.07       1.45       ----

> <Gold.Chemscore.Fitness>
12.8761

> <Gold.Chemscore.DG>
-14.3940

> <Gold.Chemscore.ZeroCoef>
-5.4800

> <Gold.Chemscore.Hbond>
1.8973

> <Gold.Chemscore.Metal>
0.0000

> <Gold.Chemscore.Lipo>
48.5222

> <Gold.Chemscore.Internal_Hbond>
0.0000

> <Gold.Chemscore.DEClash>
0.0695

> <Gold.Chemscore.DEInternal>
1.4484

> <Gold.Chemscore.Rot>
1.2109

> <Gold.Chemscore.Internal.Correction>
   9.000000E+99

> <Gold.Chemscore.Hbonds>
donor molecule, donor type, donor heavy atom, donor atom, acceptor molecule, acceptor atom, score
      L1  H     9    32       P1  7948  0.95
      L1  H    12    33       P1  7948  0.91
      P1  H  7989  7998       L1    17  0.01

> <Gold.Chemscore.Hbond.Weighted>
-6.3369

> <Gold.Chemscore.Metal.Weighted>
-0.0000

> <Gold.Chemscore.Lipo.Weighted>
-5.6771

> <Gold.Chemscore.Internal_Hbond.Weighted>
0.0000

> <Gold.Chemscore.DEClash.Weighted>
0.0695

> <Gold.Chemscore.DEInternal.Weighted>
1.4484

> <Gold.Chemscore.Rot.Weighted>
3.1000

> <Gold.Chemscore.Internal.Correction.Weighted>
   9.000000E+99

> <Gold.Protein.RotatedTorsions>
[ 6907 6896 6895 6894 ] final -117.59 input  -60.11 | X-H torsion
[ 7974 7965 7964 7962 ] final -117.92 input  175.53 | X-H torsion
[ 8008 7997 7996 7995 ] final  105.55 input   59.86 | X-H torsion
[ 10167 10162 10161 10158 ] final -179.93 input  -65.29 | X-H torsion
[ 10718 10713 10712 10709 ] final   45.79 input   66.30 | X-H torsion
[ 10763 10752 10751 10750 ] final  -17.40 input  -60.55 | X-H torsion
[ 11005 11000 10999 10996 ] final  113.76 input  -57.11 | X-H torsion

> <Gold.Protein.ActiveResidues>
 VAL166  LYS551  ARG553  GLY616  TRP617  ASP618  TYR619  PRO620  LYS621  CYS622 
 ASP623  PHE694  ASN695  SER759  ASP760  ASP761  ALA762  ILE779  LEU786  VAL792 
 PHE793  MET794  SER795  GLU796  ALA797  LYS798  CYS799  TRP800  GLU811  SER814 

> <Gold.Protein.RotatedAtoms>
  150.8149  133.8355  159.3164 H   0  0  0  0  0  0  0  0  0  0  0  0  # atno 6907 bound_to 6896
  151.6130  135.1037  160.0094 H   0  0  0  0  0  0  0  0  0  0  0  0  # atno 6908 bound_to 6896
  152.4241  133.7124  159.6543 H   0  0  0  0  0  0  0  0  0  0  0  0  # atno 6909 bound_to 6896
  145.0797  140.8417  143.4046 H   0  0  0  0  0  0  0  0  0  0  0  0  # atno 7974 bound_to 7965
  156.1668  140.3128  155.8904 H   0  0  0  0  0  0  0  0  0  0  0  0  # atno 8008 bound_to 7997
  155.3669  140.0479  157.3063 H   0  0  0  0  0  0  0  0  0  0  0  0  # atno 8009 bound_to 7997
  154.5201  140.2195  155.9003 H   0  0  0  0  0  0  0  0  0  0  0  0  # atno 8010 bound_to 7997
  139.5364  144.2485  152.0803 H   0  0  0  0  0  0  0  0  0  0  0  0  # atno 10167 bound_to 10162
  157.4413  130.8083  149.7697 H   0  0  0  0  0  0  0  0  0  0  0  0  # atno 10718 bound_to 10713
  153.5733  135.7007  153.5495 H   0  0  0  0  0  0  0  0  0  0  0  0  # atno 10763 bound_to 10752
  153.3325  135.4043  155.1506 H   0  0  0  0  0  0  0  0  0  0  0  0  # atno 10764 bound_to 10752
  154.8629  135.3722  154.5257 H   0  0  0  0  0  0  0  0  0  0  0  0  # atno 10765 bound_to 10752
  139.8961  134.9556  156.6788 H   0  0  0  0  0  0  0  0  0  0  0  0  # atno 11005 bound_to 11000
  145.1193  139.2704  143.5597 LP  0  0  0  0  0  0  0  0  0  0  0  0  # atno 17320 bound_to 7965
  146.3531  140.0812  142.8617 LP  0  0  0  0  0  0  0  0  0  0  0  0  # atno 17321 bound_to 7965
  140.1956  144.4708  150.6457 LP  0  0  0  0  0  0  0  0  0  0  0  0  # atno 17342 bound_to 10162
  140.6573  143.2241  151.5939 LP  0  0  0  0  0  0  0  0  0  0  0  0  # atno 17343 bound_to 10162
  155.9950  130.3914  150.2837 LP  0  0  0  0  0  0  0  0  0  0  0  0  # atno 17370 bound_to 10713
  157.1002  131.0193  151.3088 LP  0  0  0  0  0  0  0  0  0  0  0  0  # atno 17371 bound_to 10713
  140.7316  133.9054  155.8215 LP  0  0  0  0  0  0  0  0  0  0  0  0  # atno 17394 bound_to 11000
  141.0149  134.0969  157.4182 LP  0  0  0  0  0  0  0  0  0  0  0  0  # atno 17395 bound_to 11000

$$$$
