AV-unprocessed.smi:1979|AV-procd|sdf|8016|dock5
  -GOLD-   2272010203D 1   1.00000     0.00000
 Structure written by MMmdl.
 28 28  0  0  0  0  0  0  0  0  1 V2000
  151.6280  132.2130  157.6493 N   0  0  0  0  0  0  0  0  0  0  0  0
  150.9590  132.2520  156.7062 C   0  0  0  0  0  0  0  0  0  0  0  0
  150.1185  132.3009  155.5222 C   0  0  0  0  0  0  0  0  0  0  0  0
  149.5292  133.5098  155.1039 C   0  0  0  0  0  0  0  0  0  0  0  0
  148.7225  133.5086  153.9493 C   0  0  0  0  0  0  0  0  0  0  0  0
  148.5341  132.2910  153.2512 C   0  0  0  0  0  0  0  0  0  0  0  0
  147.7519  132.1977  152.0931 N   0  0  0  0  0  0  0  0  0  0  0  0
  146.5863  133.0501  151.9154 C   0  0  0  0  0  0  0  0  0  0  0  0
  146.0500  132.9798  150.4820 C   0  0  0  0  0  0  0  0  0  0  0  0
  144.7521  133.5496  150.4449 O   0  0  0  0  0  0  0  0  0  0  0  0
  143.7911  132.6916  149.8519 C   0  0  0  0  0  0  0  0  0  0  0  0
  143.9654  132.7214  148.3287 C   0  0  0  0  0  0  0  0  0  0  0  0
  143.5230  133.9588  147.8136 O   0  0  0  0  0  0  0  0  0  0  0  0
  149.0982  131.1316  153.6549 N   0  0  0  0  0  0  0  0  0  0  0  0
  149.8713  131.1400  154.7624 C   0  0  0  0  0  0  0  0  0  0  0  0
  149.6884  134.4261  155.6542 H   0  0  0  0  0  0  0  0  0  0  0  0
  148.2652  134.4305  153.6227 H   0  0  0  0  0  0  0  0  0  0  0  0
  148.1335  131.7326  151.2818 H   0  0  0  0  0  0  0  0  0  0  0  0
  145.8085  132.7199  152.6045 H   0  0  0  0  0  0  0  0  0  0  0  0
  146.8329  134.0809  152.1731 H   0  0  0  0  0  0  0  0  0  0  0  0
  146.7219  133.4928  149.7919 H   0  0  0  0  0  0  0  0  0  0  0  0
  145.9949  131.9361  150.1691 H   0  0  0  0  0  0  0  0  0  0  0  0
  143.9629  131.6759  150.2114 H   0  0  0  0  0  0  0  0  0  0  0  0
  142.7750  132.9695  150.1381 H   0  0  0  0  0  0  0  0  0  0  0  0
  145.0016  132.5363  148.0437 H   0  0  0  0  0  0  0  0  0  0  0  0
  143.3593  131.9390  147.8716 H   0  0  0  0  0  0  0  0  0  0  0  0
  144.2731  134.5218  147.6984 H   0  0  0  0  0  0  0  0  0  0  0  0
  150.3024  130.1905  155.0454 H   0  0  0  0  0  0  0  0  0  0  0  0
  1  2  3  0  0  0  0
  2  3  1  0  0  0  0
  3 15  1  0  0  0  0
  3  4  2  0  0  0  0
  4  5  1  0  0  0  0
  4 16  1  0  0  0  0
  5  6  2  0  0  0  0
  5 17  1  0  0  0  0
  6  7  1  0  0  0  0
  6 14  1  0  0  0  0
  7  8  1  0  0  0  0
  7 18  1  0  0  0  0
  8  9  1  0  0  0  0
  8 19  1  0  0  0  0
  8 20  1  0  0  0  0
  9 10  1  0  0  0  0
  9 21  1  0  0  0  0
  9 22  1  0  0  0  0
 10 11  1  0  0  0  0
 11 12  1  0  0  0  0
 11 23  1  0  0  0  0
 11 24  1  0  0  0  0
 12 13  1  0  0  0  0
 12 25  1  0  0  0  0
 12 26  1  0  0  0  0
 13 27  1  0  0  0  0
 14 15  2  0  0  0  0
 15 28  1  0  0  0  0
M  END
> <s_m_source_file>
AV-unprocessed.smi

> <i_m_source_file_index>
1979

> <i_lp_mmshare_version>
43012

> <i_f3d_flags>
0

> <s_epik_input>
TiNDYzFbY0hdW2NIXWMobltjSF0xKVtOSF1bQ0gyXVtDSDJdT1tDSDJdW0NIMl1bT0hd

> <s_epik_cmdline>
J2VwaWtfcHl0aG9uJywgJy1waCcsICc3LjAnLCAnLXRuJywgJzgnLCAnLW1hJywgJzIwMCcsICctbWV0YWxfYmluZGluZycsICctaW1hZScsICc8aW5maWxlLm1hZT4nLCAnLW9tYWUnLCAnPG91dGZpbGUubWFlPic=

> <r_lp_tautomer_probability>
1

> <r_epik_Ionization_Penalty>
1.11368e-05

> <r_epik_Ionization_Penalty_Charging>
0

> <r_epik_Ionization_Penalty_Neutral>
1.11368e-05

> <r_epik_State_Penalty>
-0

> <r_epik_Charging_Adjusted_Penalty>
0

> <i_epik_Tot_Q>
0

> <i_epik_Tot_abs_Q>
0

> <r_epik_Metal_State_Penalty>
-0

> <b_epik_Metal_Only>
0

> <s_lp_Force_Field>
OPLS_2005

> <r_lp_Energy>
5.28627

> <b_lp_Chiralities_Consistent>
1

> <s_lp_Variant>
AV-unprocessed.smi:1979-1

> <Gold.Version>
5.8.1

> <Gold.Id.Protein>
6NUR|6NUR_protein|mol2

> <Gold.PLP.Fitness>
45.3190

> <Gold.PLP.PLP>
-34.8558

> <Gold.PLP.part.hbond>
-5.9688

> <Gold.PLP.part.metal>
0.0000

> <Gold.PLP.part.buried>
-3.8654

> <Gold.PLP.part.nonpolar>
-24.7284

> <Gold.PLP.part.repulsive>
0.2487

> <Gold.PLP.ligand.clash>
0.0000

> <Gold.PLP.ligand.torsion>
0.7884

> <Gold.PLP.Chemscore.Hbond>
4.0000

> <Gold.PLP.Chemscore.CHOScore>
0.0000

> <Gold.PLP.Chemscore.Metal>
0.0000

> <Gold.Chemscore.Hbonds>
donor molecule, donor type, donor heavy atom, donor atom, acceptor molecule, acceptor atom, score
      L1  H     7    18       P1 10747  1.00
      L1  H    13    27       P1  7921  1.00
      P1  H  6896  6907       L1     1  1.00
      P1  H 10192 10197       L1    13  0.99

> <Gold.PLP.Chemscore.Internal.Correction>
0.0401

> <Gold.Rescore>
     Score         DG    S(hbond)    S(metal)    S(lipo)     H(rot)  DE(clash)    DE(int)     intcor
     17.04     -18.11       3.87        0.00      60.61       2.88       0.09       0.98       ----

> <Gold.Chemscore.Fitness>
17.0409

> <Gold.Chemscore.DG>
-18.1107

> <Gold.Chemscore.ZeroCoef>
-5.4800

> <Gold.Chemscore.Hbond>
3.8652

> <Gold.Chemscore.Metal>
0.0000

> <Gold.Chemscore.Lipo>
60.6055

> <Gold.Chemscore.Internal_Hbond>
0.0000

> <Gold.Chemscore.DEClash>
0.0869

> <Gold.Chemscore.DEInternal>
0.9829

> <Gold.Chemscore.Rot>
2.8788

> <Gold.Chemscore.Internal.Correction>
   9.000000E+99

> <Gold.Chemscore.Hbonds>
donor molecule, donor type, donor heavy atom, donor atom, acceptor molecule, acceptor atom, score
      L1  H     7    18       P1 10747  0.97
      L1  H    13    27       P1  7921  0.96
      P1  H  6896  6907       L1     1  0.98
      P1  H 10192 10197       L1    13  0.28

> <Gold.Chemscore.Hbond.Weighted>
-12.9097

> <Gold.Chemscore.Metal.Weighted>
-0.0000

> <Gold.Chemscore.Lipo.Weighted>
-7.0908

> <Gold.Chemscore.Internal_Hbond.Weighted>
0.0000

> <Gold.Chemscore.DEClash.Weighted>
0.0869

> <Gold.Chemscore.DEInternal.Weighted>
0.9829

> <Gold.Chemscore.Rot.Weighted>
7.3699

> <Gold.Chemscore.Internal.Correction.Weighted>
   9.000000E+99

> <Gold.Protein.RotatedTorsions>
[ 6907 6896 6895 6894 ] final  177.40 input  -60.11 | X-H torsion
[ 7974 7965 7964 7962 ] final  161.18 input  175.53 | X-H torsion
[ 8008 7997 7996 7995 ] final   35.59 input   59.86 | X-H torsion
[ 10167 10162 10161 10158 ] final   38.48 input  -65.29 | X-H torsion
[ 10718 10713 10712 10709 ] final    2.33 input   66.30 | X-H torsion
[ 10763 10752 10751 10750 ] final -141.68 input  -60.55 | X-H torsion
[ 11005 11000 10999 10996 ] final  101.63 input  -57.11 | X-H torsion

> <Gold.Protein.ActiveResidues>
 VAL166  LYS551  ARG553  GLY616  TRP617  ASP618  TYR619  PRO620  LYS621  CYS622 
 ASP623  PHE694  ASN695  SER759  ASP760  ASP761  ALA762  ILE779  LEU786  VAL792 
 PHE793  MET794  SER795  GLU796  ALA797  LYS798  CYS799  TRP800  GLU811  SER814 

> <Gold.Protein.RotatedAtoms>
  151.7047  133.3311  159.3275 H   0  0  0  0  0  0  0  0  0  0  0  0  # atno 6907 bound_to 6896
  150.7720  134.6585  159.6336 H   0  0  0  0  0  0  0  0  0  0  0  0  # atno 6908 bound_to 6896
  152.3748  134.6682  160.0215 H   0  0  0  0  0  0  0  0  0  0  0  0  # atno 6909 bound_to 6896
  144.7699  139.7862  143.6301 H   0  0  0  0  0  0  0  0  0  0  0  0  # atno 7974 bound_to 7965
  155.1735  140.3294  155.4388 H   0  0  0  0  0  0  0  0  0  0  0  0  # atno 8008 bound_to 7997
  156.2502  140.1939  156.6788 H   0  0  0  0  0  0  0  0  0  0  0  0  # atno 8009 bound_to 7997
  154.6321  140.0581  156.9730 H   0  0  0  0  0  0  0  0  0  0  0  0  # atno 8010 bound_to 7997
  140.3932  144.1824  150.6131 H   0  0  0  0  0  0  0  0  0  0  0  0  # atno 10167 bound_to 10162
  156.8614  130.5588  149.5662 H   0  0  0  0  0  0  0  0  0  0  0  0  # atno 10718 bound_to 10713
  154.8536  135.3517  154.5906 H   0  0  0  0  0  0  0  0  0  0  0  0  # atno 10763 bound_to 10752
  153.6516  135.6994  153.5212 H   0  0  0  0  0  0  0  0  0  0  0  0  # atno 10764 bound_to 10752
  153.2889  135.4240  155.1107 H   0  0  0  0  0  0  0  0  0  0  0  0  # atno 10765 bound_to 10752
  139.8774  134.9191  156.4935 H   0  0  0  0  0  0  0  0  0  0  0  0  # atno 11005 bound_to 11000
  146.1837  139.5041  142.9850 LP  0  0  0  0  0  0  0  0  0  0  0  0  # atno 17320 bound_to 7965
  145.6356  141.0295  143.1839 LP  0  0  0  0  0  0  0  0  0  0  0  0  # atno 17321 bound_to 7965
  140.4817  143.2377  151.8945 LP  0  0  0  0  0  0  0  0  0  0  0  0  # atno 17342 bound_to 10162
  139.4788  144.5262  151.8732 LP  0  0  0  0  0  0  0  0  0  0  0  0  # atno 17343 bound_to 10162
  156.0775  130.5793  150.9500 LP  0  0  0  0  0  0  0  0  0  0  0  0  # atno 17370 bound_to 10713
  157.6248  131.0926  150.8555 LP  0  0  0  0  0  0  0  0  0  0  0  0  # atno 17371 bound_to 10713
  140.8641  133.8038  155.9295 LP  0  0  0  0  0  0  0  0  0  0  0  0  # atno 17394 bound_to 11000
  140.9020  134.2367  157.5036 LP  0  0  0  0  0  0  0  0  0  0  0  0  # atno 17395 bound_to 11000

$$$$
