AV-unprocessed.smi:1919|AV-procd|sdf|7776|dock2
  -GOLD-   22720 9523D 1   1.00000     0.00000
 Structure written by MMmdl.
 37 39  0  0  0  0  0  0  0  0  2 V2000
  151.3909  136.5169  153.9288 O   0  0  0  0  0  0  0  0  0  0  0  0
  151.5895  137.7778  154.5336 C   0  0  0  0  0  0  0  0  0  0  0  0
  150.4050  138.6838  154.4160 C   0  0  0  0  0  0  0  0  0  0  0  0
  149.2694  138.4435  153.6993 N   0  3  0  0  0  0  0  0  0  0  0  0
  148.3889  139.5176  153.8307 C   0  0  0  0  0  0  0  0  0  0  0  0
  147.1227  139.7305  153.2945 C   0  0  0  0  0  0  0  0  0  0  0  0
  146.4895  140.9452  153.6305 C   0  0  0  0  0  0  0  0  0  0  0  0
  147.1144  141.8922  154.4683 C   0  0  0  0  0  0  0  0  0  0  0  0
  148.3989  141.6655  155.0051 C   0  0  0  0  0  0  0  0  0  0  0  0
  149.0170  140.4617  154.6680 C   0  0  0  0  0  0  0  0  0  0  0  0
  150.2556  139.9053  155.0049 N   0  0  0  0  0  0  0  0  0  0  0  0
  151.1626  140.6564  155.8860 C   0  0  0  0  0  0  0  0  0  0  0  0
  150.6221  140.8000  157.3226 C   0  0  1  0  0  0  0  0  0  0  0  0
  150.6136  139.5372  157.9600 O   0  0  0  0  0  0  0  0  0  0  0  0
  151.4108  141.8373  158.1055 C   0  0  0  0  0  0  0  0  0  0  0  0
  151.5082  143.1686  157.6433 C   0  0  0  0  0  0  0  0  0  0  0  0
  152.2334  144.1245  158.3810 C   0  0  0  0  0  0  0  0  0  0  0  0
  152.8627  143.7560  159.5858 C   0  0  0  0  0  0  0  0  0  0  0  0
  152.7647  142.4315  160.0534 C   0  0  0  0  0  0  0  0  0  0  0  0
  153.3656  142.0763  161.2137 F   0  0  0  0  0  0  0  0  0  0  0  0
  152.0400  141.4752  159.3159 C   0  0  0  0  0  0  0  0  0  0  0  0
  151.1499  136.6526  153.0249 H   0  0  0  0  0  0  0  0  0  0  0  0
  151.8246  137.6290  155.5876 H   0  0  0  0  0  0  0  0  0  0  0  0
  152.4531  138.2577  154.0729 H   0  0  0  0  0  0  0  0  0  0  0  0
  146.6423  139.0065  152.6527 H   0  0  0  0  0  0  0  0  0  0  0  0
  145.5053  141.1547  153.2376 H   0  0  0  0  0  0  0  0  0  0  0  0
  146.5980  142.8115  154.7042 H   0  0  0  0  0  0  0  0  0  0  0  0
  148.8695  142.3966  155.6457 H   0  0  0  0  0  0  0  0  0  0  0  0
  152.1240  140.1414  155.8910 H   0  0  0  0  0  0  0  0  0  0  0  0
  151.3425  141.6348  155.4387 H   0  0  0  0  0  0  0  0  0  0  0  0
  149.5828  141.1282  157.2795 H   0  0  0  0  0  0  0  0  0  0  0  0
  151.1960  139.5737  158.7037 H   0  0  0  0  0  0  0  0  0  0  0  0
  151.0251  143.4619  156.7224 H   0  0  0  0  0  0  0  0  0  0  0  0
  152.3061  145.1407  158.0227 H   0  0  0  0  0  0  0  0  0  0  0  0
  153.4182  144.4892  160.1518 H   0  0  0  0  0  0  0  0  0  0  0  0
  151.9683  140.4627  159.6851 H   0  0  0  0  0  0  0  0  0  0  0  0
  149.1150  137.6003  153.1614 H   0  0  0  0  0  0  0  0  0  0  0  0
  1  2  1  0  0  0  0
  1 22  1  0  0  0  0
  2  3  1  0  0  0  0
  2 23  1  0  0  0  0
  2 24  1  0  0  0  0
  3 11  1  0  0  0  0
  3  4  2  0  0  0  0
  4  5  1  0  0  0  0
  4 37  1  0  0  0  0
  5 10  2  0  0  0  0
  5  6  1  0  0  0  0
  6  7  2  0  0  0  0
  6 25  1  0  0  0  0
  7  8  1  0  0  0  0
  7 26  1  0  0  0  0
  8  9  2  0  0  0  0
  8 27  1  0  0  0  0
  9 10  1  0  0  0  0
  9 28  1  0  0  0  0
 10 11  1  0  0  0  0
 11 12  1  0  0  0  0
 12 13  1  0  0  0  0
 12 29  1  0  0  0  0
 12 30  1  0  0  0  0
 13 14  1  0  0  0  0
 13 15  1  0  0  0  0
 13 31  1  0  0  0  0
 14 32  1  0  0  0  0
 15 21  1  0  0  0  0
 15 16  2  0  0  0  0
 16 17  1  0  0  0  0
 16 33  1  0  0  0  0
 17 18  2  0  0  0  0
 17 34  1  0  0  0  0
 18 19  1  0  0  0  0
 18 35  1  0  0  0  0
 19 20  1  0  0  0  0
 19 21  2  0  0  0  0
 21 36  1  0  0  0  0
M  CHG  1   4   1
M  END
> <s_m_source_file>
AV-unprocessed.smi

> <i_m_source_file_index>
1919

> <i_lp_mmshare_version>
43012

> <i_f3d_flags>
0

> <s_epik_input>
W2NIXTFbY0hdW2NIXVtjSF1jKGMxMiluKGMobjIpW0NIMl1bT0hdKVtDSDJdW0NASF0oW09IXSljM1tjSF1bY0hdW2NIXWMoRilbY0hdMw==

> <s_epik_cmdline>
J2VwaWtfcHl0aG9uJywgJy1waCcsICc3LjAnLCAnLXRuJywgJzgnLCAnLW1hJywgJzIwMCcsICctbWV0YWxfYmluZGluZycsICctaW1hZScsICc8aW5maWxlLm1hZT4nLCAnLW9tYWUnLCAnPG91dGZpbGUubWFlPic=

> <r_epik_Ionization_Penalty>
1.35643

> <r_epik_Ionization_Penalty_Charging>
1.35557

> <r_epik_Ionization_Penalty_Neutral>
0.000859316

> <r_epik_State_Penalty>
1.43401

> <r_epik_Charging_Adjusted_Penalty>
2.78958

> <i_epik_Tot_Q>
1

> <i_epik_Tot_abs_Q>
1

> <r_epik_Metal_State_Penalty>
5.47166

> <b_epik_Metal_Only>
0

> <s_lp_Force_Field>
OPLS_2005

> <r_lp_Energy>
12.6386

> <b_lp_Chiralities_Consistent>
1

> <s_lp_Variant>
AV-unprocessed.smi:1919-4

> <Gold.Version>
5.8.1

> <Gold.Id.Protein>
6NUR|6NUR_protein|mol2

> <Gold.PLP.Fitness>
64.7565

> <Gold.PLP.PLP>
-53.0367

> <Gold.PLP.part.hbond>
-4.3708

> <Gold.PLP.part.metal>
0.0000

> <Gold.PLP.part.buried>
1.9380

> <Gold.PLP.part.nonpolar>
-50.7707

> <Gold.PLP.part.repulsive>
0.0614

> <Gold.PLP.ligand.clash>
0.0000

> <Gold.PLP.ligand.torsion>
0.1586

> <Gold.PLP.Chemscore.Hbond>
4.0000

> <Gold.PLP.Chemscore.CHOScore>
0.0000

> <Gold.PLP.Chemscore.Metal>
0.0000

> <Gold.Chemscore.Hbonds>
donor molecule, donor type, donor heavy atom, donor atom, acceptor molecule, acceptor atom, score
      L1  H     1    22       P1  7949  0.90
      L1  H     4    37       P1  7948  2.00
      P1  H 10752 10765       L1     1  1.00

> <Gold.PLP.Chemscore.Internal.Correction>
0.0370

> <Gold.Rescore>
     Score         DG    S(hbond)    S(metal)    S(lipo)     H(rot)  DE(clash)    DE(int)     intcor
     20.19     -21.73       2.56        0.00     127.49       2.82       1.18       0.36       ----

> <Gold.Chemscore.Fitness>
20.1917

> <Gold.Chemscore.DG>
-21.7270

> <Gold.Chemscore.ZeroCoef>
-5.4800

> <Gold.Chemscore.Hbond>
2.5613

> <Gold.Chemscore.Metal>
0.0000

> <Gold.Chemscore.Lipo>
127.4892

> <Gold.Chemscore.Internal_Hbond>
0.0000

> <Gold.Chemscore.DEClash>
1.1755

> <Gold.Chemscore.DEInternal>
0.3598

> <Gold.Chemscore.Rot>
2.8219

> <Gold.Chemscore.Internal.Correction>
   9.000000E+99

> <Gold.Chemscore.Hbonds>
donor molecule, donor type, donor heavy atom, donor atom, acceptor molecule, acceptor atom, score
      L1  H     1    22       P1  7949  0.39
      L1  H     4    37       P1  7948  1.00
      P1  H 10752 10765       L1     1  0.41

> <Gold.Chemscore.Hbond.Weighted>
-8.5548

> <Gold.Chemscore.Metal.Weighted>
-0.0000

> <Gold.Chemscore.Lipo.Weighted>
-14.9162

> <Gold.Chemscore.Internal_Hbond.Weighted>
0.0000

> <Gold.Chemscore.DEClash.Weighted>
1.1755

> <Gold.Chemscore.DEInternal.Weighted>
0.3598

> <Gold.Chemscore.Rot.Weighted>
7.2240

> <Gold.Chemscore.Internal.Correction.Weighted>
   9.000000E+99

> <Gold.Protein.RotatedTorsions>
[ 6907 6896 6895 6894 ] final  168.97 input  -60.11 | X-H torsion
[ 7974 7965 7964 7962 ] final   45.33 input  175.53 | X-H torsion
[ 8008 7997 7996 7995 ] final  137.67 input   59.86 | X-H torsion
[ 10167 10162 10161 10158 ] final   66.70 input  -65.29 | X-H torsion
[ 10718 10713 10712 10709 ] final    6.16 input   66.30 | X-H torsion
[ 10763 10752 10751 10750 ] final  156.13 input  -60.55 | X-H torsion
[ 11005 11000 10999 10996 ] final  156.81 input  -57.11 | X-H torsion

> <Gold.Protein.ActiveResidues>
 VAL166  LYS551  ARG553  GLY616  TRP617  ASP618  TYR619  PRO620  LYS621  CYS622 
 ASP623  PHE694  ASN695  SER759  ASP760  ASP761  ALA762  ILE779  LEU786  VAL792 
 PHE793  MET794  SER795  GLU796  ALA797  LYS798  CYS799  TRP800  GLU811  SER814 

> <Gold.Protein.RotatedAtoms>
  151.8392  133.3421  159.3637 H   0  0  0  0  0  0  0  0  0  0  0  0  # atno 6907 bound_to 6896
  150.7240  134.5408  159.5755 H   0  0  0  0  0  0  0  0  0  0  0  0  # atno 6908 bound_to 6896
  152.2878  134.7757  160.0435 H   0  0  0  0  0  0  0  0  0  0  0  0  # atno 6909 bound_to 6896
  146.0490  139.4976  142.9730 H   0  0  0  0  0  0  0  0  0  0  0  0  # atno 7974 bound_to 7965
  156.3001  140.2413  156.3947 H   0  0  0  0  0  0  0  0  0  0  0  0  # atno 8008 bound_to 7997
  154.8581  140.0421  157.1668 H   0  0  0  0  0  0  0  0  0  0  0  0  # atno 8009 bound_to 7997
  154.8925  140.2965  155.5366 H   0  0  0  0  0  0  0  0  0  0  0  0  # atno 8010 bound_to 7997
  140.0976  144.4932  150.7058 H   0  0  0  0  0  0  0  0  0  0  0  0  # atno 10167 bound_to 10162
  156.9181  130.5781  149.5647 H   0  0  0  0  0  0  0  0  0  0  0  0  # atno 10718 bound_to 10713
  154.1794  135.2800  155.3057 H   0  0  0  0  0  0  0  0  0  0  0  0  # atno 10763 bound_to 10752
  154.6014  135.5528  153.7382 H   0  0  0  0  0  0  0  0  0  0  0  0  # atno 10764 bound_to 10752
  153.0142  135.6393  154.1933 H   0  0  0  0  0  0  0  0  0  0  0  0  # atno 10765 bound_to 10752
  140.1710  134.8543  157.2691 H   0  0  0  0  0  0  0  0  0  0  0  0  # atno 11005 bound_to 11000
  145.6757  141.0204  143.1633 LP  0  0  0  0  0  0  0  0  0  0  0  0  # atno 17320 bound_to 7965
  144.7112  139.8363  143.7414 LP  0  0  0  0  0  0  0  0  0  0  0  0  # atno 17321 bound_to 7965
  140.6995  143.2425  151.4905 LP  0  0  0  0  0  0  0  0  0  0  0  0  # atno 17342 bound_to 10162
  139.5689  144.1975  152.1807 LP  0  0  0  0  0  0  0  0  0  0  0  0  # atno 17343 bound_to 10162
  156.0504  130.5574  150.8976 LP  0  0  0  0  0  0  0  0  0  0  0  0  # atno 17370 bound_to 10713
  157.5925  131.0944  150.9095 LP  0  0  0  0  0  0  0  0  0  0  0  0  # atno 17371 bound_to 10713
  140.2377  134.3833  155.7494 LP  0  0  0  0  0  0  0  0  0  0  0  0  # atno 17394 bound_to 11000
  141.2217  133.7248  156.8740 LP  0  0  0  0  0  0  0  0  0  0  0  0  # atno 17395 bound_to 11000

$$$$
