AV-unprocessed.smi:1007|AV-procd|sdf|4399|dock2
  -GOLD-   22720 2333D 1   1.00000     0.00000
 Structure written by MMmdl.
 56 58  0  0  0  0  0  0  0  0  2 V2000
  147.4500  136.8385  162.7940 C   0  0  0  0  0  0  0  0  0  0  0  0
  147.5606  137.0625  161.3990 O   0  0  0  0  0  0  0  0  0  0  0  0
  148.5781  136.2772  160.8018 C   0  0  0  0  0  0  0  0  0  0  0  0
  148.3297  136.2266  159.2868 C   0  0  0  0  0  0  0  0  0  0  0  0
  149.5348  136.3330  158.4577 N   0  0  0  0  0  0  0  0  0  0  0  0
  149.2658  136.1095  157.0377 C   0  0  0  0  0  0  0  0  0  0  0  0
  148.4943  137.2683  156.3743 C   0  0  0  0  0  0  0  0  0  0  0  0
  149.2293  138.5485  156.5439 N   0  3  0  0  0  0  0  0  0  0  0  0
  148.5490  139.6783  155.8618 C   0  0  0  0  0  0  0  0  0  0  0  0
  149.4407  140.3816  154.8144 C   0  0  1  0  0  0  0  0  0  0  0  0
  148.6222  140.8263  153.7497 O   0  0  0  0  0  0  0  0  0  0  0  0
  150.2252  141.5832  155.3872 C   0  0  0  0  0  0  0  0  0  0  0  0
  151.1249  141.2296  156.4739 N   0  0  0  0  0  0  0  0  0  0  0  0
  151.9298  140.1511  156.5437 C   0  0  0  0  0  0  0  0  0  0  0  0
  152.6853  140.0238  157.6303 N   0  0  0  0  0  0  0  0  0  0  0  0
  152.3243  141.1464  158.3548 C   0  0  0  0  0  0  0  0  0  0  0  0
  152.7691  141.6084  159.6126 C   0  0  0  0  0  0  0  0  0  0  0  0
  152.2576  142.8023  160.1690 C   0  0  0  0  0  0  0  0  0  0  0  0
  152.7660  143.2629  161.5238 C   0  0  0  0  0  0  0  0  0  0  0  0
  151.2837  143.5540  159.4643 C   0  0  0  0  0  0  0  0  0  0  0  0
  150.7207  144.8407  160.0408 C   0  0  0  0  0  0  0  0  0  0  0  0
  150.8259  143.1055  158.2079 C   0  0  0  0  0  0  0  0  0  0  0  0
  151.3456  141.9181  157.6625 C   0  0  0  0  0  0  0  0  0  0  0  0
  149.5182  138.8011  157.9813 C   0  0  0  0  0  0  0  0  0  0  0  0
  150.2604  137.5979  158.5983 C   0  0  0  0  0  0  0  0  0  0  0  0
  146.6590  137.4663  163.2043 H   0  0  0  0  0  0  0  0  0  0  0  0
  148.3786  137.0880  163.3091 H   0  0  0  0  0  0  0  0  0  0  0  0
  147.1994  135.7987  163.0077 H   0  0  0  0  0  0  0  0  0  0  0  0
  149.5508  136.7170  161.0236 H   0  0  0  0  0  0  0  0  0  0  0  0
  148.5640  135.2687  161.2184 H   0  0  0  0  0  0  0  0  0  0  0  0
  147.8427  135.2750  159.0694 H   0  0  0  0  0  0  0  0  0  0  0  0
  147.6065  136.9956  159.0173 H   0  0  0  0  0  0  0  0  0  0  0  0
  150.2131  135.9718  156.5143 H   0  0  0  0  0  0  0  0  0  0  0  0
  148.7173  135.1760  156.9065 H   0  0  0  0  0  0  0  0  0  0  0  0
  148.3744  137.0548  155.3116 H   0  0  0  0  0  0  0  0  0  0  0  0
  147.4900  137.3582  156.7904 H   0  0  0  0  0  0  0  0  0  0  0  0
  147.6533  139.3018  155.3655 H   0  0  0  0  0  0  0  0  0  0  0  0
  148.2060  140.3922  156.6119 H   0  0  0  0  0  0  0  0  0  0  0  0
  150.1675  139.6821  154.4037 H   0  0  0  0  0  0  0  0  0  0  0  0
  148.9110  140.4089  152.9518 H   0  0  0  0  0  0  0  0  0  0  0  0
  150.8124  142.0518  154.5966 H   0  0  0  0  0  0  0  0  0  0  0  0
  149.5350  142.3481  155.7463 H   0  0  0  0  0  0  0  0  0  0  0  0
  151.9687  139.4222  155.7475 H   0  0  0  0  0  0  0  0  0  0  0  0
  153.5109  141.0352  160.1494 H   0  0  0  0  0  0  0  0  0  0  0  0
  151.9400  143.3720  162.2269 H   0  0  0  0  0  0  0  0  0  0  0  0
  153.2744  144.2230  161.4342 H   0  0  0  0  0  0  0  0  0  0  0  0
  153.4719  142.5483  161.9476 H   0  0  0  0  0  0  0  0  0  0  0  0
  150.0178  145.3114  159.3527 H   0  0  0  0  0  0  0  0  0  0  0  0
  151.5211  145.5538  160.2392 H   0  0  0  0  0  0  0  0  0  0  0  0
  150.1937  144.6419  160.9743 H   0  0  0  0  0  0  0  0  0  0  0  0
  150.0830  143.6688  157.6634 H   0  0  0  0  0  0  0  0  0  0  0  0
  150.1418  139.6872  158.0901 H   0  0  0  0  0  0  0  0  0  0  0  0
  148.5922  139.0047  158.5201 H   0  0  0  0  0  0  0  0  0  0  0  0
  150.4859  137.7957  159.6454 H   0  0  0  0  0  0  0  0  0  0  0  0
  151.2310  137.5012  158.1098 H   0  0  0  0  0  0  0  0  0  0  0  0
  150.1180  138.4262  156.0790 H   0  0  0  0  0  0  0  0  0  0  0  0
  1  2  1  0  0  0  0
  1 26  1  0  0  0  0
  1 27  1  0  0  0  0
  1 28  1  0  0  0  0
  2  3  1  0  0  0  0
  3  4  1  0  0  0  0
  3 29  1  0  0  0  0
  3 30  1  0  0  0  0
  4  5  1  0  0  0  0
  4 31  1  0  0  0  0
  4 32  1  0  0  0  0
  5 25  1  0  0  0  0
  5  6  1  0  0  0  0
  6  7  1  0  0  0  0
  6 33  1  0  0  0  0
  6 34  1  0  0  0  0
  7  8  1  0  0  0  0
  7 35  1  0  0  0  0
  7 36  1  0  0  0  0
  8  9  1  0  0  0  0
  8 24  1  0  0  0  0
  8 56  1  0  0  0  0
  9 10  1  0  0  0  0
  9 37  1  0  0  0  0
  9 38  1  0  0  0  0
 10 11  1  0  0  0  0
 10 12  1  0  0  0  0
 10 39  1  0  0  0  0
 11 40  1  0  0  0  0
 12 13  1  0  0  0  0
 12 41  1  0  0  0  0
 12 42  1  0  0  0  0
 13 23  1  0  0  0  0
 13 14  1  0  0  0  0
 14 15  2  0  0  0  0
 14 43  1  0  0  0  0
 15 16  1  0  0  0  0
 16 23  2  0  0  0  0
 16 17  1  0  0  0  0
 17 18  2  0  0  0  0
 17 44  1  0  0  0  0
 18 19  1  0  0  0  0
 18 20  1  0  0  0  0
 19 45  1  0  0  0  0
 19 46  1  0  0  0  0
 19 47  1  0  0  0  0
 20 21  1  0  0  0  0
 20 22  2  0  0  0  0
 21 48  1  0  0  0  0
 21 49  1  0  0  0  0
 21 50  1  0  0  0  0
 22 23  1  0  0  0  0
 22 51  1  0  0  0  0
 24 25  1  0  0  0  0
 24 52  1  0  0  0  0
 24 53  1  0  0  0  0
 25 54  1  0  0  0  0
 25 55  1  0  0  0  0
M  CHG  1   8   1
M  END
> <s_m_source_file>
AV-unprocessed.smi

> <i_m_source_file_index>
1007

> <i_lp_mmshare_version>
43012

> <i_f3d_flags>
0

> <s_epik_input>
W0NIM11PW0NIMl1bQ0gyXU4xW0NIMl1bQ0gyXU4oW0NIMl1bQ0gyXTEpW0NIMl1bQ0BIXShbT0hdKVtDSDJdbihbY0hdbjIpYyhjMjMpW2NIXWMoW0NIM10pYyhbY0hdMylbQ0gzXQ==

> <s_epik_cmdline>
J2VwaWtfcHl0aG9uJywgJy1waCcsICc3LjAnLCAnLXRuJywgJzgnLCAnLW1hJywgJzIwMCcsICctbWV0YWxfYmluZGluZycsICctaW1hZScsICc8aW5maWxlLm1hZT4nLCAnLW9tYWUnLCAnPG91dGZpbGUubWFlPic=

> <r_epik_Ionization_Penalty>
0.102698

> <r_epik_Ionization_Penalty_Charging>
0.00226046

> <r_epik_Ionization_Penalty_Neutral>
0.100438

> <r_epik_State_Penalty>
0.191223

> <r_epik_Charging_Adjusted_Penalty>
0.193484

> <i_epik_Tot_Q>
1

> <i_epik_Tot_abs_Q>
1

> <r_epik_Metal_State_Penalty>
0.102154

> <b_epik_Metal_Only>
0

> <s_lp_Force_Field>
OPLS_2005

> <r_lp_Energy>
31.116

> <b_lp_Chiralities_Consistent>
1

> <s_lp_Variant>
AV-unprocessed.smi:1007-2

> <Gold.Version>
5.8.1

> <Gold.Id.Protein>
6NUR|6NUR_protein|mol2

> <Gold.PLP.Fitness>
52.6472

> <Gold.PLP.PLP>
-46.6260

> <Gold.PLP.part.hbond>
-4.0000

> <Gold.PLP.part.metal>
0.0000

> <Gold.PLP.part.buried>
-5.6718

> <Gold.PLP.part.nonpolar>
-35.8211

> <Gold.PLP.part.repulsive>
0.0000

> <Gold.PLP.ligand.clash>
0.0000

> <Gold.PLP.ligand.torsion>
1.7887

> <Gold.PLP.Chemscore.Hbond>
3.1217

> <Gold.PLP.Chemscore.CHOScore>
0.0000

> <Gold.PLP.Chemscore.Metal>
0.0000

> <Gold.Chemscore.Hbonds>
donor molecule, donor type, donor heavy atom, donor atom, acceptor molecule, acceptor atom, score
      L1  H    11    40       P1  7957  1.00
      P1  H  6896  6908       L1     5  0.23
      P1  H  6931  6943       L1     2  0.05
      P1  H  6934  6947       L1     2  0.84
      P1  H  7997  8008       L1    15  1.00

> <Gold.PLP.Chemscore.Internal.Correction>
0.2336

> <Gold.Rescore>
     Score         DG    S(hbond)    S(metal)    S(lipo)     H(rot)  DE(clash)    DE(int)     intcor
     19.29     -21.35       2.45        0.00     121.66       2.56       0.21       1.85       ----

> <Gold.Chemscore.Fitness>
19.2915

> <Gold.Chemscore.DG>
-21.3524

> <Gold.Chemscore.ZeroCoef>
-5.4800

> <Gold.Chemscore.Hbond>
2.4522

> <Gold.Chemscore.Metal>
0.0000

> <Gold.Chemscore.Lipo>
121.6602

> <Gold.Chemscore.Internal_Hbond>
0.0000

> <Gold.Chemscore.DEClash>
0.2092

> <Gold.Chemscore.DEInternal>
1.8517

> <Gold.Chemscore.Rot>
2.5594

> <Gold.Chemscore.Internal.Correction>
   9.000000E+99

> <Gold.Chemscore.Hbonds>
donor molecule, donor type, donor heavy atom, donor atom, acceptor molecule, acceptor atom, score
      L1  H    11    40       P1  7957  0.99
      P1  H  6896  6908       L1     5  0.02
      P1  H  6934  6947       L1     2  0.62
      P1  H  7997  8008       L1    15  0.37

> <Gold.Chemscore.Hbond.Weighted>
-8.1903

> <Gold.Chemscore.Metal.Weighted>
-0.0000

> <Gold.Chemscore.Lipo.Weighted>
-14.2342

> <Gold.Chemscore.Internal_Hbond.Weighted>
0.0000

> <Gold.Chemscore.DEClash.Weighted>
0.2092

> <Gold.Chemscore.DEInternal.Weighted>
1.8517

> <Gold.Chemscore.Rot.Weighted>
6.5522

> <Gold.Chemscore.Internal.Correction.Weighted>
   9.000000E+99

> <Gold.Protein.RotatedTorsions>
[ 6907 6896 6895 6894 ] final -178.90 input  -60.11 | X-H torsion
[ 7974 7965 7964 7962 ] final   35.21 input  175.53 | X-H torsion
[ 8008 7997 7996 7995 ] final  -79.03 input   59.86 | X-H torsion
[ 10167 10162 10161 10158 ] final  -27.87 input  -65.29 | X-H torsion
[ 10718 10713 10712 10709 ] final   -4.76 input   66.30 | X-H torsion
[ 10763 10752 10751 10750 ] final  172.85 input  -60.55 | X-H torsion
[ 11005 11000 10999 10996 ] final -167.28 input  -57.11 | X-H torsion

> <Gold.Protein.ActiveResidues>
 VAL166  LYS551  ARG553  GLY616  TRP617  ASP618  TYR619  PRO620  LYS621  CYS622 
 ASP623  PHE694  ASN695  SER759  ASP760  ASP761  ALA762  ILE779  LEU786  VAL792 
 PHE793  MET794  SER795  GLU796  ALA797  LYS798  CYS799  TRP800  GLU811  SER814 

> <Gold.Protein.RotatedAtoms>
  151.6447  133.3324  159.3138 H   0  0  0  0  0  0  0  0  0  0  0  0  # atno 6907 bound_to 6896
  150.7990  134.7074  159.6594 H   0  0  0  0  0  0  0  0  0  0  0  0  # atno 6908 bound_to 6896
  152.4080  134.6177  160.0094 H   0  0  0  0  0  0  0  0  0  0  0  0  # atno 6909 bound_to 6896
  146.1299  139.6172  142.9233 H   0  0  0  0  0  0  0  0  0  0  0  0  # atno 7974 bound_to 7965
  154.5745  140.0685  156.9014 H   0  0  0  0  0  0  0  0  0  0  0  0  # atno 8008 bound_to 7997
  155.2573  140.3356  155.4258 H   0  0  0  0  0  0  0  0  0  0  0  0  # atno 8009 bound_to 7997
  156.2144  140.1772  156.7608 H   0  0  0  0  0  0  0  0  0  0  0  0  # atno 8010 bound_to 7997
  140.7274  143.4057  151.1189 H   0  0  0  0  0  0  0  0  0  0  0  0  # atno 10167 bound_to 10162
  156.7566  130.5256  149.5793 H   0  0  0  0  0  0  0  0  0  0  0  0  # atno 10718 bound_to 10713
  154.4319  135.2760  155.1907 H   0  0  0  0  0  0  0  0  0  0  0  0  # atno 10763 bound_to 10752
  154.3809  135.6088  153.5794 H   0  0  0  0  0  0  0  0  0  0  0  0  # atno 10764 bound_to 10752
  152.9836  135.5880  154.4631 H   0  0  0  0  0  0  0  0  0  0  0  0  # atno 10765 bound_to 10752
  140.5550  134.5390  157.5131 H   0  0  0  0  0  0  0  0  0  0  0  0  # atno 11005 bound_to 11000
  145.5283  141.0428  143.2397 LP  0  0  0  0  0  0  0  0  0  0  0  0  # atno 17320 bound_to 7965
  144.7680  139.6800  143.7207 LP  0  0  0  0  0  0  0  0  0  0  0  0  # atno 17321 bound_to 7965
  139.7683  143.8532  152.3115 LP  0  0  0  0  0  0  0  0  0  0  0  0  # atno 17342 bound_to 10162
  139.8441  144.7196  150.9294 LP  0  0  0  0  0  0  0  0  0  0  0  0  # atno 17343 bound_to 10162
  156.1366  130.6215  151.0409 LP  0  0  0  0  0  0  0  0  0  0  0  0  # atno 17370 bound_to 10713
  157.6753  131.0852  150.7509 LP  0  0  0  0  0  0  0  0  0  0  0  0  # atno 17371 bound_to 10713
  139.9436  134.7742  156.0617 LP  0  0  0  0  0  0  0  0  0  0  0  0  # atno 17394 bound_to 11000
  141.1149  133.6631  156.3069 LP  0  0  0  0  0  0  0  0  0  0  0  0  # atno 17395 bound_to 11000

$$$$
