AV-unprocessed.smi:1821|AV-procd|sdf|7387|dock8
  -GOLD-   22720 9 53D 1   1.00000     0.00000
 Structure written by MMmdl.
 35 37  0  0  0  0  0  0  0  0  1 V2000
  152.1025  139.9926  156.0180 C   0  0  0  0  0  0  0  0  0  0  0  0
  150.7531  140.4867  155.6017 C   0  0  0  0  0  0  0  0  0  0  0  0
  150.2310  140.2078  154.4074 N   0  0  0  0  0  0  0  0  0  0  0  0
  149.0066  140.8463  154.4557 C   0  0  0  0  0  0  0  0  0  0  0  0
  147.9756  140.9297  153.4925 C   0  0  0  0  0  0  0  0  0  0  0  0
  146.7956  141.6503  153.7703 C   0  0  0  0  0  0  0  0  0  0  0  0
  146.6296  142.2968  155.0124 C   0  0  0  0  0  0  0  0  0  0  0  0
  147.6444  142.2266  155.9860 C   0  0  0  0  0  0  0  0  0  0  0  0
  148.8203  141.5054  155.7041 C   0  0  0  0  0  0  0  0  0  0  0  0
  149.9848  141.2460  156.4206 N   0  0  0  0  0  0  0  0  0  0  0  0
  150.2935  141.7054  157.7678 C   0  0  0  0  0  0  0  0  0  0  0  0
  151.4928  142.6750  157.8082 C   0  0  1  0  0  0  0  0  0  0  0  0
  151.2122  143.8362  157.0493 O   0  0  0  0  0  0  0  0  0  0  0  0
  151.8981  143.0000  159.2419 C   0  0  0  0  0  0  0  0  0  0  0  0
  151.5341  144.2328  159.8354 C   0  0  0  0  0  0  0  0  0  0  0  0
  150.8155  145.1475  159.1407 F   0  0  0  0  0  0  0  0  0  0  0  0
  151.9111  144.5216  161.1613 C   0  0  0  0  0  0  0  0  0  0  0  0
  152.6469  143.5833  161.9079 C   0  0  0  0  0  0  0  0  0  0  0  0
  153.0039  142.3519  161.3284 C   0  0  0  0  0  0  0  0  0  0  0  0
  152.6310  142.0587  160.0021 C   0  0  0  0  0  0  0  0  0  0  0  0
  152.9808  140.8639  159.4674 F   0  0  0  0  0  0  0  0  0  0  0  0
  152.5589  139.4102  155.2169 H   0  0  0  0  0  0  0  0  0  0  0  0
  152.0171  139.3551  156.8982 H   0  0  0  0  0  0  0  0  0  0  0  0
  152.7608  140.8298  156.2484 H   0  0  0  0  0  0  0  0  0  0  0  0
  148.0937  140.4383  152.5380 H   0  0  0  0  0  0  0  0  0  0  0  0
  146.0144  141.7080  153.0265 H   0  0  0  0  0  0  0  0  0  0  0  0
  145.7234  142.8480  155.2168 H   0  0  0  0  0  0  0  0  0  0  0  0
  147.5228  142.7240  156.9367 H   0  0  0  0  0  0  0  0  0  0  0  0
  149.4037  142.1805  158.1823 H   0  0  0  0  0  0  0  0  0  0  0  0
  150.4902  140.8371  158.3972 H   0  0  0  0  0  0  0  0  0  0  0  0
  152.3358  142.1997  157.3080 H   0  0  0  0  0  0  0  0  0  0  0  0
  150.2923  143.8386  156.8324 H   0  0  0  0  0  0  0  0  0  0  0  0
  151.6323  145.4651  161.6070 H   0  0  0  0  0  0  0  0  0  0  0  0
  152.9339  143.8064  162.9249 H   0  0  0  0  0  0  0  0  0  0  0  0
  153.5643  141.6290  161.9028 H   0  0  0  0  0  0  0  0  0  0  0  0
  1  2  1  0  0  0  0
  1 22  1  0  0  0  0
  1 23  1  0  0  0  0
  1 24  1  0  0  0  0
  2 10  1  0  0  0  0
  2  3  2  0  0  0  0
  3  4  1  0  0  0  0
  4  9  2  0  0  0  0
  4  5  1  0  0  0  0
  5  6  2  0  0  0  0
  5 25  1  0  0  0  0
  6  7  1  0  0  0  0
  6 26  1  0  0  0  0
  7  8  2  0  0  0  0
  7 27  1  0  0  0  0
  8  9  1  0  0  0  0
  8 28  1  0  0  0  0
  9 10  1  0  0  0  0
 10 11  1  0  0  0  0
 11 12  1  0  0  0  0
 11 29  1  0  0  0  0
 11 30  1  0  0  0  0
 12 13  1  0  0  0  0
 12 14  1  0  0  0  0
 12 31  1  0  0  0  0
 13 32  1  0  0  0  0
 14 20  1  0  0  0  0
 14 15  2  0  0  0  0
 15 16  1  0  0  0  0
 15 17  1  0  0  0  0
 17 18  2  0  0  0  0
 17 33  1  0  0  0  0
 18 19  1  0  0  0  0
 18 34  1  0  0  0  0
 19 20  2  0  0  0  0
 19 35  1  0  0  0  0
 20 21  1  0  0  0  0
M  END
> <s_m_source_file>
AV-unprocessed.smi

> <i_m_source_file_index>
1821

> <i_lp_mmshare_version>
43012

> <i_f3d_flags>
0

> <s_epik_input>
W2NIXTFbY0hdW2NIXVtjSF1jKGMxMiluKGMobjIpW0NIM10pW0NIMl1bQ0BIXShbT0hdKWMzYyhGKVtjSF1bY0hdW2NIXWMzRg==

> <s_epik_cmdline>
J2VwaWtfcHl0aG9uJywgJy1waCcsICc3LjAnLCAnLXRuJywgJzgnLCAnLW1hJywgJzIwMCcsICctbWV0YWxfYmluZGluZycsICctaW1hZScsICc8aW5maWxlLm1hZT4nLCAnLW9tYWUnLCAnPG91dGZpbGUubWFlPic=

> <r_epik_Ionization_Penalty>
0.129663

> <r_epik_Ionization_Penalty_Charging>
0

> <r_epik_Ionization_Penalty_Neutral>
0.129663

> <r_epik_State_Penalty>
0.119073

> <r_epik_Charging_Adjusted_Penalty>
0.119073

> <i_epik_Tot_Q>
0

> <i_epik_Tot_abs_Q>
0

> <r_epik_Metal_State_Penalty>
0.000131867

> <b_epik_Metal_Only>
0

> <s_lp_Force_Field>
OPLS_2005

> <r_lp_Energy>
13.032

> <b_lp_Chiralities_Consistent>
1

> <s_lp_Variant>
AV-unprocessed.smi:1821-2

> <Gold.Version>
5.8.1

> <Gold.Id.Protein>
6NUR|6NUR_protein|mol2

> <Gold.PLP.Fitness>
55.2691

> <Gold.PLP.PLP>
-51.6045

> <Gold.PLP.part.hbond>
-2.0000

> <Gold.PLP.part.metal>
0.0000

> <Gold.PLP.part.buried>
-1.5278

> <Gold.PLP.part.nonpolar>
-47.8169

> <Gold.PLP.part.repulsive>
0.1070

> <Gold.PLP.ligand.clash>
0.0000

> <Gold.PLP.ligand.torsion>
0.5719

> <Gold.PLP.Chemscore.Hbond>
1.5924

> <Gold.PLP.Chemscore.CHOScore>
0.0000

> <Gold.PLP.Chemscore.Metal>
0.0000

> <Gold.Chemscore.Hbonds>
donor molecule, donor type, donor heavy atom, donor atom, acceptor molecule, acceptor atom, score
      L1  H    13    32       P1  8028  0.86
      P1  H  7989  7998       L1     3  0.75

> <Gold.PLP.Chemscore.Internal.Correction>
0.0312

> <Gold.Rescore>
     Score         DG    S(hbond)    S(metal)    S(lipo)     H(rot)  DE(clash)    DE(int)     intcor
     15.45     -17.78       0.83        0.00     122.67       1.88       0.28       2.04       ----

> <Gold.Chemscore.Fitness>
15.4540

> <Gold.Chemscore.DG>
-17.7754

> <Gold.Chemscore.ZeroCoef>
-5.4800

> <Gold.Chemscore.Hbond>
0.8281

> <Gold.Chemscore.Metal>
0.0000

> <Gold.Chemscore.Lipo>
122.6692

> <Gold.Chemscore.Internal_Hbond>
0.0000

> <Gold.Chemscore.DEClash>
0.2814

> <Gold.Chemscore.DEInternal>
2.0401

> <Gold.Chemscore.Rot>
1.8839

> <Gold.Chemscore.Internal.Correction>
   9.000000E+99

> <Gold.Chemscore.Hbonds>
donor molecule, donor type, donor heavy atom, donor atom, acceptor molecule, acceptor atom, score
      L1  H    13    32       P1  8028  0.80
      P1  H  7989  7998       L1     3  0.09

> <Gold.Chemscore.Hbond.Weighted>
-2.7658

> <Gold.Chemscore.Metal.Weighted>
-0.0000

> <Gold.Chemscore.Lipo.Weighted>
-14.3523

> <Gold.Chemscore.Internal_Hbond.Weighted>
0.0000

> <Gold.Chemscore.DEClash.Weighted>
0.2814

> <Gold.Chemscore.DEInternal.Weighted>
2.0401

> <Gold.Chemscore.Rot.Weighted>
4.8227

> <Gold.Chemscore.Internal.Correction.Weighted>
   9.000000E+99

> <Gold.Protein.RotatedTorsions>
[ 6907 6896 6895 6894 ] final    7.48 input  -60.11 | X-H torsion
[ 7974 7965 7964 7962 ] final -149.59 input  175.53 | X-H torsion
[ 8008 7997 7996 7995 ] final  -42.09 input   59.86 | X-H torsion
[ 10167 10162 10161 10158 ] final   84.72 input  -65.29 | X-H torsion
[ 10718 10713 10712 10709 ] final    0.55 input   66.30 | X-H torsion
[ 10763 10752 10751 10750 ] final    5.45 input  -60.55 | X-H torsion
[ 11005 11000 10999 10996 ] final  144.10 input  -57.11 | X-H torsion

> <Gold.Protein.ActiveResidues>
 VAL166  LYS551  ARG553  GLY616  TRP617  ASP618  TYR619  PRO620  LYS621  CYS622 
 ASP623  PHE694  ASN695  SER759  ASP760  ASP761  ALA762  ILE779  LEU786  VAL792 
 PHE793  MET794  SER795  GLU796  ALA797  LYS798  CYS799  TRP800  GLU811  SER814 

> <Gold.Protein.RotatedAtoms>
  151.6906  135.0947  160.0232 H   0  0  0  0  0  0  0  0  0  0  0  0  # atno 6907 bound_to 6896
  152.3781  133.6504  159.6148 H   0  0  0  0  0  0  0  0  0  0  0  0  # atno 6908 bound_to 6896
  150.7725  133.9076  159.3401 H   0  0  0  0  0  0  0  0  0  0  0  0  # atno 6909 bound_to 6896
  144.7958  140.5044  143.5741 H   0  0  0  0  0  0  0  0  0  0  0  0  # atno 7974 bound_to 7965
  154.4000  140.1482  156.3297 H   0  0  0  0  0  0  0  0  0  0  0  0  # atno 8008 bound_to 7997
  155.8454  140.3460  155.5637 H   0  0  0  0  0  0  0  0  0  0  0  0  # atno 8009 bound_to 7997
  155.8042  140.0874  157.1931 H   0  0  0  0  0  0  0  0  0  0  0  0  # atno 8010 bound_to 7997
  139.9051  144.6306  150.8596 H   0  0  0  0  0  0  0  0  0  0  0  0  # atno 10167 bound_to 10162
  156.8350  130.5501  149.5683 H   0  0  0  0  0  0  0  0  0  0  0  0  # atno 10718 bound_to 10713
  153.2592  135.6921  153.7596 H   0  0  0  0  0  0  0  0  0  0  0  0  # atno 10763 bound_to 10752
  153.6661  135.3352  155.3141 H   0  0  0  0  0  0  0  0  0  0  0  0  # atno 10764 bound_to 10752
  154.8424  135.4489  154.1577 H   0  0  0  0  0  0  0  0  0  0  0  0  # atno 10765 bound_to 10752
  140.0605  134.9207  157.1176 H   0  0  0  0  0  0  0  0  0  0  0  0  # atno 11005 bound_to 11000
  145.5677  139.1482  143.3306 LP  0  0  0  0  0  0  0  0  0  0  0  0  # atno 17320 bound_to 7965
  146.2226  140.5811  142.9010 LP  0  0  0  0  0  0  0  0  0  0  0  0  # atno 17321 bound_to 7965
  140.7698  143.3407  151.2214 LP  0  0  0  0  0  0  0  0  0  0  0  0  # atno 17342 bound_to 10162
  139.6991  143.9563  152.2897 LP  0  0  0  0  0  0  0  0  0  0  0  0  # atno 17343 bound_to 10162
  156.0913  130.5897  150.9737 LP  0  0  0  0  0  0  0  0  0  0  0  0  # atno 17370 bound_to 10713
  157.6386  131.0913  150.8297 LP  0  0  0  0  0  0  0  0  0  0  0  0  # atno 17371 bound_to 10713
  140.3777  134.2321  155.7173 LP  0  0  0  0  0  0  0  0  0  0  0  0  # atno 17394 bound_to 11000
  141.1971  133.8067  157.0642 LP  0  0  0  0  0  0  0  0  0  0  0  0  # atno 17395 bound_to 11000

$$$$
