#       Name:                AV-unprocessed.smi:2770
#       Creating user name   scv26
#       Creation time:       Fri Mar 27 15:10:48 2020


#       File generated by GOLD software.
#

@<TRIPOS>MOLECULE
AV-unprocessed.smi:2770
    40    41     1
SMALL
NO_CHARGES


@<TRIPOS>ATOM
      1 ****        -4.6981  -2.9961  -1.3457 C.3            1 S1                 0.0000
      2 ****        -3.2799  -2.6752  -1.3001 N.am           1 S1                 0.0000
      3 ****        -2.7387  -1.7504  -0.4930 C.2            1 S1                 0.0000
      4 ****        -3.4046  -1.0836   0.3001 O.2            1 S1                 0.0000
      5 ****        -1.2174  -1.5653  -0.5835 C.3            1 S1                 0.0000
      6 ****        -0.7527  -0.2064  -0.0118 C.3            1 S1                 0.0000
      7 ****         0.6803  -0.0354  -0.2128 N.3            1 S1                 0.0000
      8 ****         1.1742   1.1364   0.3748 C.ar           1 S1                 0.0000
      9 ****         0.8657   2.4348  -0.0943 C.ar           1 S1                 0.0000
     10 ****         1.4074   3.5549   0.5692 C.ar           1 S1                 0.0000
     11 ****         2.2443   3.3587   1.6866 C.ar           1 S1                 0.0000
     12 ****         2.5193   2.0433   2.1161 C.ar           1 S1                 0.0000
     13 ****         3.4057   1.7480   3.3073 C.3            1 S1                 0.0000
     14 ****         1.9797   0.9971   1.4514 N.pl3          1 S1                 1.0000
     15 ****         1.0773  -0.2028  -1.6043 C.3            1 S1                 0.0000
     16 ****         0.5859  -1.5620  -2.1268 C.3            1 S1                 0.0000
     17 ****        -0.8251  -1.6507  -1.9548 O.3            1 S1                 0.0000
     18 ****        -4.8817  -3.7642  -2.0968 H              1 S1                 0.0000
     19 ****        -5.2878  -2.1166  -1.6066 H              1 S1                 0.0000
     20 ****        -5.0418  -3.3727  -0.3816 H              1 S1                 0.0000
     21 ****        -2.6689  -3.1851  -1.9222 H              1 S1                 0.0000
     22 ****        -0.7521  -2.3802  -0.0259 H              1 S1                 0.0000
     23 ****        -1.2904   0.6102  -0.4969 H              1 S1                 0.0000
     24 ****        -0.9746  -0.1503   1.0550 H              1 S1                 0.0000
     25 ****         0.2198   2.5759  -0.9487 H              1 S1                 0.0000
     26 ****         1.1823   4.5539   0.2258 H              1 S1                 0.0000
     27 ****         2.6661   4.2076   2.2052 H              1 S1                 0.0000
     28 ****         3.7224   2.6682   3.7993 H              1 S1                 0.0000
     29 ****         4.2973   1.2057   2.9917 H              1 S1                 0.0000
     30 ****         2.8718   1.1388   4.0371 H              1 S1                 0.0000
     31 ****         0.6562   0.5989  -2.2120 H              1 S1                 0.0000
     32 ****         2.1628  -0.1388  -1.6891 H              1 S1                 0.0000
     33 ****         0.8223  -1.6665  -3.1857 H              1 S1                 0.0000
     34 ****         1.0804  -2.3837  -1.6060 H              1 S1                 0.0000
     35 ****         2.1915   0.0544   1.7793 H              1 S1                 0.0000
     36 ****        -4.3932  -1.2209   0.3619 LP             1 S1                 0.0000
     37 ****        -2.9566  -0.4050   0.8822 LP             1 S1                 0.0000
     38 ****         1.1242  -0.7838   0.2800 LP             1 S1                 0.0000
     39 ****        -1.2569  -0.9027  -2.4588 LP             1 S1                 0.0000
     40 ****        -1.1384  -2.5258  -2.3238 LP             1 S1                 0.0000
@<TRIPOS>BOND
    1    1    2 1     
    2    1   18 1     
    3    1   19 1     
    4    1   20 1     
    5    2    3 am    
    6    2   21 1     
    7    3    4 2     
    8    3    5 1     
    9    5   17 1     
   10    5    6 1     
   11    5   22 1     
   12    6    7 1     
   13    6   23 1     
   14    6   24 1     
   15    7    8 1     
   16    7   15 1     
   17    8   14 ar    
   18    8    9 ar    
   19    9   10 ar    
   20    9   25 1     
   21   10   11 ar    
   22   10   26 1     
   23   11   12 ar    
   24   11   27 1     
   25   12   13 1     
   26   12   14 ar    
   27   13   28 1     
   28   13   29 1     
   29   13   30 1     
   30   14   35 1     
   31   15   16 1     
   32   15   31 1     
   33   15   32 1     
   34   16   17 1     
   35   16   33 1     
   36   16   34 1     
   37    4   36 1     
   38    4   37 1     
   39    7   38 1     
   40   17   39 1     
   41   17   40 1     
@<TRIPOS>SUBSTRUCTURE
      1 S1             1
@<TRIPOS>SET
LONE_PAIRS      STATIC     ATOMS    <user>   **** ""
5 36 37 38 39 40
DONOR_HYDROGENS      STATIC     ATOMS    <user>   **** ""
2 21 35
ATOM$BLUE        STATIC     ATOMS    COLORGROUP SYSTEM
5 36 37 38 39 40
ATOM$RED        STATIC     ATOMS    COLORGROUP SYSTEM
2 21 35
