AV-unprocessed.smi:3132|AV-procd|sdf|11936|dock8
  -GOLD-   2272017323D 1   1.00000     0.00000
 Structure written by MMmdl.
 33 34  0  0  0  0  0  0  0  0  1 V2000
  151.7081  139.0813  159.3064 C   0  0  0  0  0  0  0  0  0  0  0  0
  151.5930  140.5210  158.7843 C   0  0  1  0  0  0  0  0  0  0  0  0
  152.9049  141.3036  158.9824 C   0  0  0  0  0  0  0  0  0  0  0  0
  152.9061  142.0674  160.2165 N   0  0  0  0  0  0  0  0  0  0  0  0
  152.2255  143.2509  160.4719 C   0  0  0  0  0  0  0  0  0  0  0  0
  152.5189  143.6001  161.7707 C   0  0  0  0  0  0  0  0  0  0  0  0
  153.3751  142.6538  162.3289 N   0  0  0  0  0  0  0  0  0  0  0  0
  153.5598  141.7775  161.3498 C   0  0  0  0  0  0  0  0  0  0  0  0
  151.2306  140.5055  157.3686 N   0  0  0  0  0  0  0  0  0  0  0  0
  151.8538  139.8057  156.4086 C   0  0  0  0  0  0  0  0  0  0  0  0
  152.8411  139.0998  156.6171 O   0  0  0  0  0  0  0  0  0  0  0  0
  151.2521  139.9103  155.0025 C   0  0  1  0  0  0  0  0  0  0  0  0
  150.6474  138.5973  154.4699 C   0  0  0  0  0  0  0  0  0  0  0  0
  149.1547  138.8616  154.4781 C   0  0  0  0  0  0  0  0  0  0  0  0
  149.1040  140.3661  154.2546 C   0  0  0  0  0  0  0  0  0  0  0  0
  150.1758  140.8452  155.0516 O   0  0  0  0  0  0  0  0  0  0  0  0
  151.9619  139.0684  160.3666 H   0  0  0  0  0  0  0  0  0  0  0  0
  152.4799  138.5256  158.7730 H   0  0  0  0  0  0  0  0  0  0  0  0
  150.7667  138.5436  159.1885 H   0  0  0  0  0  0  0  0  0  0  0  0
  150.8126  141.0247  159.3579 H   0  0  0  0  0  0  0  0  0  0  0  0
  153.7527  140.6178  159.0105 H   0  0  0  0  0  0  0  0  0  0  0  0
  153.0803  141.9832  158.1469 H   0  0  0  0  0  0  0  0  0  0  0  0
  151.6028  143.7308  159.7314 H   0  0  0  0  0  0  0  0  0  0  0  0
  152.1822  144.4528  162.3415 H   0  0  0  0  0  0  0  0  0  0  0  0
  154.1828  140.9020  161.4605 H   0  0  0  0  0  0  0  0  0  0  0  0
  150.4239  141.0506  157.1017 H   0  0  0  0  0  0  0  0  0  0  0  0
  152.0059  140.2736  154.3018 H   0  0  0  0  0  0  0  0  0  0  0  0
  150.9889  138.4258  153.4484 H   0  0  0  0  0  0  0  0  0  0  0  0
  150.9104  137.7122  155.0507 H   0  0  0  0  0  0  0  0  0  0  0  0
  148.6148  138.2975  153.7172 H   0  0  0  0  0  0  0  0  0  0  0  0
  148.7343  138.6141  155.4537 H   0  0  0  0  0  0  0  0  0  0  0  0
  149.2884  140.6116  153.2075 H   0  0  0  0  0  0  0  0  0  0  0  0
  148.1524  140.8071  154.5525 H   0  0  0  0  0  0  0  0  0  0  0  0
  1  2  1  0  0  0  0
  1 17  1  0  0  0  0
  1 18  1  0  0  0  0
  1 19  1  0  0  0  0
  2  3  1  0  0  0  0
  2  9  1  0  0  0  0
  2 20  1  0  0  0  0
  3  4  1  0  0  0  0
  3 21  1  0  0  0  0
  3 22  1  0  0  0  0
  4  8  1  0  0  0  0
  4  5  1  0  0  0  0
  5  6  2  0  0  0  0
  5 23  1  0  0  0  0
  6  7  1  0  0  0  0
  6 24  1  0  0  0  0
  7  8  2  0  0  0  0
  8 25  1  0  0  0  0
  9 10  1  0  0  0  0
  9 26  1  0  0  0  0
 10 11  2  0  0  0  0
 10 12  1  0  0  0  0
 12 16  1  0  0  0  0
 12 13  1  0  0  0  0
 12 27  1  0  0  0  0
 13 14  1  0  0  0  0
 13 28  1  0  0  0  0
 13 29  1  0  0  0  0
 14 15  1  0  0  0  0
 14 30  1  0  0  0  0
 14 31  1  0  0  0  0
 15 16  1  0  0  0  0
 15 32  1  0  0  0  0
 15 33  1  0  0  0  0
M  END
> <s_m_source_file>
AV-unprocessed.smi

> <i_m_source_file_index>
3132

> <i_lp_mmshare_version>
43012

> <i_f3d_flags>
0

> <s_epik_input>
W2NIXTFuW2NIXVtjSF1uMVtDSDJdW0NAQEhdKFtDSDNdKVtOSF1DKD1PKVtDQEBIXTJbQ0gyXVtDSDJdW0NIMl1PMg==

> <s_epik_cmdline>
J2VwaWtfcHl0aG9uJywgJy1waCcsICc3LjAnLCAnLXRuJywgJzgnLCAnLW1hJywgJzIwMCcsICctbWV0YWxfYmluZGluZycsICctaW1hZScsICc8aW5maWxlLm1hZT4nLCAnLW9tYWUnLCAnPG91dGZpbGUubWFlPic=

> <r_lp_tautomer_probability>
1

> <r_epik_Ionization_Penalty>
0.630322

> <r_epik_Ionization_Penalty_Charging>
0.630322

> <r_epik_Ionization_Penalty_Neutral>
3.82652e-08

> <r_epik_State_Penalty>
0.647117

> <r_epik_Charging_Adjusted_Penalty>
1.27744

> <i_epik_Tot_Q>
0

> <i_epik_Tot_abs_Q>
0

> <r_epik_Metal_State_Penalty>
0.309095

> <b_epik_Metal_Only>
0

> <s_lp_Force_Field>
OPLS_2005

> <r_lp_Energy>
20.0706

> <b_lp_Chiralities_Consistent>
1

> <s_lp_Variant>
AV-unprocessed.smi:3132-8

> <Gold.Version>
5.8.1

> <Gold.Id.Protein>
6NUR|6NUR_protein|mol2

> <Gold.PLP.Fitness>
37.2761

> <Gold.PLP.PLP>
-35.9016

> <Gold.PLP.part.hbond>
-2.0000

> <Gold.PLP.part.metal>
0.0000

> <Gold.PLP.part.buried>
-1.6923

> <Gold.PLP.part.nonpolar>
-32.0565

> <Gold.PLP.part.repulsive>
0.2104

> <Gold.PLP.ligand.clash>
0.0000

> <Gold.PLP.ligand.torsion>
0.8208

> <Gold.PLP.Chemscore.Hbond>
1.0000

> <Gold.PLP.Chemscore.CHOScore>
0.0000

> <Gold.PLP.Chemscore.Metal>
0.0000

> <Gold.Chemscore.Hbonds>
donor molecule, donor type, donor heavy atom, donor atom, acceptor molecule, acceptor atom, score
      P1  H  7997  8010       L1    11  1.00

> <Gold.PLP.Chemscore.Internal.Correction>
0.0160

> <Gold.Rescore>
     Score         DG    S(hbond)    S(metal)    S(lipo)     H(rot)  DE(clash)    DE(int)     intcor
     10.23     -11.98       1.00        0.00      67.83       1.86       0.18       1.57       ----

> <Gold.Chemscore.Fitness>
10.2277

> <Gold.Chemscore.DG>
-11.9765

> <Gold.Chemscore.ZeroCoef>
-5.4800

> <Gold.Chemscore.Hbond>
0.9975

> <Gold.Chemscore.Metal>
0.0000

> <Gold.Chemscore.Lipo>
67.8281

> <Gold.Chemscore.Internal_Hbond>
0.0000

> <Gold.Chemscore.DEClash>
0.1812

> <Gold.Chemscore.DEInternal>
1.5676

> <Gold.Chemscore.Rot>
1.8636

> <Gold.Chemscore.Internal.Correction>
   9.000000E+99

> <Gold.Chemscore.Hbonds>
donor molecule, donor type, donor heavy atom, donor atom, acceptor molecule, acceptor atom, score
      P1  H  7997  8010       L1    11  0.78

> <Gold.Chemscore.Hbond.Weighted>
-3.3315

> <Gold.Chemscore.Metal.Weighted>
-0.0000

> <Gold.Chemscore.Lipo.Weighted>
-7.9359

> <Gold.Chemscore.Internal_Hbond.Weighted>
0.0000

> <Gold.Chemscore.DEClash.Weighted>
0.1812

> <Gold.Chemscore.DEInternal.Weighted>
1.5676

> <Gold.Chemscore.Rot.Weighted>
4.7709

> <Gold.Chemscore.Internal.Correction.Weighted>
   9.000000E+99

> <Gold.Protein.RotatedTorsions>
[ 6907 6896 6895 6894 ] final -159.37 input  -60.11 | X-H torsion
[ 7974 7965 7964 7962 ] final -172.34 input  175.53 | X-H torsion
[ 8008 7997 7996 7995 ] final   65.50 input   59.86 | X-H torsion
[ 10167 10162 10161 10158 ] final  143.08 input  -65.29 | X-H torsion
[ 10718 10713 10712 10709 ] final   37.58 input   66.30 | X-H torsion
[ 10763 10752 10751 10750 ] final   96.92 input  -60.55 | X-H torsion
[ 11005 11000 10999 10996 ] final -136.90 input  -57.11 | X-H torsion

> <Gold.Protein.ActiveResidues>
 VAL166  LYS551  ARG553  GLY616  TRP617  ASP618  TYR619  PRO620  LYS621  CYS622 
 ASP623  PHE694  ASN695  SER759  ASP760  ASP761  ALA762  ILE779  LEU786  VAL792 
 PHE793  MET794  SER795  GLU796  ALA797  LYS798  CYS799  TRP800  GLU811  SER814 

> <Gold.Protein.RotatedAtoms>
  151.3326  133.3994  159.2663 H   0  0  0  0  0  0  0  0  0  0  0  0  # atno 6907 bound_to 6896
  150.9943  134.9271  159.7928 H   0  0  0  0  0  0  0  0  0  0  0  0  # atno 6908 bound_to 6896
  152.5256  134.3290  159.9228 H   0  0  0  0  0  0  0  0  0  0  0  0  # atno 6909 bound_to 6896
  144.7147  140.1787  143.6360 H   0  0  0  0  0  0  0  0  0  0  0  0  # atno 7974 bound_to 7965
  155.6628  140.3497  155.4789 H   0  0  0  0  0  0  0  0  0  0  0  0  # atno 8008 bound_to 7997
  155.9754  140.1164  157.0798 H   0  0  0  0  0  0  0  0  0  0  0  0  # atno 8009 bound_to 7997
  154.4177  140.1149  156.5349 H   0  0  0  0  0  0  0  0  0  0  0  0  # atno 8010 bound_to 7997
  139.4978  144.6064  151.6368 H   0  0  0  0  0  0  0  0  0  0  0  0  # atno 10167 bound_to 10162
  157.3486  130.7586  149.6962 H   0  0  0  0  0  0  0  0  0  0  0  0  # atno 10718 bound_to 10713
  153.2707  135.4201  155.0985 H   0  0  0  0  0  0  0  0  0  0  0  0  # atno 10763 bound_to 10752
  154.8455  135.3471  154.6248 H   0  0  0  0  0  0  0  0  0  0  0  0  # atno 10764 bound_to 10752
  153.6668  135.7045  153.5217 H   0  0  0  0  0  0  0  0  0  0  0  0  # atno 10765 bound_to 10752
  140.8762  134.1989  157.4620 H   0  0  0  0  0  0  0  0  0  0  0  0  # atno 11005 bound_to 11000
  145.8876  139.2357  143.1568 LP  0  0  0  0  0  0  0  0  0  0  0  0  # atno 17320 bound_to 7965
  145.9935  140.8582  143.0054 LP  0  0  0  0  0  0  0  0  0  0  0  0  # atno 17321 bound_to 7965
  140.5727  144.0080  150.6225 LP  0  0  0  0  0  0  0  0  0  0  0  0  # atno 17342 bound_to 10162
  140.3204  143.3141  152.0790 LP  0  0  0  0  0  0  0  0  0  0  0  0  # atno 17343 bound_to 10162
  155.9718  130.4147  150.4145 LP  0  0  0  0  0  0  0  0  0  0  0  0  # atno 17370 bound_to 10713
  157.2204  131.0481  151.2550 LP  0  0  0  0  0  0  0  0  0  0  0  0  # atno 17371 bound_to 10713
  139.8716  134.9797  156.5046 LP  0  0  0  0  0  0  0  0  0  0  0  0  # atno 17394 bound_to 11000
  140.8515  133.8128  155.9173 LP  0  0  0  0  0  0  0  0  0  0  0  0  # atno 17395 bound_to 11000

$$$$
