AV-unprocessed.smi:3284|AV-procd|sdf|12576|dock2
  -GOLD-   2272018493D 1   1.00000     0.00000
 Structure written by MMmdl.
 45 46  0  0  0  0  0  0  0  0  3 V2000
  142.6056  134.4979  152.5040 C   0  0  0  0  0  0  0  0  0  0  0  0
  143.7494  133.7658  151.8220 C   0  0  0  0  0  0  0  0  0  0  0  0
  143.5060  132.7639  150.9541 C   0  0  0  0  0  0  0  0  0  0  0  0
  144.5756  131.9394  150.2597 C   0  0  0  0  0  0  0  0  0  0  0  0
  145.9987  132.4713  150.4967 C   0  0  0  0  0  0  0  0  0  0  0  0
  146.1660  133.0172  151.9254 C   0  0  1  0  0  0  0  0  0  0  0  0
  147.6345  133.3363  152.2546 C   0  0  0  0  0  0  0  0  0  0  0  0
  145.1773  134.1868  152.1945 C   0  0  1  0  0  0  0  0  0  0  0  0
  145.5984  135.5085  151.4998 C   0  0  0  0  0  0  0  0  0  0  0  0
  146.5554  136.2976  152.2998 N   0  3  0  0  0  0  0  0  0  0  0  0
  146.1059  137.6734  152.5949 C   0  0  0  0  0  0  0  0  0  0  0  0
  147.0423  138.7281  151.9836 C   0  0  0  0  0  0  0  0  0  0  0  0
  148.0988  139.2234  152.9275 C   0  0  0  0  0  0  0  0  0  0  0  0
  149.1807  138.5310  153.3054 N   0  3  0  0  0  0  0  0  0  0  0  0
  149.9403  139.2667  154.1737 C   0  0  0  0  0  0  0  0  0  0  0  0
  149.2919  140.4624  154.3372 C   0  0  0  0  0  0  0  0  0  0  0  0
  148.1632  140.4080  153.5601 N   0  0  0  0  0  0  0  0  0  0  0  0
  147.1594  141.4642  153.4155 C   0  0  0  0  0  0  0  0  0  0  0  0
  142.7955  134.5990  153.5726 H   0  0  0  0  0  0  0  0  0  0  0  0
  141.6681  133.9534  152.3853 H   0  0  0  0  0  0  0  0  0  0  0  0
  142.4587  135.4883  152.0768 H   0  0  0  0  0  0  0  0  0  0  0  0
  142.4860  132.4826  150.7358 H   0  0  0  0  0  0  0  0  0  0  0  0
  144.4975  130.9199  150.6387 H   0  0  0  0  0  0  0  0  0  0  0  0
  144.3644  131.8944  149.1910 H   0  0  0  0  0  0  0  0  0  0  0  0
  146.7171  131.6732  150.3057 H   0  0  0  0  0  0  0  0  0  0  0  0
  146.2223  133.2557  149.7735 H   0  0  0  0  0  0  0  0  0  0  0  0
  145.8840  132.2099  152.6039 H   0  0  0  0  0  0  0  0  0  0  0  0
  148.0745  134.0282  151.5365 H   0  0  0  0  0  0  0  0  0  0  0  0
  148.2389  132.4290  152.2348 H   0  0  0  0  0  0  0  0  0  0  0  0
  147.7311  133.7708  153.2501 H   0  0  0  0  0  0  0  0  0  0  0  0
  145.1900  134.3583  153.2719 H   0  0  0  0  0  0  0  0  0  0  0  0
  146.0787  135.3060  150.5436 H   0  0  0  0  0  0  0  0  0  0  0  0
  144.7204  136.1208  151.2922 H   0  0  0  0  0  0  0  0  0  0  0  0
  146.7058  135.8142  153.1741 H   0  0  0  0  0  0  0  0  0  0  0  0
  145.0897  137.8135  152.2240 H   0  0  0  0  0  0  0  0  0  0  0  0
  146.0714  137.8058  153.6769 H   0  0  0  0  0  0  0  0  0  0  0  0
  147.5694  138.3075  151.1265 H   0  0  0  0  0  0  0  0  0  0  0  0
  146.4790  139.5855  151.6158 H   0  0  0  0  0  0  0  0  0  0  0  0
  150.8617  138.8946  154.5983 H   0  0  0  0  0  0  0  0  0  0  0  0
  149.5465  141.3274  154.9333 H   0  0  0  0  0  0  0  0  0  0  0  0
  147.4538  142.3305  154.0089 H   0  0  0  0  0  0  0  0  0  0  0  0
  146.1957  141.0987  153.7685 H   0  0  0  0  0  0  0  0  0  0  0  0
  147.0871  141.7569  152.3676 H   0  0  0  0  0  0  0  0  0  0  0  0
  147.4307  136.3394  151.7979 H   0  0  0  0  0  0  0  0  0  0  0  0
  149.4095  137.5978  152.9862 H   0  0  0  0  0  0  0  0  0  0  0  0
  1  2  1  0  0  0  0
  1 19  1  0  0  0  0
  1 20  1  0  0  0  0
  1 21  1  0  0  0  0
  2  8  1  0  0  0  0
  2  3  2  0  0  0  0
  3  4  1  0  0  0  0
  3 22  1  0  0  0  0
  4  5  1  0  0  0  0
  4 23  1  0  0  0  0
  4 24  1  0  0  0  0
  5  6  1  0  0  0  0
  5 25  1  0  0  0  0
  5 26  1  0  0  0  0
  6  7  1  0  0  0  0
  6  8  1  0  0  0  0
  6 27  1  0  0  0  0
  7 28  1  0  0  0  0
  7 29  1  0  0  0  0
  7 30  1  0  0  0  0
  8  9  1  0  0  0  0
  8 31  1  0  0  0  0
  9 10  1  0  0  0  0
  9 32  1  0  0  0  0
  9 33  1  0  0  0  0
 10 11  1  0  0  0  0
 10 34  1  0  0  0  0
 10 44  1  0  0  0  0
 11 12  1  0  0  0  0
 11 35  1  0  0  0  0
 11 36  1  0  0  0  0
 12 13  1  0  0  0  0
 12 37  1  0  0  0  0
 12 38  1  0  0  0  0
 13 17  1  0  0  0  0
 13 14  2  0  0  0  0
 14 15  1  0  0  0  0
 14 45  1  0  0  0  0
 15 16  2  0  0  0  0
 15 39  1  0  0  0  0
 16 17  1  0  0  0  0
 16 40  1  0  0  0  0
 17 18  1  0  0  0  0
 18 41  1  0  0  0  0
 18 42  1  0  0  0  0
 18 43  1  0  0  0  0
M  CHG  1  10   1
M  CHG  1  14   1
M  END
> <s_m_source_file>
AV-unprocessed.smi

> <i_m_source_file_index>
3284

> <i_lp_mmshare_version>
43012

> <i_f3d_flags>
0

> <s_epik_input>
W0NIM11DMT1bQ0hdW0NIMl1bQ0gyXVtDQEBIXShbQ0gzXSlbQ0BIXTFbQ0gyXVtOSF1bQ0gyXVtDSDJdYzJuW2NIXVtjSF1uMltDSDNd

> <s_epik_cmdline>
J2VwaWtfcHl0aG9uJywgJy1waCcsICc3LjAnLCAnLXRuJywgJzgnLCAnLW1hJywgJzIwMCcsICctbWV0YWxfYmluZGluZycsICctaW1hZScsICc8aW5maWxlLm1hZT4nLCAnLW9tYWUnLCAnPG91dGZpbGUubWFlPic=

> <r_lp_tautomer_probability>
1

> <r_epik_Ionization_Penalty>
0.892846

> <r_epik_Ionization_Penalty_Charging>
0.00275802

> <r_epik_Ionization_Penalty_Neutral>
0.890088

> <r_epik_State_Penalty>
0.485211

> <r_epik_Charging_Adjusted_Penalty>
0.487969

> <i_epik_Tot_Q>
2

> <i_epik_Tot_abs_Q>
2

> <r_epik_Metal_State_Penalty>
4.22898

> <b_epik_Metal_Only>
0

> <s_lp_Force_Field>
OPLS_2005

> <r_lp_Energy>
25.5845

> <b_lp_Chiralities_Consistent>
1

> <s_lp_Variant>
AV-unprocessed.smi:3284-5

> <Gold.Version>
5.8.1

> <Gold.Id.Protein>
6NUR|6NUR_protein|mol2

> <Gold.PLP.Fitness>
49.4617

> <Gold.PLP.PLP>
-40.2203

> <Gold.PLP.part.hbond>
-3.0000

> <Gold.PLP.part.metal>
0.0000

> <Gold.PLP.part.buried>
-0.8419

> <Gold.PLP.part.nonpolar>
-36.2120

> <Gold.PLP.part.repulsive>
0.0956

> <Gold.PLP.ligand.clash>
0.0000

> <Gold.PLP.ligand.torsion>
1.4810

> <Gold.PLP.Chemscore.Hbond>
4.0000

> <Gold.PLP.Chemscore.CHOScore>
0.0000

> <Gold.PLP.Chemscore.Metal>
0.0000

> <Gold.Chemscore.Hbonds>
donor molecule, donor type, donor heavy atom, donor atom, acceptor molecule, acceptor atom, score
      L1  H    10    44       P1  7948  1.81
      L1  H    14    45       P1  7948  1.86

> <Gold.PLP.Chemscore.Internal.Correction>
0.2034

> <Gold.Rescore>
     Score         DG    S(hbond)    S(metal)    S(lipo)     H(rot)  DE(clash)    DE(int)     intcor
     16.16     -17.85       1.98        0.00      86.45       1.70       0.23       1.47       ----

> <Gold.Chemscore.Fitness>
16.1601

> <Gold.Chemscore.DG>
-17.8522

> <Gold.Chemscore.ZeroCoef>
-5.4800

> <Gold.Chemscore.Hbond>
1.9786

> <Gold.Chemscore.Metal>
0.0000

> <Gold.Chemscore.Lipo>
86.4518

> <Gold.Chemscore.Internal_Hbond>
0.0000

> <Gold.Chemscore.DEClash>
0.2254

> <Gold.Chemscore.DEInternal>
1.4666

> <Gold.Chemscore.Rot>
1.6997

> <Gold.Chemscore.Internal.Correction>
   9.000000E+99

> <Gold.Chemscore.Hbonds>
donor molecule, donor type, donor heavy atom, donor atom, acceptor molecule, acceptor atom, score
      L1  H    10    44       P1  7948  0.83
      L1  H    14    45       P1  7948  0.81

> <Gold.Chemscore.Hbond.Weighted>
-6.6085

> <Gold.Chemscore.Metal.Weighted>
-0.0000

> <Gold.Chemscore.Lipo.Weighted>
-10.1149

> <Gold.Chemscore.Internal_Hbond.Weighted>
0.0000

> <Gold.Chemscore.DEClash.Weighted>
0.2254

> <Gold.Chemscore.DEInternal.Weighted>
1.4666

> <Gold.Chemscore.Rot.Weighted>
4.3512

> <Gold.Chemscore.Internal.Correction.Weighted>
   9.000000E+99

> <Gold.Protein.RotatedTorsions>
[ 6907 6896 6895 6894 ] final  -78.02 input  -60.11 | X-H torsion
[ 7974 7965 7964 7962 ] final  -27.35 input  175.53 | X-H torsion
[ 8008 7997 7996 7995 ] final  155.78 input   59.86 | X-H torsion
[ 10167 10162 10161 10158 ] final   17.48 input  -65.29 | X-H torsion
[ 10718 10713 10712 10709 ] final  -60.30 input   66.30 | X-H torsion
[ 10763 10752 10751 10750 ] final  161.75 input  -60.55 | X-H torsion
[ 11005 11000 10999 10996 ] final  -98.39 input  -57.11 | X-H torsion

> <Gold.Protein.ActiveResidues>
 VAL166  LYS551  ARG553  GLY616  TRP617  ASP618  TYR619  PRO620  LYS621  CYS622 
 ASP623  PHE694  ASN695  SER759  ASP760  ASP761  ALA762  ILE779  LEU786  VAL792 
 PHE793  MET794  SER795  GLU796  ALA797  LYS798  CYS799  TRP800  GLU811  SER814 

> <Gold.Protein.RotatedAtoms>
  150.6983  134.4334  159.5258 H   0  0  0  0  0  0  0  0  0  0  0  0  # atno 6907 bound_to 6896
  152.2057  134.8545  160.0512 H   0  0  0  0  0  0  0  0  0  0  0  0  # atno 6908 bound_to 6896
  151.9449  133.3613  159.4015 H   0  0  0  0  0  0  0  0  0  0  0  0  # atno 6909 bound_to 6896
  146.1364  140.5140  142.8671 H   0  0  0  0  0  0  0  0  0  0  0  0  # atno 7974 bound_to 7965
  156.2459  140.1930  156.6853 H   0  0  0  0  0  0  0  0  0  0  0  0  # atno 8008 bound_to 7997
  154.6291  140.0598  156.9736 H   0  0  0  0  0  0  0  0  0  0  0  0  # atno 8009 bound_to 7997
  155.1739  140.3270  155.4390 H   0  0  0  0  0  0  0  0  0  0  0  0  # atno 8010 bound_to 7997
  140.5723  143.9138  150.6722 H   0  0  0  0  0  0  0  0  0  0  0  0  # atno 10167 bound_to 10162
  156.1000  130.4187  150.0834 H   0  0  0  0  0  0  0  0  0  0  0  0  # atno 10718 bound_to 10713
  154.2678  135.2766  155.2751 H   0  0  0  0  0  0  0  0  0  0  0  0  # atno 10763 bound_to 10752
  154.5328  135.5725  153.6776 H   0  0  0  0  0  0  0  0  0  0  0  0  # atno 10764 bound_to 10752
  152.9950  135.6232  154.2831 H   0  0  0  0  0  0  0  0  0  0  0  0  # atno 10765 bound_to 10752
  141.1346  133.8242  157.0834 H   0  0  0  0  0  0  0  0  0  0  0  0  # atno 11005 bound_to 11000
  144.7744  140.5708  143.6648 LP  0  0  0  0  0  0  0  0  0  0  0  0  # atno 17320 bound_to 7965
  145.5147  139.1478  143.3585 LP  0  0  0  0  0  0  0  0  0  0  0  0  # atno 17321 bound_to 7965
  140.2616  143.3519  152.1317 LP  0  0  0  0  0  0  0  0  0  0  0  0  # atno 17342 bound_to 10162
  139.5124  144.6916  151.5744 LP  0  0  0  0  0  0  0  0  0  0  0  0  # atno 17343 bound_to 10162
  156.8824  130.9561  151.3598 LP  0  0  0  0  0  0  0  0  0  0  0  0  # atno 17370 bound_to 10713
  157.6169  130.8625  149.9043 LP  0  0  0  0  0  0  0  0  0  0  0  0  # atno 17371 bound_to 10713
  140.0437  134.9841  157.1010 LP  0  0  0  0  0  0  0  0  0  0  0  0  # atno 17394 bound_to 11000
  140.4095  134.1996  155.7163 LP  0  0  0  0  0  0  0  0  0  0  0  0  # atno 17395 bound_to 11000

$$$$
