AV-unprocessed.smi:1913|AV-procd|sdf|7753|dock3
  -GOLD-   22720 9493D 1   1.00000     0.00000
 Structure written by MMmdl.
 40 42  0  0  0  0  0  0  0  0  1 V2000
  151.0752  134.2908  155.3981 C   0  0  0  0  0  0  0  0  0  0  0  0
  151.3750  135.6083  154.9603 O   0  0  0  0  0  0  0  0  0  0  0  0
  150.4480  136.5993  155.2028 C   0  0  0  0  0  0  0  0  0  0  0  0
  149.1985  136.3843  155.8304 C   0  0  0  0  0  0  0  0  0  0  0  0
  148.3073  137.4545  156.0312 C   0  0  0  0  0  0  0  0  0  0  0  0
  148.6423  138.7668  155.6145 C   0  0  0  0  0  0  0  0  0  0  0  0
  147.8013  139.8504  155.7698 O   0  0  0  0  0  0  0  0  0  0  0  0
  146.5788  139.6653  156.4673 C   0  0  0  0  0  0  0  0  0  0  0  0
  149.8986  138.9882  154.9996 C   0  0  0  0  0  0  0  0  0  0  0  0
  150.2856  140.3902  154.5369 C   0  0  1  0  0  0  0  0  0  0  0  0
  149.5382  140.8317  153.4182 O   0  0  0  0  0  0  0  0  0  0  0  0
  150.1507  141.4106  155.6828 C   0  0  0  0  0  0  0  0  0  0  0  0
  151.2010  141.2673  156.6738 N   0  0  0  0  0  0  0  0  0  0  0  0
  152.0899  140.2616  156.7861 C   0  0  0  0  0  0  0  0  0  0  0  0
  152.9700  140.3354  157.7811 N   0  0  0  0  0  0  0  0  0  0  0  0
  152.6098  141.5282  158.3848 C   0  0  0  0  0  0  0  0  0  0  0  0
  153.1534  142.1893  159.5095 C   0  0  0  0  0  0  0  0  0  0  0  0
  152.6118  143.4159  159.9481 C   0  0  0  0  0  0  0  0  0  0  0  0
  151.5201  143.9988  159.2721 C   0  0  0  0  0  0  0  0  0  0  0  0
  150.9614  143.3588  158.1493 C   0  0  0  0  0  0  0  0  0  0  0  0
  151.5058  142.1361  157.7146 C   0  0  0  0  0  0  0  0  0  0  0  0
  150.7808  137.9041  154.7919 C   0  0  0  0  0  0  0  0  0  0  0  0
  151.8980  133.6272  155.1324 H   0  0  0  0  0  0  0  0  0  0  0  0
  150.1743  133.9061  154.9186 H   0  0  0  0  0  0  0  0  0  0  0  0
  150.9545  134.2487  156.4815 H   0  0  0  0  0  0  0  0  0  0  0  0
  148.8958  135.4036  156.1643 H   0  0  0  0  0  0  0  0  0  0  0  0
  147.3644  137.2375  156.5092 H   0  0  0  0  0  0  0  0  0  0  0  0
  146.0320  140.6079  156.4870 H   0  0  0  0  0  0  0  0  0  0  0  0
  146.7511  139.3624  157.5009 H   0  0  0  0  0  0  0  0  0  0  0  0
  145.9453  138.9272  155.9734 H   0  0  0  0  0  0  0  0  0  0  0  0
  151.3233  140.3682  154.2029 H   0  0  0  0  0  0  0  0  0  0  0  0
  149.5850  140.1679  152.7471 H   0  0  0  0  0  0  0  0  0  0  0  0
  150.1615  142.4305  155.2957 H   0  0  0  0  0  0  0  0  0  0  0  0
  149.1947  141.2800  156.1913 H   0  0  0  0  0  0  0  0  0  0  0  0
  152.0881  139.4266  156.1007 H   0  0  0  0  0  0  0  0  0  0  0  0
  153.9889  141.7519  160.0357 H   0  0  0  0  0  0  0  0  0  0  0  0
  153.0362  143.9121  160.8084 H   0  0  0  0  0  0  0  0  0  0  0  0
  151.1114  144.9376  159.6160 H   0  0  0  0  0  0  0  0  0  0  0  0
  150.1247  143.8005  157.6282 H   0  0  0  0  0  0  0  0  0  0  0  0
  151.7314  138.0673  154.3053 H   0  0  0  0  0  0  0  0  0  0  0  0
  1  2  1  0  0  0  0
  1 23  1  0  0  0  0
  1 24  1  0  0  0  0
  1 25  1  0  0  0  0
  2  3  1  0  0  0  0
  3 22  1  0  0  0  0
  3  4  2  0  0  0  0
  4  5  1  0  0  0  0
  4 26  1  0  0  0  0
  5  6  2  0  0  0  0
  5 27  1  0  0  0  0
  6  7  1  0  0  0  0
  6  9  1  0  0  0  0
  7  8  1  0  0  0  0
  8 28  1  0  0  0  0
  8 29  1  0  0  0  0
  8 30  1  0  0  0  0
  9 10  1  0  0  0  0
  9 22  2  0  0  0  0
 10 11  1  0  0  0  0
 10 12  1  0  0  0  0
 10 31  1  0  0  0  0
 11 32  1  0  0  0  0
 12 13  1  0  0  0  0
 12 33  1  0  0  0  0
 12 34  1  0  0  0  0
 13 21  1  0  0  0  0
 13 14  1  0  0  0  0
 14 15  2  0  0  0  0
 14 35  1  0  0  0  0
 15 16  1  0  0  0  0
 16 21  2  0  0  0  0
 16 17  1  0  0  0  0
 17 18  2  0  0  0  0
 17 36  1  0  0  0  0
 18 19  1  0  0  0  0
 18 37  1  0  0  0  0
 19 20  2  0  0  0  0
 19 38  1  0  0  0  0
 20 21  1  0  0  0  0
 20 39  1  0  0  0  0
 22 40  1  0  0  0  0
M  END
> <s_m_source_file>
AV-unprocessed.smi

> <i_m_source_file_index>
1913

> <i_lp_mmshare_version>
43012

> <i_f3d_flags>
0

> <s_epik_input>
W0NIM11PYzFbY0hdW2NIXWMoT1tDSDNdKWMoW2NIXTEpW0NASF0oW09IXSlbQ0gyXW4oW2NIXW4yKWMoYzIzKVtjSF1bY0hdW2NIXVtjSF0z

> <s_epik_cmdline>
J2VwaWtfcHl0aG9uJywgJy1waCcsICc3LjAnLCAnLXRuJywgJzgnLCAnLW1hJywgJzIwMCcsICctbWV0YWxfYmluZGluZycsICctaW1hZScsICc8aW5maWxlLm1hZT4nLCAnLW9tYWUnLCAnPG91dGZpbGUubWFlPic=

> <r_lp_tautomer_probability>
1

> <r_epik_Ionization_Penalty>
0.0696512

> <r_epik_Ionization_Penalty_Charging>
0

> <r_epik_Ionization_Penalty_Neutral>
0.0696512

> <r_epik_State_Penalty>
0.0610247

> <r_epik_Charging_Adjusted_Penalty>
0.0610247

> <i_epik_Tot_Q>
0

> <i_epik_Tot_abs_Q>
0

> <r_epik_Metal_State_Penalty>
6.42746e-05

> <b_epik_Metal_Only>
0

> <s_lp_Force_Field>
OPLS_2005

> <r_lp_Energy>
19.1382

> <b_lp_Chiralities_Consistent>
1

> <s_lp_Variant>
AV-unprocessed.smi:1913-2

> <Gold.Version>
5.8.1

> <Gold.Id.Protein>
6NUR|6NUR_protein|mol2

> <Gold.PLP.Fitness>
48.0510

> <Gold.PLP.PLP>
-37.4075

> <Gold.PLP.part.hbond>
-4.4843

> <Gold.PLP.part.metal>
0.0000

> <Gold.PLP.part.buried>
-2.2044

> <Gold.PLP.part.nonpolar>
-30.0441

> <Gold.PLP.part.repulsive>
0.1480

> <Gold.PLP.ligand.clash>
0.0000

> <Gold.PLP.ligand.torsion>
0.4091

> <Gold.PLP.Chemscore.Hbond>
3.8080

> <Gold.PLP.Chemscore.CHOScore>
0.0000

> <Gold.PLP.Chemscore.Metal>
0.0000

> <Gold.Chemscore.Hbonds>
donor molecule, donor type, donor heavy atom, donor atom, acceptor molecule, acceptor atom, score
      L1  H    11    32       P1  7957  0.80
      P1  H  7997  8010       L1    15  0.90
      P1  H  8011  8017       L1    11  0.95
      P1  H 10752 10764       L1     2  1.00

> <Gold.PLP.Chemscore.Internal.Correction>
0.0376

> <Gold.Rescore>
     Score         DG    S(hbond)    S(metal)    S(lipo)     H(rot)  DE(clash)    DE(int)     intcor
     17.13     -20.31       2.74        0.00      99.63       2.33       1.37       1.80       ----

> <Gold.Chemscore.Fitness>
17.1344

> <Gold.Chemscore.DG>
-20.3117

> <Gold.Chemscore.ZeroCoef>
-5.4800

> <Gold.Chemscore.Hbond>
2.7381

> <Gold.Chemscore.Metal>
0.0000

> <Gold.Chemscore.Lipo>
99.6342

> <Gold.Chemscore.Internal_Hbond>
0.0000

> <Gold.Chemscore.DEClash>
1.3735

> <Gold.Chemscore.DEInternal>
1.8038

> <Gold.Chemscore.Rot>
2.3323

> <Gold.Chemscore.Internal.Correction>
   9.000000E+99

> <Gold.Chemscore.Hbonds>
donor molecule, donor type, donor heavy atom, donor atom, acceptor molecule, acceptor atom, score
      L1  H    11    32       P1  7957  0.78
      P1  H  7997  8010       L1    15  0.26
      P1  H  8011  8017       L1    11  0.21
      P1  H 10752 10764       L1     2  0.57

> <Gold.Chemscore.Hbond.Weighted>
-9.1453

> <Gold.Chemscore.Metal.Weighted>
-0.0000

> <Gold.Chemscore.Lipo.Weighted>
-11.6572

> <Gold.Chemscore.Internal_Hbond.Weighted>
0.0000

> <Gold.Chemscore.DEClash.Weighted>
1.3735

> <Gold.Chemscore.DEInternal.Weighted>
1.8038

> <Gold.Chemscore.Rot.Weighted>
5.9708

> <Gold.Chemscore.Internal.Correction.Weighted>
   9.000000E+99

> <Gold.Protein.RotatedTorsions>
[ 6907 6896 6895 6894 ] final -127.15 input  -60.11 | X-H torsion
[ 7974 7965 7964 7962 ] final  -42.41 input  175.53 | X-H torsion
[ 8008 7997 7996 7995 ] final   42.80 input   59.86 | X-H torsion
[ 10167 10162 10161 10158 ] final   15.41 input  -65.29 | X-H torsion
[ 10718 10713 10712 10709 ] final  -84.18 input   66.30 | X-H torsion
[ 10763 10752 10751 10750 ] final  -69.98 input  -60.55 | X-H torsion
[ 11005 11000 10999 10996 ] final  173.65 input  -57.11 | X-H torsion

> <Gold.Protein.ActiveResidues>
 VAL166  LYS551  ARG553  GLY616  TRP617  ASP618  TYR619  PRO620  LYS621  CYS622 
 ASP623  PHE694  ASN695  SER759  ASP760  ASP761  ALA762  ILE779  LEU786  VAL792 
 PHE793  MET794  SER795  GLU796  ALA797  LYS798  CYS799  TRP800  GLU811  SER814 

> <Gold.Protein.RotatedAtoms>
  150.9043  133.7079  159.2870 H   0  0  0  0  0  0  0  0  0  0  0  0  # atno 6907 bound_to 6896
  151.4587  135.1035  159.9728 H   0  0  0  0  0  0  0  0  0  0  0  0  # atno 6908 bound_to 6896
  152.4894  133.8411  159.7208 H   0  0  0  0  0  0  0  0  0  0  0  0  # atno 6909 bound_to 6896
  146.0118  140.6955  142.9220 H   0  0  0  0  0  0  0  0  0  0  0  0  # atno 7974 bound_to 7965
  155.2922  140.3379  155.4252 H   0  0  0  0  0  0  0  0  0  0  0  0  # atno 8008 bound_to 7997
  156.2041  140.1744  156.7878 H   0  0  0  0  0  0  0  0  0  0  0  0  # atno 8009 bound_to 7997
  154.5597  140.0690  156.8783 H   0  0  0  0  0  0  0  0  0  0  0  0  # atno 8010 bound_to 7997
  140.5869  143.8872  150.6838 H   0  0  0  0  0  0  0  0  0  0  0  0  # atno 10167 bound_to 10162
  156.0009  130.4689  150.4370 H   0  0  0  0  0  0  0  0  0  0  0  0  # atno 10718 bound_to 10713
  154.4111  135.6008  153.5953 H   0  0  0  0  0  0  0  0  0  0  0  0  # atno 10763 bound_to 10752
  152.9790  135.5929  154.4068 H   0  0  0  0  0  0  0  0  0  0  0  0  # atno 10764 bound_to 10752
  154.3881  135.2841  155.2150 H   0  0  0  0  0  0  0  0  0  0  0  0  # atno 10765 bound_to 10752
  140.3428  134.7262  157.4214 H   0  0  0  0  0  0  0  0  0  0  0  0  # atno 11005 bound_to 11000
  144.6956  140.3412  143.7199 LP  0  0  0  0  0  0  0  0  0  0  0  0  # atno 17320 bound_to 7965
  145.7330  139.1742  143.2419 LP  0  0  0  0  0  0  0  0  0  0  0  0  # atno 17321 bound_to 7965
  140.2385  143.3681  152.1506 LP  0  0  0  0  0  0  0  0  0  0  0  0  # atno 17342 bound_to 10162
  139.5203  144.7031  151.5435 LP  0  0  0  0  0  0  0  0  0  0  0  0  # atno 17343 bound_to 10162
  157.2414  131.0526  151.2434 LP  0  0  0  0  0  0  0  0  0  0  0  0  # atno 17370 bound_to 10713
  157.3617  130.7134  149.6506 LP  0  0  0  0  0  0  0  0  0  0  0  0  # atno 17371 bound_to 10713
  140.0767  134.5788  155.8584 LP  0  0  0  0  0  0  0  0  0  0  0  0  # atno 17394 bound_to 11000
  141.2034  133.6631  156.6059 LP  0  0  0  0  0  0  0  0  0  0  0  0  # atno 17395 bound_to 11000

$$$$
