AV-unprocessed.smi:1204|AV-procd|sdf|5037|dock9
  -GOLD-   22720 4 63D 1   1.00000     0.00000
 Structure written by MMmdl.
 27 28  0  0  0  0  0  0  0  0  1 V2000
  152.5636  139.7852  158.5283 O   0  0  0  0  0  0  0  0  0  0  0  0
  152.1560  140.6068  157.7060 C   0  0  0  0  0  0  0  0  0  0  0  0
  151.8833  141.8945  157.9927 N   0  0  0  0  0  0  0  0  0  0  0  0
  152.0187  142.5721  159.2333 C   0  0  0  0  0  0  0  0  0  0  0  0
  151.7046  143.9496  159.1995 C   0  0  0  0  0  0  0  0  0  0  0  0
  151.8059  144.7127  160.3789 C   0  0  0  0  0  0  0  0  0  0  0  0
  152.2190  144.0777  161.5635 C   0  0  0  0  0  0  0  0  0  0  0  0
  152.5129  142.7026  161.5108 C   0  0  0  0  0  0  0  0  0  0  0  0
  152.4166  141.9694  160.3816 N   0  0  0  0  0  0  0  0  0  0  0  0
  151.9001  140.1749  156.2538 C   0  0  2  0  0  0  0  0  0  0  0  0
  150.4448  140.4319  155.7976 C   0  0  0  0  0  0  0  0  0  0  0  0
  150.2823  139.9740  154.4612 O   0  0  0  0  0  0  0  0  0  0  0  0
  150.5565  138.5845  154.3521 C   0  0  0  0  0  0  0  0  0  0  0  0
  152.0066  138.3268  154.7923 C   0  0  0  0  0  0  0  0  0  0  0  0
  152.1717  138.7803  156.1291 O   0  0  0  0  0  0  0  0  0  0  0  0
  151.5479  142.4563  157.2238 H   0  0  0  0  0  0  0  0  0  0  0  0
  151.3886  144.4216  158.2804 H   0  0  0  0  0  0  0  0  0  0  0  0
  151.5701  145.7666  160.3736 H   0  0  0  0  0  0  0  0  0  0  0  0
  152.3086  144.6292  162.4878 H   0  0  0  0  0  0  0  0  0  0  0  0
  152.8331  142.1771  162.3982 H   0  0  0  0  0  0  0  0  0  0  0  0
  152.5895  140.7338  155.6185 H   0  0  0  0  0  0  0  0  0  0  0  0
  149.7297  139.9313  156.4531 H   0  0  0  0  0  0  0  0  0  0  0  0
  150.2135  141.4973  155.8231 H   0  0  0  0  0  0  0  0  0  0  0  0
  149.8561  138.0117  154.9620 H   0  0  0  0  0  0  0  0  0  0  0  0
  150.4128  138.2729  153.3175 H   0  0  0  0  0  0  0  0  0  0  0  0
  152.2334  137.2616  154.7475 H   0  0  0  0  0  0  0  0  0  0  0  0
  152.7109  138.8345  154.1313 H   0  0  0  0  0  0  0  0  0  0  0  0
  1  2  2  0  0  0  0
  2  3  1  0  0  0  0
  2 10  1  0  0  0  0
  3  4  1  0  0  0  0
  3 16  1  0  0  0  0
  4  9  1  0  0  0  0
  4  5  2  0  0  0  0
  5  6  1  0  0  0  0
  5 17  1  0  0  0  0
  6  7  2  0  0  0  0
  6 18  1  0  0  0  0
  7  8  1  0  0  0  0
  7 19  1  0  0  0  0
  8  9  2  0  0  0  0
  8 20  1  0  0  0  0
 10 15  1  0  0  0  0
 10 11  1  0  0  0  0
 10 21  1  0  0  0  0
 11 12  1  0  0  0  0
 11 22  1  0  0  0  0
 11 23  1  0  0  0  0
 12 13  1  0  0  0  0
 13 14  1  0  0  0  0
 13 24  1  0  0  0  0
 13 25  1  0  0  0  0
 14 15  1  0  0  0  0
 14 26  1  0  0  0  0
 14 27  1  0  0  0  0
M  END
> <s_m_source_file>
AV-unprocessed.smi

> <i_m_source_file_index>
1204

> <i_lp_mmshare_version>
43012

> <i_f3d_flags>
0

> <s_epik_input>
TzFbQ0gyXVtDSDJdT1tDSDJdW0NASF0xQyg9TylbTkhdYzJbY0hdW2NIXVtjSF1bY0hdbjI=

> <s_epik_cmdline>
J2VwaWtfcHl0aG9uJywgJy1waCcsICc3LjAnLCAnLXRuJywgJzgnLCAnLW1hJywgJzIwMCcsICctbWV0YWxfYmluZGluZycsICctaW1hZScsICc8aW5maWxlLm1hZT4nLCAnLW9tYWUnLCAnPG91dGZpbGUubWFlPic=

> <r_epik_Ionization_Penalty>
0.0014012

> <r_epik_Ionization_Penalty_Charging>
0

> <r_epik_Ionization_Penalty_Neutral>
0.0014012

> <r_epik_State_Penalty>
0.00242437

> <r_epik_Charging_Adjusted_Penalty>
0.00242437

> <i_epik_Tot_Q>
0

> <i_epik_Tot_abs_Q>
0

> <r_epik_Metal_State_Penalty>
-0

> <b_epik_Metal_Only>
0

> <s_lp_Force_Field>
OPLS_2005

> <r_lp_Energy>
11.5524

> <b_lp_Chiralities_Consistent>
1

> <s_lp_Variant>
AV-unprocessed.smi:1204-1

> <Gold.Version>
5.8.1

> <Gold.Id.Protein>
6NUR|6NUR_protein|mol2

> <Gold.PLP.Fitness>
38.2629

> <Gold.PLP.PLP>
-35.2918

> <Gold.PLP.part.hbond>
-1.0000

> <Gold.PLP.part.metal>
0.0000

> <Gold.PLP.part.buried>
-6.0805

> <Gold.PLP.part.nonpolar>
-28.0725

> <Gold.PLP.part.repulsive>
0.1803

> <Gold.PLP.ligand.clash>
0.0000

> <Gold.PLP.ligand.torsion>
0.0154

> <Gold.PLP.Chemscore.Hbond>
1.0000

> <Gold.PLP.Chemscore.CHOScore>
0.0000

> <Gold.PLP.Chemscore.Metal>
0.0000

> <Gold.Chemscore.Hbonds>
donor molecule, donor type, donor heavy atom, donor atom, acceptor molecule, acceptor atom, score
      P1  H  7989  7998       L1    12  1.00

> <Gold.PLP.Chemscore.Internal.Correction>
0.0018

> <Gold.Rescore>
     Score         DG    S(hbond)    S(metal)    S(lipo)     H(rot)  DE(clash)    DE(int)     intcor
     13.10     -14.70       0.80        0.00      77.76       1.00       0.28       1.32       ----

> <Gold.Chemscore.Fitness>
13.1011

> <Gold.Chemscore.DG>
-14.7013

> <Gold.Chemscore.ZeroCoef>
-5.4800

> <Gold.Chemscore.Hbond>
0.8033

> <Gold.Chemscore.Metal>
0.0000

> <Gold.Chemscore.Lipo>
77.7636

> <Gold.Chemscore.Internal_Hbond>
0.0000

> <Gold.Chemscore.DEClash>
0.2788

> <Gold.Chemscore.DEInternal>
1.3214

> <Gold.Chemscore.Rot>
1.0000

> <Gold.Chemscore.Internal.Correction>
   9.000000E+99

> <Gold.Chemscore.Hbonds>
donor molecule, donor type, donor heavy atom, donor atom, acceptor molecule, acceptor atom, score
      P1  H  7989  7998       L1    12  0.30

> <Gold.Chemscore.Hbond.Weighted>
-2.6829

> <Gold.Chemscore.Metal.Weighted>
-0.0000

> <Gold.Chemscore.Lipo.Weighted>
-9.0983

> <Gold.Chemscore.Internal_Hbond.Weighted>
0.0000

> <Gold.Chemscore.DEClash.Weighted>
0.2788

> <Gold.Chemscore.DEInternal.Weighted>
1.3214

> <Gold.Chemscore.Rot.Weighted>
2.5600

> <Gold.Chemscore.Internal.Correction.Weighted>
   9.000000E+99

> <Gold.Protein.RotatedTorsions>
[ 6907 6896 6895 6894 ] final   99.53 input  -60.11 | X-H torsion
[ 7974 7965 7964 7962 ] final    0.26 input  175.53 | X-H torsion
[ 8008 7997 7996 7995 ] final  -99.45 input   59.86 | X-H torsion
[ 10167 10162 10161 10158 ] final   25.30 input  -65.29 | X-H torsion
[ 10718 10713 10712 10709 ] final  -99.19 input   66.30 | X-H torsion
[ 10763 10752 10751 10750 ] final   51.39 input  -60.55 | X-H torsion
[ 11005 11000 10999 10996 ] final  -32.89 input  -57.11 | X-H torsion

> <Gold.Protein.ActiveResidues>
 VAL166  LYS551  ARG553  GLY616  TRP617  ASP618  TYR619  PRO620  LYS621  CYS622 
 ASP623  PHE694  ASN695  SER759  ASP760  ASP761  ALA762  ILE779  LEU786  VAL792 
 PHE793  MET794  SER795  GLU796  ALA797  LYS798  CYS799  TRP800  GLU811  SER814 

> <Gold.Protein.RotatedAtoms>
  152.5390  134.0415  159.8069 H   0  0  0  0  0  0  0  0  0  0  0  0  # atno 6907 bound_to 6896
  151.0570  133.5568  159.2644 H   0  0  0  0  0  0  0  0  0  0  0  0  # atno 6908 bound_to 6896
  151.2481  135.0620  159.9105 H   0  0  0  0  0  0  0  0  0  0  0  0  # atno 6909 bound_to 6896
  146.2433  140.1164  142.8342 H   0  0  0  0  0  0  0  0  0  0  0  0  # atno 7974 bound_to 7965
  154.8150  140.0448  157.1370 H   0  0  0  0  0  0  0  0  0  0  0  0  # atno 8008 bound_to 7997
  154.9325  140.3041  155.5141 H   0  0  0  0  0  0  0  0  0  0  0  0  # atno 8009 bound_to 7997
  156.2975  140.2320  156.4386 H   0  0  0  0  0  0  0  0  0  0  0  0  # atno 8010 bound_to 7997
  140.5117  144.0149  150.6375 H   0  0  0  0  0  0  0  0  0  0  0  0  # atno 10167 bound_to 10162
  156.0127  130.5271  150.6633 H   0  0  0  0  0  0  0  0  0  0  0  0  # atno 10718 bound_to 10713
  152.9785  135.5847  154.4407 H   0  0  0  0  0  0  0  0  0  0  0  0  # atno 10763 bound_to 10752
  154.4009  135.2769  155.2099 H   0  0  0  0  0  0  0  0  0  0  0  0  # atno 10764 bound_to 10752
  154.3930  135.6121  153.5908 H   0  0  0  0  0  0  0  0  0  0  0  0  # atno 10765 bound_to 10752
  140.9590  133.7176  156.1339 H   0  0  0  0  0  0  0  0  0  0  0  0  # atno 11005 bound_to 11000
  145.0443  140.8970  143.5033 LP  0  0  0  0  0  0  0  0  0  0  0  0  # atno 17320 bound_to 7965
  145.1250  139.2669  143.5569 LP  0  0  0  0  0  0  0  0  0  0  0  0  # atno 17321 bound_to 7965
  140.3474  143.2983  152.0524 LP  0  0  0  0  0  0  0  0  0  0  0  0  # atno 17342 bound_to 10162
  139.4898  144.6399  151.6899 LP  0  0  0  0  0  0  0  0  0  0  0  0  # atno 17343 bound_to 10162
  157.4371  131.0856  151.0981 LP  0  0  0  0  0  0  0  0  0  0  0  0  # atno 17370 bound_to 10713
  157.1536  130.6195  149.5589 LP  0  0  0  0  0  0  0  0  0  0  0  0  # atno 17371 bound_to 10713
  140.7495  134.4061  157.5543 LP  0  0  0  0  0  0  0  0  0  0  0  0  # atno 17394 bound_to 11000
  139.8872  134.8890  156.2544 LP  0  0  0  0  0  0  0  0  0  0  0  0  # atno 17395 bound_to 11000

$$$$
