AV-unprocessed.smi:1486|AV-procd|sdf|6005|dock1
  -GOLD-   22720 6103D 1   1.00000     0.00000
 Structure written by MMmdl.
 39 40  0  0  0  0  0  0  0  0  1 V2000
  147.3335  133.3187  152.4990 C   0  0  0  0  0  0  0  0  0  0  0  0
  147.5738  134.2225  153.5625 O   0  0  0  0  0  0  0  0  0  0  0  0
  148.6668  133.8298  154.3775 C   0  0  0  0  0  0  0  0  0  0  0  0
  148.9628  134.9298  155.4117 C   0  0  2  0  0  0  0  0  0  0  0  0
  147.6840  135.3991  156.1182 C   0  0  0  0  0  0  0  0  0  0  0  0
  149.5900  136.0706  154.7507 N   0  0  0  0  0  0  0  0  0  0  0  0
  150.6676  136.7392  155.1926 C   0  0  0  0  0  0  0  0  0  0  0  0
  151.2092  136.5227  156.2765 O   0  0  0  0  0  0  0  0  0  0  0  0
  151.2360  137.8036  154.2533 C   0  0  0  0  0  0  0  0  0  0  0  0
  150.9723  139.1703  154.8168 C   0  0  0  0  0  0  0  0  0  0  0  0
  150.1815  140.1496  154.2668 C   0  0  0  0  0  0  0  0  0  0  0  0
  150.1192  141.5762  155.2645 S   0  0  0  0  0  0  0  0  0  0  0  0
  151.1974  140.7787  156.4141 C   0  0  0  0  0  0  0  0  0  0  0  0
  151.6855  141.3260  157.6381 N   0  0  0  0  0  0  0  0  0  0  0  0
  151.4573  142.7219  158.0000 C   0  0  0  0  0  0  0  0  0  0  0  0
  151.9338  142.8654  159.4495 C   0  0  0  0  0  0  0  0  0  0  0  0
  152.7608  141.6124  159.7293 C   0  0  0  0  0  0  0  0  0  0  0  0
  152.4158  140.6903  158.5714 C   0  0  0  0  0  0  0  0  0  0  0  0
  152.7930  139.5197  158.5487 O   0  0  0  0  0  0  0  0  0  0  0  0
  151.5501  139.5458  156.0346 N   0  0  0  0  0  0  0  0  0  0  0  0
  146.4938  133.6725  151.9009 H   0  0  0  0  0  0  0  0  0  0  0  0
  147.0829  132.3263  152.8757 H   0  0  0  0  0  0  0  0  0  0  0  0
  148.2030  133.2376  151.8458 H   0  0  0  0  0  0  0  0  0  0  0  0
  148.4454  132.8875  154.8823 H   0  0  0  0  0  0  0  0  0  0  0  0
  149.5419  133.6638  153.7473 H   0  0  0  0  0  0  0  0  0  0  0  0
  149.6296  134.5234  156.1744 H   0  0  0  0  0  0  0  0  0  0  0  0
  147.1988  134.5734  156.6390 H   0  0  0  0  0  0  0  0  0  0  0  0
  146.9662  135.8126  155.4089 H   0  0  0  0  0  0  0  0  0  0  0  0
  147.9039  136.1696  156.8579 H   0  0  0  0  0  0  0  0  0  0  0  0
  149.2193  136.3280  153.8474 H   0  0  0  0  0  0  0  0  0  0  0  0
  152.3049  137.6321  154.1189 H   0  0  0  0  0  0  0  0  0  0  0  0
  150.7792  137.7005  153.2681 H   0  0  0  0  0  0  0  0  0  0  0  0
  149.6243  140.1124  153.3423 H   0  0  0  0  0  0  0  0  0  0  0  0
  152.0388  143.3638  157.3365 H   0  0  0  0  0  0  0  0  0  0  0  0
  150.4058  142.9954  157.9019 H   0  0  0  0  0  0  0  0  0  0  0  0
  152.5099  143.7794  159.5980 H   0  0  0  0  0  0  0  0  0  0  0  0
  151.0773  142.9029  160.1244 H   0  0  0  0  0  0  0  0  0  0  0  0
  153.8293  141.8294  159.7128 H   0  0  0  0  0  0  0  0  0  0  0  0
  152.5099  141.1590  160.6889 H   0  0  0  0  0  0  0  0  0  0  0  0
  1  2  1  0  0  0  0
  1 21  1  0  0  0  0
  1 22  1  0  0  0  0
  1 23  1  0  0  0  0
  2  3  1  0  0  0  0
  3  4  1  0  0  0  0
  3 24  1  0  0  0  0
  3 25  1  0  0  0  0
  4  5  1  0  0  0  0
  4  6  1  0  0  0  0
  4 26  1  0  0  0  0
  5 27  1  0  0  0  0
  5 28  1  0  0  0  0
  5 29  1  0  0  0  0
  6  7  1  0  0  0  0
  6 30  1  0  0  0  0
  7  8  2  0  0  0  0
  7  9  1  0  0  0  0
  9 10  1  0  0  0  0
  9 31  1  0  0  0  0
  9 32  1  0  0  0  0
 10 20  1  0  0  0  0
 10 11  2  0  0  0  0
 11 12  1  0  0  0  0
 11 33  1  0  0  0  0
 12 13  1  0  0  0  0
 13 14  1  0  0  0  0
 13 20  2  0  0  0  0
 14 18  1  0  0  0  0
 14 15  1  0  0  0  0
 15 16  1  0  0  0  0
 15 34  1  0  0  0  0
 15 35  1  0  0  0  0
 16 17  1  0  0  0  0
 16 36  1  0  0  0  0
 16 37  1  0  0  0  0
 17 18  1  0  0  0  0
 17 38  1  0  0  0  0
 17 39  1  0  0  0  0
 18 19  2  0  0  0  0
M  END
> <s_m_source_file>
AV-unprocessed.smi

> <i_m_source_file_index>
1486

> <i_lp_mmshare_version>
43012

> <i_f3d_flags>
0

> <s_epik_input>
W0NIM11PW0NIMl1bQ0BIXShbQ0gzXSlbTkhdQyg9TylbQ0gyXWMxW2NIXXNjKG4xKU4yW0NIMl1bQ0gyXVtDSDJdQzI9Tw==

> <s_epik_cmdline>
J2VwaWtfcHl0aG9uJywgJy1waCcsICc3LjAnLCAnLXRuJywgJzgnLCAnLW1hJywgJzIwMCcsICctbWV0YWxfYmluZGluZycsICctaW1hZScsICc8aW5maWxlLm1hZT4nLCAnLW9tYWUnLCAnPG91dGZpbGUubWFlPic=

> <r_lp_tautomer_probability>
1

> <r_epik_Ionization_Penalty>
3.00988e-05

> <r_epik_Ionization_Penalty_Charging>
0

> <r_epik_Ionization_Penalty_Neutral>
3.00988e-05

> <r_epik_State_Penalty>
-0

> <r_epik_Charging_Adjusted_Penalty>
0

> <i_epik_Tot_Q>
0

> <i_epik_Tot_abs_Q>
0

> <r_epik_Metal_State_Penalty>
-0

> <b_epik_Metal_Only>
0

> <s_lp_Force_Field>
OPLS_2005

> <r_lp_Energy>
17.4933

> <b_lp_Chiralities_Consistent>
1

> <s_lp_Variant>
AV-unprocessed.smi:1486-1

> <Gold.Version>
5.8.1

> <Gold.Id.Protein>
6NUR|6NUR_protein|mol2

> <Gold.PLP.Fitness>
48.1741

> <Gold.PLP.PLP>
-37.6935

> <Gold.PLP.part.hbond>
-3.0000

> <Gold.PLP.part.metal>
0.0000

> <Gold.PLP.part.buried>
-2.9209

> <Gold.PLP.part.nonpolar>
-32.2448

> <Gold.PLP.part.repulsive>
1.0106

> <Gold.PLP.ligand.clash>
0.0000

> <Gold.PLP.ligand.torsion>
0.4294

> <Gold.PLP.Chemscore.Hbond>
2.7273

> <Gold.PLP.Chemscore.CHOScore>
0.9902

> <Gold.PLP.Chemscore.Metal>
0.0000

> <Gold.Chemscore.Hbonds>
donor molecule, donor type, donor heavy atom, donor atom, acceptor molecule, acceptor atom, score
      L1  H     6    30       P1  7948  1.00
      L1  C    11    33       P1  7957  1.00

> <Gold.PLP.Chemscore.Internal.Correction>
0.1871

> <Gold.Rescore>
     Score         DG    S(hbond)    S(metal)    S(lipo)     H(rot)  DE(clash)    DE(int)     intcor
     12.37     -15.15       1.52        0.00      81.77       1.94       0.05       2.73       ----

> <Gold.Chemscore.Fitness>
12.3679

> <Gold.Chemscore.DG>
-15.1504

> <Gold.Chemscore.ZeroCoef>
-5.4800

> <Gold.Chemscore.Hbond>
1.5158

> <Gold.Chemscore.Metal>
0.0000

> <Gold.Chemscore.Lipo>
81.7686

> <Gold.Chemscore.Internal_Hbond>
0.0000

> <Gold.Chemscore.DEClash>
0.0480

> <Gold.Chemscore.DEInternal>
2.7344

> <Gold.Chemscore.Rot>
1.9373

> <Gold.Chemscore.Internal.Correction>
   9.000000E+99

> <Gold.Chemscore.Hbonds>
donor molecule, donor type, donor heavy atom, donor atom, acceptor molecule, acceptor atom, score
      L1  H     6    30       P1  7948  0.90

> <Gold.Chemscore.Hbond.Weighted>
-5.0629

> <Gold.Chemscore.Metal.Weighted>
-0.0000

> <Gold.Chemscore.Lipo.Weighted>
-9.5669

> <Gold.Chemscore.Internal_Hbond.Weighted>
0.0000

> <Gold.Chemscore.DEClash.Weighted>
0.0480

> <Gold.Chemscore.DEInternal.Weighted>
2.7344

> <Gold.Chemscore.Rot.Weighted>
4.9594

> <Gold.Chemscore.Internal.Correction.Weighted>
   9.000000E+99

> <Gold.Protein.RotatedTorsions>
[ 6907 6896 6895 6894 ] final -105.17 input  -60.11 | X-H torsion
[ 7974 7965 7964 7962 ] final   84.73 input  175.53 | X-H torsion
[ 8008 7997 7996 7995 ] final   63.25 input   59.86 | X-H torsion
[ 10167 10162 10161 10158 ] final -111.35 input  -65.29 | X-H torsion
[ 10718 10713 10712 10709 ] final -122.40 input   66.30 | X-H torsion
[ 10763 10752 10751 10750 ] final   98.17 input  -60.55 | X-H torsion
[ 11005 11000 10999 10996 ] final   45.04 input  -57.11 | X-H torsion

> <Gold.Protein.ActiveResidues>
 VAL166  LYS551  ARG553  GLY616  TRP617  ASP618  TYR619  PRO620  LYS621  CYS622 
 ASP623  PHE694  ASN695  SER759  ASP760  ASP761  ALA762  ILE779  LEU786  VAL792 
 PHE793  MET794  SER795  GLU796  ALA797  LYS798  CYS799  TRP800  GLU811  SER814 

> <Gold.Protein.RotatedAtoms>
  150.7323  134.0168  159.3687 H   0  0  0  0  0  0  0  0  0  0  0  0  # atno 6907 bound_to 6896
  151.8130  135.0673  160.0424 H   0  0  0  0  0  0  0  0  0  0  0  0  # atno 6908 bound_to 6896
  152.3059  133.5666  159.5685 H   0  0  0  0  0  0  0  0  0  0  0  0  # atno 6909 bound_to 6896
  145.5948  139.2343  143.2279 H   0  0  0  0  0  0  0  0  0  0  0  0  # atno 7974 bound_to 7965
  155.6273  140.3496  155.4671 H   0  0  0  0  0  0  0  0  0  0  0  0  # atno 8008 bound_to 7997
  156.0031  140.1217  157.0551 H   0  0  0  0  0  0  0  0  0  0  0  0  # atno 8009 bound_to 7997
  154.4255  140.1096  156.5711 H   0  0  0  0  0  0  0  0  0  0  0  0  # atno 8010 bound_to 7997
  140.1345  143.4332  152.1605 H   0  0  0  0  0  0  0  0  0  0  0  0  # atno 10167 bound_to 10162
  156.1415  130.6469  150.9778 H   0  0  0  0  0  0  0  0  0  0  0  0  # atno 10718 bound_to 10713
  153.2857  135.4158  155.1120 H   0  0  0  0  0  0  0  0  0  0  0  0  # atno 10763 bound_to 10752
  154.8504  135.3506  154.6050 H   0  0  0  0  0  0  0  0  0  0  0  0  # atno 10764 bound_to 10752
  153.6471  135.7054  153.5279 H   0  0  0  0  0  0  0  0  0  0  0  0  # atno 10765 bound_to 10752
  140.1496  134.4478  155.8391 H   0  0  0  0  0  0  0  0  0  0  0  0  # atno 11005 bound_to 11000
  146.1620  140.6774  142.9273 LP  0  0  0  0  0  0  0  0  0  0  0  0  # atno 17320 bound_to 7965
  144.7335  140.4742  143.6920 LP  0  0  0  0  0  0  0  0  0  0  0  0  # atno 17321 bound_to 7965
  139.5503  144.7332  151.4456 LP  0  0  0  0  0  0  0  0  0  0  0  0  # atno 17342 bound_to 10162
  140.6797  143.8109  150.7105 LP  0  0  0  0  0  0  0  0  0  0  0  0  # atno 17343 bound_to 10162
  157.6580  131.0886  150.7903 LP  0  0  0  0  0  0  0  0  0  0  0  0  # atno 17370 bound_to 10713
  156.7978  130.4911  149.5374 LP  0  0  0  0  0  0  0  0  0  0  0  0  # atno 17371 bound_to 10713
  141.2197  133.6867  156.7398 LP  0  0  0  0  0  0  0  0  0  0  0  0  # atno 17394 bound_to 11000
  140.2620  134.8459  157.3768 LP  0  0  0  0  0  0  0  0  0  0  0  0  # atno 17395 bound_to 11000

$$$$
