AV-unprocessed.smi:2800|AV-procd|sdf|10796|dock1
  -GOLD-   2272015233D 1   1.00000     0.00000
 Structure written by MMmdl.
 52 53  0  0  0  0  0  0  0  0  2 V2000
  151.5575  138.7767  154.6933 C   0  0  0  0  0  0  0  0  0  0  0  0
  150.7774  139.8856  155.3757 C   0  0  0  0  0  0  0  0  0  0  0  0
  151.4676  140.7254  156.1787 N   0  3  0  0  0  0  0  0  0  0  0  0
  150.9096  141.7586  156.8521 C   0  0  0  0  0  0  0  0  0  0  0  0
  151.7362  142.5643  157.6584 N   0  0  0  0  0  0  0  0  0  0  0  0
  151.5611  144.0059  157.7218 C   0  0  0  0  0  0  0  0  0  0  0  0
  152.5118  144.4640  158.8270 C   0  0  0  0  0  0  0  0  0  0  0  0
  152.5184  143.2789  159.7925 C   0  0  0  0  0  0  0  0  0  0  0  0
  152.3410  142.0570  158.8838 C   0  0  0  0  0  0  0  0  0  0  0  0
  149.5234  141.9900  156.7000 C   0  0  0  0  0  0  0  0  0  0  0  0
  148.7590  141.1435  155.8723 C   0  0  0  0  0  0  0  0  0  0  0  0
  149.3835  140.0605  155.2040 C   0  0  0  0  0  0  0  0  0  0  0  0
  148.6932  139.1605  154.3432 N   0  0  0  0  0  0  0  0  0  0  0  0
  147.3810  139.0968  154.0590 C   0  0  0  0  0  0  0  0  0  0  0  0
  146.5164  139.8457  154.5120 O   0  0  0  0  0  0  0  0  0  0  0  0
  147.1217  138.0858  153.2173 N   0  0  0  0  0  0  0  0  0  0  0  0
  145.8111  137.7510  152.6512 C   0  0  1  0  0  0  0  0  0  0  0  0
  146.0588  137.0189  151.3110 C   0  0  0  0  0  0  0  0  0  0  0  0
  146.5746  137.9200  150.3530 O   0  0  0  0  0  0  0  0  0  0  0  0
  144.9474  136.9512  153.6843 C   0  0  0  0  0  0  0  0  0  0  0  0
  143.5617  136.5889  153.1068 C   0  0  0  0  0  0  0  0  0  0  0  0
  144.7526  137.7673  154.9815 C   0  0  0  0  0  0  0  0  0  0  0  0
  145.6670  135.6409  154.0794 C   0  0  0  0  0  0  0  0  0  0  0  0
  145.2608  138.6665  152.4234 H   0  0  0  0  0  0  0  0  0  0  0  0
  151.1740  137.8012  154.9936 H   0  0  0  0  0  0  0  0  0  0  0  0
  152.6166  138.8175  154.9508 H   0  0  0  0  0  0  0  0  0  0  0  0
  151.4708  138.8630  153.6100 H   0  0  0  0  0  0  0  0  0  0  0  0
  151.7935  144.4846  156.7699 H   0  0  0  0  0  0  0  0  0  0  0  0
  150.5273  144.2356  157.9836 H   0  0  0  0  0  0  0  0  0  0  0  0
  153.5123  144.6104  158.4177 H   0  0  0  0  0  0  0  0  0  0  0  0
  152.1994  145.3976  159.2959 H   0  0  0  0  0  0  0  0  0  0  0  0
  153.4233  143.2280  160.3984 H   0  0  0  0  0  0  0  0  0  0  0  0
  151.6665  143.3574  160.4695 H   0  0  0  0  0  0  0  0  0  0  0  0
  151.7285  141.2969  159.3701 H   0  0  0  0  0  0  0  0  0  0  0  0
  153.3070  141.6139  158.6398 H   0  0  0  0  0  0  0  0  0  0  0  0
  149.0341  142.8109  157.2028 H   0  0  0  0  0  0  0  0  0  0  0  0
  147.7078  141.3565  155.7604 H   0  0  0  0  0  0  0  0  0  0  0  0
  149.2643  138.4347  153.9358 H   0  0  0  0  0  0  0  0  0  0  0  0
  147.8972  137.5174  152.9106 H   0  0  0  0  0  0  0  0  0  0  0  0
  146.7433  136.1783  151.4317 H   0  0  0  0  0  0  0  0  0  0  0  0
  145.1387  136.6191  150.8904 H   0  0  0  0  0  0  0  0  0  0  0  0
  145.8504  138.3380  149.9129 H   0  0  0  0  0  0  0  0  0  0  0  0
  142.9729  136.0206  153.8277 H   0  0  0  0  0  0  0  0  0  0  0  0
  143.6434  135.9788  152.2069 H   0  0  0  0  0  0  0  0  0  0  0  0
  142.9848  137.4779  152.8523 H   0  0  0  0  0  0  0  0  0  0  0  0
  144.1248  138.6449  154.8326 H   0  0  0  0  0  0  0  0  0  0  0  0
  145.7072  138.1053  155.3863 H   0  0  0  0  0  0  0  0  0  0  0  0
  144.2668  137.1706  155.7543 H   0  0  0  0  0  0  0  0  0  0  0  0
  145.1235  135.1081  154.8605 H   0  0  0  0  0  0  0  0  0  0  0  0
  146.6707  135.8384  154.4575 H   0  0  0  0  0  0  0  0  0  0  0  0
  145.7613  134.9536  153.2387 H   0  0  0  0  0  0  0  0  0  0  0  0
  152.4702  140.5699  156.2837 H   0  0  0  0  0  0  0  0  0  0  0  0
  1  2  1  0  0  0  0
  1 25  1  0  0  0  0
  1 26  1  0  0  0  0
  1 27  1  0  0  0  0
  2 12  1  0  0  0  0
  2  3  2  0  0  0  0
  3  4  1  0  0  0  0
  3 52  1  0  0  0  0
  4  5  1  0  0  0  0
  4 10  2  0  0  0  0
  5  9  1  0  0  0  0
  5  6  1  0  0  0  0
  6  7  1  0  0  0  0
  6 28  1  0  0  0  0
  6 29  1  0  0  0  0
  7  8  1  0  0  0  0
  7 30  1  0  0  0  0
  7 31  1  0  0  0  0
  8  9  1  0  0  0  0
  8 32  1  0  0  0  0
  8 33  1  0  0  0  0
  9 34  1  0  0  0  0
  9 35  1  0  0  0  0
 10 11  1  0  0  0  0
 10 36  1  0  0  0  0
 11 12  2  0  0  0  0
 11 37  1  0  0  0  0
 12 13  1  0  0  0  0
 13 14  1  0  0  0  0
 13 38  1  0  0  0  0
 14 15  2  0  0  0  0
 14 16  1  0  0  0  0
 16 17  1  0  0  0  0
 16 39  1  0  0  0  0
 17 24  1  0  0  0  0
 17 18  1  0  0  0  0
 17 20  1  0  0  0  0
 18 19  1  0  0  0  0
 18 40  1  0  0  0  0
 18 41  1  0  0  0  0
 19 42  1  0  0  0  0
 20 21  1  0  0  0  0
 20 22  1  0  0  0  0
 20 23  1  0  0  0  0
 21 43  1  0  0  0  0
 21 44  1  0  0  0  0
 21 45  1  0  0  0  0
 22 46  1  0  0  0  0
 22 47  1  0  0  0  0
 22 48  1  0  0  0  0
 23 49  1  0  0  0  0
 23 50  1  0  0  0  0
 23 51  1  0  0  0  0
M  CHG  1   3   1
M  END
> <s_m_source_file>
AV-unprocessed.smi

> <i_m_source_file_index>
2800

> <i_lp_mmshare_version>
43012

> <i_f3d_flags>
0

> <s_epik_input>
W0NIMl0xW0NIMl1bQ0gyXVtDSDJdTjFjKG5jMltDSDNdKVtjSF1bY0hdYzJbTkhdQyg9TylbTkhdW0NASF0oW0NIMl1bT0hdKUMoW0NIM10pKFtDSDNdKVtDSDNd

> <s_epik_cmdline>
J2VwaWtfcHl0aG9uJywgJy1waCcsICc3LjAnLCAnLXRuJywgJzgnLCAnLW1hJywgJzIwMCcsICctbWV0YWxfYmluZGluZycsICctaW1hZScsICc8aW5maWxlLm1hZT4nLCAnLW9tYWUnLCAnPG91dGZpbGUubWFlPic=

> <r_lp_tautomer_probability>
0.999994

> <r_epik_Ionization_Penalty>
0.536494

> <r_epik_Ionization_Penalty_Charging>
0.536474

> <r_epik_Ionization_Penalty_Neutral>
1.97788e-05

> <r_epik_State_Penalty>
0.545692

> <r_epik_Charging_Adjusted_Penalty>
1.08217

> <i_epik_Tot_Q>
1

> <i_epik_Tot_abs_Q>
1

> <r_epik_Metal_State_Penalty>
0.748506

> <b_epik_Metal_Only>
0

> <s_lp_Force_Field>
OPLS_2005

> <r_lp_Energy>
41.3448

> <b_lp_Chiralities_Consistent>
1

> <s_lp_Variant>
AV-unprocessed.smi:2800-4

> <Gold.Version>
5.8.1

> <Gold.Id.Protein>
6NUR|6NUR_protein|mol2

> <Gold.PLP.Fitness>
45.1877

> <Gold.PLP.PLP>
-38.7164

> <Gold.PLP.part.hbond>
-3.4286

> <Gold.PLP.part.metal>
0.0000

> <Gold.PLP.part.buried>
-2.5640

> <Gold.PLP.part.nonpolar>
-33.9370

> <Gold.PLP.part.repulsive>
0.2990

> <Gold.PLP.ligand.clash>
0.0000

> <Gold.PLP.ligand.torsion>
1.3391

> <Gold.PLP.Chemscore.Hbond>
2.8800

> <Gold.PLP.Chemscore.CHOScore>
0.0000

> <Gold.PLP.Chemscore.Metal>
0.0000

> <Gold.Chemscore.Hbonds>
donor molecule, donor type, donor heavy atom, donor atom, acceptor molecule, acceptor atom, score
      L1  H    16    39       P1  7948  1.00
      L1  H    19    42       P1 10171  0.98
      P1  H  7954  7966       L1    19  0.86

> <Gold.PLP.Chemscore.Internal.Correction>
0.5095

> <Gold.Rescore>
     Score         DG    S(hbond)    S(metal)    S(lipo)     H(rot)  DE(clash)    DE(int)     intcor
     17.23     -21.52       2.82        0.00      99.37       1.95       0.77       3.53       ----

> <Gold.Chemscore.Fitness>
17.2263

> <Gold.Chemscore.DG>
-21.5244

> <Gold.Chemscore.ZeroCoef>
-5.4800

> <Gold.Chemscore.Hbond>
2.8173

> <Gold.Chemscore.Metal>
0.0000

> <Gold.Chemscore.Lipo>
99.3698

> <Gold.Chemscore.Internal_Hbond>
0.0000

> <Gold.Chemscore.DEClash>
0.7665

> <Gold.Chemscore.DEInternal>
3.5316

> <Gold.Chemscore.Rot>
1.9499

> <Gold.Chemscore.Internal.Correction>
   9.000000E+99

> <Gold.Chemscore.Hbonds>
donor molecule, donor type, donor heavy atom, donor atom, acceptor molecule, acceptor atom, score
      L1  H    16    39       P1  7948  0.98
      L1  H    19    42       P1 10171  0.92
      P1  H  7954  7966       L1    19  0.84

> <Gold.Chemscore.Hbond.Weighted>
-9.4097

> <Gold.Chemscore.Metal.Weighted>
-0.0000

> <Gold.Chemscore.Lipo.Weighted>
-11.6263

> <Gold.Chemscore.Internal_Hbond.Weighted>
0.0000

> <Gold.Chemscore.DEClash.Weighted>
0.7665

> <Gold.Chemscore.DEInternal.Weighted>
3.5316

> <Gold.Chemscore.Rot.Weighted>
4.9916

> <Gold.Chemscore.Internal.Correction.Weighted>
   9.000000E+99

> <Gold.Protein.RotatedTorsions>
[ 6907 6896 6895 6894 ] final  173.83 input  -60.11 | X-H torsion
[ 7974 7965 7964 7962 ] final   20.37 input  175.53 | X-H torsion
[ 8008 7997 7996 7995 ] final  114.87 input   59.86 | X-H torsion
[ 10167 10162 10161 10158 ] final  151.14 input  -65.29 | X-H torsion
[ 10718 10713 10712 10709 ] final   28.21 input   66.30 | X-H torsion
[ 10763 10752 10751 10750 ] final  -21.83 input  -60.55 | X-H torsion
[ 11005 11000 10999 10996 ] final  -79.97 input  -57.11 | X-H torsion

> <Gold.Protein.ActiveResidues>
 VAL166  LYS551  ARG553  GLY616  TRP617  ASP618  TYR619  PRO620  LYS621  CYS622 
 ASP623  PHE694  ASN695  SER759  ASP760  ASP761  ALA762  ILE779  LEU786  VAL792 
 PHE793  MET794  SER795  GLU796  ALA797  LYS798  CYS799  TRP800  GLU811  SER814 

> <Gold.Protein.RotatedAtoms>
  151.7620  133.3334  159.3420 H   0  0  0  0  0  0  0  0  0  0  0  0  # atno 6907 bound_to 6896
  150.7494  134.6097  159.6089 H   0  0  0  0  0  0  0  0  0  0  0  0  # atno 6908 bound_to 6896
  152.3399  134.7150  160.0318 H   0  0  0  0  0  0  0  0  0  0  0  0  # atno 6909 bound_to 6896
  146.2114  139.8179  142.8686 H   0  0  0  0  0  0  0  0  0  0  0  0  # atno 7974 bound_to 7965
  156.2347  140.2950  156.0282 H   0  0  0  0  0  0  0  0  0  0  0  0  # atno 8008 bound_to 7997
  155.2124  140.0413  157.2953 H   0  0  0  0  0  0  0  0  0  0  0  0  # atno 8009 bound_to 7997
  154.6058  140.2439  155.7740 H   0  0  0  0  0  0  0  0  0  0  0  0  # atno 8010 bound_to 7997
  139.4843  144.5465  151.7474 H   0  0  0  0  0  0  0  0  0  0  0  0  # atno 10167 bound_to 10162
  157.2304  130.7021  149.6311 H   0  0  0  0  0  0  0  0  0  0  0  0  # atno 10718 bound_to 10713
  153.6423  135.6984  153.5237 H   0  0  0  0  0  0  0  0  0  0  0  0  # atno 10763 bound_to 10752
  153.2773  135.4196  155.1044 H   0  0  0  0  0  0  0  0  0  0  0  0  # atno 10764 bound_to 10752
  154.8497  135.3593  154.5967 H   0  0  0  0  0  0  0  0  0  0  0  0  # atno 10765 bound_to 10752
  141.1668  133.7129  156.8202 H   0  0  0  0  0  0  0  0  0  0  0  0  # atno 11005 bound_to 11000
  145.3127  141.0224  143.3545 LP  0  0  0  0  0  0  0  0  0  0  0  0  # atno 17320 bound_to 7965
  144.8924  139.4757  143.6671 LP  0  0  0  0  0  0  0  0  0  0  0  0  # atno 17321 bound_to 7965
  140.5013  144.1165  150.5972 LP  0  0  0  0  0  0  0  0  0  0  0  0  # atno 17342 bound_to 10162
  140.4059  143.2680  151.9892 LP  0  0  0  0  0  0  0  0  0  0  0  0  # atno 17343 bound_to 10162
  155.9676  130.4490  150.5643 LP  0  0  0  0  0  0  0  0  0  0  0  0  # atno 17370 bound_to 10713
  157.3483  131.0729  151.1733 LP  0  0  0  0  0  0  0  0  0  0  0  0  # atno 17371 bound_to 10713
  140.2124  134.8817  157.3289 LP  0  0  0  0  0  0  0  0  0  0  0  0  # atno 17394 bound_to 11000
  140.2072  134.4182  155.7631 LP  0  0  0  0  0  0  0  0  0  0  0  0  # atno 17395 bound_to 11000

$$$$
