AV-unprocessed.smi:1021|AV-procd|sdf|4454|dock1
  -GOLD-   22720 2423D 1   1.00000     0.00000
 Structure written by MMmdl.
 42 44  0  0  0  0  0  0  0  0  1 V2000
  152.7390  136.6357  159.9023 O   0  0  0  0  0  0  0  0  0  0  0  0
  151.9713  137.7955  159.6573 C   0  0  0  0  0  0  0  0  0  0  0  0
  152.0391  138.1827  158.1735 C   0  0  0  0  0  0  0  0  0  0  0  0
  150.9286  139.1536  157.7430 C   0  0  0  0  0  0  0  0  0  0  0  0
  151.2309  140.5773  158.1125 C   0  0  0  0  0  0  0  0  0  0  0  0
  151.5226  140.8979  159.3739 N   0  0  0  0  0  0  0  0  0  0  0  0
  151.7183  142.2614  159.3095 C   0  0  0  0  0  0  0  0  0  0  0  0
  152.0493  143.1893  160.3228 C   0  0  0  0  0  0  0  0  0  0  0  0
  152.1892  144.5590  160.0185 C   0  0  0  0  0  0  0  0  0  0  0  0
  151.9980  145.0189  158.6998 C   0  0  0  0  0  0  0  0  0  0  0  0
  151.6702  144.1100  157.6756 C   0  0  0  0  0  0  0  0  0  0  0  0
  151.5370  142.7419  157.9829 C   0  0  0  0  0  0  0  0  0  0  0  0
  151.2374  141.6110  157.2256 N   0  0  0  0  0  0  0  0  0  0  0  0
  150.9661  141.6148  155.7899 C   0  0  0  0  0  0  0  0  0  0  0  0
  149.7840  140.7051  155.3955 C   0  0  2  0  0  0  0  0  0  0  0  0
  150.1240  140.0379  154.1968 O   0  0  0  0  0  0  0  0  0  0  0  0
  148.4691  141.4620  155.2788 C   0  0  0  0  0  0  0  0  0  0  0  0
  147.9398  141.7581  154.0042 C   0  0  0  0  0  0  0  0  0  0  0  0
  146.7247  142.4606  153.8855 C   0  0  0  0  0  0  0  0  0  0  0  0
  146.0316  142.8708  155.0407 C   0  0  0  0  0  0  0  0  0  0  0  0
  144.8624  143.5440  154.9263 F   0  0  0  0  0  0  0  0  0  0  0  0
  146.5534  142.5766  156.3150 C   0  0  0  0  0  0  0  0  0  0  0  0
  147.7674  141.8723  156.4343 C   0  0  0  0  0  0  0  0  0  0  0  0
  153.6544  136.8627  159.8405 H   0  0  0  0  0  0  0  0  0  0  0  0
  150.9404  137.6251  159.9684 H   0  0  0  0  0  0  0  0  0  0  0  0
  152.3656  138.6046  160.2727 H   0  0  0  0  0  0  0  0  0  0  0  0
  153.0073  138.6428  157.9729 H   0  0  0  0  0  0  0  0  0  0  0  0
  152.0048  137.2835  157.5631 H   0  0  0  0  0  0  0  0  0  0  0  0
  150.7258  139.0599  156.6795 H   0  0  0  0  0  0  0  0  0  0  0  0
  149.9973  138.8689  158.2339 H   0  0  0  0  0  0  0  0  0  0  0  0
  152.1926  142.8463  161.3368 H   0  0  0  0  0  0  0  0  0  0  0  0
  152.4409  145.2599  160.8007 H   0  0  0  0  0  0  0  0  0  0  0  0
  152.1031  146.0702  158.4752 H   0  0  0  0  0  0  0  0  0  0  0  0
  151.5213  144.4629  156.6661 H   0  0  0  0  0  0  0  0  0  0  0  0
  150.8040  142.6238  155.4192 H   0  0  0  0  0  0  0  0  0  0  0  0
  151.8737  141.2633  155.2970 H   0  0  0  0  0  0  0  0  0  0  0  0
  149.6609  139.9229  156.1446 H   0  0  0  0  0  0  0  0  0  0  0  0
  149.4812  140.2582  153.5398 H   0  0  0  0  0  0  0  0  0  0  0  0
  148.4625  141.4440  153.1125 H   0  0  0  0  0  0  0  0  0  0  0  0
  146.3240  142.6829  152.9077 H   0  0  0  0  0  0  0  0  0  0  0  0
  146.0201  142.8858  157.2017 H   0  0  0  0  0  0  0  0  0  0  0  0
  148.1550  141.6450  157.4165 H   0  0  0  0  0  0  0  0  0  0  0  0
  1  2  1  0  0  0  0
  1 24  1  0  0  0  0
  2  3  1  0  0  0  0
  2 25  1  0  0  0  0
  2 26  1  0  0  0  0
  3  4  1  0  0  0  0
  3 27  1  0  0  0  0
  3 28  1  0  0  0  0
  4  5  1  0  0  0  0
  4 29  1  0  0  0  0
  4 30  1  0  0  0  0
  5 13  1  0  0  0  0
  5  6  2  0  0  0  0
  6  7  1  0  0  0  0
  7 12  2  0  0  0  0
  7  8  1  0  0  0  0
  8  9  2  0  0  0  0
  8 31  1  0  0  0  0
  9 10  1  0  0  0  0
  9 32  1  0  0  0  0
 10 11  2  0  0  0  0
 10 33  1  0  0  0  0
 11 12  1  0  0  0  0
 11 34  1  0  0  0  0
 12 13  1  0  0  0  0
 13 14  1  0  0  0  0
 14 15  1  0  0  0  0
 14 35  1  0  0  0  0
 14 36  1  0  0  0  0
 15 16  1  0  0  0  0
 15 17  1  0  0  0  0
 15 37  1  0  0  0  0
 16 38  1  0  0  0  0
 17 23  1  0  0  0  0
 17 18  2  0  0  0  0
 18 19  1  0  0  0  0
 18 39  1  0  0  0  0
 19 20  2  0  0  0  0
 19 40  1  0  0  0  0
 20 21  1  0  0  0  0
 20 22  1  0  0  0  0
 22 23  2  0  0  0  0
 22 41  1  0  0  0  0
 23 42  1  0  0  0  0
M  END
> <s_m_source_file>
AV-unprocessed.smi

> <i_m_source_file_index>
1021

> <i_lp_mmshare_version>
43012

> <i_f3d_flags>
0

> <s_epik_input>
W09IXVtDSDJdW0NIMl1bQ0gyXWMobjEpbihjKGMxMilbY0hdW2NIXVtjSF1bY0hdMilbQ0gyXVtDQEhdKFtPSF0pYzNbY0hdW2NIXWMoRilbY0hdW2NIXTM=

> <s_epik_cmdline>
J2VwaWtfcHl0aG9uJywgJy1waCcsICc3LjAnLCAnLXRuJywgJzgnLCAnLW1hJywgJzIwMCcsICctbWV0YWxfYmluZGluZycsICctaW1hZScsICc8aW5maWxlLm1hZT4nLCAnLW9tYWUnLCAnPG91dGZpbGUubWFlPic=

> <r_epik_Ionization_Penalty>
0.182562

> <r_epik_Ionization_Penalty_Charging>
0

> <r_epik_Ionization_Penalty_Neutral>
0.182562

> <r_epik_State_Penalty>
0.172086

> <r_epik_Charging_Adjusted_Penalty>
0.172086

> <i_epik_Tot_Q>
0

> <i_epik_Tot_abs_Q>
0

> <r_epik_Metal_State_Penalty>
0.000199649

> <b_epik_Metal_Only>
0

> <s_lp_Force_Field>
OPLS_2005

> <r_lp_Energy>
12.4475

> <b_lp_Chiralities_Consistent>
1

> <s_lp_Variant>
AV-unprocessed.smi:1021-1

> <Gold.Version>
5.8.1

> <Gold.Id.Protein>
6NUR|6NUR_protein|mol2

> <Gold.PLP.Fitness>
54.7270

> <Gold.PLP.PLP>
-51.2831

> <Gold.PLP.part.hbond>
-2.8398

> <Gold.PLP.part.metal>
0.0000

> <Gold.PLP.part.buried>
-7.4695

> <Gold.PLP.part.nonpolar>
-40.9328

> <Gold.PLP.part.repulsive>
0.0000

> <Gold.PLP.ligand.clash>
0.0000

> <Gold.PLP.ligand.torsion>
1.4205

> <Gold.PLP.Chemscore.Hbond>
2.0468

> <Gold.PLP.Chemscore.CHOScore>
0.0000

> <Gold.PLP.Chemscore.Metal>
0.0000

> <Gold.Chemscore.Hbonds>
donor molecule, donor type, donor heavy atom, donor atom, acceptor molecule, acceptor atom, score
      L1  H    16    38       P1  7957  0.06
      P1  H  6896  6909       L1     1  1.00
      P1  H  7989  7998       L1    16  1.00

> <Gold.PLP.Chemscore.Internal.Correction>
0.1446

> <Gold.Rescore>
     Score         DG    S(hbond)    S(metal)    S(lipo)     H(rot)  DE(clash)    DE(int)     intcor
     15.71     -18.47       1.80        0.00     126.92       3.07       0.77       2.00       ----

> <Gold.Chemscore.Fitness>
15.7058

> <Gold.Chemscore.DG>
-18.4719

> <Gold.Chemscore.ZeroCoef>
-5.4800

> <Gold.Chemscore.Hbond>
1.7999

> <Gold.Chemscore.Metal>
0.0000

> <Gold.Chemscore.Lipo>
126.9241

> <Gold.Chemscore.Internal_Hbond>
0.0000

> <Gold.Chemscore.DEClash>
0.7688

> <Gold.Chemscore.DEInternal>
1.9973

> <Gold.Chemscore.Rot>
3.0741

> <Gold.Chemscore.Internal.Correction>
   9.000000E+99

> <Gold.Chemscore.Hbonds>
donor molecule, donor type, donor heavy atom, donor atom, acceptor molecule, acceptor atom, score
      L1  H    16    38       P1  7957  0.07
      P1  H  6896  6909       L1     1  0.96
      P1  H  7989  7998       L1    16  0.16

> <Gold.Chemscore.Hbond.Weighted>
-6.0116

> <Gold.Chemscore.Metal.Weighted>
-0.0000

> <Gold.Chemscore.Lipo.Weighted>
-14.8501

> <Gold.Chemscore.Internal_Hbond.Weighted>
0.0000

> <Gold.Chemscore.DEClash.Weighted>
0.7688

> <Gold.Chemscore.DEInternal.Weighted>
1.9973

> <Gold.Chemscore.Rot.Weighted>
7.8698

> <Gold.Chemscore.Internal.Correction.Weighted>
   9.000000E+99

> <Gold.Protein.RotatedTorsions>
[ 6907 6896 6895 6894 ] final  138.50 input  -60.11 | X-H torsion
[ 7974 7965 7964 7962 ] final -146.85 input  175.53 | X-H torsion
[ 8008 7997 7996 7995 ] final  -71.74 input   59.86 | X-H torsion
[ 10167 10162 10161 10158 ] final -175.78 input  -65.29 | X-H torsion
[ 10718 10713 10712 10709 ] final   58.66 input   66.30 | X-H torsion
[ 10763 10752 10751 10750 ] final  130.53 input  -60.55 | X-H torsion
[ 11005 11000 10999 10996 ] final  -43.55 input  -57.11 | X-H torsion

> <Gold.Protein.ActiveResidues>
 VAL166  LYS551  ARG553  GLY616  TRP617  ASP618  TYR619  PRO620  LYS621  CYS622 
 ASP623  PHE694  ASN695  SER759  ASP760  ASP761  ALA762  ILE779  LEU786  VAL792 
 PHE793  MET794  SER795  GLU796  ALA797  LYS798  CYS799  TRP800  GLU811  SER814 

> <Gold.Protein.RotatedAtoms>
  152.2659  133.5339  159.5409 H   0  0  0  0  0  0  0  0  0  0  0  0  # atno 6907 bound_to 6896
  150.7141  134.0765  159.3892 H   0  0  0  0  0  0  0  0  0  0  0  0  # atno 6908 bound_to 6896
  151.8681  135.0499  160.0527 H   0  0  0  0  0  0  0  0  0  0  0  0  # atno 6909 bound_to 6896
  144.8132  140.5403  143.5628 H   0  0  0  0  0  0  0  0  0  0  0  0  # atno 7974 bound_to 7965
  154.5112  140.0810  156.7993 H   0  0  0  0  0  0  0  0  0  0  0  0  # atno 8008 bound_to 7997
  155.3782  140.3426  155.4227 H   0  0  0  0  0  0  0  0  0  0  0  0  # atno 8009 bound_to 7997
  156.1575  140.1578  156.8656 H   0  0  0  0  0  0  0  0  0  0  0  0  # atno 8010 bound_to 7997
  139.5563  144.1980  152.1165 H   0  0  0  0  0  0  0  0  0  0  0  0  # atno 10167 bound_to 10162
  157.5614  130.8838  149.9117 H   0  0  0  0  0  0  0  0  0  0  0  0  # atno 10718 bound_to 10713
  153.7596  135.3198  155.3335 H   0  0  0  0  0  0  0  0  0  0  0  0  # atno 10763 bound_to 10752
  154.8235  135.4586  154.0851 H   0  0  0  0  0  0  0  0  0  0  0  0  # atno 10764 bound_to 10752
  153.2078  135.6931  153.8234 H   0  0  0  0  0  0  0  0  0  0  0  0  # atno 10765 bound_to 10752
  141.0391  133.6787  156.2748 H   0  0  0  0  0  0  0  0  0  0  0  0  # atno 11005 bound_to 11000
  145.5275  139.1475  143.3518 LP  0  0  0  0  0  0  0  0  0  0  0  0  # atno 17320 bound_to 7965
  146.2433  140.5416  142.8925 LP  0  0  0  0  0  0  0  0  0  0  0  0  # atno 17321 bound_to 7965
  140.1485  144.5136  150.6701 LP  0  0  0  0  0  0  0  0  0  0  0  0  # atno 17342 bound_to 10162
  140.6837  143.2339  151.5318 LP  0  0  0  0  0  0  0  0  0  0  0  0  # atno 17343 bound_to 10162
  156.0666  130.3691  150.0865 LP  0  0  0  0  0  0  0  0  0  0  0  0  # atno 17370 bound_to 10713
  156.9028  130.9626  151.3574 LP  0  0  0  0  0  0  0  0  0  0  0  0  # atno 17371 bound_to 10713
  140.6267  134.5306  157.5554 LP  0  0  0  0  0  0  0  0  0  0  0  0  # atno 17394 bound_to 11000
  139.9262  134.8051  156.1061 LP  0  0  0  0  0  0  0  0  0  0  0  0  # atno 17395 bound_to 11000

$$$$
