AV-unprocessed.smi:1295|AV-procd|sdf|5402|dock8
  -GOLD-   22720 4563D 1   1.00000     0.00000
 Structure written by MMmdl.
 43 44  0  0  0  0  0  0  0  0  1 V2000
  146.4909  137.9679  152.3098 C   0  0  0  0  0  0  0  0  0  0  0  0
  147.2306  139.1048  152.9818 C   0  0  0  0  0  0  0  0  0  0  0  0
  146.7092  140.2635  153.2183 N   0  0  0  0  0  0  0  0  0  0  0  0
  147.4951  141.2408  153.8445 C   0  0  0  0  0  0  0  0  0  0  0  0
  146.8134  142.5779  154.0815 C   0  0  0  0  0  0  0  0  0  0  0  0
  148.7875  140.9941  154.2097 C   0  0  0  0  0  0  0  0  0  0  0  0
  149.6697  142.0412  154.8865 C   0  0  0  0  0  0  0  0  0  0  0  0
  150.1415  141.6905  156.2995 C   0  0  0  0  0  0  0  0  0  0  0  0
  150.6404  140.5891  156.5295 O   0  0  0  0  0  0  0  0  0  0  0  0
  149.9803  142.6433  157.2306 N   0  0  0  0  0  0  0  0  0  0  0  0
  150.3823  142.5585  158.6357 C   0  0  1  0  0  0  0  0  0  0  0  0
  151.9050  142.3336  158.7283 C   0  0  0  0  0  0  0  0  0  0  0  0
  152.7036  143.5761  158.2965 C   0  0  0  0  0  0  0  0  0  0  0  0
  152.2779  144.8165  159.0965 C   0  0  0  0  0  0  0  0  0  0  0  0
  150.7631  145.0585  158.9936 C   0  0  0  0  0  0  0  0  0  0  0  0
  149.9585  143.8178  159.4336 C   0  0  1  0  0  0  0  0  0  0  0  0
  148.4432  144.0786  159.3869 C   0  0  0  0  0  0  0  0  0  0  0  0
  149.3717  139.6664  153.9376 C   0  0  0  0  0  0  0  0  0  0  0  0
  150.5224  139.3381  154.2217 O   0  0  0  0  0  0  0  0  0  0  0  0
  148.5431  138.7889  153.3287 N   0  0  0  0  0  0  0  0  0  0  0  0
  148.8977  137.8675  153.1175 H   0  0  0  0  0  0  0  0  0  0  0  0
  146.1655  138.2692  151.3139 H   0  0  0  0  0  0  0  0  0  0  0  0
  145.6097  137.6981  152.8920 H   0  0  0  0  0  0  0  0  0  0  0  0
  147.1190  137.0813  152.2100 H   0  0  0  0  0  0  0  0  0  0  0  0
  146.7442  142.7890  155.1489 H   0  0  0  0  0  0  0  0  0  0  0  0
  145.8017  142.5840  153.6740 H   0  0  0  0  0  0  0  0  0  0  0  0
  147.3685  143.3847  153.6026 H   0  0  0  0  0  0  0  0  0  0  0  0
  150.5399  142.2171  154.2530 H   0  0  0  0  0  0  0  0  0  0  0  0
  149.1610  143.0046  154.9297 H   0  0  0  0  0  0  0  0  0  0  0  0
  149.5551  143.5115  156.9395 H   0  0  0  0  0  0  0  0  0  0  0  0
  149.9024  141.6926  159.0954 H   0  0  0  0  0  0  0  0  0  0  0  0
  152.1667  142.0833  159.7573 H   0  0  0  0  0  0  0  0  0  0  0  0
  152.1969  141.4730  158.1251 H   0  0  0  0  0  0  0  0  0  0  0  0
  153.7704  143.3959  158.4318 H   0  0  0  0  0  0  0  0  0  0  0  0
  152.5568  143.7591  157.2313 H   0  0  0  0  0  0  0  0  0  0  0  0
  152.5557  144.6881  160.1433 H   0  0  0  0  0  0  0  0  0  0  0  0
  152.8193  145.6927  158.7390 H   0  0  0  0  0  0  0  0  0  0  0  0
  150.4915  145.9157  159.6107 H   0  0  0  0  0  0  0  0  0  0  0  0
  150.5047  145.3260  157.9683 H   0  0  0  0  0  0  0  0  0  0  0  0
  150.2078  143.6285  160.4788 H   0  0  0  0  0  0  0  0  0  0  0  0
  148.1081  144.3408  158.3831 H   0  0  0  0  0  0  0  0  0  0  0  0
  148.1684  144.8996  160.0493 H   0  0  0  0  0  0  0  0  0  0  0  0
  147.8849  143.1979  159.7052 H   0  0  0  0  0  0  0  0  0  0  0  0
  1  2  1  0  0  0  0
  1 22  1  0  0  0  0
  1 23  1  0  0  0  0
  1 24  1  0  0  0  0
  2 20  1  0  0  0  0
  2  3  2  0  0  0  0
  3  4  1  0  0  0  0
  4  5  1  0  0  0  0
  4  6  2  0  0  0  0
  5 25  1  0  0  0  0
  5 26  1  0  0  0  0
  5 27  1  0  0  0  0
  6  7  1  0  0  0  0
  6 18  1  0  0  0  0
  7  8  1  0  0  0  0
  7 28  1  0  0  0  0
  7 29  1  0  0  0  0
  8  9  2  0  0  0  0
  8 10  1  0  0  0  0
 10 11  1  0  0  0  0
 10 30  1  0  0  0  0
 11 16  1  0  0  0  0
 11 12  1  0  0  0  0
 11 31  1  0  0  0  0
 12 13  1  0  0  0  0
 12 32  1  0  0  0  0
 12 33  1  0  0  0  0
 13 14  1  0  0  0  0
 13 34  1  0  0  0  0
 13 35  1  0  0  0  0
 14 15  1  0  0  0  0
 14 36  1  0  0  0  0
 14 37  1  0  0  0  0
 15 16  1  0  0  0  0
 15 38  1  0  0  0  0
 15 39  1  0  0  0  0
 16 17  1  0  0  0  0
 16 40  1  0  0  0  0
 17 41  1  0  0  0  0
 17 42  1  0  0  0  0
 17 43  1  0  0  0  0
 18 19  2  0  0  0  0
 18 20  1  0  0  0  0
 20 21  1  0  0  0  0
M  END
> <s_m_source_file>
AV-unprocessed.smi

> <i_m_source_file_index>
1295

> <i_lp_mmshare_version>
43012

> <i_f3d_flags>
0

> <s_epik_input>
W0NIM11jMW5jKFtDSDNdKWMoYyg9TylbbkhdMSlbQ0gyXUMoPU8pW05IXVtDQEBIXTJbQ0gyXVtDSDJdW0NIMl1bQ0gyXVtDQEhdMltDSDNd

> <s_epik_cmdline>
J2VwaWtfcHl0aG9uJywgJy1waCcsICc3LjAnLCAnLXRuJywgJzgnLCAnLW1hJywgJzIwMCcsICctbWV0YWxfYmluZGluZycsICctaW1hZScsICc8aW5maWxlLm1hZT4nLCAnLW9tYWUnLCAnPG91dGZpbGUubWFlPic=

> <r_lp_tautomer_probability>
0.839158

> <r_epik_Ionization_Penalty>
0.00037085

> <r_epik_Ionization_Penalty_Charging>
0.000336002

> <r_epik_Ionization_Penalty_Neutral>
3.48485e-05

> <r_epik_State_Penalty>
0.09125

> <r_epik_Charging_Adjusted_Penalty>
0.091586

> <i_epik_Tot_Q>
0

> <i_epik_Tot_abs_Q>
0

> <r_epik_Metal_State_Penalty>
0.251445

> <b_epik_Metal_Only>
0

> <s_lp_Force_Field>
OPLS_2005

> <r_lp_Energy>
11.7893

> <b_lp_Chiralities_Consistent>
1

> <s_lp_Variant>
AV-unprocessed.smi:1295-2

> <Gold.Version>
5.8.1

> <Gold.Id.Protein>
6NUR|6NUR_protein|mol2

> <Gold.PLP.Fitness>
43.7257

> <Gold.PLP.PLP>
-35.0507

> <Gold.PLP.part.hbond>
-4.0000

> <Gold.PLP.part.metal>
0.0000

> <Gold.PLP.part.buried>
4.8349

> <Gold.PLP.part.nonpolar>
-36.6044

> <Gold.PLP.part.repulsive>
0.7808

> <Gold.PLP.ligand.clash>
0.0000

> <Gold.PLP.ligand.torsion>
0.1291

> <Gold.PLP.Chemscore.Hbond>
2.9750

> <Gold.PLP.Chemscore.CHOScore>
0.0000

> <Gold.PLP.Chemscore.Metal>
0.0000

> <Gold.Chemscore.Hbonds>
donor molecule, donor type, donor heavy atom, donor atom, acceptor molecule, acceptor atom, score
      L1  H    10    30       P1  8028  1.00
      L1  H    20    21       P1  7948  0.97
      P1  H  7989  7998       L1    19  1.00

> <Gold.PLP.Chemscore.Internal.Correction>
0.0081

> <Gold.Rescore>
     Score         DG    S(hbond)    S(metal)    S(lipo)     H(rot)  DE(clash)    DE(int)     intcor
     17.80     -20.56       2.26        0.00      96.78       1.48       1.14       1.62       ----

> <Gold.Chemscore.Fitness>
17.8014

> <Gold.Chemscore.DG>
-20.5623

> <Gold.Chemscore.ZeroCoef>
-5.4800

> <Gold.Chemscore.Hbond>
2.2600

> <Gold.Chemscore.Metal>
0.0000

> <Gold.Chemscore.Lipo>
96.7789

> <Gold.Chemscore.Internal_Hbond>
0.0000

> <Gold.Chemscore.DEClash>
1.1442

> <Gold.Chemscore.DEInternal>
1.6167

> <Gold.Chemscore.Rot>
1.4801

> <Gold.Chemscore.Internal.Correction>
   9.000000E+99

> <Gold.Chemscore.Hbonds>
donor molecule, donor type, donor heavy atom, donor atom, acceptor molecule, acceptor atom, score
      L1  H    10    30       P1  8028  0.95
      L1  H    20    21       P1  7948  0.85
      P1  H  7989  7998       L1    19  0.37

> <Gold.Chemscore.Hbond.Weighted>
-7.5483

> <Gold.Chemscore.Metal.Weighted>
-0.0000

> <Gold.Chemscore.Lipo.Weighted>
-11.3231

> <Gold.Chemscore.Internal_Hbond.Weighted>
0.0000

> <Gold.Chemscore.DEClash.Weighted>
1.1442

> <Gold.Chemscore.DEInternal.Weighted>
1.6167

> <Gold.Chemscore.Rot.Weighted>
3.7891

> <Gold.Chemscore.Internal.Correction.Weighted>
   9.000000E+99

> <Gold.Protein.RotatedTorsions>
[ 6907 6896 6895 6894 ] final  115.63 input  -60.11 | X-H torsion
[ 7974 7965 7964 7962 ] final   90.14 input  175.53 | X-H torsion
[ 8008 7997 7996 7995 ] final  -35.91 input   59.86 | X-H torsion
[ 10167 10162 10161 10158 ] final  103.34 input  -65.29 | X-H torsion
[ 10718 10713 10712 10709 ] final  -82.57 input   66.30 | X-H torsion
[ 10763 10752 10751 10750 ] final   70.38 input  -60.55 | X-H torsion
[ 11005 11000 10999 10996 ] final -104.24 input  -57.11 | X-H torsion

> <Gold.Protein.ActiveResidues>
 VAL166  LYS551  ARG553  GLY616  TRP617  ASP618  TYR619  PRO620  LYS621  CYS622 
 ASP623  PHE694  ASN695  SER759  ASP760  ASP761  ALA762  ILE779  LEU786  VAL792 
 PHE793  MET794  SER795  GLU796  ALA797  LYS798  CYS799  TRP800  GLU811  SER814 

> <Gold.Protein.RotatedAtoms>
  152.4729  133.8072  159.6983 H   0  0  0  0  0  0  0  0  0  0  0  0  # atno 6907 bound_to 6896
  150.8729  133.7470  159.2962 H   0  0  0  0  0  0  0  0  0  0  0  0  # atno 6908 bound_to 6896
  151.4999  135.1064  159.9878 H   0  0  0  0  0  0  0  0  0  0  0  0  # atno 6909 bound_to 6896
  145.5230  139.2280  143.2661 H   0  0  0  0  0  0  0  0  0  0  0  0  # atno 7974 bound_to 7965
  154.4085  140.1645  156.2287 H   0  0  0  0  0  0  0  0  0  0  0  0  # atno 8008 bound_to 7997
  155.9301  140.3415  155.6219 H   0  0  0  0  0  0  0  0  0  0  0  0  # atno 8009 bound_to 7997
  155.7117  140.0757  157.2359 H   0  0  0  0  0  0  0  0  0  0  0  0  # atno 8010 bound_to 7997
  139.7271  144.7045  151.0780 H   0  0  0  0  0  0  0  0  0  0  0  0  # atno 10167 bound_to 10162
  156.0031  130.4638  150.4125 H   0  0  0  0  0  0  0  0  0  0  0  0  # atno 10718 bound_to 10713
  153.0338  135.5176  154.7432 H   0  0  0  0  0  0  0  0  0  0  0  0  # atno 10763 bound_to 10752
  154.6425  135.2914  155.0089 H   0  0  0  0  0  0  0  0  0  0  0  0  # atno 10764 bound_to 10752
  154.1001  135.6637  153.4919 H   0  0  0  0  0  0  0  0  0  0  0  0  # atno 10765 bound_to 10752
  141.1109  133.8707  157.1586 H   0  0  0  0  0  0  0  0  0  0  0  0  # atno 11005 bound_to 11000
  146.2094  140.6043  142.9066 LP  0  0  0  0  0  0  0  0  0  0  0  0  # atno 17320 bound_to 7965
  144.7666  140.5544  143.6699 LP  0  0  0  0  0  0  0  0  0  0  0  0  # atno 17321 bound_to 7965
  140.7765  143.5091  150.9675 LP  0  0  0  0  0  0  0  0  0  0  0  0  # atno 17342 bound_to 10162
  139.8778  143.7110  152.3160 LP  0  0  0  0  0  0  0  0  0  0  0  0  # atno 17343 bound_to 10162
  157.2187  131.0477  151.2559 LP  0  0  0  0  0  0  0  0  0  0  0  0  # atno 17370 bound_to 10713
  157.3821  130.7237  149.6637 LP  0  0  0  0  0  0  0  0  0  0  0  0  # atno 17371 bound_to 10713
  140.0003  135.0030  157.0175 LP  0  0  0  0  0  0  0  0  0  0  0  0  # atno 17394 bound_to 11000
  140.4776  134.1322  155.7212 LP  0  0  0  0  0  0  0  0  0  0  0  0  # atno 17395 bound_to 11000

$$$$
