#       Name:                AV-unprocessed.smi:3303
#       Creating user name   scv26
#       Creation time:       Fri Mar 27 19:00:30 2020


#       File generated by GOLD software.
#

@<TRIPOS>MOLECULE
AV-unprocessed.smi:3303
    46    47     1
SMALL
NO_CHARGES


@<TRIPOS>ATOM
      1 ****        -1.9012  -0.8893   2.8435 C.3            1 S1                 0.0000
      2 ****        -2.1373  -1.1756   1.3508 C.3            1 S1                 0.0000
      3 ****        -1.6772  -2.5918   0.9492 C.3            1 S1                 0.0000
      4 ****        -2.0148  -2.8817  -0.4676 N.4            1 S1                 1.0000
      5 ****        -1.8008  -4.3012  -0.8315 C.3            1 S1                 0.0000
      6 ****        -1.4269  -1.9070  -1.4310 C.3            1 S1                 0.0000
      7 ****         0.0926  -2.0856  -1.6441 C.3            1 S1                 0.0000
      8 ****        -1.8245  -0.4620  -1.0487 C.3            1 S1                 0.0000
      9 ****        -1.5320  -0.0955   0.4254 C.3            1 S1                 0.0000
     10 ****        -0.0866   0.1076   0.6919 N.4            1 S1                 1.0000
     11 ****         0.4936   1.3515   0.1449 C.3            1 S1                 0.0000
     12 ****         1.9733   1.4797   0.5296 C.3            1 S1                 0.0000
     13 ****         2.6015   2.7402  -0.0330 C.ar           1 S1                 0.0000
     14 ****         2.8061   3.8725   0.7840 C.ar           1 S1                 0.0000
     15 ****         3.3870   5.0187   0.2071 C.ar           1 S1                 0.0000
     16 ****         3.7376   4.9879  -1.1565 C.ar           1 S1                 0.0000
     17 ****         3.4906   3.8081  -1.8865 C.ar           1 S1                 0.0000
     18 ****         2.9331   2.7039  -1.3432 N.ar           1 S1                 0.0000
     19 ****        -0.8457  -0.9565   3.1086 H              1 S1                 0.0000
     20 ****        -2.4402  -1.6034   3.4667 H              1 S1                 0.0000
     21 ****        -2.2511   0.1079   3.1125 H              1 S1                 0.0000
     22 ****        -3.2184  -1.1443   1.2045 H              1 S1                 0.0000
     23 ****        -0.6070  -2.7170   1.1172 H              1 S1                 0.0000
     24 ****        -2.1765  -3.3240   1.5857 H              1 S1                 0.0000
     25 ****        -0.7586  -4.5952  -0.7039 H              1 S1                 0.0000
     26 ****        -2.0877  -4.4834  -1.8676 H              1 S1                 0.0000
     27 ****        -2.4105  -4.9495  -0.2015 H              1 S1                 0.0000
     28 ****        -1.8945  -2.1071  -2.3963 H              1 S1                 0.0000
     29 ****         0.4853  -1.3075  -2.2994 H              1 S1                 0.0000
     30 ****         0.3188  -3.0394  -2.1209 H              1 S1                 0.0000
     31 ****         0.6573  -2.0457  -0.7141 H              1 S1                 0.0000
     32 ****        -1.3733   0.2520  -1.7369 H              1 S1                 0.0000
     33 ****        -2.8992  -0.3606  -1.2069 H              1 S1                 0.0000
     34 ****        -2.0308   0.8487   0.6496 H              1 S1                 0.0000
     35 ****         0.0370   0.1390   1.6941 H              1 S1                 0.0000
     36 ****         0.3986   1.3587  -0.9407 H              1 S1                 0.0000
     37 ****        -0.0634   2.2091   0.5249 H              1 S1                 0.0000
     38 ****         2.0799   1.4782   1.6155 H              1 S1                 0.0000
     39 ****         2.5317   0.6159   0.1648 H              1 S1                 0.0000
     40 ****         2.5263   3.8673   1.8274 H              1 S1                 0.0000
     41 ****         3.5601   5.9048   0.7998 H              1 S1                 0.0000
     42 ****         4.1853   5.8481  -1.6322 H              1 S1                 0.0000
     43 ****         3.7462   3.7496  -2.9340 H              1 S1                 0.0000
     44 ****         0.4300  -0.6819   0.3316 H              1 S1                 0.0000
     45 ****        -3.0137  -2.7448  -0.5342 H              1 S1                 0.0000
     46 ****         2.7707   1.8848  -1.8933 LP             1 S1                 0.0000
@<TRIPOS>BOND
    1    1    2 1     
    2    1   19 1     
    3    1   20 1     
    4    1   21 1     
    5    2    9 1     
    6    2    3 1     
    7    2   22 1     
    8    3    4 1     
    9    3   23 1     
   10    3   24 1     
   11    4    5 1     
   12    4    6 1     
   13    4   45 1     
   14    5   25 1     
   15    5   26 1     
   16    5   27 1     
   17    6    7 1     
   18    6    8 1     
   19    6   28 1     
   20    7   29 1     
   21    7   30 1     
   22    7   31 1     
   23    8    9 1     
   24    8   32 1     
   25    8   33 1     
   26    9   10 1     
   27    9   34 1     
   28   10   11 1     
   29   10   35 1     
   30   10   44 1     
   31   11   12 1     
   32   11   36 1     
   33   11   37 1     
   34   12   13 1     
   35   12   38 1     
   36   12   39 1     
   37   13   18 ar    
   38   13   14 ar    
   39   14   15 ar    
   40   14   40 1     
   41   15   16 ar    
   42   15   41 1     
   43   16   17 ar    
   44   16   42 1     
   45   17   18 ar    
   46   17   43 1     
   47   18   46 1     
@<TRIPOS>SUBSTRUCTURE
      1 S1             1
@<TRIPOS>SET
LONE_PAIRS      STATIC     ATOMS    <user>   **** ""
1 46
DONOR_HYDROGENS      STATIC     ATOMS    <user>   **** ""
3 45 35 44
ATOM$BLUE        STATIC     ATOMS    COLORGROUP SYSTEM
1 46
ATOM$RED        STATIC     ATOMS    COLORGROUP SYSTEM
3 45 35 44
