AV-unprocessed.smi:431|AV-procd|sdf|2547|dock4
  -GOLD-   2262022513D 1   1.00000     0.00000
 Structure written by MMmdl.
 43 44  0  0  0  0  0  0  0  0  1 V2000
  149.3126  133.6330  157.8792 C   0  0  0  0  0  0  0  0  0  0  0  0
  150.0697  134.7541  157.1491 C   0  0  0  0  0  0  0  0  0  0  0  0
  149.4454  135.1705  155.7983 C   0  0  2  0  0  0  0  0  0  0  0  0
  149.3758  133.9752  154.8329 C   0  0  0  0  0  0  0  0  0  0  0  0
  150.2121  136.3313  155.1472 C   0  0  0  0  0  0  0  0  0  0  0  0
  151.3872  136.1867  154.8085 O   0  0  0  0  0  0  0  0  0  0  0  0
  149.5385  137.4817  154.9913 N   0  0  0  0  0  0  0  0  0  0  0  0
  150.1022  138.7105  154.4424 C   0  0  0  0  0  0  0  0  0  0  0  0
  150.5612  139.7060  155.4983 C   0  0  0  0  0  0  0  0  0  0  0  0
  150.1219  141.0461  155.5005 C   0  0  0  0  0  0  0  0  0  0  0  0
  150.5840  141.9158  156.5063 C   0  0  0  0  0  0  0  0  0  0  0  0
  151.4786  141.4249  157.4873 C   0  0  0  0  0  0  0  0  0  0  0  0
  151.9504  142.2766  158.5106 N   0  0  0  0  0  0  0  0  0  0  0  0
  151.0419  143.3475  158.9140 C   0  0  0  0  0  0  0  0  0  0  0  0
  151.7772  144.3713  159.7961 C   0  0  0  0  0  0  0  0  0  0  0  0
  152.3780  143.7103  160.9047 O   0  0  0  0  0  0  0  0  0  0  0  0
  153.3439  142.7512  160.4878 C   0  0  0  0  0  0  0  0  0  0  0  0
  152.6632  141.6687  159.6331 C   0  0  0  0  0  0  0  0  0  0  0  0
  151.9112  140.1397  157.4704 N   0  0  0  0  0  0  0  0  0  0  0  0
  151.4636  139.3097  156.5049 C   0  0  0  0  0  0  0  0  0  0  0  0
  149.8466  133.3316  158.7803 H   0  0  0  0  0  0  0  0  0  0  0  0
  149.2067  132.7518  157.2462 H   0  0  0  0  0  0  0  0  0  0  0  0
  148.3154  133.9510  158.1834 H   0  0  0  0  0  0  0  0  0  0  0  0
  150.1518  135.6208  157.8068 H   0  0  0  0  0  0  0  0  0  0  0  0
  151.0922  134.4175  156.9746 H   0  0  0  0  0  0  0  0  0  0  0  0
  148.4217  135.4985  155.9876 H   0  0  0  0  0  0  0  0  0  0  0  0
  148.9490  134.2642  153.8715 H   0  0  0  0  0  0  0  0  0  0  0  0
  148.7494  133.1814  155.2406 H   0  0  0  0  0  0  0  0  0  0  0  0
  150.3636  133.5520  154.6455 H   0  0  0  0  0  0  0  0  0  0  0  0
  148.5752  137.5137  155.2920 H   0  0  0  0  0  0  0  0  0  0  0  0
  150.9294  138.4689  153.7725 H   0  0  0  0  0  0  0  0  0  0  0  0
  149.3394  139.1906  153.8295 H   0  0  0  0  0  0  0  0  0  0  0  0
  149.4428  141.4102  154.7437 H   0  0  0  0  0  0  0  0  0  0  0  0
  150.2596  142.9454  156.5034 H   0  0  0  0  0  0  0  0  0  0  0  0
  150.6170  143.8641  158.0548 H   0  0  0  0  0  0  0  0  0  0  0  0
  150.2079  142.9112  159.4656 H   0  0  0  0  0  0  0  0  0  0  0  0
  152.5365  144.9047  159.2215 H   0  0  0  0  0  0  0  0  0  0  0  0
  151.0755  145.1189  160.1663 H   0  0  0  0  0  0  0  0  0  0  0  0
  154.1437  143.2417  159.9302 H   0  0  0  0  0  0  0  0  0  0  0  0
  153.8007  142.3011  161.3693 H   0  0  0  0  0  0  0  0  0  0  0  0
  151.9593  141.1004  160.2427 H   0  0  0  0  0  0  0  0  0  0  0  0
  153.4181  140.9707  159.2687 H   0  0  0  0  0  0  0  0  0  0  0  0
  151.8368  138.2967  156.5414 H   0  0  0  0  0  0  0  0  0  0  0  0
  1  2  1  0  0  0  0
  1 21  1  0  0  0  0
  1 22  1  0  0  0  0
  1 23  1  0  0  0  0
  2  3  1  0  0  0  0
  2 24  1  0  0  0  0
  2 25  1  0  0  0  0
  3  4  1  0  0  0  0
  3  5  1  0  0  0  0
  3 26  1  0  0  0  0
  4 27  1  0  0  0  0
  4 28  1  0  0  0  0
  4 29  1  0  0  0  0
  5  6  2  0  0  0  0
  5  7  1  0  0  0  0
  7  8  1  0  0  0  0
  7 30  1  0  0  0  0
  8  9  1  0  0  0  0
  8 31  1  0  0  0  0
  8 32  1  0  0  0  0
  9 20  1  0  0  0  0
  9 10  2  0  0  0  0
 10 11  1  0  0  0  0
 10 33  1  0  0  0  0
 11 12  2  0  0  0  0
 11 34  1  0  0  0  0
 12 13  1  0  0  0  0
 12 19  1  0  0  0  0
 13 18  1  0  0  0  0
 13 14  1  0  0  0  0
 14 15  1  0  0  0  0
 14 35  1  0  0  0  0
 14 36  1  0  0  0  0
 15 16  1  0  0  0  0
 15 37  1  0  0  0  0
 15 38  1  0  0  0  0
 16 17  1  0  0  0  0
 17 18  1  0  0  0  0
 17 39  1  0  0  0  0
 17 40  1  0  0  0  0
 18 41  1  0  0  0  0
 18 42  1  0  0  0  0
 19 20  2  0  0  0  0
 20 43  1  0  0  0  0
M  END
> <s_m_source_file>
AV-unprocessed.smi

> <i_m_source_file_index>
431

> <i_lp_mmshare_version>
43012

> <i_f3d_flags>
0

> <s_epik_input>
W0NIM11bQ0gyXVtDQEhdKFtDSDNdKUMoPU8pW05IXVtDSDJdYzFbY0hdW2NIXWMobltjSF0xKU4yW0NIMl1bQ0gyXU9bQ0gyXVtDSDJdMg==

> <s_epik_cmdline>
J2VwaWtfcHl0aG9uJywgJy1waCcsICc3LjAnLCAnLXRuJywgJzgnLCAnLW1hJywgJzIwMCcsICctbWV0YWxfYmluZGluZycsICctaW1hZScsICc8aW5maWxlLm1hZT4nLCAnLW9tYWUnLCAnPG91dGZpbGUubWFlPic=

> <r_lp_tautomer_probability>
1

> <r_epik_Ionization_Penalty>
0.00513882

> <r_epik_Ionization_Penalty_Charging>
0

> <r_epik_Ionization_Penalty_Neutral>
0.00513882

> <r_epik_State_Penalty>
0.00374265

> <r_epik_Charging_Adjusted_Penalty>
0.00374265

> <i_epik_Tot_Q>
0

> <i_epik_Tot_abs_Q>
0

> <r_epik_Metal_State_Penalty>
-0

> <b_epik_Metal_Only>
0

> <s_lp_Force_Field>
OPLS_2005

> <r_lp_Energy>
15.574

> <b_lp_Chiralities_Consistent>
1

> <s_lp_Variant>
AV-unprocessed.smi:431-1

> <Gold.Version>
5.8.1

> <Gold.Id.Protein>
6NUR|6NUR_protein|mol2

> <Gold.PLP.Fitness>
37.9689

> <Gold.PLP.PLP>
-35.9914

> <Gold.PLP.part.hbond>
-1.2731

> <Gold.PLP.part.metal>
0.0000

> <Gold.PLP.part.buried>
-4.7715

> <Gold.PLP.part.nonpolar>
-31.2057

> <Gold.PLP.part.repulsive>
0.2914

> <Gold.PLP.ligand.clash>
0.0000

> <Gold.PLP.ligand.torsion>
0.7101

> <Gold.PLP.Chemscore.Hbond>
1.0000

> <Gold.PLP.Chemscore.CHOScore>
0.0000

> <Gold.PLP.Chemscore.Metal>
0.0000

> <Gold.Chemscore.Hbonds>
donor molecule, donor type, donor heavy atom, donor atom, acceptor molecule, acceptor atom, score
      P1  H 10752 10763       L1     6  1.00

> <Gold.PLP.Chemscore.Internal.Correction>
0.3977

> <Gold.Rescore>
     Score         DG    S(hbond)    S(metal)    S(lipo)     H(rot)  DE(clash)    DE(int)     intcor
     14.95     -15.33       1.00        0.00      91.59       1.64       0.04       0.35       ----

> <Gold.Chemscore.Fitness>
14.9469

> <Gold.Chemscore.DG>
-15.3349

> <Gold.Chemscore.ZeroCoef>
-5.4800

> <Gold.Chemscore.Hbond>
0.9997

> <Gold.Chemscore.Metal>
0.0000

> <Gold.Chemscore.Lipo>
91.5891

> <Gold.Chemscore.Internal_Hbond>
0.0000

> <Gold.Chemscore.DEClash>
0.0402

> <Gold.Chemscore.DEInternal>
0.3477

> <Gold.Chemscore.Rot>
1.6407

> <Gold.Chemscore.Internal.Correction>
   9.000000E+99

> <Gold.Chemscore.Hbonds>
donor molecule, donor type, donor heavy atom, donor atom, acceptor molecule, acceptor atom, score
      P1  H 10752 10763       L1     6  1.00

> <Gold.Chemscore.Hbond.Weighted>
-3.3391

> <Gold.Chemscore.Metal.Weighted>
-0.0000

> <Gold.Chemscore.Lipo.Weighted>
-10.7159

> <Gold.Chemscore.Internal_Hbond.Weighted>
0.0000

> <Gold.Chemscore.DEClash.Weighted>
0.0402

> <Gold.Chemscore.DEInternal.Weighted>
0.3477

> <Gold.Chemscore.Rot.Weighted>
4.2001

> <Gold.Chemscore.Internal.Correction.Weighted>
   9.000000E+99

> <Gold.Protein.RotatedTorsions>
[ 6907 6896 6895 6894 ] final  -98.56 input  -60.11 | X-H torsion
[ 7974 7965 7964 7962 ] final  156.91 input  175.53 | X-H torsion
[ 8008 7997 7996 7995 ] final  122.22 input   59.86 | X-H torsion
[ 10167 10162 10161 10158 ] final -111.71 input  -65.29 | X-H torsion
[ 10718 10713 10712 10709 ] final   32.91 input   66.30 | X-H torsion
[ 10763 10752 10751 10750 ] final   63.81 input  -60.55 | X-H torsion
[ 11005 11000 10999 10996 ] final  -54.80 input  -57.11 | X-H torsion

> <Gold.Protein.ActiveResidues>
 VAL166  LYS551  ARG553  GLY616  TRP617  ASP618  TYR619  PRO620  LYS621  CYS622 
 ASP623  PHE694  ASN695  SER759  ASP760  ASP761  ALA762  ILE779  LEU786  VAL792 
 PHE793  MET794  SER795  GLU796  ALA797  LYS798  CYS799  TRP800  GLU811  SER814 

> <Gold.Protein.RotatedAtoms>
  150.7051  134.1176  159.4022 H   0  0  0  0  0  0  0  0  0  0  0  0  # atno 6907 bound_to 6896
  151.9162  135.0315  160.0528 H   0  0  0  0  0  0  0  0  0  0  0  0  # atno 6908 bound_to 6896
  152.2294  133.5011  159.5244 H   0  0  0  0  0  0  0  0  0  0  0  0  # atno 6909 bound_to 6896
  144.7935  139.7268  143.6212 H   0  0  0  0  0  0  0  0  0  0  0  0  # atno 7974 bound_to 7965
  156.2719  140.2790  156.1433 H   0  0  0  0  0  0  0  0  0  0  0  0  # atno 8008 bound_to 7997
  155.0930  140.0389  157.2692 H   0  0  0  0  0  0  0  0  0  0  0  0  # atno 8009 bound_to 7997
  154.6874  140.2622  155.6852 H   0  0  0  0  0  0  0  0  0  0  0  0  # atno 8010 bound_to 7997
  140.1306  143.4364  152.1630 H   0  0  0  0  0  0  0  0  0  0  0  0  # atno 10167 bound_to 10162
  157.2912  130.7303  149.6612 H   0  0  0  0  0  0  0  0  0  0  0  0  # atno 10718 bound_to 10713
  153.0031  135.5416  154.6410 H   0  0  0  0  0  0  0  0  0  0  0  0  # atno 10763 bound_to 10752
  154.5665  135.2838  155.0871 H   0  0  0  0  0  0  0  0  0  0  0  0  # atno 10764 bound_to 10752
  154.2053  135.6477  153.5151 H   0  0  0  0  0  0  0  0  0  0  0  0  # atno 10765 bound_to 10752
  141.1043  133.6615  156.4374 H   0  0  0  0  0  0  0  0  0  0  0  0  # atno 11005 bound_to 11000
  146.2195  139.5609  142.9628 LP  0  0  0  0  0  0  0  0  0  0  0  0  # atno 17320 bound_to 7965
  145.5734  141.0391  143.2161 LP  0  0  0  0  0  0  0  0  0  0  0  0  # atno 17321 bound_to 7965
  139.5521  144.7346  151.4402 LP  0  0  0  0  0  0  0  0  0  0  0  0  # atno 17342 bound_to 10162
  140.6819  143.8062  150.7133 LP  0  0  0  0  0  0  0  0  0  0  0  0  # atno 17343 bound_to 10162
  155.9667  130.4308  150.4893 LP  0  0  0  0  0  0  0  0  0  0  0  0  # atno 17370 bound_to 10713
  157.2856  131.0616  151.2168 LP  0  0  0  0  0  0  0  0  0  0  0  0  # atno 17371 bound_to 10713
  140.4942  134.6547  157.5223 LP  0  0  0  0  0  0  0  0  0  0  0  0  # atno 17394 bound_to 11000
  139.9907  134.6990  155.9695 LP  0  0  0  0  0  0  0  0  0  0  0  0  # atno 17395 bound_to 11000

$$$$
