AV-unprocessed.smi:630|AV-procd|sdf|3120|dock9
  -GOLD-   22720 0 43D 1   1.00000     0.00000
 Structure written by MMmdl.
 37 38  0  0  0  0  0  0  0  0  1 V2000
  149.7233  138.7267  153.2674 N   0  0  0  0  0  0  0  0  0  0  0  0
  150.2471  138.9244  154.4801 C   0  0  0  0  0  0  0  0  0  0  0  0
  150.8494  139.9567  154.7680 O   0  0  0  0  0  0  0  0  0  0  0  0
  150.0679  137.8000  155.5187 C   0  0  1  0  0  0  0  0  0  0  0  0
  150.8429  138.1365  156.8173 C   0  0  0  0  0  0  0  0  0  0  0  0
  150.0804  138.9459  157.8803 C   0  0  0  0  0  0  0  0  0  0  0  0
  149.2774  138.0507  158.8370 C   0  0  0  0  0  0  0  0  0  0  0  0
  148.0149  137.4300  158.2232 C   0  0  0  0  0  0  0  0  0  0  0  0
  148.2450  136.5947  156.9503 C   0  0  0  0  0  0  0  0  0  0  0  0
  148.5618  137.4536  155.7064 C   0  0  2  0  0  0  0  0  0  0  0  0
  148.0777  136.7581  154.5096 N   0  0  0  0  0  0  0  0  0  0  0  0
  146.8389  136.2791  154.3165 C   0  0  0  0  0  0  0  0  0  0  0  0
  145.9357  136.3616  155.1490 O   0  0  0  0  0  0  0  0  0  0  0  0
  146.7253  135.7097  153.1037 N   0  0  0  0  0  0  0  0  0  0  0  0
  145.5807  135.1050  152.5209 C   0  0  0  0  0  0  0  0  0  0  0  0
  144.5392  134.6331  153.2159 N   0  0  0  0  0  0  0  0  0  0  0  0
  143.5549  134.0929  152.3844 C   0  0  0  0  0  0  0  0  0  0  0  0
  143.8653  134.1629  151.0492 C   0  0  0  0  0  0  0  0  0  0  0  0
  145.4155  134.9150  150.7814 S   0  0  0  0  0  0  0  0  0  0  0  0
  149.8194  139.4407  152.5600 H   0  0  0  0  0  0  0  0  0  0  0  0
  149.2341  137.8682  153.0616 H   0  0  0  0  0  0  0  0  0  0  0  0
  150.5581  136.9125  155.1129 H   0  0  0  0  0  0  0  0  0  0  0  0
  151.2110  137.2123  157.2646 H   0  0  0  0  0  0  0  0  0  0  0  0
  151.7497  138.6859  156.5579 H   0  0  0  0  0  0  0  0  0  0  0  0
  150.8133  139.4904  158.4769 H   0  0  0  0  0  0  0  0  0  0  0  0
  149.4452  139.7063  157.4251 H   0  0  0  0  0  0  0  0  0  0  0  0
  149.9196  137.2629  159.2323 H   0  0  0  0  0  0  0  0  0  0  0  0
  148.9779  138.6457  159.7006 H   0  0  0  0  0  0  0  0  0  0  0  0
  147.5529  136.7916  158.9769 H   0  0  0  0  0  0  0  0  0  0  0  0
  147.2848  138.2144  158.0192 H   0  0  0  0  0  0  0  0  0  0  0  0
  149.0159  135.8402  157.1113 H   0  0  0  0  0  0  0  0  0  0  0  0
  147.3230  136.0395  156.7707 H   0  0  0  0  0  0  0  0  0  0  0  0
  148.0052  138.3864  155.8155 H   0  0  0  0  0  0  0  0  0  0  0  0
  148.7470  136.6359  153.7642 H   0  0  0  0  0  0  0  0  0  0  0  0
  147.5538  135.7123  152.5273 H   0  0  0  0  0  0  0  0  0  0  0  0
  142.6619  133.6786  152.8287 H   0  0  0  0  0  0  0  0  0  0  0  0
  143.2779  133.8193  150.2107 H   0  0  0  0  0  0  0  0  0  0  0  0
  1  2  1  0  0  0  0
  1 20  1  0  0  0  0
  1 21  1  0  0  0  0
  2  3  2  0  0  0  0
  2  4  1  0  0  0  0
  4 10  1  0  0  0  0
  4  5  1  0  0  0  0
  4 22  1  0  0  0  0
  5  6  1  0  0  0  0
  5 23  1  0  0  0  0
  5 24  1  0  0  0  0
  6  7  1  0  0  0  0
  6 25  1  0  0  0  0
  6 26  1  0  0  0  0
  7  8  1  0  0  0  0
  7 27  1  0  0  0  0
  7 28  1  0  0  0  0
  8  9  1  0  0  0  0
  8 29  1  0  0  0  0
  8 30  1  0  0  0  0
  9 10  1  0  0  0  0
  9 31  1  0  0  0  0
  9 32  1  0  0  0  0
 10 11  1  0  0  0  0
 10 33  1  0  0  0  0
 11 12  1  0  0  0  0
 11 34  1  0  0  0  0
 12 13  2  0  0  0  0
 12 14  1  0  0  0  0
 14 15  1  0  0  0  0
 14 35  1  0  0  0  0
 15 19  1  0  0  0  0
 15 16  2  0  0  0  0
 16 17  1  0  0  0  0
 17 18  2  0  0  0  0
 17 36  1  0  0  0  0
 18 19  1  0  0  0  0
 18 37  1  0  0  0  0
M  END
> <s_m_source_file>
AV-unprocessed.smi

> <i_m_source_file_index>
630

> <i_lp_mmshare_version>
43012

> <i_f3d_flags>
0

> <s_epik_input>
W05IMl1DKD1PKVtDQEBIXTFbQ0gyXVtDSDJdW0NIMl1bQ0gyXVtDSDJdW0NASF0xW05IXUMoPU8pW05IXWMybltjSF1bY0hdczI=

> <s_epik_cmdline>
J2VwaWtfcHl0aG9uJywgJy1waCcsICc3LjAnLCAnLXRuJywgJzgnLCAnLW1hJywgJzIwMCcsICctbWV0YWxfYmluZGluZycsICctaW1hZScsICc8aW5maWxlLm1hZT4nLCAnLW9tYWUnLCAnPG91dGZpbGUubWFlPic=

> <r_lp_tautomer_probability>
0.999

> <r_epik_Ionization_Penalty>
0.000342689

> <r_epik_Ionization_Penalty_Charging>
0

> <r_epik_Ionization_Penalty_Neutral>
0.000342689

> <r_epik_State_Penalty>
0.000177984

> <r_epik_Charging_Adjusted_Penalty>
0.000177984

> <i_epik_Tot_Q>
0

> <i_epik_Tot_abs_Q>
0

> <r_epik_Metal_State_Penalty>
0.00743087

> <b_epik_Metal_Only>
0

> <s_lp_Force_Field>
OPLS_2005

> <r_lp_Energy>
11.5905

> <b_lp_Chiralities_Consistent>
1

> <s_lp_Variant>
AV-unprocessed.smi:630-4

> <Gold.Version>
5.8.1

> <Gold.Id.Protein>
6NUR|6NUR_protein|mol2

> <Gold.PLP.Fitness>
41.5580

> <Gold.PLP.PLP>
-21.0194

> <Gold.PLP.part.hbond>
-4.8220

> <Gold.PLP.part.metal>
0.0000

> <Gold.PLP.part.buried>
-2.7394

> <Gold.PLP.part.nonpolar>
-13.3744

> <Gold.PLP.part.repulsive>
0.2840

> <Gold.PLP.ligand.clash>
0.0000

> <Gold.PLP.ligand.torsion>
0.1761

> <Gold.PLP.Chemscore.Hbond>
4.9280

> <Gold.PLP.Chemscore.CHOScore>
2.0000

> <Gold.PLP.Chemscore.Metal>
0.0000

> <Gold.Chemscore.Hbonds>
donor molecule, donor type, donor heavy atom, donor atom, acceptor molecule, acceptor atom, score
      L1  H     1    20       P1  7957  0.99
      L1  H     1    21       P1  7948  0.96
      L1  H    11    34       P1  7948  0.91
      L1  H    14    35       P1  7948  1.00
      P1  H  7989  7998       L1     3  1.00
      L1  C    17    36       P1 10957  0.47
      L1  C    18    37       P1 10186  0.99

> <Gold.PLP.Chemscore.Internal.Correction>
0.1069

> <Gold.Rescore>
     Score         DG    S(hbond)    S(metal)    S(lipo)     H(rot)  DE(clash)    DE(int)     intcor
     17.94     -21.66       4.76        0.00      35.64       1.52       0.01       3.70       ----

> <Gold.Chemscore.Fitness>
17.9439

> <Gold.Chemscore.DG>
-21.6614

> <Gold.Chemscore.ZeroCoef>
-5.4800

> <Gold.Chemscore.Hbond>
4.7602

> <Gold.Chemscore.Metal>
0.0000

> <Gold.Chemscore.Lipo>
35.6377

> <Gold.Chemscore.Internal_Hbond>
0.0000

> <Gold.Chemscore.DEClash>
0.0134

> <Gold.Chemscore.DEInternal>
3.7041

> <Gold.Chemscore.Rot>
1.5184

> <Gold.Chemscore.Internal.Correction>
   9.000000E+99

> <Gold.Chemscore.Hbonds>
donor molecule, donor type, donor heavy atom, donor atom, acceptor molecule, acceptor atom, score
      L1  H     1    20       P1  7957  0.88
      L1  H     1    21       P1  7948  0.86
      L1  H    11    34       P1  7948  0.87
      L1  H    14    35       P1  7948  0.99
      P1  H  7989  7998       L1     3  0.97

> <Gold.Chemscore.Hbond.Weighted>
-15.8989

> <Gold.Chemscore.Metal.Weighted>
-0.0000

> <Gold.Chemscore.Lipo.Weighted>
-4.1696

> <Gold.Chemscore.Internal_Hbond.Weighted>
0.0000

> <Gold.Chemscore.DEClash.Weighted>
0.0134

> <Gold.Chemscore.DEInternal.Weighted>
3.7041

> <Gold.Chemscore.Rot.Weighted>
3.8872

> <Gold.Chemscore.Internal.Correction.Weighted>
   9.000000E+99

> <Gold.Protein.RotatedTorsions>
[ 6907 6896 6895 6894 ] final  -24.88 input  -60.11 | X-H torsion
[ 7974 7965 7964 7962 ] final  -88.46 input  175.53 | X-H torsion
[ 8008 7997 7996 7995 ] final -172.57 input   59.86 | X-H torsion
[ 10167 10162 10161 10158 ] final -116.62 input  -65.29 | X-H torsion
[ 10718 10713 10712 10709 ] final  -39.42 input   66.30 | X-H torsion
[ 10763 10752 10751 10750 ] final  157.80 input  -60.55 | X-H torsion
[ 11005 11000 10999 10996 ] final   61.97 input  -57.11 | X-H torsion

> <Gold.Protein.ActiveResidues>
 VAL166  LYS551  ARG553  GLY616  TRP617  ASP618  TYR619  PRO620  LYS621  CYS622 
 ASP623  PHE694  ASN695  SER759  ASP760  ASP761  ALA762  ILE779  LEU786  VAL792 
 PHE793  MET794  SER795  GLU796  ALA797  LYS798  CYS799  TRP800  GLU811  SER814 

> <Gold.Protein.RotatedAtoms>
  151.1832  135.0370  159.8800 H   0  0  0  0  0  0  0  0  0  0  0  0  # atno 6907 bound_to 6896
  152.5443  134.1040  159.8340 H   0  0  0  0  0  0  0  0  0  0  0  0  # atno 6908 bound_to 6896
  151.1159  133.5092  159.2636 H   0  0  0  0  0  0  0  0  0  0  0  0  # atno 6909 bound_to 6896
  145.4528  140.9561  143.2013 H   0  0  0  0  0  0  0  0  0  0  0  0  # atno 7974 bound_to 7965
  155.9463  140.1118  157.1014 H   0  0  0  0  0  0  0  0  0  0  0  0  # atno 8008 bound_to 7997
  154.4100  140.1209  156.5059 H   0  0  0  0  0  0  0  0  0  0  0  0  # atno 8009 bound_to 7997
  155.6899  140.3472  155.4891 H   0  0  0  0  0  0  0  0  0  0  0  0  # atno 8010 bound_to 7997
  140.0772  143.4822  152.1946 H   0  0  0  0  0  0  0  0  0  0  0  0  # atno 10167 bound_to 10162
  156.2926  130.4230  149.8223 H   0  0  0  0  0  0  0  0  0  0  0  0  # atno 10718 bound_to 10713
  154.2059  135.2788  155.2975 H   0  0  0  0  0  0  0  0  0  0  0  0  # atno 10763 bound_to 10752
  154.5817  135.5587  153.7195 H   0  0  0  0  0  0  0  0  0  0  0  0  # atno 10764 bound_to 10752
  153.0076  135.6346  154.2198 H   0  0  0  0  0  0  0  0  0  0  0  0  # atno 10765 bound_to 10752
  140.0124  134.6276  155.9760 H   0  0  0  0  0  0  0  0  0  0  0  0  # atno 11005 bound_to 11000
  144.8051  139.6067  143.7054 LP  0  0  0  0  0  0  0  0  0  0  0  0  # atno 17320 bound_to 7965
  146.2495  139.6168  142.9437 LP  0  0  0  0  0  0  0  0  0  0  0  0  # atno 17321 bound_to 7965
  139.5801  144.7506  151.3663 LP  0  0  0  0  0  0  0  0  0  0  0  0  # atno 17342 bound_to 10162
  140.7096  143.7425  150.7543 LP  0  0  0  0  0  0  0  0  0  0  0  0  # atno 17343 bound_to 10162
  156.5630  130.8392  151.3334 LP  0  0  0  0  0  0  0  0  0  0  0  0  # atno 17370 bound_to 10713
  157.7346  130.9750  150.2040 LP  0  0  0  0  0  0  0  0  0  0  0  0  # atno 17371 bound_to 10713
  141.1720  133.6538  156.4686 LP  0  0  0  0  0  0  0  0  0  0  0  0  # atno 17394 bound_to 11000
  140.4531  134.6911  157.5049 LP  0  0  0  0  0  0  0  0  0  0  0  0  # atno 17395 bound_to 11000

$$$$
