AV-unprocessed.smi:3290|AV-procd|sdf|12611|dock5
  -GOLD-   2272018543D 1   1.00000     0.00000
 Structure written by MMmdl.
 43 44  0  0  0  0  0  0  0  0  2 V2000
  152.9135  141.1635  159.4025 C   0  0  0  0  0  0  0  0  0  0  0  0
  152.4782  142.6380  159.3217 C   0  0  2  0  0  0  0  0  0  0  0  0
  152.6170  143.2910  160.7137 C   0  0  0  0  0  0  0  0  0  0  0  0
  152.2454  144.7796  160.6935 C   0  0  0  0  0  0  0  0  0  0  0  0
  150.8270  144.9780  160.1492 C   0  0  0  0  0  0  0  0  0  0  0  0
  150.6839  144.3456  158.7582 C   0  0  0  0  0  0  0  0  0  0  0  0
  151.0402  142.8416  158.7574 C   0  0  1  0  0  0  0  0  0  0  0  0
  150.8479  142.2750  157.3322 C   0  0  0  0  0  0  0  0  0  0  0  0
  149.4486  142.3783  156.8718 N   0  3  0  0  0  0  0  0  0  0  0  0
  148.9656  141.1875  156.1445 C   0  0  0  0  0  0  0  0  0  0  0  0
  148.1359  141.5763  154.9088 C   0  0  2  0  0  0  0  0  0  0  0  0
  148.9051  142.4442  154.0984 O   0  0  0  0  0  0  0  0  0  0  0  0
  146.8135  142.2072  155.3157 C   0  0  0  0  0  0  0  0  0  0  0  0
  146.4548  142.3021  156.6768 C   0  0  0  0  0  0  0  0  0  0  0  0
  145.2245  142.9039  157.0096 C   0  0  0  0  0  0  0  0  0  0  0  0
  144.3688  143.3989  156.0903 N   0  0  0  0  0  0  0  0  0  0  0  0
  144.7167  143.3073  154.7890 C   0  0  0  0  0  0  0  0  0  0  0  0
  145.9225  142.7249  154.3501 C   0  0  0  0  0  0  0  0  0  0  0  0
  152.2037  140.5693  159.9792 H   0  0  0  0  0  0  0  0  0  0  0  0
  153.8877  141.0701  159.8833 H   0  0  0  0  0  0  0  0  0  0  0  0
  153.0123  140.7150  158.4148 H   0  0  0  0  0  0  0  0  0  0  0  0
  153.1772  143.1440  158.6536 H   0  0  0  0  0  0  0  0  0  0  0  0
  151.9818  142.7690  161.4310 H   0  0  0  0  0  0  0  0  0  0  0  0
  153.6401  143.1842  161.0764 H   0  0  0  0  0  0  0  0  0  0  0  0
  152.3207  145.1964  161.6983 H   0  0  0  0  0  0  0  0  0  0  0  0
  152.9575  145.3282  160.0757 H   0  0  0  0  0  0  0  0  0  0  0  0
  150.1038  144.5318  160.8331 H   0  0  0  0  0  0  0  0  0  0  0  0
  150.5928  146.0420  160.1011 H   0  0  0  0  0  0  0  0  0  0  0  0
  149.6604  144.4884  158.4093 H   0  0  0  0  0  0  0  0  0  0  0  0
  151.3246  144.8760  158.0521 H   0  0  0  0  0  0  0  0  0  0  0  0
  150.3313  142.3449  159.4226 H   0  0  0  0  0  0  0  0  0  0  0  0
  151.4595  142.8320  156.6209 H   0  0  0  0  0  0  0  0  0  0  0  0
  151.1840  141.2381  157.2886 H   0  0  0  0  0  0  0  0  0  0  0  0
  148.8568  142.5112  157.6798 H   0  0  0  0  0  0  0  0  0  0  0  0
  149.8293  140.5956  155.8375 H   0  0  0  0  0  0  0  0  0  0  0  0
  148.3736  140.5649  156.8175 H   0  0  0  0  0  0  0  0  0  0  0  0
  147.9252  140.6825  154.3196 H   0  0  0  0  0  0  0  0  0  0  0  0
  149.1312  143.2079  154.6081 H   0  0  0  0  0  0  0  0  0  0  0  0
  147.1038  141.9251  157.4536 H   0  0  0  0  0  0  0  0  0  0  0  0
  144.9213  142.9915  158.0425 H   0  0  0  0  0  0  0  0  0  0  0  0
  144.0148  143.7129  154.0757 H   0  0  0  0  0  0  0  0  0  0  0  0
  146.1539  142.6808  153.2959 H   0  0  0  0  0  0  0  0  0  0  0  0
  149.3610  143.1860  156.2721 H   0  0  0  0  0  0  0  0  0  0  0  0
  1  2  1  0  0  0  0
  1 19  1  0  0  0  0
  1 20  1  0  0  0  0
  1 21  1  0  0  0  0
  2  7  1  0  0  0  0
  2  3  1  0  0  0  0
  2 22  1  0  0  0  0
  3  4  1  0  0  0  0
  3 23  1  0  0  0  0
  3 24  1  0  0  0  0
  4  5  1  0  0  0  0
  4 25  1  0  0  0  0
  4 26  1  0  0  0  0
  5  6  1  0  0  0  0
  5 27  1  0  0  0  0
  5 28  1  0  0  0  0
  6  7  1  0  0  0  0
  6 29  1  0  0  0  0
  6 30  1  0  0  0  0
  7  8  1  0  0  0  0
  7 31  1  0  0  0  0
  8  9  1  0  0  0  0
  8 32  1  0  0  0  0
  8 33  1  0  0  0  0
  9 10  1  0  0  0  0
  9 34  1  0  0  0  0
  9 43  1  0  0  0  0
 10 11  1  0  0  0  0
 10 35  1  0  0  0  0
 10 36  1  0  0  0  0
 11 12  1  0  0  0  0
 11 13  1  0  0  0  0
 11 37  1  0  0  0  0
 12 38  1  0  0  0  0
 13 18  1  0  0  0  0
 13 14  2  0  0  0  0
 14 15  1  0  0  0  0
 14 39  1  0  0  0  0
 15 16  2  0  0  0  0
 15 40  1  0  0  0  0
 16 17  1  0  0  0  0
 17 18  2  0  0  0  0
 17 41  1  0  0  0  0
 18 42  1  0  0  0  0
M  CHG  1   9   1
M  END
> <s_m_source_file>
AV-unprocessed.smi

> <i_m_source_file_index>
3290

> <i_lp_mmshare_version>
43012

> <i_f3d_flags>
0

> <s_epik_input>
W0NIM11bQ0BASF0xW0NIMl1bQ0gyXVtDSDJdW0NIMl1bQ0BIXTFbQ0gyXVtOSF1bQ0gyXVtDQEhdKFtPSF0pYzJbY0hdW2NIXW5bY0hdW2NIXTI=

> <s_epik_cmdline>
J2VwaWtfcHl0aG9uJywgJy1waCcsICc3LjAnLCAnLXRuJywgJzgnLCAnLW1hJywgJzIwMCcsICctbWV0YWxfYmluZGluZycsICctaW1hZScsICc8aW5maWxlLm1hZT4nLCAnLW9tYWUnLCAnPG91dGZpbGUubWFlPic=

> <r_lp_tautomer_probability>
1

> <r_epik_Ionization_Penalty>
0.00420552

> <r_epik_Ionization_Penalty_Charging>
0.00207255

> <r_epik_Ionization_Penalty_Neutral>
0.00213297

> <r_epik_State_Penalty>
-0

> <r_epik_Charging_Adjusted_Penalty>
0.00207255

> <i_epik_Tot_Q>
1

> <i_epik_Tot_abs_Q>
1

> <r_epik_Metal_State_Penalty>
-0

> <b_epik_Metal_Only>
0

> <s_lp_Force_Field>
OPLS_2005

> <r_lp_Energy>
17.3626

> <b_lp_Chiralities_Consistent>
1

> <s_lp_Variant>
AV-unprocessed.smi:3290-1

> <Gold.Version>
5.8.1

> <Gold.Id.Protein>
6NUR|6NUR_protein|mol2

> <Gold.PLP.Fitness>
50.8961

> <Gold.PLP.PLP>
-39.4043

> <Gold.PLP.part.hbond>
-2.9173

> <Gold.PLP.part.metal>
0.0000

> <Gold.PLP.part.buried>
-6.5916

> <Gold.PLP.part.nonpolar>
-30.8558

> <Gold.PLP.part.repulsive>
0.1021

> <Gold.PLP.ligand.clash>
0.0000

> <Gold.PLP.ligand.torsion>
0.6714

> <Gold.PLP.Chemscore.Hbond>
3.2560

> <Gold.PLP.Chemscore.CHOScore>
1.0000

> <Gold.PLP.Chemscore.Metal>
0.0000

> <Gold.Chemscore.Hbonds>
donor molecule, donor type, donor heavy atom, donor atom, acceptor molecule, acceptor atom, score
      L1  H     9    43       P1  8028  2.00
      L1  H    12    38       P1  8028  1.00
      P1  H  8011  8017       L1    12  0.16
      L1  C    17    41       P1 10174  0.68

> <Gold.PLP.Chemscore.Internal.Correction>
0.0667

> <Gold.Rescore>
     Score         DG    S(hbond)    S(metal)    S(lipo)     H(rot)  DE(clash)    DE(int)     intcor
     19.28     -20.06       2.13        0.00     108.78       2.05       0.04       0.75       ----

> <Gold.Chemscore.Fitness>
19.2783

> <Gold.Chemscore.DG>
-20.0610

> <Gold.Chemscore.ZeroCoef>
-5.4800

> <Gold.Chemscore.Hbond>
2.1260

> <Gold.Chemscore.Metal>
0.0000

> <Gold.Chemscore.Lipo>
108.7832

> <Gold.Chemscore.Internal_Hbond>
0.0000

> <Gold.Chemscore.DEClash>
0.0351

> <Gold.Chemscore.DEInternal>
0.7476

> <Gold.Chemscore.Rot>
2.0498

> <Gold.Chemscore.Internal.Correction>
   9.000000E+99

> <Gold.Chemscore.Hbonds>
donor molecule, donor type, donor heavy atom, donor atom, acceptor molecule, acceptor atom, score
      L1  H     9    43       P1  8028  1.00
      L1  H    12    38       P1  8028  0.99
      P1  H  8011  8017       L1    12  0.14

> <Gold.Chemscore.Hbond.Weighted>
-7.1009

> <Gold.Chemscore.Metal.Weighted>
-0.0000

> <Gold.Chemscore.Lipo.Weighted>
-12.7276

> <Gold.Chemscore.Internal_Hbond.Weighted>
0.0000

> <Gold.Chemscore.DEClash.Weighted>
0.0351

> <Gold.Chemscore.DEInternal.Weighted>
0.7476

> <Gold.Chemscore.Rot.Weighted>
5.2475

> <Gold.Chemscore.Internal.Correction.Weighted>
   9.000000E+99

> <Gold.Protein.RotatedTorsions>
[ 6907 6896 6895 6894 ] final -157.33 input  -60.11 | X-H torsion
[ 7974 7965 7964 7962 ] final  102.33 input  175.53 | X-H torsion
[ 8008 7997 7996 7995 ] final   37.48 input   59.86 | X-H torsion
[ 10167 10162 10161 10158 ] final  -88.21 input  -65.29 | X-H torsion
[ 10718 10713 10712 10709 ] final  148.78 input   66.30 | X-H torsion
[ 10763 10752 10751 10750 ] final  -49.48 input  -60.55 | X-H torsion
[ 11005 11000 10999 10996 ] final  124.23 input  -57.11 | X-H torsion

> <Gold.Protein.ActiveResidues>
 VAL166  LYS551  ARG553  GLY616  TRP617  ASP618  TYR619  PRO620  LYS621  CYS622 
 ASP623  PHE694  ASN695  SER759  ASP760  ASP761  ALA762  ILE779  LEU786  VAL792 
 PHE793  MET794  SER795  GLU796  ALA797  LYS798  CYS799  TRP800  GLU811  SER814 

> <Gold.Protein.RotatedAtoms>
  151.3012  133.4121  159.2639 H   0  0  0  0  0  0  0  0  0  0  0  0  # atno 6907 bound_to 6896
  151.0193  134.9457  159.8061 H   0  0  0  0  0  0  0  0  0  0  0  0  # atno 6908 bound_to 6896
  152.5320  134.2976  159.9119 H   0  0  0  0  0  0  0  0  0  0  0  0  # atno 6909 bound_to 6896
  145.3605  139.2419  143.3509 H   0  0  0  0  0  0  0  0  0  0  0  0  # atno 7974 bound_to 7965
  155.2045  140.3318  155.4338 H   0  0  0  0  0  0  0  0  0  0  0  0  # atno 8008 bound_to 7997
  156.2394  140.1888  156.7079 H   0  0  0  0  0  0  0  0  0  0  0  0  # atno 8009 bound_to 7997
  154.6119  140.0607  156.9491 H   0  0  0  0  0  0  0  0  0  0  0  0  # atno 8010 bound_to 7997
  140.3769  143.2767  151.9432 H   0  0  0  0  0  0  0  0  0  0  0  0  # atno 10167 bound_to 10162
  157.3043  131.0876  151.1366 H   0  0  0  0  0  0  0  0  0  0  0  0  # atno 10718 bound_to 10713
  154.0947  135.6572  153.4858 H   0  0  0  0  0  0  0  0  0  0  0  0  # atno 10763 bound_to 10752
  153.0309  135.5211  154.7345 H   0  0  0  0  0  0  0  0  0  0  0  0  # atno 10764 bound_to 10752
  154.6480  135.2997  154.9991 H   0  0  0  0  0  0  0  0  0  0  0  0  # atno 10765 bound_to 10752
  139.9349  134.9640  156.8379 H   0  0  0  0  0  0  0  0  0  0  0  0  # atno 11005 bound_to 11000
  146.2929  140.4238  142.8732 LP  0  0  0  0  0  0  0  0  0  0  0  0  # atno 17320 bound_to 7965
  144.8650  140.7193  143.6083 LP  0  0  0  0  0  0  0  0  0  0  0  0  # atno 17321 bound_to 7965
  139.4798  144.5855  151.7861 LP  0  0  0  0  0  0  0  0  0  0  0  0  # atno 17342 bound_to 10162
  140.4977  144.1216  150.5964 LP  0  0  0  0  0  0  0  0  0  0  0  0  # atno 17343 bound_to 10162
  157.2712  130.6705  149.6020 LP  0  0  0  0  0  0  0  0  0  0  0  0  # atno 17370 bound_to 10713
  155.9673  130.4478  150.5596 LP  0  0  0  0  0  0  0  0  0  0  0  0  # atno 17371 bound_to 10713
  140.6102  134.0089  155.7573 LP  0  0  0  0  0  0  0  0  0  0  0  0  # atno 17394 bound_to 11000
  141.0958  133.9846  157.3163 LP  0  0  0  0  0  0  0  0  0  0  0  0  # atno 17395 bound_to 11000

$$$$
