#       Name:                AV-unprocessed.smi:3282
#       Creating user name   scv26
#       Creation time:       Fri Mar 27 18:48:29 2020


#       File generated by GOLD software.
#

@<TRIPOS>MOLECULE
AV-unprocessed.smi:3282
    41    42     1
SMALL
NO_CHARGES


@<TRIPOS>ATOM
      1 ****        -1.9450   5.1673  -0.3625 C.3            1 S1                 0.0000
      2 ****        -1.3843   3.7511  -0.1541 C.3            1 S1                 0.0000
      3 ****         0.1320   3.6450  -0.3885 C.2            1 S1                 0.0000
      4 ****         0.7900   4.6614  -0.6165 O.2            1 S1                 0.0000
      5 ****         0.7005   2.4224  -0.3370 N.am           1 S1                 0.0000
      6 ****         2.1244   2.1867  -0.5600 C.3            1 S1                 0.0000
      7 ****         2.2899   0.6701  -0.6533 C.3            1 S1                 0.0000
      8 ****         1.0970   0.1043   0.1117 C.3            1 S1                 0.0000
      9 ****         0.6897  -1.1956  -0.4124 N.am           1 S1                 0.0000
     10 ****        -0.1247  -2.0607   0.2097 C.2            1 S1                 0.0000
     11 ****        -0.6058  -1.8173   1.3209 O.2            1 S1                 0.0000
     12 ****        -0.2765  -3.2115  -0.5478 N.2            1 S1                 0.0000
     13 ****        -0.4729  -4.3430   0.0568 C.2            1 S1                 0.0000
     14 ****        -0.5477  -4.6968   1.4017 N.pl3          1 S1                 0.0000
     15 ****        -0.7605  -6.0450   1.4755 C.2            1 S1                 0.0000
     16 ****        -0.8175  -6.5218   0.2356 C.2            1 S1                 0.0000
     17 ****        -0.6445  -5.5040  -0.6538 O.3            1 S1                 0.0000
     18 ****         0.0037   1.1684  -0.0564 C.3            1 S1                 0.0000
     19 ****        -3.0225   5.1824  -0.1979 H              1 S1                 0.0000
     20 ****        -1.7629   5.5230  -1.3773 H              1 S1                 0.0000
     21 ****        -1.4973   5.8797   0.3315 H              1 S1                 0.0000
     22 ****        -1.6062   3.4246   0.8623 H              1 S1                 0.0000
     23 ****        -1.8973   3.0651  -0.8288 H              1 S1                 0.0000
     24 ****         2.4861   2.6805  -1.4633 H              1 S1                 0.0000
     25 ****         2.6852   2.5802   0.2890 H              1 S1                 0.0000
     26 ****         2.2406   0.3728  -1.7023 H              1 S1                 0.0000
     27 ****         3.2458   0.3259  -0.2574 H              1 S1                 0.0000
     28 ****         1.3665   0.0241   1.1666 H              1 S1                 0.0000
     29 ****         1.0602  -1.4612  -1.3135 H              1 S1                 0.0000
     30 ****        -0.4666  -4.0990   2.2116 H              1 S1                 0.0000
     31 ****        -0.8510  -6.5325   2.4349 H              1 S1                 0.0000
     32 ****        -0.9676  -7.5146  -0.1623 H              1 S1                 0.0000
     33 ****        -0.6154   1.2326   0.8395 H              1 S1                 0.0000
     34 ****        -0.6461   0.9345  -0.9015 H              1 S1                 0.0000
     35 ****         0.3380   5.5529  -0.6488 LP             1 S1                 0.0000
     36 ****         1.7760   4.5949  -0.7692 LP             1 S1                 0.0000
     37 ****        -0.3909  -0.9558   1.7810 LP             1 S1                 0.0000
     38 ****        -1.2102  -2.4817   1.7605 LP             1 S1                 0.0000
     39 ****        -0.2353  -3.1705  -1.5461 LP             1 S1                 0.0000
     40 ****         0.1630  -5.6794  -1.2171 LP             1 S1                 0.0000
     41 ****        -1.4501  -5.4262  -1.2411 LP             1 S1                 0.0000
@<TRIPOS>BOND
    1    1    2 1     
    2    1   19 1     
    3    1   20 1     
    4    1   21 1     
    5    2    3 1     
    6    2   22 1     
    7    2   23 1     
    8    3    4 2     
    9    3    5 am    
   10    5   18 1     
   11    5    6 1     
   12    6    7 1     
   13    6   24 1     
   14    6   25 1     
   15    7    8 1     
   16    7   26 1     
   17    7   27 1     
   18    8    9 1     
   19    8   18 1     
   20    8   28 1     
   21    9   29 1     
   22    9   10 am    
   23   10   12 1     
   24   10   11 2     
   25   12   13 2     
   26   13   17 1     
   27   13   14 1     
   28   14   30 1     
   29   14   15 1     
   30   15   31 1     
   31   15   16 2     
   32   16   32 1     
   33   16   17 1     
   34   18   33 1     
   35   18   34 1     
   36    4   35 1     
   37    4   36 1     
   38   11   37 1     
   39   11   38 1     
   40   12   39 1     
   41   17   40 1     
   42   17   41 1     
@<TRIPOS>SUBSTRUCTURE
      1 S1             1
@<TRIPOS>SET
LONE_PAIRS      STATIC     ATOMS    <user>   **** ""
7 35 36 37 38 39 40 41
DONOR_HYDROGENS      STATIC     ATOMS    <user>   **** ""
2 29 30
ATOM$BLUE        STATIC     ATOMS    COLORGROUP SYSTEM
7 35 36 37 38 39 40 41
ATOM$RED        STATIC     ATOMS    COLORGROUP SYSTEM
2 29 30
