AV-unprocessed.smi:1444|AV-procd|sdf|5881|dock10
  -GOLD-   22720 5563D 1   1.00000     0.00000
 Structure written by MMmdl.
 43 44  0  0  0  0  0  0  0  0  1 V2000
  151.9400  138.4992  154.4001 C   0  0  0  0  0  0  0  0  0  0  0  0
  150.5534  138.3665  154.1065 O   0  0  0  0  0  0  0  0  0  0  0  0
  149.7021  139.3968  154.4590 C   0  0  0  0  0  0  0  0  0  0  0  0
  150.2256  140.4745  155.0957 N   0  0  0  0  0  0  0  0  0  0  0  0
  149.3993  141.4847  155.4351 C   0  0  0  0  0  0  0  0  0  0  0  0
  148.0211  141.4785  155.1552 C   0  0  0  0  0  0  0  0  0  0  0  0
  147.4752  140.3618  154.4953 C   0  0  0  0  0  0  0  0  0  0  0  0
  148.3272  139.2858  154.1433 C   0  0  0  0  0  0  0  0  0  0  0  0
  147.8951  138.1114  153.4643 N   0  0  0  0  0  0  0  0  0  0  0  0
  146.6892  137.5175  153.4685 C   0  0  0  0  0  0  0  0  0  0  0  0
  145.7027  137.9032  154.0946 O   0  0  0  0  0  0  0  0  0  0  0  0
  146.6914  136.4225  152.6942 N   0  0  0  0  0  0  0  0  0  0  0  0
  145.5497  135.5400  152.4632 C   0  0  2  0  0  0  0  0  0  0  0  0
  145.5933  134.4340  153.5296 C   0  0  0  0  0  0  0  0  0  0  0  0
  145.5933  135.0432  150.9966 C   0  0  0  0  0  0  0  0  0  0  0  0
  144.7752  133.8701  150.6740 N   0  0  0  0  0  0  0  0  0  0  0  0
  145.3658  132.6187  151.1498 C   0  0  0  0  0  0  0  0  0  0  0  0
  144.5094  131.3963  150.7750 C   0  0  0  0  0  0  0  0  0  0  0  0
  144.3310  131.3526  149.3637 O   0  0  0  0  0  0  0  0  0  0  0  0
  143.7245  132.5348  148.8538 C   0  0  0  0  0  0  0  0  0  0  0  0
  144.5804  133.7566  149.2305 C   0  0  0  0  0  0  0  0  0  0  0  0
  152.4692  137.6129  154.0508 H   0  0  0  0  0  0  0  0  0  0  0  0
  152.1151  138.5872  155.4733 H   0  0  0  0  0  0  0  0  0  0  0  0
  152.3737  139.3629  153.8939 H   0  0  0  0  0  0  0  0  0  0  0  0
  149.8516  142.3255  155.9397 H   0  0  0  0  0  0  0  0  0  0  0  0
  147.3969  142.3136  155.4370 H   0  0  0  0  0  0  0  0  0  0  0  0
  146.4218  140.3657  154.2666 H   0  0  0  0  0  0  0  0  0  0  0  0
  148.6150  137.6373  152.9389 H   0  0  0  0  0  0  0  0  0  0  0  0
  147.5502  136.1809  152.2217 H   0  0  0  0  0  0  0  0  0  0  0  0
  144.6324  136.1120  152.6154 H   0  0  0  0  0  0  0  0  0  0  0  0
  144.6419  133.9104  153.6030 H   0  0  0  0  0  0  0  0  0  0  0  0
  145.7834  134.8526  154.5189 H   0  0  0  0  0  0  0  0  0  0  0  0
  146.3773  133.7052  153.3216 H   0  0  0  0  0  0  0  0  0  0  0  0
  145.2401  135.8748  150.3846 H   0  0  0  0  0  0  0  0  0  0  0  0
  146.6250  134.8810  150.6808 H   0  0  0  0  0  0  0  0  0  0  0  0
  146.3644  132.4974  150.7272 H   0  0  0  0  0  0  0  0  0  0  0  0
  145.4902  132.6292  152.2278 H   0  0  0  0  0  0  0  0  0  0  0  0
  144.9972  130.4771  151.1003 H   0  0  0  0  0  0  0  0  0  0  0  0
  143.5384  131.4374  151.2712 H   0  0  0  0  0  0  0  0  0  0  0  0
  143.6379  132.4517  147.7705 H   0  0  0  0  0  0  0  0  0  0  0  0
  142.7131  132.6342  149.2507 H   0  0  0  0  0  0  0  0  0  0  0  0
  144.0963  134.6570  148.8504 H   0  0  0  0  0  0  0  0  0  0  0  0
  145.5476  133.6879  148.7300 H   0  0  0  0  0  0  0  0  0  0  0  0
  1  2  1  0  0  0  0
  1 22  1  0  0  0  0
  1 23  1  0  0  0  0
  1 24  1  0  0  0  0
  2  3  1  0  0  0  0
  3  8  1  0  0  0  0
  3  4  2  0  0  0  0
  4  5  1  0  0  0  0
  5  6  2  0  0  0  0
  5 25  1  0  0  0  0
  6  7  1  0  0  0  0
  6 26  1  0  0  0  0
  7  8  2  0  0  0  0
  7 27  1  0  0  0  0
  8  9  1  0  0  0  0
  9 10  1  0  0  0  0
  9 28  1  0  0  0  0
 10 11  2  0  0  0  0
 10 12  1  0  0  0  0
 12 13  1  0  0  0  0
 12 29  1  0  0  0  0
 13 14  1  0  0  0  0
 13 15  1  0  0  0  0
 13 30  1  0  0  0  0
 14 31  1  0  0  0  0
 14 32  1  0  0  0  0
 14 33  1  0  0  0  0
 15 16  1  0  0  0  0
 15 34  1  0  0  0  0
 15 35  1  0  0  0  0
 16 21  1  0  0  0  0
 16 17  1  0  0  0  0
 17 18  1  0  0  0  0
 17 36  1  0  0  0  0
 17 37  1  0  0  0  0
 18 19  1  0  0  0  0
 18 38  1  0  0  0  0
 18 39  1  0  0  0  0
 19 20  1  0  0  0  0
 20 21  1  0  0  0  0
 20 40  1  0  0  0  0
 20 41  1  0  0  0  0
 21 42  1  0  0  0  0
 21 43  1  0  0  0  0
M  END
> <s_m_source_file>
AV-unprocessed.smi

> <i_m_source_file_index>
1444

> <i_lp_mmshare_version>
43012

> <i_f3d_flags>
0

> <s_epik_input>
W0NIM11PYzFuW2NIXVtjSF1bY0hdYzFbTkhdQyg9TylbTkhdW0NASF0oW0NIM10pW0NIMl1OMltDSDJdW0NIMl1PW0NIMl1bQ0gyXTI=

> <s_epik_cmdline>
J2VwaWtfcHl0aG9uJywgJy1waCcsICc3LjAnLCAnLXRuJywgJzgnLCAnLW1hJywgJzIwMCcsICctbWV0YWxfYmluZGluZycsICctaW1hZScsICc8aW5maWxlLm1hZT4nLCAnLW9tYWUnLCAnPG91dGZpbGUubWFlPic=

> <r_lp_tautomer_probability>
1

> <r_epik_Ionization_Penalty>
0.266086

> <r_epik_Ionization_Penalty_Charging>
0

> <r_epik_Ionization_Penalty_Neutral>
0.266086

> <r_epik_State_Penalty>
0.257924

> <r_epik_Charging_Adjusted_Penalty>
0.257924

> <i_epik_Tot_Q>
0

> <i_epik_Tot_abs_Q>
0

> <r_epik_Metal_State_Penalty>
0.25792

> <b_epik_Metal_Only>
0

> <s_lp_Force_Field>
OPLS_2005

> <r_lp_Energy>
29.2367

> <b_lp_Chiralities_Consistent>
1

> <s_lp_Variant>
AV-unprocessed.smi:1444-1

> <Gold.Version>
5.8.1

> <Gold.Id.Protein>
6NUR|6NUR_protein|mol2

> <Gold.PLP.Fitness>
43.6206

> <Gold.PLP.PLP>
-31.8395

> <Gold.PLP.part.hbond>
-4.5024

> <Gold.PLP.part.metal>
0.0000

> <Gold.PLP.part.buried>
4.5277

> <Gold.PLP.part.nonpolar>
-33.2106

> <Gold.PLP.part.repulsive>
1.9895

> <Gold.PLP.ligand.clash>
0.0000

> <Gold.PLP.ligand.torsion>
0.7986

> <Gold.PLP.Chemscore.Hbond>
3.7272

> <Gold.PLP.Chemscore.CHOScore>
0.7204

> <Gold.PLP.Chemscore.Metal>
0.0000

> <Gold.Chemscore.Hbonds>
donor molecule, donor type, donor heavy atom, donor atom, acceptor molecule, acceptor atom, score
      L1  H     9    28       P1  7948  0.91
      L1  H    12    29       P1  7948  0.76
      P1  H  7989  7998       L1     4  0.43
      P1  H 10785 10796       L1    19  0.42
      L1  C     5    25       P1  8028  0.68

> <Gold.PLP.Chemscore.Internal.Correction>
0.0356

> <Gold.Rescore>
     Score         DG    S(hbond)    S(metal)    S(lipo)     H(rot)  DE(clash)    DE(int)     intcor
     15.09     -19.08       2.23        0.00      90.17       1.72       1.96       2.03       ----

> <Gold.Chemscore.Fitness>
15.0895

> <Gold.Chemscore.DG>
-19.0793

> <Gold.Chemscore.ZeroCoef>
-5.4800

> <Gold.Chemscore.Hbond>
2.2304

> <Gold.Chemscore.Metal>
0.0000

> <Gold.Chemscore.Lipo>
90.1713

> <Gold.Chemscore.Internal_Hbond>
0.0000

> <Gold.Chemscore.DEClash>
1.9595

> <Gold.Chemscore.DEInternal>
2.0303

> <Gold.Chemscore.Rot>
1.7189

> <Gold.Chemscore.Internal.Correction>
   9.000000E+99

> <Gold.Chemscore.Hbonds>
donor molecule, donor type, donor heavy atom, donor atom, acceptor molecule, acceptor atom, score
      L1  H     9    28       P1  7948  0.88
      L1  H    12    29       P1  7948  0.74
      P1  H  7989  7998       L1     4  0.03
      P1  H 10785 10796       L1    19  0.12

> <Gold.Chemscore.Hbond.Weighted>
-7.4497

> <Gold.Chemscore.Metal.Weighted>
-0.0000

> <Gold.Chemscore.Lipo.Weighted>
-10.5500

> <Gold.Chemscore.Internal_Hbond.Weighted>
0.0000

> <Gold.Chemscore.DEClash.Weighted>
1.9595

> <Gold.Chemscore.DEInternal.Weighted>
2.0303

> <Gold.Chemscore.Rot.Weighted>
4.4004

> <Gold.Chemscore.Internal.Correction.Weighted>
   9.000000E+99

> <Gold.Protein.RotatedTorsions>
[ 6907 6896 6895 6894 ] final  105.26 input  -60.11 | X-H torsion
[ 7974 7965 7964 7962 ] final   12.75 input  175.53 | X-H torsion
[ 8008 7997 7996 7995 ] final   56.89 input   59.86 | X-H torsion
[ 10167 10162 10161 10158 ] final  121.85 input  -65.29 | X-H torsion
[ 10718 10713 10712 10709 ] final   20.08 input   66.30 | X-H torsion
[ 10763 10752 10751 10750 ] final    2.29 input  -60.55 | X-H torsion
[ 11005 11000 10999 10996 ] final -161.00 input  -57.11 | X-H torsion

> <Gold.Protein.ActiveResidues>
 VAL166  LYS551  ARG553  GLY616  TRP617  ASP618  TYR619  PRO620  LYS621  CYS622 
 ASP623  PHE694  ASN695  SER759  ASP760  ASP761  ALA762  ILE779  LEU786  VAL792 
 PHE793  MET794  SER795  GLU796  ALA797  LYS798  CYS799  TRP800  GLU811  SER814 

> <Gold.Protein.RotatedAtoms>
  152.5236  133.9555  159.7691 H   0  0  0  0  0  0  0  0  0  0  0  0  # atno 6907 bound_to 6896
  150.9856  133.6193  159.2723 H   0  0  0  0  0  0  0  0  0  0  0  0  # atno 6908 bound_to 6896
  151.3354  135.0857  159.9406 H   0  0  0  0  0  0  0  0  0  0  0  0  # atno 6909 bound_to 6896
  146.2345  139.9291  142.8499 H   0  0  0  0  0  0  0  0  0  0  0  0  # atno 7974 bound_to 7965
  155.5248  140.3480  155.4414 H   0  0  0  0  0  0  0  0  0  0  0  0  # atno 8008 bound_to 7997
  156.0759  140.1374  156.9799 H   0  0  0  0  0  0  0  0  0  0  0  0  # atno 8009 bound_to 7997
  154.4553  140.0956  156.6714 H   0  0  0  0  0  0  0  0  0  0  0  0  # atno 8010 bound_to 7997
  139.5894  144.7019  151.3327 H   0  0  0  0  0  0  0  0  0  0  0  0  # atno 10167 bound_to 10162
  157.1195  130.6543  149.5920 H   0  0  0  0  0  0  0  0  0  0  0  0  # atno 10718 bound_to 10713
  153.2974  135.6953  153.7235 H   0  0  0  0  0  0  0  0  0  0  0  0  # atno 10763 bound_to 10752
  153.6162  135.3435  155.2996 H   0  0  0  0  0  0  0  0  0  0  0  0  # atno 10764 bound_to 10752
  154.8541  135.4375  154.2075 H   0  0  0  0  0  0  0  0  0  0  0  0  # atno 10765 bound_to 10752
  140.6253  134.4708  157.5226 H   0  0  0  0  0  0  0  0  0  0  0  0  # atno 11005 bound_to 11000
  145.2062  140.9876  143.4127 LP  0  0  0  0  0  0  0  0  0  0  0  0  # atno 17320 bound_to 7965
  144.9731  139.3860  143.6299 LP  0  0  0  0  0  0  0  0  0  0  0  0  # atno 17321 bound_to 7965
  140.7160  143.7265  150.7656 LP  0  0  0  0  0  0  0  0  0  0  0  0  # atno 17342 bound_to 10162
  140.0817  143.4962  152.2526 LP  0  0  0  0  0  0  0  0  0  0  0  0  # atno 17343 bound_to 10162
  155.9832  130.4850  150.6920 LP  0  0  0  0  0  0  0  0  0  0  0  0  # atno 17370 bound_to 10713
  157.4489  131.0870  151.0866 LP  0  0  0  0  0  0  0  0  0  0  0  0  # atno 17371 bound_to 10713
  139.9137  134.8290  156.1438 LP  0  0  0  0  0  0  0  0  0  0  0  0  # atno 17394 bound_to 11000
  141.0714  133.6795  156.2148 LP  0  0  0  0  0  0  0  0  0  0  0  0  # atno 17395 bound_to 11000

$$$$
