#       Name:                AV-unprocessed.smi:750
#       Creating user name   scv26
#       Creation time:       Fri Mar 27 00:58:35 2020


#       File generated by GOLD software.
#

@<TRIPOS>MOLECULE
AV-unprocessed.smi:750
    28    29     1
SMALL
NO_CHARGES


@<TRIPOS>ATOM
      1 ****        -2.0266  -0.4934  -0.7665 C.3            1 S1                 0.0000
      2 ****        -0.4843  -0.4437  -0.7677 C.3            1 S1                 0.0000
      3 ****         0.0728   0.4058   0.3874 C.ar           1 S1                 0.0000
      4 ****         1.0195  -0.1009   1.3105 C.ar           1 S1                 0.0000
      5 ****         1.4879   0.7311   2.3452 C.ar           1 S1                 0.0000
      6 ****         0.9948   2.0470   2.4230 C.ar           1 S1                 0.0000
      7 ****         0.0932   2.5505   1.5555 N.ar           1 S1                 0.0000
      8 ****        -0.3498   1.7452   0.5661 C.ar           1 S1                 0.0000
      9 ****         0.0337  -1.7986  -0.7947 N.am           1 S1                 0.0000
     10 ****         0.7527  -2.0288  -1.8917 C.2            1 S1                 0.0000
     11 ****         1.2916  -3.1144  -2.0950 O.2            1 S1                 0.0000
     12 ****         0.7714  -0.9316  -2.6722 N.pl3          1 S1                -1.0000
     13 ****         0.0564   0.0683  -2.1116 C.2            1 S1                 0.0000
     14 ****        -0.1794   1.2006  -2.5320 O.2            1 S1                 0.0000
     15 ****        -2.4680   0.4986  -0.8653 H              1 S1                 0.0000
     16 ****        -2.4026  -0.9303   0.1590 H              1 S1                 0.0000
     17 ****        -2.4080  -1.0975  -1.5912 H              1 S1                 0.0000
     18 ****         1.3942  -1.1110   1.2420 H              1 S1                 0.0000
     19 ****         2.2097   0.3683   3.0618 H              1 S1                 0.0000
     20 ****         1.3338   2.7129   3.2025 H              1 S1                 0.0000
     21 ****        -1.0659   2.1923  -0.1070 H              1 S1                 0.0000
     22 ****        -0.1261  -2.4706  -0.0590 H              1 S1                 0.0000
     23 ****        -0.2369   3.4905   1.6422 LP             1 S1                 0.0000
     24 ****         1.1958  -3.8529  -1.4275 LP             1 S1                 0.0000
     25 ****         1.8258  -3.2592  -2.9278 LP             1 S1                 0.0000
     26 ****         1.2496  -0.8658  -3.5479 LP             1 S1                 0.0000
     27 ****        -0.7427   1.8269  -1.9929 LP             1 S1                 0.0000
     28 ****         0.1922   1.4945  -3.4126 LP             1 S1                 0.0000
@<TRIPOS>BOND
    1    1    2 1     
    2    1   15 1     
    3    1   16 1     
    4    1   17 1     
    5    2   13 1     
    6    2    3 1     
    7    2    9 1     
    8    3    8 ar    
    9    3    4 ar    
   10    4    5 ar    
   11    4   18 1     
   12    5    6 ar    
   13    5   19 1     
   14    6    7 ar    
   15    6   20 1     
   16    7    8 ar    
   17    8   21 1     
   18    9   10 am    
   19    9   22 1     
   20   10   11 2     
   21   10   12 1     
   22   12   13 1     
   23   13   14 2     
   24    7   23 1     
   25   11   24 1     
   26   11   25 1     
   27   12   26 1     
   28   14   27 1     
   29   14   28 1     
@<TRIPOS>SUBSTRUCTURE
      1 S1             1
@<TRIPOS>SET
LONE_PAIRS      STATIC     ATOMS    <user>   **** ""
6 23 24 25 26 27 28
DONOR_HYDROGENS      STATIC     ATOMS    <user>   **** ""
1 22
ATOM$BLUE        STATIC     ATOMS    COLORGROUP SYSTEM
6 23 24 25 26 27 28
ATOM$RED        STATIC     ATOMS    COLORGROUP SYSTEM
1 22
