AV-unprocessed.smi:3132|AV-procd|sdf|11932|dock1
  -GOLD-   2272017323D 1   1.00000     0.00000
 Structure written by MMmdl.
 34 35  0  0  0  0  0  0  0  0  2 V2000
  149.4995  139.9715  156.6069 C   0  0  0  0  0  0  0  0  0  0  0  0
  150.3184  141.0184  155.8399 C   0  0  1  0  0  0  0  0  0  0  0  0
  149.4016  141.9955  155.0718 C   0  0  0  0  0  0  0  0  0  0  0  0
  148.2869  141.3242  154.3945 N   0  0  0  0  0  0  0  0  0  0  0  0
  148.3210  140.1312  153.7182 C   0  0  0  0  0  0  0  0  0  0  0  0
  147.0451  139.8972  153.2743 C   0  0  0  0  0  0  0  0  0  0  0  0
  146.2885  140.9591  153.6922 N   0  3  0  0  0  0  0  0  0  0  0  0
  147.0459  141.8271  154.3707 C   0  0  0  0  0  0  0  0  0  0  0  0
  151.1735  141.7382  156.7831 N   0  0  0  0  0  0  0  0  0  0  0  0
  150.8114  142.1570  158.0065 C   0  0  0  0  0  0  0  0  0  0  0  0
  149.6809  141.9965  158.4687 O   0  0  0  0  0  0  0  0  0  0  0  0
  151.9112  142.8160  158.8455 C   0  0  1  0  0  0  0  0  0  0  0  0
  152.4303  144.1512  158.2792 C   0  0  0  0  0  0  0  0  0  0  0  0
  151.8309  145.1867  159.2093 C   0  0  0  0  0  0  0  0  0  0  0  0
  151.7703  144.4196  160.5225 C   0  0  0  0  0  0  0  0  0  0  0  0
  151.3558  143.1213  160.1245 O   0  0  0  0  0  0  0  0  0  0  0  0
  148.8699  139.3930  155.9302 H   0  0  0  0  0  0  0  0  0  0  0  0
  148.8494  140.4384  157.3477 H   0  0  0  0  0  0  0  0  0  0  0  0
  150.1501  139.2693  157.1295 H   0  0  0  0  0  0  0  0  0  0  0  0
  150.9366  140.4774  155.1213 H   0  0  0  0  0  0  0  0  0  0  0  0
  148.9735  142.7324  155.7530 H   0  0  0  0  0  0  0  0  0  0  0  0
  149.9683  142.5503  154.3225 H   0  0  0  0  0  0  0  0  0  0  0  0
  149.2244  139.5477  153.6149 H   0  0  0  0  0  0  0  0  0  0  0  0
  146.6297  139.0757  152.7089 H   0  0  0  0  0  0  0  0  0  0  0  0
  146.7170  142.7466  154.8212 H   0  0  0  0  0  0  0  0  0  0  0  0
  152.1255  141.9103  156.4927 H   0  0  0  0  0  0  0  0  0  0  0  0
  152.7452  142.1233  158.9709 H   0  0  0  0  0  0  0  0  0  0  0  0
  153.5188  144.1784  158.3470 H   0  0  0  0  0  0  0  0  0  0  0  0
  152.1674  144.3308  157.2357 H   0  0  0  0  0  0  0  0  0  0  0  0
  152.4228  146.1003  159.2738 H   0  0  0  0  0  0  0  0  0  0  0  0
  150.8243  145.4507  158.8815 H   0  0  0  0  0  0  0  0  0  0  0  0
  152.7574  144.3611  160.9840 H   0  0  0  0  0  0  0  0  0  0  0  0
  151.0779  144.8609  161.2397 H   0  0  0  0  0  0  0  0  0  0  0  0
  145.2976  141.0716  153.5179 H   0  0  0  0  0  0  0  0  0  0  0  0
  1  2  1  0  0  0  0
  1 17  1  0  0  0  0
  1 18  1  0  0  0  0
  1 19  1  0  0  0  0
  2  3  1  0  0  0  0
  2  9  1  0  0  0  0
  2 20  1  0  0  0  0
  3  4  1  0  0  0  0
  3 21  1  0  0  0  0
  3 22  1  0  0  0  0
  4  8  1  0  0  0  0
  4  5  1  0  0  0  0
  5  6  2  0  0  0  0
  5 23  1  0  0  0  0
  6  7  1  0  0  0  0
  6 24  1  0  0  0  0
  7  8  2  0  0  0  0
  7 34  1  0  0  0  0
  8 25  1  0  0  0  0
  9 10  1  0  0  0  0
  9 26  1  0  0  0  0
 10 11  2  0  0  0  0
 10 12  1  0  0  0  0
 12 16  1  0  0  0  0
 12 13  1  0  0  0  0
 12 27  1  0  0  0  0
 13 14  1  0  0  0  0
 13 28  1  0  0  0  0
 13 29  1  0  0  0  0
 14 15  1  0  0  0  0
 14 30  1  0  0  0  0
 14 31  1  0  0  0  0
 15 16  1  0  0  0  0
 15 32  1  0  0  0  0
 15 33  1  0  0  0  0
M  CHG  1   7   1
M  END
> <s_m_source_file>
AV-unprocessed.smi

> <i_m_source_file_index>
3132

> <i_lp_mmshare_version>
43012

> <i_f3d_flags>
0

> <s_epik_input>
W2NIXTFuW2NIXVtjSF1uMVtDSDJdW0NAQEhdKFtDSDNdKVtOSF1DKD1PKVtDQEBIXTJbQ0gyXVtDSDJdW0NIMl1PMg==

> <s_epik_cmdline>
J2VwaWtfcHl0aG9uJywgJy1waCcsICc3LjAnLCAnLXRuJywgJzgnLCAnLW1hJywgJzIwMCcsICctbWV0YWxfYmluZGluZycsICctaW1hZScsICc8aW5maWxlLm1hZT4nLCAnLW9tYWUnLCAnPG91dGZpbGUubWFlPic=

> <r_lp_tautomer_probability>
1

> <r_epik_Ionization_Penalty>
0.250802

> <r_epik_Ionization_Penalty_Charging>
0

> <r_epik_Ionization_Penalty_Neutral>
0.250802

> <r_epik_State_Penalty>
0.242139

> <r_epik_Charging_Adjusted_Penalty>
0.242139

> <i_epik_Tot_Q>
1

> <i_epik_Tot_abs_Q>
1

> <r_epik_Metal_State_Penalty>
0.533361

> <b_epik_Metal_Only>
0

> <s_lp_Force_Field>
OPLS_2005

> <r_lp_Energy>
20.1872

> <b_lp_Chiralities_Consistent>
1

> <s_lp_Variant>
AV-unprocessed.smi:3132-4

> <Gold.Version>
5.8.1

> <Gold.Id.Protein>
6NUR|6NUR_protein|mol2

> <Gold.PLP.Fitness>
40.0664

> <Gold.PLP.PLP>
-34.6469

> <Gold.PLP.part.hbond>
-1.5354

> <Gold.PLP.part.metal>
0.0000

> <Gold.PLP.part.buried>
0.7022

> <Gold.PLP.part.nonpolar>
-33.3182

> <Gold.PLP.part.repulsive>
0.2378

> <Gold.PLP.ligand.clash>
0.0000

> <Gold.PLP.ligand.torsion>
0.7070

> <Gold.PLP.Chemscore.Hbond>
1.9840

> <Gold.PLP.Chemscore.CHOScore>
0.2821

> <Gold.PLP.Chemscore.Metal>
0.0000

> <Gold.Chemscore.Hbonds>
donor molecule, donor type, donor heavy atom, donor atom, acceptor molecule, acceptor atom, score
      L1  H     7    34       P1 10175  1.92
      L1  C     5    23       P1  7957  0.33

> <Gold.PLP.Chemscore.Internal.Correction>
0.0353

> <Gold.Rescore>
     Score         DG    S(hbond)    S(metal)    S(lipo)     H(rot)  DE(clash)    DE(int)     intcor
     10.30     -13.17       0.97        0.00      80.31       1.93       0.12       2.75       ----

> <Gold.Chemscore.Fitness>
10.2985

> <Gold.Chemscore.DG>
-13.1717

> <Gold.Chemscore.ZeroCoef>
-5.4800

> <Gold.Chemscore.Hbond>
0.9696

> <Gold.Chemscore.Metal>
0.0000

> <Gold.Chemscore.Lipo>
80.3098

> <Gold.Chemscore.Internal_Hbond>
0.0000

> <Gold.Chemscore.DEClash>
0.1239

> <Gold.Chemscore.DEInternal>
2.7493

> <Gold.Chemscore.Rot>
1.9308

> <Gold.Chemscore.Internal.Correction>
   9.000000E+99

> <Gold.Chemscore.Hbonds>
donor molecule, donor type, donor heavy atom, donor atom, acceptor molecule, acceptor atom, score
      L1  H     7    34       P1 10175  0.49

> <Gold.Chemscore.Hbond.Weighted>
-3.2383

> <Gold.Chemscore.Metal.Weighted>
-0.0000

> <Gold.Chemscore.Lipo.Weighted>
-9.3963

> <Gold.Chemscore.Internal_Hbond.Weighted>
0.0000

> <Gold.Chemscore.DEClash.Weighted>
0.1239

> <Gold.Chemscore.DEInternal.Weighted>
2.7493

> <Gold.Chemscore.Rot.Weighted>
4.9429

> <Gold.Chemscore.Internal.Correction.Weighted>
   9.000000E+99

> <Gold.Protein.RotatedTorsions>
[ 6907 6896 6895 6894 ] final   34.07 input  -60.11 | X-H torsion
[ 7974 7965 7964 7962 ] final   96.59 input  175.53 | X-H torsion
[ 8008 7997 7996 7995 ] final -107.75 input   59.86 | X-H torsion
[ 10167 10162 10161 10158 ] final   14.57 input  -65.29 | X-H torsion
[ 10718 10713 10712 10709 ] final  -65.48 input   66.30 | X-H torsion
[ 10763 10752 10751 10750 ] final -151.19 input  -60.55 | X-H torsion
[ 11005 11000 10999 10996 ] final -152.46 input  -57.11 | X-H torsion

> <Gold.Protein.ActiveResidues>
 VAL166  LYS551  ARG553  GLY616  TRP617  ASP618  TYR619  PRO620  LYS621  CYS622 
 ASP623  PHE694  ASN695  SER759  ASP760  ASP761  ALA762  ILE779  LEU786  VAL792 
 PHE793  MET794  SER795  GLU796  ALA797  LYS798  CYS799  TRP800  GLU811  SER814 

> <Gold.Protein.RotatedAtoms>
  152.0973  134.9366  160.0570 H   0  0  0  0  0  0  0  0  0  0  0  0  # atno 6907 bound_to 6896
  152.0594  133.4050  159.4419 H   0  0  0  0  0  0  0  0  0  0  0  0  # atno 6908 bound_to 6896
  150.6838  134.3138  159.4801 H   0  0  0  0  0  0  0  0  0  0  0  0  # atno 6909 bound_to 6896
  145.4368  139.2305  143.3114 H   0  0  0  0  0  0  0  0  0  0  0  0  # atno 7974 bound_to 7965
  154.9340  140.0404  157.2063 H   0  0  0  0  0  0  0  0  0  0  0  0  # atno 8008 bound_to 7997
  154.8133  140.2871  155.5816 H   0  0  0  0  0  0  0  0  0  0  0  0  # atno 8009 bound_to 7997
  156.2973  140.2533  156.3025 H   0  0  0  0  0  0  0  0  0  0  0  0  # atno 8010 bound_to 7997
  140.5926  143.8764  150.6888 H   0  0  0  0  0  0  0  0  0  0  0  0  # atno 10167 bound_to 10162
  156.0667  130.4248  150.1570 H   0  0  0  0  0  0  0  0  0  0  0  0  # atno 10718 bound_to 10713
  154.8073  135.3266  154.7398 H   0  0  0  0  0  0  0  0  0  0  0  0  # atno 10763 bound_to 10752
  153.8054  135.6900  153.4853 H   0  0  0  0  0  0  0  0  0  0  0  0  # atno 10764 bound_to 10752
  153.1827  135.4580  154.9994 H   0  0  0  0  0  0  0  0  0  0  0  0  # atno 10765 bound_to 10752
  140.7186  134.3752  157.5187 H   0  0  0  0  0  0  0  0  0  0  0  0  # atno 11005 bound_to 11000
  146.2577  140.5112  142.8866 LP  0  0  0  0  0  0  0  0  0  0  0  0  # atno 17320 bound_to 7965
  144.8147  140.6447  143.6392 LP  0  0  0  0  0  0  0  0  0  0  0  0  # atno 17321 bound_to 7965
  140.2291  143.3750  152.1580 LP  0  0  0  0  0  0  0  0  0  0  0  0  # atno 17342 bound_to 10162
  139.5237  144.7075  151.5308 LP  0  0  0  0  0  0  0  0  0  0  0  0  # atno 17343 bound_to 10162
  156.9628  130.9810  151.3475 LP  0  0  0  0  0  0  0  0  0  0  0  0  # atno 17370 bound_to 10713
  157.5713  130.8313  149.8396 LP  0  0  0  0  0  0  0  0  0  0  0  0  # atno 17371 bound_to 10713
  139.8853  134.8939  156.2648 LP  0  0  0  0  0  0  0  0  0  0  0  0  # atno 17394 bound_to 11000
  141.0023  133.7144  156.0979 LP  0  0  0  0  0  0  0  0  0  0  0  0  # atno 17395 bound_to 11000

$$$$
