AV-unprocessed.smi:1194|AV-procd|sdf|4993|dock6
  -GOLD-   22720 3593D 1   1.00000     0.00000
 Structure written by MMmdl.
 48 49  0  0  0  0  0  0  0  0  2 V2000
  152.5093  143.4393  161.5998 C   0  0  0  0  0  0  0  0  0  0  0  0
  152.8540  142.0801  160.9808 C   0  0  0  0  0  0  0  0  0  0  0  0
  152.7632  142.0950  159.4426 C   0  0  0  0  0  0  0  0  0  0  0  0
  152.6110  140.6996  158.8086 C   0  0  0  0  0  0  0  0  0  0  0  0
  153.5536  139.9105  158.8933 O   0  0  0  0  0  0  0  0  0  0  0  0
  151.4452  140.3720  158.1904 N   0  0  0  0  0  0  0  0  0  0  0  0
  150.3129  141.3050  158.0123 C   0  0  0  0  0  0  0  0  0  0  0  0
  150.1258  141.6122  156.5162 C   0  0  0  0  0  0  0  0  0  0  0  0
  149.9523  140.3186  155.7030 C   0  0  0  0  0  0  0  0  0  0  0  0
  151.0987  139.3344  155.9957 C   0  0  0  0  0  0  0  0  0  0  0  0
  151.2643  139.0652  157.5121 C   0  0  2  0  0  0  0  0  0  0  0  0
  150.1551  138.1861  158.1300 C   0  0  0  0  0  0  0  0  0  0  0  0
  150.2707  137.7521  159.2763 O   0  0  0  0  0  0  0  0  0  0  0  0
  149.0774  137.9346  157.3700 N   0  0  0  0  0  0  0  0  0  0  0  0
  147.9410  137.1298  157.7917 C   0  0  0  0  0  0  0  0  0  0  0  0
  148.4157  135.8091  158.4109 C   0  0  0  0  0  0  0  0  0  0  0  0
  147.7101  135.5077  159.7187 C   0  0  0  0  0  0  0  0  0  0  0  0
  147.8214  136.3921  160.8145 C   0  0  0  0  0  0  0  0  0  0  0  0
  147.1612  136.0834  162.0222 C   0  0  0  0  0  0  0  0  0  0  0  0
  146.4051  134.8964  162.1069 C   0  0  0  0  0  0  0  0  0  0  0  0
  146.3221  134.0741  161.0379 N   0  3  0  0  0  0  0  0  0  0  0  0
  146.9390  134.3340  159.8641 C   0  0  0  0  0  0  0  0  0  0  0  0
  152.5877  143.4017  162.6866 H   0  0  0  0  0  0  0  0  0  0  0  0
  151.4911  143.7389  161.3500 H   0  0  0  0  0  0  0  0  0  0  0  0
  153.1855  144.2172  161.2444 H   0  0  0  0  0  0  0  0  0  0  0  0
  153.8605  141.7952  161.2909 H   0  0  0  0  0  0  0  0  0  0  0  0
  152.1783  141.3258  161.3866 H   0  0  0  0  0  0  0  0  0  0  0  0
  151.9105  142.7076  159.1471 H   0  0  0  0  0  0  0  0  0  0  0  0
  153.6610  142.5664  159.0406 H   0  0  0  0  0  0  0  0  0  0  0  0
  149.4016  140.8555  158.4070 H   0  0  0  0  0  0  0  0  0  0  0  0
  150.4136  142.2423  158.5553 H   0  0  0  0  0  0  0  0  0  0  0  0
  149.2622  142.2618  156.3718 H   0  0  0  0  0  0  0  0  0  0  0  0
  150.9926  142.1622  156.1472 H   0  0  0  0  0  0  0  0  0  0  0  0
  148.9954  139.8569  155.9494 H   0  0  0  0  0  0  0  0  0  0  0  0
  149.9182  140.5472  154.6375 H   0  0  0  0  0  0  0  0  0  0  0  0
  150.9400  138.4037  155.4495 H   0  0  0  0  0  0  0  0  0  0  0  0
  152.0295  139.7491  155.6063 H   0  0  0  0  0  0  0  0  0  0  0  0
  152.1578  138.4469  157.6041 H   0  0  0  0  0  0  0  0  0  0  0  0
  149.0467  138.3305  156.4415 H   0  0  0  0  0  0  0  0  0  0  0  0
  147.3495  137.6943  158.5144 H   0  0  0  0  0  0  0  0  0  0  0  0
  147.2993  136.9312  156.9316 H   0  0  0  0  0  0  0  0  0  0  0  0
  148.2409  134.9861  157.7163 H   0  0  0  0  0  0  0  0  0  0  0  0
  149.4922  135.8420  158.5850 H   0  0  0  0  0  0  0  0  0  0  0  0
  148.4080  137.2958  160.7327 H   0  0  0  0  0  0  0  0  0  0  0  0
  147.2354  136.7470  162.8714 H   0  0  0  0  0  0  0  0  0  0  0  0
  145.8692  134.5819  162.9908 H   0  0  0  0  0  0  0  0  0  0  0  0
  146.7996  133.5993  159.0844 H   0  0  0  0  0  0  0  0  0  0  0  0
  145.7703  133.2197  161.1209 H   0  0  0  0  0  0  0  0  0  0  0  0
  1  2  1  0  0  0  0
  1 23  1  0  0  0  0
  1 24  1  0  0  0  0
  1 25  1  0  0  0  0
  2  3  1  0  0  0  0
  2 26  1  0  0  0  0
  2 27  1  0  0  0  0
  3  4  1  0  0  0  0
  3 28  1  0  0  0  0
  3 29  1  0  0  0  0
  4  5  2  0  0  0  0
  4  6  1  0  0  0  0
  6 11  1  0  0  0  0
  6  7  1  0  0  0  0
  7  8  1  0  0  0  0
  7 30  1  0  0  0  0
  7 31  1  0  0  0  0
  8  9  1  0  0  0  0
  8 32  1  0  0  0  0
  8 33  1  0  0  0  0
  9 10  1  0  0  0  0
  9 34  1  0  0  0  0
  9 35  1  0  0  0  0
 10 11  1  0  0  0  0
 10 36  1  0  0  0  0
 10 37  1  0  0  0  0
 11 12  1  0  0  0  0
 11 38  1  0  0  0  0
 12 13  2  0  0  0  0
 12 14  1  0  0  0  0
 14 15  1  0  0  0  0
 14 39  1  0  0  0  0
 15 16  1  0  0  0  0
 15 40  1  0  0  0  0
 15 41  1  0  0  0  0
 16 17  1  0  0  0  0
 16 42  1  0  0  0  0
 16 43  1  0  0  0  0
 17 22  1  0  0  0  0
 17 18  2  0  0  0  0
 18 19  1  0  0  0  0
 18 44  1  0  0  0  0
 19 20  2  0  0  0  0
 19 45  1  0  0  0  0
 20 21  1  0  0  0  0
 20 46  1  0  0  0  0
 21 22  2  0  0  0  0
 21 48  1  0  0  0  0
 22 47  1  0  0  0  0
M  CHG  1  21   1
M  END
> <s_m_source_file>
AV-unprocessed.smi

> <i_m_source_file_index>
1194

> <i_lp_mmshare_version>
43012

> <i_f3d_flags>
0

> <s_epik_input>
W0NIM11bQ0gyXVtDSDJdQyg9TylOMVtDSDJdW0NIMl1bQ0gyXVtDSDJdW0NASF0xQyg9TylbTkhdW0NIMl1bQ0gyXWMyW2NIXVtjSF1bY0hdbltjSF0y

> <s_epik_cmdline>
J2VwaWtfcHl0aG9uJywgJy1waCcsICc3LjAnLCAnLXRuJywgJzgnLCAnLW1hJywgJzIwMCcsICctbWV0YWxfYmluZGluZycsICctaW1hZScsICc8aW5maWxlLm1hZT4nLCAnLW9tYWUnLCAnPG91dGZpbGUubWFlPic=

> <r_epik_Ionization_Penalty>
2.26523

> <r_epik_Ionization_Penalty_Charging>
2.26523

> <r_epik_Ionization_Penalty_Neutral>
5.33649e-08

> <r_epik_State_Penalty>
2.41338

> <r_epik_Charging_Adjusted_Penalty>
4.67861

> <i_epik_Tot_Q>
1

> <i_epik_Tot_abs_Q>
1

> <r_epik_Metal_State_Penalty>
2.42628

> <b_epik_Metal_Only>
0

> <s_lp_Force_Field>
OPLS_2005

> <r_lp_Energy>
33.0292

> <b_lp_Chiralities_Consistent>
1

> <s_lp_Variant>
AV-unprocessed.smi:1194-4

> <Gold.Version>
5.8.1

> <Gold.Id.Protein>
6NUR|6NUR_protein|mol2

> <Gold.PLP.Fitness>
43.6079

> <Gold.PLP.PLP>
-41.9314

> <Gold.PLP.part.hbond>
-1.7111

> <Gold.PLP.part.metal>
0.0000

> <Gold.PLP.part.buried>
-5.5373

> <Gold.PLP.part.nonpolar>
-34.5385

> <Gold.PLP.part.repulsive>
0.0653

> <Gold.PLP.ligand.clash>
0.0000

> <Gold.PLP.ligand.torsion>
0.6746

> <Gold.PLP.Chemscore.Hbond>
0.9833

> <Gold.PLP.Chemscore.CHOScore>
0.0000

> <Gold.PLP.Chemscore.Metal>
0.0000

> <Gold.Chemscore.Hbonds>
donor molecule, donor type, donor heavy atom, donor atom, acceptor molecule, acceptor atom, score
      P1  H  7997  8010       L1     5  0.83

> <Gold.PLP.Chemscore.Internal.Correction>
0.0758

> <Gold.Rescore>
     Score         DG    S(hbond)    S(metal)    S(lipo)     H(rot)  DE(clash)    DE(int)     intcor
     13.85     -15.93       0.92        0.00     102.30       1.80       0.09       1.99       ----

> <Gold.Chemscore.Fitness>
13.8529

> <Gold.Chemscore.DG>
-15.9307

> <Gold.Chemscore.ZeroCoef>
-5.4800

> <Gold.Chemscore.Hbond>
0.9238

> <Gold.Chemscore.Metal>
0.0000

> <Gold.Chemscore.Lipo>
102.3007

> <Gold.Chemscore.Internal_Hbond>
0.0000

> <Gold.Chemscore.DEClash>
0.0851

> <Gold.Chemscore.DEInternal>
1.9927

> <Gold.Chemscore.Rot>
1.7985

> <Gold.Chemscore.Internal.Correction>
   9.000000E+99

> <Gold.Chemscore.Hbonds>
donor molecule, donor type, donor heavy atom, donor atom, acceptor molecule, acceptor atom, score
      P1  H  7997  8010       L1     5  0.63

> <Gold.Chemscore.Hbond.Weighted>
-3.0856

> <Gold.Chemscore.Metal.Weighted>
-0.0000

> <Gold.Chemscore.Lipo.Weighted>
-11.9692

> <Gold.Chemscore.Internal_Hbond.Weighted>
0.0000

> <Gold.Chemscore.DEClash.Weighted>
0.0851

> <Gold.Chemscore.DEInternal.Weighted>
1.9927

> <Gold.Chemscore.Rot.Weighted>
4.6041

> <Gold.Chemscore.Internal.Correction.Weighted>
   9.000000E+99

> <Gold.Protein.RotatedTorsions>
[ 6907 6896 6895 6894 ] final  -27.77 input  -60.11 | X-H torsion
[ 7974 7965 7964 7962 ] final   28.62 input  175.53 | X-H torsion
[ 8008 7997 7996 7995 ] final   19.98 input   59.86 | X-H torsion
[ 10167 10162 10161 10158 ] final  -23.89 input  -65.29 | X-H torsion
[ 10718 10713 10712 10709 ] final  -76.45 input   66.30 | X-H torsion
[ 10763 10752 10751 10750 ] final  -98.27 input  -60.55 | X-H torsion
[ 11005 11000 10999 10996 ] final -114.36 input  -57.11 | X-H torsion

> <Gold.Protein.ActiveResidues>
 VAL166  LYS551  ARG553  GLY616  TRP617  ASP618  TYR619  PRO620  LYS621  CYS622 
 ASP623  PHE694  ASN695  SER759  ASP760  ASP761  ALA762  ILE779  LEU786  VAL792 
 PHE793  MET794  SER795  GLU796  ALA797  LYS798  CYS799  TRP800  GLU811  SER814 

> <Gold.Protein.RotatedAtoms>
  151.1423  135.0185  159.8630 H   0  0  0  0  0  0  0  0  0  0  0  0  # atno 6907 bound_to 6896
  152.5452  134.1485  159.8518 H   0  0  0  0  0  0  0  0  0  0  0  0  # atno 6908 bound_to 6896
  151.1562  133.4829  159.2627 H   0  0  0  0  0  0  0  0  0  0  0  0  # atno 6909 bound_to 6896
  146.1718  139.7032  142.8962 H   0  0  0  0  0  0  0  0  0  0  0  0  # atno 7974 bound_to 7965
  154.9288  140.3037  155.5178 H   0  0  0  0  0  0  0  0  0  0  0  0  # atno 8008 bound_to 7997
  156.3005  140.2358  156.4282 H   0  0  0  0  0  0  0  0  0  0  0  0  # atno 8009 bound_to 7997
  154.8258  140.0421  157.1431 H   0  0  0  0  0  0  0  0  0  0  0  0  # atno 8010 bound_to 7997
  140.7288  143.4402  151.0668 H   0  0  0  0  0  0  0  0  0  0  0  0  # atno 10167 bound_to 10162
  156.0175  130.4466  150.3195 H   0  0  0  0  0  0  0  0  0  0  0  0  # atno 10718 bound_to 10713
  154.7400  135.5015  153.9106 H   0  0  0  0  0  0  0  0  0  0  0  0  # atno 10763 bound_to 10752
  153.1033  135.6691  153.9640 H   0  0  0  0  0  0  0  0  0  0  0  0  # atno 10764 bound_to 10752
  153.9419  135.3067  155.3421 H   0  0  0  0  0  0  0  0  0  0  0  0  # atno 10765 bound_to 10752
  141.0557  133.9616  157.2758 H   0  0  0  0  0  0  0  0  0  0  0  0  # atno 11005 bound_to 11000
  145.4318  141.0416  143.2906 LP  0  0  0  0  0  0  0  0  0  0  0  0  # atno 17320 bound_to 7965
  144.8175  139.5850  143.7001 LP  0  0  0  0  0  0  0  0  0  0  0  0  # atno 17321 bound_to 7965
  139.8068  143.8006  152.3168 LP  0  0  0  0  0  0  0  0  0  0  0  0  # atno 17342 bound_to 10162
  139.8042  144.7362  150.9784 LP  0  0  0  0  0  0  0  0  0  0  0  0  # atno 17343 bound_to 10162
  157.1295  131.0268  151.2975 LP  0  0  0  0  0  0  0  0  0  0  0  0  # atno 17370 bound_to 10713
  157.4562  130.7627  149.7195 LP  0  0  0  0  0  0  0  0  0  0  0  0  # atno 17371 bound_to 10713
  139.9388  135.0193  156.8642 LP  0  0  0  0  0  0  0  0  0  0  0  0  # atno 17394 bound_to 11000
  140.5969  134.0209  155.7521 LP  0  0  0  0  0  0  0  0  0  0  0  0  # atno 17395 bound_to 11000

$$$$
