AV-unprocessed.smi:1265|AV-procd|sdf|5316|dock3
  -GOLD-   22720 4443D 1   1.00000     0.00000
 Structure written by MMmdl.
 44 46  0  0  0  0  0  0  0  0  1 V2000
  144.6551  136.2341  153.0901 O   0  0  0  0  0  0  0  0  0  0  0  0
  145.8308  136.1806  152.7301 C   0  0  0  0  0  0  0  0  0  0  0  0
  146.7773  137.0245  153.1650 N   0  0  0  0  0  0  0  0  0  0  0  0
  146.5776  138.1203  154.1132 C   0  0  0  0  0  0  0  0  0  0  0  0
  147.8925  138.9187  154.4018 C   0  0  2  0  0  0  0  0  0  0  0  0
  149.0538  137.9827  154.5131 N   0  0  0  0  0  0  0  0  0  0  0  0
  148.9015  136.8734  155.4657 C   0  0  0  0  0  0  0  0  0  0  0  0
  150.1084  135.9195  155.4540 C   0  0  0  0  0  0  0  0  0  0  0  0
  151.2993  136.6459  155.7251 O   0  0  0  0  0  0  0  0  0  0  0  0
  151.5237  137.6789  154.7755 C   0  0  0  0  0  0  0  0  0  0  0  0
  150.3341  138.6531  154.7800 C   0  0  0  0  0  0  0  0  0  0  0  0
  147.6645  139.7772  155.6802 C   0  0  0  0  0  0  0  0  0  0  0  0
  146.6813  140.9083  155.3605 C   0  0  0  0  0  0  0  0  0  0  0  0
  146.9519  141.3830  153.6369 S   0  0  0  0  0  0  0  0  0  0  0  0
  148.0613  139.9887  153.2925 C   0  0  0  0  0  0  0  0  0  0  0  0
  146.3457  135.2718  151.8838 N   0  0  0  0  0  0  0  0  0  0  0  0
  145.6792  134.2297  151.1831 C   0  0  0  0  0  0  0  0  0  0  0  0
  146.4613  133.1617  150.6965 C   0  0  0  0  0  0  0  0  0  0  0  0
  145.8275  132.1257  149.9819 C   0  0  0  0  0  0  0  0  0  0  0  0
  144.5023  132.1032  149.7271 N   0  0  0  0  0  0  0  0  0  0  0  0
  143.7573  133.1332  150.1810 C   0  0  0  0  0  0  0  0  0  0  0  0
  144.2908  134.2177  150.9060 C   0  0  0  0  0  0  0  0  0  0  0  0
  147.7191  136.8933  152.8259 H   0  0  0  0  0  0  0  0  0  0  0  0
  145.8080  138.7716  153.7016 H   0  0  0  0  0  0  0  0  0  0  0  0
  146.1214  137.7460  155.0293 H   0  0  0  0  0  0  0  0  0  0  0  0
  148.7644  137.2516  156.4781 H   0  0  0  0  0  0  0  0  0  0  0  0
  148.0300  136.2688  155.2264 H   0  0  0  0  0  0  0  0  0  0  0  0
  149.9849  135.1444  156.2105 H   0  0  0  0  0  0  0  0  0  0  0  0
  150.1922  135.4145  154.4904 H   0  0  0  0  0  0  0  0  0  0  0  0
  152.4436  138.2041  155.0328 H   0  0  0  0  0  0  0  0  0  0  0  0
  151.6675  137.2483  153.7833 H   0  0  0  0  0  0  0  0  0  0  0  0
  150.5412  139.4160  154.0330 H   0  0  0  0  0  0  0  0  0  0  0  0
  150.2954  139.1598  155.7449 H   0  0  0  0  0  0  0  0  0  0  0  0
  147.3388  139.1880  156.5372 H   0  0  0  0  0  0  0  0  0  0  0  0
  148.5798  140.2785  155.9860 H   0  0  0  0  0  0  0  0  0  0  0  0
  145.6509  140.5728  155.4772 H   0  0  0  0  0  0  0  0  0  0  0  0
  146.8194  141.7638  156.0222 H   0  0  0  0  0  0  0  0  0  0  0  0
  149.0705  140.3970  153.2822 H   0  0  0  0  0  0  0  0  0  0  0  0
  147.8700  139.5926  152.2947 H   0  0  0  0  0  0  0  0  0  0  0  0
  147.3465  135.3037  151.7567 H   0  0  0  0  0  0  0  0  0  0  0  0
  147.5273  133.1299  150.8686 H   0  0  0  0  0  0  0  0  0  0  0  0
  146.4021  131.2935  149.6028 H   0  0  0  0  0  0  0  0  0  0  0  0
  142.7022  133.0966  149.9531 H   0  0  0  0  0  0  0  0  0  0  0  0
  143.6326  135.0137  151.2180 H   0  0  0  0  0  0  0  0  0  0  0  0
  1  2  2  0  0  0  0
  2  3  1  0  0  0  0
  2 16  1  0  0  0  0
  3  4  1  0  0  0  0
  3 23  1  0  0  0  0
  4  5  1  0  0  0  0
  4 24  1  0  0  0  0
  4 25  1  0  0  0  0
  5 15  1  0  0  0  0
  5  6  1  0  0  0  0
  5 12  1  0  0  0  0
  6 11  1  0  0  0  0
  6  7  1  0  0  0  0
  7  8  1  0  0  0  0
  7 26  1  0  0  0  0
  7 27  1  0  0  0  0
  8  9  1  0  0  0  0
  8 28  1  0  0  0  0
  8 29  1  0  0  0  0
  9 10  1  0  0  0  0
 10 11  1  0  0  0  0
 10 30  1  0  0  0  0
 10 31  1  0  0  0  0
 11 32  1  0  0  0  0
 11 33  1  0  0  0  0
 12 13  1  0  0  0  0
 12 34  1  0  0  0  0
 12 35  1  0  0  0  0
 13 14  1  0  0  0  0
 13 36  1  0  0  0  0
 13 37  1  0  0  0  0
 14 15  1  0  0  0  0
 15 38  1  0  0  0  0
 15 39  1  0  0  0  0
 16 17  1  0  0  0  0
 16 40  1  0  0  0  0
 17 22  1  0  0  0  0
 17 18  2  0  0  0  0
 18 19  1  0  0  0  0
 18 41  1  0  0  0  0
 19 20  2  0  0  0  0
 19 42  1  0  0  0  0
 20 21  1  0  0  0  0
 21 22  2  0  0  0  0
 21 43  1  0  0  0  0
 22 44  1  0  0  0  0
M  END
> <s_m_source_file>
AV-unprocessed.smi

> <i_m_source_file_index>
1265

> <i_lp_mmshare_version>
43012

> <i_f3d_flags>
0

> <s_epik_input>
W2NIXTFbY0hdbltjSF1bY0hdYzFbTkhdQyg9TylbTkhdW0NIMl1bQ0BdMihbQ0gyXVtDSDJdU1tDSDJdMilOM1tDSDJdW0NIMl1PW0NIMl1bQ0gyXTM=

> <s_epik_cmdline>
J2VwaWtfcHl0aG9uJywgJy1waCcsICc3LjAnLCAnLXRuJywgJzgnLCAnLW1hJywgJzIwMCcsICctbWV0YWxfYmluZGluZycsICctaW1hZScsICc8aW5maWxlLm1hZT4nLCAnLW9tYWUnLCAnPG91dGZpbGUubWFlPic=

> <r_epik_Ionization_Penalty>
0.131531

> <r_epik_Ionization_Penalty_Charging>
0

> <r_epik_Ionization_Penalty_Neutral>
0.131531

> <r_epik_State_Penalty>
0.114508

> <r_epik_Charging_Adjusted_Penalty>
0.114508

> <i_epik_Tot_Q>
0

> <i_epik_Tot_abs_Q>
0

> <r_epik_Metal_State_Penalty>
0.0964753

> <b_epik_Metal_Only>
0

> <s_lp_Force_Field>
OPLS_2005

> <r_lp_Energy>
59.7031

> <b_lp_Chiralities_Consistent>
1

> <s_lp_Variant>
AV-unprocessed.smi:1265-2

> <Gold.Version>
5.8.1

> <Gold.Id.Protein>
6NUR|6NUR_protein|mol2

> <Gold.PLP.Fitness>
45.5498

> <Gold.PLP.PLP>
-31.7276

> <Gold.PLP.part.hbond>
-3.1957

> <Gold.PLP.part.metal>
0.0000

> <Gold.PLP.part.buried>
-3.0112

> <Gold.PLP.part.nonpolar>
-27.1875

> <Gold.PLP.part.repulsive>
0.7947

> <Gold.PLP.ligand.clash>
0.0000

> <Gold.PLP.ligand.torsion>
0.4159

> <Gold.PLP.Chemscore.Hbond>
2.9913

> <Gold.PLP.Chemscore.CHOScore>
1.8654

> <Gold.PLP.Chemscore.Metal>
0.0000

> <Gold.Chemscore.Hbonds>
donor molecule, donor type, donor heavy atom, donor atom, acceptor molecule, acceptor atom, score
      L1  H     3    23       P1  7948  1.00
      L1  H    16    40       P1  7948  1.00
      P1  H 10752 10764       L1     9  0.21
      L1  C    19    42       P1 10747  0.56
      L1  C    21    43       P1 10186  1.00

> <Gold.PLP.Chemscore.Internal.Correction>
0.0843

> <Gold.Rescore>
     Score         DG    S(hbond)    S(metal)    S(lipo)     H(rot)  DE(clash)    DE(int)     intcor
     16.15     -19.27       2.01        0.00      92.07       1.44       1.68       1.44       ----

> <Gold.Chemscore.Fitness>
16.1549

> <Gold.Chemscore.DG>
-19.2722

> <Gold.Chemscore.ZeroCoef>
-5.4800

> <Gold.Chemscore.Hbond>
2.0114

> <Gold.Chemscore.Metal>
0.0000

> <Gold.Chemscore.Lipo>
92.0701

> <Gold.Chemscore.Internal_Hbond>
0.0000

> <Gold.Chemscore.DEClash>
1.6795

> <Gold.Chemscore.DEInternal>
1.4379

> <Gold.Chemscore.Rot>
1.4445

> <Gold.Chemscore.Internal.Correction>
   9.000000E+99

> <Gold.Chemscore.Hbonds>
donor molecule, donor type, donor heavy atom, donor atom, acceptor molecule, acceptor atom, score
      L1  H     3    23       P1  7948  0.99
      L1  H    16    40       P1  7948  0.93

> <Gold.Chemscore.Hbond.Weighted>
-6.7180

> <Gold.Chemscore.Metal.Weighted>
-0.0000

> <Gold.Chemscore.Lipo.Weighted>
-10.7722

> <Gold.Chemscore.Internal_Hbond.Weighted>
0.0000

> <Gold.Chemscore.DEClash.Weighted>
1.6795

> <Gold.Chemscore.DEInternal.Weighted>
1.4379

> <Gold.Chemscore.Rot.Weighted>
3.6980

> <Gold.Chemscore.Internal.Correction.Weighted>
   9.000000E+99

> <Gold.Protein.RotatedTorsions>
[ 6907 6896 6895 6894 ] final   74.97 input  -60.11 | X-H torsion
[ 7974 7965 7964 7962 ] final   66.52 input  175.53 | X-H torsion
[ 8008 7997 7996 7995 ] final   -2.11 input   59.86 | X-H torsion
[ 10167 10162 10161 10158 ] final  -96.23 input  -65.29 | X-H torsion
[ 10718 10713 10712 10709 ] final -154.38 input   66.30 | X-H torsion
[ 10763 10752 10751 10750 ] final  -45.60 input  -60.55 | X-H torsion
[ 11005 11000 10999 10996 ] final  -10.95 input  -57.11 | X-H torsion

> <Gold.Protein.ActiveResidues>
 VAL166  LYS551  ARG553  GLY616  TRP617  ASP618  TYR619  PRO620  LYS621  CYS622 
 ASP623  PHE694  ASN695  SER759  ASP760  ASP761  ALA762  ILE779  LEU786  VAL792 
 PHE793  MET794  SER795  GLU796  ALA797  LYS798  CYS799  TRP800  GLU811  SER814 

> <Gold.Protein.RotatedAtoms>
  152.5003  134.4191  159.9474 H   0  0  0  0  0  0  0  0  0  0  0  0  # atno 6907 bound_to 6896
  151.4163  133.3705  159.2758 H   0  0  0  0  0  0  0  0  0  0  0  0  # atno 6908 bound_to 6896
  150.9255  134.8694  159.7576 H   0  0  0  0  0  0  0  0  0  0  0  0  # atno 6909 bound_to 6896
  145.8256  139.3109  143.1017 H   0  0  0  0  0  0  0  0  0  0  0  0  # atno 7974 bound_to 7965
  154.6394  140.2542  155.7340 H   0  0  0  0  0  0  0  0  0  0  0  0  # atno 8008 bound_to 7997
  156.2521  140.2890  156.0701 H   0  0  0  0  0  0  0  0  0  0  0  0  # atno 8009 bound_to 7997
  155.1620  140.0384  157.2835 H   0  0  0  0  0  0  0  0  0  0  0  0  # atno 8010 bound_to 7997
  140.2960  143.3192  152.0298 H   0  0  0  0  0  0  0  0  0  0  0  0  # atno 10167 bound_to 10162
  156.4985  130.8380  151.2600 H   0  0  0  0  0  0  0  0  0  0  0  0  # atno 10718 bound_to 10713
  154.0312  135.6656  153.4781 H   0  0  0  0  0  0  0  0  0  0  0  0  # atno 10763 bound_to 10752
  153.0539  135.5067  154.7931 H   0  0  0  0  0  0  0  0  0  0  0  0  # atno 10764 bound_to 10752
  154.6877  135.3056  154.9489 H   0  0  0  0  0  0  0  0  0  0  0  0  # atno 10765 bound_to 10752
  140.7502  133.8599  155.9038 H   0  0  0  0  0  0  0  0  0  0  0  0  # atno 11005 bound_to 11000
  145.9627  140.8823  143.0202 LP  0  0  0  0  0  0  0  0  0  0  0  0  # atno 17320 bound_to 7965
  144.6744  140.1835  143.7403 LP  0  0  0  0  0  0  0  0  0  0  0  0  # atno 17321 bound_to 7965
  139.4926  144.6491  151.6715 LP  0  0  0  0  0  0  0  0  0  0  0  0  # atno 17342 bound_to 10162
  140.5692  144.0138  150.6208 LP  0  0  0  0  0  0  0  0  0  0  0  0  # atno 17343 bound_to 10162
  157.7465  130.9989  150.2871 LP  0  0  0  0  0  0  0  0  0  0  0  0  # atno 17370 bound_to 10713
  156.3356  130.3807  149.7453 LP  0  0  0  0  0  0  0  0  0  0  0  0  # atno 17371 bound_to 10713
  140.9758  134.1471  157.4537 LP  0  0  0  0  0  0  0  0  0  0  0  0  # atno 17394 bound_to 11000
  139.8789  134.9994  156.5952 LP  0  0  0  0  0  0  0  0  0  0  0  0  # atno 17395 bound_to 11000

$$$$
