AV-unprocessed.smi:408|AV-procd|sdf|2504|dock5
  -GOLD-   2262022453D 1   1.00000     0.00000
 Structure written by MMmdl.
 40 41  0  0  0  0  0  0  0  0  2 V2000
  152.1295  142.9842  160.0432 C   0  0  0  0  0  0  0  0  0  0  0  0
  152.1477  143.1561  158.5153 C   0  0  0  0  0  0  0  0  0  0  0  0
  152.2935  144.6395  158.1455 C   0  0  0  0  0  0  0  0  0  0  0  0
  150.8950  142.5447  157.8482 C   0  0  0  0  0  0  0  0  0  0  0  0
  151.0513  142.1732  156.3603 C   0  0  0  0  0  0  0  0  0  0  0  0
  149.7561  142.0977  155.6944 N   0  0  0  0  0  0  0  0  0  0  0  0
  149.3974  141.1938  154.7688 C   0  0  0  0  0  0  0  0  0  0  0  0
  150.1010  140.2399  154.4377 O   0  0  0  0  0  0  0  0  0  0  0  0
  148.0437  141.4223  154.0934 C   0  0  0  0  0  0  0  0  0  0  0  0
  147.2801  140.1303  154.0607 C   0  0  0  0  0  0  0  0  0  0  0  0
  147.6365  138.9759  153.4115 C   0  0  0  0  0  0  0  0  0  0  0  0
  146.5062  137.6900  153.7184 S   0  0  0  0  0  0  0  0  0  0  0  0
  145.5558  138.7804  154.7272 C   0  0  0  0  0  0  0  0  0  0  0  0
  144.4309  138.4306  155.3769 N   0  5  0  0  0  0  0  0  0  0  0  0
  143.6812  137.3447  155.0384 C   0  0  0  0  0  0  0  0  0  0  0  0
  143.3187  136.4644  155.8171 O   0  0  0  0  0  0  0  0  0  0  0  0
  143.3043  137.2610  153.5850 C   0  0  0  0  0  0  0  0  0  0  0  0
  141.8460  137.4301  153.2023 C   0  0  0  0  0  0  0  0  0  0  0  0
  142.4766  136.0623  153.1663 C   0  0  0  0  0  0  0  0  0  0  0  0
  146.0808  140.0107  154.7667 N   0  0  0  0  0  0  0  0  0  0  0  0
  151.2348  143.4268  160.4819 H   0  0  0  0  0  0  0  0  0  0  0  0
  152.9933  143.4652  160.5024 H   0  0  0  0  0  0  0  0  0  0  0  0
  152.1589  141.9329  160.3284 H   0  0  0  0  0  0  0  0  0  0  0  0
  153.0339  142.6513  158.1300 H   0  0  0  0  0  0  0  0  0  0  0  0
  151.4331  145.2190  158.4808 H   0  0  0  0  0  0  0  0  0  0  0  0
  152.3841  144.7679  157.0666 H   0  0  0  0  0  0  0  0  0  0  0  0
  153.1849  145.0724  158.6006 H   0  0  0  0  0  0  0  0  0  0  0  0
  150.5901  141.6577  158.4049 H   0  0  0  0  0  0  0  0  0  0  0  0
  150.0647  143.2469  157.9376 H   0  0  0  0  0  0  0  0  0  0  0  0
  151.7291  142.8612  155.8539 H   0  0  0  0  0  0  0  0  0  0  0  0
  151.5149  141.1896  156.2846 H   0  0  0  0  0  0  0  0  0  0  0  0
  149.1030  142.8405  155.8970 H   0  0  0  0  0  0  0  0  0  0  0  0
  147.4902  142.1894  154.6366 H   0  0  0  0  0  0  0  0  0  0  0  0
  148.2006  141.8067  153.0850 H   0  0  0  0  0  0  0  0  0  0  0  0
  148.5049  138.7961  152.7959 H   0  0  0  0  0  0  0  0  0  0  0  0
  144.0309  137.6484  152.8727 H   0  0  0  0  0  0  0  0  0  0  0  0
  141.1137  137.6164  153.9857 H   0  0  0  0  0  0  0  0  0  0  0  0
  141.6399  137.9222  152.2542 H   0  0  0  0  0  0  0  0  0  0  0  0
  142.7105  135.6181  152.2022 H   0  0  0  0  0  0  0  0  0  0  0  0
  142.1804  135.3529  153.9372 H   0  0  0  0  0  0  0  0  0  0  0  0
  1  2  1  0  0  0  0
  1 21  1  0  0  0  0
  1 22  1  0  0  0  0
  1 23  1  0  0  0  0
  2  3  1  0  0  0  0
  2  4  1  0  0  0  0
  2 24  1  0  0  0  0
  3 25  1  0  0  0  0
  3 26  1  0  0  0  0
  3 27  1  0  0  0  0
  4  5  1  0  0  0  0
  4 28  1  0  0  0  0
  4 29  1  0  0  0  0
  5  6  1  0  0  0  0
  5 30  1  0  0  0  0
  5 31  1  0  0  0  0
  6  7  1  0  0  0  0
  6 32  1  0  0  0  0
  7  8  2  0  0  0  0
  7  9  1  0  0  0  0
  9 10  1  0  0  0  0
  9 33  1  0  0  0  0
  9 34  1  0  0  0  0
 10 20  1  0  0  0  0
 10 11  2  0  0  0  0
 11 12  1  0  0  0  0
 11 35  1  0  0  0  0
 12 13  1  0  0  0  0
 13 14  1  0  0  0  0
 13 20  2  0  0  0  0
 14 15  1  0  0  0  0
 15 16  2  0  0  0  0
 15 17  1  0  0  0  0
 17 19  1  0  0  0  0
 17 18  1  0  0  0  0
 17 36  1  0  0  0  0
 18 19  1  0  0  0  0
 18 37  1  0  0  0  0
 18 38  1  0  0  0  0
 19 39  1  0  0  0  0
 19 40  1  0  0  0  0
M  CHG  1  14  -1
M  END
> <s_m_source_file>
AV-unprocessed.smi

> <i_m_source_file_index>
408

> <i_lp_mmshare_version>
43012

> <i_f3d_flags>
0

> <s_epik_input>
W0NIM11bQ0hdKFtDSDNdKVtDSDJdW0NIMl1bTkhdQyg9TylbQ0gyXWMxW2NIXXNjKG4xKVtOSF1DKD1PKVtDSF0yW0NIMl1bQ0gyXTI=

> <s_epik_cmdline>
J2VwaWtfcHl0aG9uJywgJy1waCcsICc3LjAnLCAnLXRuJywgJzgnLCAnLW1hJywgJzIwMCcsICctbWV0YWxfYmluZGluZycsICctaW1hZScsICc8aW5maWxlLm1hZT4nLCAnLW9tYWUnLCAnPG91dGZpbGUubWFlPic=

> <r_lp_tautomer_probability>
1

> <r_epik_Ionization_Penalty>
5.55111

> <r_epik_Ionization_Penalty_Charging>
5.01898

> <r_epik_Ionization_Penalty_Neutral>
0.532133

> <r_epik_State_Penalty>
5.01885

> <r_epik_Charging_Adjusted_Penalty>
10.0378

> <i_epik_Tot_Q>
-1

> <i_epik_Tot_abs_Q>
1

> <r_epik_Metal_State_Penalty>
1.13336

> <b_epik_Metal_Only>
1

> <s_lp_Force_Field>
OPLS_2005

> <r_lp_Energy>
8.36317

> <b_lp_Chiralities_Consistent>
1

> <s_lp_Variant>
AV-unprocessed.smi:408-2

> <Gold.Version>
5.8.1

> <Gold.Id.Protein>
6NUR|6NUR_protein|mol2

> <Gold.PLP.Fitness>
43.4278

> <Gold.PLP.PLP>
-35.4402

> <Gold.PLP.part.hbond>
-2.0000

> <Gold.PLP.part.metal>
0.0000

> <Gold.PLP.part.buried>
-4.3404

> <Gold.PLP.part.nonpolar>
-28.4966

> <Gold.PLP.part.repulsive>
0.4394

> <Gold.PLP.ligand.clash>
0.0000

> <Gold.PLP.ligand.torsion>
1.2333

> <Gold.PLP.Chemscore.Hbond>
1.9920

> <Gold.PLP.Chemscore.CHOScore>
1.4533

> <Gold.PLP.Chemscore.Metal>
0.0000

> <Gold.Chemscore.Hbonds>
donor molecule, donor type, donor heavy atom, donor atom, acceptor molecule, acceptor atom, score
      L1  H     6    32       P1  8028  0.82
      P1  H  7989  7998       L1     8  0.99
      L1  C    11    35       P1  7948  0.39
      L1  C    11    35       P1  7957  1.00

> <Gold.PLP.Chemscore.Internal.Correction>
0.1184

> <Gold.Rescore>
     Score         DG    S(hbond)    S(metal)    S(lipo)     H(rot)  DE(clash)    DE(int)     intcor
     14.28     -16.60       1.69        0.00      88.88       1.92       0.14       2.17       ----

> <Gold.Chemscore.Fitness>
14.2821

> <Gold.Chemscore.DG>
-16.5975

> <Gold.Chemscore.ZeroCoef>
-5.4800

> <Gold.Chemscore.Hbond>
1.6867

> <Gold.Chemscore.Metal>
0.0000

> <Gold.Chemscore.Lipo>
88.8790

> <Gold.Chemscore.Internal_Hbond>
0.0000

> <Gold.Chemscore.DEClash>
0.1411

> <Gold.Chemscore.DEInternal>
2.1743

> <Gold.Chemscore.Rot>
1.9198

> <Gold.Chemscore.Internal.Correction>
   9.000000E+99

> <Gold.Chemscore.Hbonds>
donor molecule, donor type, donor heavy atom, donor atom, acceptor molecule, acceptor atom, score
      L1  H     6    32       P1  8028  0.81
      P1  H  7989  7998       L1     8  0.66

> <Gold.Chemscore.Hbond.Weighted>
-5.6335

> <Gold.Chemscore.Metal.Weighted>
-0.0000

> <Gold.Chemscore.Lipo.Weighted>
-10.3988

> <Gold.Chemscore.Internal_Hbond.Weighted>
0.0000

> <Gold.Chemscore.DEClash.Weighted>
0.1411

> <Gold.Chemscore.DEInternal.Weighted>
2.1743

> <Gold.Chemscore.Rot.Weighted>
4.9148

> <Gold.Chemscore.Internal.Correction.Weighted>
   9.000000E+99

> <Gold.Protein.RotatedTorsions>
[ 6907 6896 6895 6894 ] final  -90.60 input  -60.11 | X-H torsion
[ 7974 7965 7964 7962 ] final -108.88 input  175.53 | X-H torsion
[ 8008 7997 7996 7995 ] final -156.67 input   59.86 | X-H torsion
[ 10167 10162 10161 10158 ] final   80.06 input  -65.29 | X-H torsion
[ 10718 10713 10712 10709 ] final  175.85 input   66.30 | X-H torsion
[ 10763 10752 10751 10750 ] final -176.09 input  -60.55 | X-H torsion
[ 11005 11000 10999 10996 ] final  179.25 input  -57.11 | X-H torsion

> <Gold.Protein.ActiveResidues>
 VAL166  LYS551  ARG553  GLY616  TRP617  ASP618  TYR619  PRO620  LYS621  CYS622 
 ASP623  PHE694  ASN695  SER759  ASP760  ASP761  ALA762  ILE779  LEU786  VAL792 
 PHE793  MET794  SER795  GLU796  ALA797  LYS798  CYS799  TRP800  GLU811  SER814 

> <Gold.Protein.RotatedAtoms>
  150.6883  134.2406  159.4470 H   0  0  0  0  0  0  0  0  0  0  0  0  # atno 6907 bound_to 6896
  152.0351  134.9742  160.0582 H   0  0  0  0  0  0  0  0  0  0  0  0  # atno 6908 bound_to 6896
  152.1266  133.4349  159.4738 H   0  0  0  0  0  0  0  0  0  0  0  0  # atno 6909 bound_to 6896
  145.1874  140.8999  143.3445 H   0  0  0  0  0  0  0  0  0  0  0  0  # atno 7974 bound_to 7965
  155.7207  140.0789  157.2332 H   0  0  0  0  0  0  0  0  0  0  0  0  # atno 8008 bound_to 7997
  154.4045  140.1613  156.2453 H   0  0  0  0  0  0  0  0  0  0  0  0  # atno 8009 bound_to 7997
  155.9199  140.3398  155.6167 H   0  0  0  0  0  0  0  0  0  0  0  0  # atno 8010 bound_to 7997
  139.9537  144.6008  150.8136 H   0  0  0  0  0  0  0  0  0  0  0  0  # atno 10167 bound_to 10162
  156.9287  130.9964  151.2991 H   0  0  0  0  0  0  0  0  0  0  0  0  # atno 10718 bound_to 10713
  154.5765  135.2832  155.0775 H   0  0  0  0  0  0  0  0  0  0  0  0  # atno 10763 bound_to 10752
  154.2128  135.6405  153.5124 H   0  0  0  0  0  0  0  0  0  0  0  0  # atno 10764 bound_to 10752
  153.0074  135.5496  154.6405 H   0  0  0  0  0  0  0  0  0  0  0  0  # atno 10765 bound_to 10752
  140.4041  134.6751  157.4578 H   0  0  0  0  0  0  0  0  0  0  0  0  # atno 11005 bound_to 11000
  145.0076  139.3540  143.6136 LP  0  0  0  0  0  0  0  0  0  0  0  0  # atno 17320 bound_to 7965
  146.3442  139.9324  142.8752 LP  0  0  0  0  0  0  0  0  0  0  0  0  # atno 17321 bound_to 7965
  140.7575  143.3087  151.2898 LP  0  0  0  0  0  0  0  0  0  0  0  0  # atno 17342 bound_to 10162
  139.6608  144.0193  152.2691 LP  0  0  0  0  0  0  0  0  0  0  0  0  # atno 17343 bound_to 10162
  157.5861  130.8410  149.8591 LP  0  0  0  0  0  0  0  0  0  0  0  0  # atno 17370 bound_to 10713
  156.0457  130.3728  150.1324 LP  0  0  0  0  0  0  0  0  0  0  0  0  # atno 17371 bound_to 10713
  140.0315  134.6400  155.9101 LP  0  0  0  0  0  0  0  0  0  0  0  0  # atno 17394 bound_to 11000
  141.1846  133.6553  156.5162 LP  0  0  0  0  0  0  0  0  0  0  0  0  # atno 17395 bound_to 11000

$$$$
