#       Name:                AV-unprocessed.smi:467
#       Creating user name   scv26
#       Creation time:       Thu Mar 26 23:06:04 2020


#       File generated by GOLD software.
#

@<TRIPOS>MOLECULE
AV-unprocessed.smi:467
    50    52     1
SMALL
NO_CHARGES


@<TRIPOS>ATOM
      1 ****        -4.1724   3.7783   2.8219 C.3            1 S1                 0.0000
      2 ****        -3.4301   2.9319   1.8017 C.ar           1 S1                 0.0000
      3 ****        -3.1001   3.5122   0.5562 C.ar           1 S1                 0.0000
      4 ****        -2.4183   2.7143  -0.3548 C.ar           1 S1                 0.0000
      5 ****        -1.9564   2.9902  -1.6432 N.pl3          1 S1                 1.0000
      6 ****        -1.3385   1.8880  -2.1500 C.2            1 S1                 0.0000
      7 ****        -1.3982   0.9109  -1.2043 N.pl3          1 S1                 0.0000
      8 ****        -0.8807  -0.4650  -1.2470 C.3            1 S1                 0.0000
      9 ****         0.6187  -0.5494  -0.8996 C.3            1 S1                 0.0000
     10 ****         0.8310  -0.0644   0.4127 O.3            1 S1                 0.0000
     11 ****         1.1472  -1.9952  -0.9850 C.3            1 S1                 0.0000
     12 ****         2.6224  -2.0737  -0.8264 N.4            1 S1                 1.0000
     13 ****         3.0715  -3.3985  -0.3357 C.3            1 S1                 0.0000
     14 ****         4.5969  -3.4122  -0.1364 C.3            1 S1                 0.0000
     15 ****         5.2414  -3.0660  -1.3558 O.3            1 S1                 0.0000
     16 ****         4.8883  -1.7592  -1.7912 C.3            1 S1                 0.0000
     17 ****         3.3733  -1.6935  -2.0491 C.3            1 S1                 0.0000
     18 ****        -2.0657   1.3812  -0.0660 C.ar           1 S1                 0.0000
     19 ****        -2.3861   0.7938   1.1562 C.ar           1 S1                 0.0000
     20 ****        -3.0786   1.5894   2.0971 C.ar           1 S1                 0.0000
     21 ****        -3.4390   0.9751   3.4392 C.3            1 S1                 0.0000
     22 ****        -4.3215   4.7969   2.4625 H              1 S1                 0.0000
     23 ****        -3.6126   3.8345   3.7558 H              1 S1                 0.0000
     24 ****        -5.1538   3.3517   3.0304 H              1 S1                 0.0000
     25 ****        -3.3653   4.5334   0.3240 H              1 S1                 0.0000
     26 ****        -0.8822   1.8053  -3.1260 H              1 S1                 0.0000
     27 ****        -1.4790  -1.1000  -0.5932 H              1 S1                 0.0000
     28 ****        -1.0452  -0.8334  -2.2606 H              1 S1                 0.0000
     29 ****         1.1651   0.0946  -1.5881 H              1 S1                 0.0000
     30 ****         0.3226  -0.5862   1.0150 H              1 S1                 0.0000
     31 ****         0.6597  -2.5890  -0.2097 H              1 S1                 0.0000
     32 ****         0.8657  -2.4515  -1.9354 H              1 S1                 0.0000
     33 ****         2.5786  -3.6303   0.6093 H              1 S1                 0.0000
     34 ****         2.7799  -4.1715  -1.0488 H              1 S1                 0.0000
     35 ****         4.8935  -2.7217   0.6550 H              1 S1                 0.0000
     36 ****         4.9276  -4.4056   0.1677 H              1 S1                 0.0000
     37 ****         5.1899  -1.0196  -1.0476 H              1 S1                 0.0000
     38 ****         5.4356  -1.5323  -2.7063 H              1 S1                 0.0000
     39 ****         3.1078  -2.3655  -2.8668 H              1 S1                 0.0000
     40 ****         3.1067  -0.6859  -2.3659 H              1 S1                 0.0000
     41 ****        -2.1182  -0.2262   1.3868 H              1 S1                 0.0000
     42 ****        -3.1574  -0.0774   3.4853 H              1 S1                 0.0000
     43 ****        -4.5131   1.0389   3.6156 H              1 S1                 0.0000
     44 ****        -2.9231   1.4946   4.2474 H              1 S1                 0.0000
     45 ****         2.8684  -1.4081  -0.1070 H              1 S1                 0.0000
     46 ****        -2.0542   3.8656  -2.1418 H              1 S1                 0.0000
     47 ****         0.5421   0.8913   0.4690 LP             1 S1                 0.0000
     48 ****         1.8014  -0.1335   0.6440 LP             1 S1                 0.0000
     49 ****         4.9752  -3.7241  -2.0600 LP             1 S1                 0.0000
     50 ****         6.2314  -3.1049  -1.2203 LP             1 S1                 0.0000
@<TRIPOS>BOND
    1    1    2 1     
    2    1   22 1     
    3    1   23 1     
    4    1   24 1     
    5    2   20 ar    
    6    2    3 ar    
    7    3    4 ar    
    8    3   25 1     
    9    4   18 ar    
   10    4    5 1     
   11    5    6 2     
   12    5   46 1     
   13    6    7 1     
   14    6   26 1     
   15    7    8 1     
   16    7   18 1     
   17    8    9 1     
   18    8   27 1     
   19    8   28 1     
   20    9   10 1     
   21    9   11 1     
   22    9   29 1     
   23   10   30 1     
   24   11   12 1     
   25   11   31 1     
   26   11   32 1     
   27   12   17 1     
   28   12   13 1     
   29   12   45 1     
   30   13   14 1     
   31   13   33 1     
   32   13   34 1     
   33   14   15 1     
   34   14   35 1     
   35   14   36 1     
   36   15   16 1     
   37   16   17 1     
   38   16   37 1     
   39   16   38 1     
   40   17   39 1     
   41   17   40 1     
   42   18   19 ar    
   43   19   20 ar    
   44   19   41 1     
   45   20   21 1     
   46   21   42 1     
   47   21   43 1     
   48   21   44 1     
   49   10   47 1     
   50   10   48 1     
   51   15   49 1     
   52   15   50 1     
@<TRIPOS>SUBSTRUCTURE
      1 S1             1
@<TRIPOS>SET
LONE_PAIRS      STATIC     ATOMS    <user>   **** ""
4 47 48 49 50
DONOR_HYDROGENS      STATIC     ATOMS    <user>   **** ""
3 46 30 45
ATOM$BLUE        STATIC     ATOMS    COLORGROUP SYSTEM
4 47 48 49 50
ATOM$RED        STATIC     ATOMS    COLORGROUP SYSTEM
3 46 30 45
