#       Name:                AV-unprocessed.smi:1255
#       Creating user name   scv26
#       Creation time:       Fri Mar 27 04:40:10 2020


#       File generated by GOLD software.
#

@<TRIPOS>MOLECULE
AV-unprocessed.smi:1255
    48    49     1
SMALL
NO_CHARGES


@<TRIPOS>ATOM
      1 ****        -4.6941  -1.9378   0.8489 C.3            1 S1                 0.0000
      2 ****        -4.1048  -1.3486  -0.4438 C.3            1 S1                 0.0000
      3 ****        -4.5451  -2.1813  -1.5625 N.am           1 S1                 0.0000
      4 ****        -4.5681  -1.7950  -2.8465 C.2            1 S1                 0.0000
      5 ****        -4.9851  -2.7650  -3.6608 N.am           1 S1                 0.0000
      6 ****        -4.2427  -0.6782  -3.2448 O.2            1 S1                 0.0000
      7 ****        -2.5717  -1.3711  -0.3224 C.2            1 S1                 0.0000
      8 ****        -1.9559  -2.4234  -0.4973 O.2            1 S1                 0.0000
      9 ****        -1.9976  -0.1915  -0.0227 N.am           1 S1                 0.0000
     10 ****        -0.6195   0.1047   0.1577 C.ar           1 S1                 0.0000
     11 ****         0.3623  -0.8493   0.5118 C.ar           1 S1                 0.0000
     12 ****         1.6947  -0.4268   0.6806 C.ar           1 S1                 0.0000
     13 ****         2.0170   0.9393   0.5023 C.ar           1 S1                 0.0000
     14 ****         3.3475   1.3830   0.6658 N.3            1 S1                 0.0000
     15 ****         3.9941   1.0082   1.9211 C.3            1 S1                 0.0000
     16 ****         5.5085   1.2679   1.8415 C.3            1 S1                 0.0000
     17 ****         5.7488   2.6232   1.4766 O.3            1 S1                 0.0000
     18 ****         5.2045   2.9317   0.1979 C.3            1 S1                 0.0000
     19 ****         3.6795   2.7366   0.2241 C.3            1 S1                 0.0000
     20 ****         1.0712   1.8522   0.1707 N.ar           1 S1                 0.0000
     21 ****        -0.2049   1.4434   0.0112 C.ar           1 S1                 0.0000
     22 ****        -4.4010  -1.3517   1.7210 H              1 S1                 0.0000
     23 ****        -4.3681  -2.9660   1.0139 H              1 S1                 0.0000
     24 ****        -5.7841  -1.9406   0.8132 H              1 S1                 0.0000
     25 ****        -4.4626  -0.3254  -0.5765 H              1 S1                 0.0000
     26 ****        -4.8271  -3.1251  -1.3420 H              1 S1                 0.0000
     27 ****        -5.0539  -2.6010  -4.6544 H              1 S1                 0.0000
     28 ****        -5.2373  -3.6634  -3.2748 H              1 S1                 0.0000
     29 ****        -2.6194   0.6033   0.0140 H              1 S1                 0.0000
     30 ****         0.1227  -1.8894   0.6680 H              1 S1                 0.0000
     31 ****         2.4507  -1.1552   0.9328 H              1 S1                 0.0000
     32 ****         3.5575   1.5959   2.7298 H              1 S1                 0.0000
     33 ****         3.8271  -0.0397   2.1660 H              1 S1                 0.0000
     34 ****         5.9731   1.0736   2.8082 H              1 S1                 0.0000
     35 ****         5.9801   0.5970   1.1215 H              1 S1                 0.0000
     36 ****         5.4461   3.9649  -0.0521 H              1 S1                 0.0000
     37 ****         5.6639   2.3031  -0.5668 H              1 S1                 0.0000
     38 ****         3.2755   2.9191  -0.7726 H              1 S1                 0.0000
     39 ****         3.2220   3.4601   0.9005 H              1 S1                 0.0000
     40 ****        -0.9175   2.2133  -0.2471 H              1 S1                 0.0000
     41 ****        -3.9344   0.0149  -2.5931 LP             1 S1                 0.0000
     42 ****        -4.2863  -0.4630  -4.2204 LP             1 S1                 0.0000
     43 ****        -2.4527  -3.2627  -0.7181 LP             1 S1                 0.0000
     44 ****        -0.9591  -2.4385  -0.4184 LP             1 S1                 0.0000
     45 ****         3.7812   0.8182  -0.0363 LP             1 S1                 0.0000
     46 ****         6.7358   2.7823   1.4551 LP             1 S1                 0.0000
     47 ****         5.3296   3.2213   2.1596 LP             1 S1                 0.0000
     48 ****         1.3155   2.8139   0.0462 LP             1 S1                 0.0000
@<TRIPOS>BOND
    1    1    2 1     
    2    1   22 1     
    3    1   23 1     
    4    1   24 1     
    5    2    3 1     
    6    2    7 1     
    7    2   25 1     
    8    3    4 am    
    9    3   26 1     
   10    4    5 am    
   11    4    6 2     
   12    5   27 1     
   13    5   28 1     
   14    7    8 2     
   15    7    9 am    
   16    9   10 1     
   17    9   29 1     
   18   10   21 ar    
   19   10   11 ar    
   20   11   12 ar    
   21   11   30 1     
   22   12   13 ar    
   23   12   31 1     
   24   13   14 1     
   25   13   20 ar    
   26   14   19 1     
   27   14   15 1     
   28   15   16 1     
   29   15   32 1     
   30   15   33 1     
   31   16   17 1     
   32   16   34 1     
   33   16   35 1     
   34   17   18 1     
   35   18   19 1     
   36   18   36 1     
   37   18   37 1     
   38   19   38 1     
   39   19   39 1     
   40   20   21 ar    
   41   21   40 1     
   42    6   41 1     
   43    6   42 1     
   44    8   43 1     
   45    8   44 1     
   46   14   45 1     
   47   17   46 1     
   48   17   47 1     
   49   20   48 1     
@<TRIPOS>SUBSTRUCTURE
      1 S1             1
@<TRIPOS>SET
LONE_PAIRS      STATIC     ATOMS    <user>   **** ""
8 41 42 43 44 45 46 47 48
DONOR_HYDROGENS      STATIC     ATOMS    <user>   **** ""
4 26 27 28 29
ATOM$BLUE        STATIC     ATOMS    COLORGROUP SYSTEM
8 41 42 43 44 45 46 47 48
ATOM$RED        STATIC     ATOMS    COLORGROUP SYSTEM
4 26 27 28 29
