#       Name:                AV-unprocessed.smi:170
#       Creating user name   scv26
#       Creation time:       Thu Mar 26 19:16:15 2020


#       File generated by GOLD software.
#

@<TRIPOS>MOLECULE
AV-unprocessed.smi:170
    67    71     1
SMALL
NO_CHARGES


@<TRIPOS>ATOM
      1 ****        -3.0633   1.1278   0.5420 O.3            1 S1                 0.0000
      2 ****        -3.5013  -0.2003   0.3229 C.3            1 S1                 0.0000
      3 ****        -2.7913  -1.1740   1.2836 C.3            1 S1                 0.0000
      4 ****        -1.3487  -1.1523   1.1237 N.pl3          1 S1                 0.0000
      5 ****        -0.4360  -0.5161   1.9339 C.2            1 S1                 0.0000
      6 ****         0.8117  -0.6471   1.5740 N.2            1 S1                 0.0000
      7 ****         0.7538  -1.4298   0.4266 C.ar           1 S1                 0.0000
      8 ****         1.7238  -1.9493  -0.4777 C.ar           1 S1                 0.0000
      9 ****         3.0580  -1.7507  -0.3835 N.3            1 S1                 0.0000
     10 ****         3.6383  -2.6277   0.6266 C.3            1 S1                 0.0000
     11 ****         5.1691  -2.5336   0.5951 C.3            1 S1                 0.0000
     12 ****         5.5514  -1.1781   0.7844 O.3            1 S1                 0.0000
     13 ****         5.0609  -0.3364  -0.2534 C.3            1 S1                 0.0000
     14 ****         3.5143  -0.3581  -0.2857 C.3            1 S1                 0.0000
     15 ****         2.9548   0.5275  -1.4297 C.3            1 S1                 0.0000
     16 ****         3.3429   2.0009  -1.3262 C.3            1 S1                 0.0000
     17 ****         2.9359   2.8137  -0.0874 C.3            1 S1                 0.0000
     18 ****         2.7568   4.0285  -1.0017 C.3            1 S1                 0.0000
     19 ****         2.5896   3.0453  -2.1636 C.3            1 S1                 0.0000
     20 ****         1.2872  -2.7096  -1.5115 N.ar           1 S1                 0.0000
     21 ****        -0.0203  -2.9402  -1.6659 C.ar           1 S1                 0.0000
     22 ****        -1.0381  -2.5180  -0.9122 N.ar           1 S1                 0.0000
     23 ****        -0.5989  -1.7604   0.1336 C.ar           1 S1                 0.0000
     24 ****        -5.0374  -0.2808   0.4210 C.3            1 S1                 0.0000
     25 ****        -5.8290   0.7028  -0.4576 C.3            1 S1                 0.0000
     26 ****        -6.8465   1.3088   0.4972 C.3            1 S1                 0.0000
     27 ****        -6.8365   0.3514   1.6837 C.3            1 S1                 0.0000
     28 ****        -5.4807  -0.0556   1.7540 O.3            1 S1                 0.0000
     29 ****        -3.3527   1.3981   1.4001 H              1 S1                 0.0000
     30 ****        -3.2190  -0.4558  -0.6993 H              1 S1                 0.0000
     31 ****        -3.0301  -0.9358   2.3210 H              1 S1                 0.0000
     32 ****        -3.1374  -2.1938   1.1102 H              1 S1                 0.0000
     33 ****        -0.7271   0.0536   2.8045 H              1 S1                 0.0000
     34 ****         3.2700  -2.3446   1.6139 H              1 S1                 0.0000
     35 ****         3.3291  -3.6592   0.4504 H              1 S1                 0.0000
     36 ****         5.6001  -3.1406   1.3913 H              1 S1                 0.0000
     37 ****         5.5665  -2.9115  -0.3483 H              1 S1                 0.0000
     38 ****         5.4302   0.6699  -0.0591 H              1 S1                 0.0000
     39 ****         5.4768  -0.6487  -1.2129 H              1 S1                 0.0000
     40 ****         3.1649   0.0445   0.6650 H              1 S1                 0.0000
     41 ****         3.2856   0.1280  -2.3891 H              1 S1                 0.0000
     42 ****         1.8667   0.4656  -1.4487 H              1 S1                 0.0000
     43 ****         4.4121   2.1377  -1.4998 H              1 S1                 0.0000
     44 ****         1.9958   2.4742   0.3517 H              1 S1                 0.0000
     45 ****         3.7168   2.9176   0.6664 H              1 S1                 0.0000
     46 ****         1.8785   4.6380  -0.7873 H              1 S1                 0.0000
     47 ****         3.6617   4.6328  -1.0851 H              1 S1                 0.0000
     48 ****         3.0909   3.3381  -3.0867 H              1 S1                 0.0000
     49 ****         1.5462   2.7784  -2.3403 H              1 S1                 0.0000
     50 ****        -0.2899  -3.5490  -2.5163 H              1 S1                 0.0000
     51 ****        -5.3484  -1.2937   0.1578 H              1 S1                 0.0000
     52 ****        -5.2083   1.4780  -0.9080 H              1 S1                 0.0000
     53 ****        -6.3229   0.1680  -1.2696 H              1 S1                 0.0000
     54 ****        -6.5068   2.2940   0.8190 H              1 S1                 0.0000
     55 ****        -7.8359   1.4210   0.0531 H              1 S1                 0.0000
     56 ****        -7.1650   0.8232   2.6099 H              1 S1                 0.0000
     57 ****        -7.4704  -0.5159   1.4926 H              1 S1                 0.0000
     58 ****        -3.4544   1.7317  -0.1525 LP             1 S1                 0.0000
     59 ****        -2.0652   1.1669   0.4939 LP             1 S1                 0.0000
     60 ****         1.6232  -0.2708   2.0210 LP             1 S1                 0.0000
     61 ****         3.4191  -2.0103  -1.2792 LP             1 S1                 0.0000
     62 ****         6.5498  -1.1233   0.7999 LP             1 S1                 0.0000
     63 ****         5.1864  -0.8587   1.6589 LP             1 S1                 0.0000
     64 ****         1.9433  -3.0980  -2.1587 LP             1 S1                 0.0000
     65 ****        -1.9988  -2.7299  -1.0913 LP             1 S1                 0.0000
     66 ****        -4.9298   0.6612   2.1814 LP             1 S1                 0.0000
     67 ****        -5.4034  -0.8980   2.2873 LP             1 S1                 0.0000
@<TRIPOS>BOND
    1    1    2 1     
    2    1   29 1     
    3    2    3 1     
    4    2   24 1     
    5    2   30 1     
    6    3    4 1     
    7    3   31 1     
    8    3   32 1     
    9    4   23 1     
   10    4    5 1     
   11    5    6 2     
   12    5   33 1     
   13    6    7 1     
   14    7   23 ar    
   15    7    8 ar    
   16    8    9 1     
   17    8   20 ar    
   18    9   14 1     
   19    9   10 1     
   20   10   11 1     
   21   10   34 1     
   22   10   35 1     
   23   11   12 1     
   24   11   36 1     
   25   11   37 1     
   26   12   13 1     
   27   13   14 1     
   28   13   38 1     
   29   13   39 1     
   30   14   15 1     
   31   14   40 1     
   32   15   16 1     
   33   15   41 1     
   34   15   42 1     
   35   16   19 1     
   36   16   17 1     
   37   16   43 1     
   38   17   18 1     
   39   17   44 1     
   40   17   45 1     
   41   18   19 1     
   42   18   46 1     
   43   18   47 1     
   44   19   48 1     
   45   19   49 1     
   46   20   21 ar    
   47   21   22 ar    
   48   21   50 1     
   49   22   23 ar    
   50   24   28 1     
   51   24   25 1     
   52   24   51 1     
   53   25   26 1     
   54   25   52 1     
   55   25   53 1     
   56   26   27 1     
   57   26   54 1     
   58   26   55 1     
   59   27   28 1     
   60   27   56 1     
   61   27   57 1     
   62    1   58 1     
   63    1   59 1     
   64    6   60 1     
   65    9   61 1     
   66   12   62 1     
   67   12   63 1     
   68   20   64 1     
   69   22   65 1     
   70   28   66 1     
   71   28   67 1     
@<TRIPOS>SUBSTRUCTURE
      1 S1             1
@<TRIPOS>SET
LONE_PAIRS      STATIC     ATOMS    <user>   **** ""
10 58 59 60 61 62 63 64 65 66 67
DONOR_HYDROGENS      STATIC     ATOMS    <user>   **** ""
1 29
ATOM$BLUE        STATIC     ATOMS    COLORGROUP SYSTEM
10 58 59 60 61 62 63 64 65 66 67
ATOM$RED        STATIC     ATOMS    COLORGROUP SYSTEM
1 29
