AV-unprocessed.smi:1043|AV-procd|sdf|4540|dock3
  -GOLD-   22720 2563D 1   1.00000     0.00000
 Structure written by MMmdl.
 35 36  0  0  0  0  0  0  0  0  1 V2000
  146.2343  134.5622  155.2213 C   0  0  0  0  0  0  0  0  0  0  0  0
  146.0916  135.0276  153.7538 C   0  0  0  0  0  0  0  0  0  0  0  0
  146.9717  136.1838  153.5215 N   0  0  0  0  0  0  0  0  0  0  0  0
  146.8753  137.4273  154.0228 C   0  0  0  0  0  0  0  0  0  0  0  0
  145.9859  137.7945  154.7906 O   0  0  0  0  0  0  0  0  0  0  0  0
  147.8741  138.2043  153.5686 N   0  0  0  0  0  0  0  0  0  0  0  0
  148.1235  139.5738  153.8492 C   0  0  0  0  0  0  0  0  0  0  0  0
  149.3503  140.1175  153.8776 N   0  0  0  0  0  0  0  0  0  0  0  0
  149.3111  141.4730  154.1779 N   0  0  0  0  0  0  0  0  0  0  0  0
  148.0582  141.8975  154.3646 C   0  0  0  0  0  0  0  0  0  0  0  0
  146.8035  140.6826  154.1921 S   0  0  0  0  0  0  0  0  0  0  0  0
  146.5973  133.8741  152.8540 C   0  0  0  0  0  0  0  0  0  0  0  0
  146.4492  134.0738  151.3326 C   0  0  0  0  0  0  0  0  0  0  0  0
  145.0107  133.8498  150.8404 C   0  0  0  0  0  0  0  0  0  0  0  0
  144.0801  135.0715  150.9258 C   0  0  0  0  0  0  0  0  0  0  0  0
  144.3051  136.0309  152.1068 C   0  0  0  0  0  0  0  0  0  0  0  0
  144.5982  135.3614  153.4663 C   0  0  0  0  0  0  0  0  0  0  0  0
  145.6594  133.6537  155.4042 H   0  0  0  0  0  0  0  0  0  0  0  0
  145.8758  135.3092  155.9293 H   0  0  0  0  0  0  0  0  0  0  0  0
  147.2736  134.3464  155.4719 H   0  0  0  0  0  0  0  0  0  0  0  0
  147.7456  136.0112  152.8973 H   0  0  0  0  0  0  0  0  0  0  0  0
  148.5352  137.7633  152.9467 H   0  0  0  0  0  0  0  0  0  0  0  0
  147.8715  142.9333  154.6061 H   0  0  0  0  0  0  0  0  0  0  0  0
  147.6543  133.7071  153.0689 H   0  0  0  0  0  0  0  0  0  0  0  0
  146.1037  132.9431  153.1360 H   0  0  0  0  0  0  0  0  0  0  0  0
  146.8322  135.0422  151.0099 H   0  0  0  0  0  0  0  0  0  0  0  0
  147.0824  133.3316  150.8454 H   0  0  0  0  0  0  0  0  0  0  0  0
  145.0381  133.5215  149.8008 H   0  0  0  0  0  0  0  0  0  0  0  0
  144.5672  133.0180  151.3889 H   0  0  0  0  0  0  0  0  0  0  0  0
  144.1659  135.6486  150.0043 H   0  0  0  0  0  0  0  0  0  0  0  0
  143.0507  134.7120  150.9475 H   0  0  0  0  0  0  0  0  0  0  0  0
  145.0869  136.7438  151.8488 H   0  0  0  0  0  0  0  0  0  0  0  0
  143.4043  136.6371  152.2092 H   0  0  0  0  0  0  0  0  0  0  0  0
  143.9847  134.4660  153.5746 H   0  0  0  0  0  0  0  0  0  0  0  0
  144.2398  136.0368  154.2436 H   0  0  0  0  0  0  0  0  0  0  0  0
  1  2  1  0  0  0  0
  1 18  1  0  0  0  0
  1 19  1  0  0  0  0
  1 20  1  0  0  0  0
  2 17  1  0  0  0  0
  2  3  1  0  0  0  0
  2 12  1  0  0  0  0
  3  4  1  0  0  0  0
  3 21  1  0  0  0  0
  4  5  2  0  0  0  0
  4  6  1  0  0  0  0
  6  7  1  0  0  0  0
  6 22  1  0  0  0  0
  7 11  1  0  0  0  0
  7  8  2  0  0  0  0
  8  9  1  0  0  0  0
  9 10  2  0  0  0  0
 10 11  1  0  0  0  0
 10 23  1  0  0  0  0
 12 13  1  0  0  0  0
 12 24  1  0  0  0  0
 12 25  1  0  0  0  0
 13 14  1  0  0  0  0
 13 26  1  0  0  0  0
 13 27  1  0  0  0  0
 14 15  1  0  0  0  0
 14 28  1  0  0  0  0
 14 29  1  0  0  0  0
 15 16  1  0  0  0  0
 15 30  1  0  0  0  0
 15 31  1  0  0  0  0
 16 17  1  0  0  0  0
 16 32  1  0  0  0  0
 16 33  1  0  0  0  0
 17 34  1  0  0  0  0
 17 35  1  0  0  0  0
M  END
> <s_m_source_file>
AV-unprocessed.smi

> <i_m_source_file_index>
1043

> <i_lp_mmshare_version>
43012

> <i_f3d_flags>
0

> <s_epik_input>
W0NIMl0xW0NIMl1bQ0gyXVtDSDJdW0NIMl1bQ0gyXUMxKFtDSDNdKVtOSF1DKD1PKVtOSF1jMm5uW2NIXXMy

> <s_epik_cmdline>
J2VwaWtfcHl0aG9uJywgJy1waCcsICc3LjAnLCAnLXRuJywgJzgnLCAnLW1hJywgJzIwMCcsICctbWV0YWxfYmluZGluZycsICctaW1hZScsICc8aW5maWxlLm1hZT4nLCAnLW9tYWUnLCAnPG91dGZpbGUubWFlPic=

> <r_lp_tautomer_probability>
1

> <r_epik_Ionization_Penalty>
0.000320341

> <r_epik_Ionization_Penalty_Charging>
0

> <r_epik_Ionization_Penalty_Neutral>
0.000320341

> <r_epik_State_Penalty>
-0

> <r_epik_Charging_Adjusted_Penalty>
0

> <i_epik_Tot_Q>
0

> <i_epik_Tot_abs_Q>
0

> <r_epik_Metal_State_Penalty>
0.170162

> <b_epik_Metal_Only>
0

> <s_lp_Force_Field>
OPLS_2005

> <r_lp_Energy>
19.1751

> <b_lp_Chiralities_Consistent>
1

> <s_lp_Variant>
AV-unprocessed.smi:1043-1

> <Gold.Version>
5.8.1

> <Gold.Id.Protein>
6NUR|6NUR_protein|mol2

> <Gold.PLP.Fitness>
31.1270

> <Gold.PLP.PLP>
-20.6898

> <Gold.PLP.part.hbond>
-4.2666

> <Gold.PLP.part.metal>
0.0000

> <Gold.PLP.part.buried>
-2.8413

> <Gold.PLP.part.nonpolar>
-16.1690

> <Gold.PLP.part.repulsive>
3.0660

> <Gold.PLP.ligand.clash>
0.0000

> <Gold.PLP.ligand.torsion>
0.2579

> <Gold.PLP.Chemscore.Hbond>
2.6480

> <Gold.PLP.Chemscore.CHOScore>
1.0000

> <Gold.PLP.Chemscore.Metal>
0.0000

> <Gold.Chemscore.Hbonds>
donor molecule, donor type, donor heavy atom, donor atom, acceptor molecule, acceptor atom, score
      L1  H     3    21       P1  7948  1.00
      L1  H     6    22       P1  7948  0.96
      P1  H  8011  8017       L1     9  0.50
      L1  C    10    23       P1  8028  1.00

> <Gold.PLP.Chemscore.Internal.Correction>
0.0089

> <Gold.Rescore>
     Score         DG    S(hbond)    S(metal)    S(lipo)     H(rot)  DE(clash)    DE(int)     intcor
     13.04     -15.76       2.35        0.00      42.64       1.00       1.67       1.05       ----

> <Gold.Chemscore.Fitness>
13.0405

> <Gold.Chemscore.DG>
-15.7647

> <Gold.Chemscore.ZeroCoef>
-5.4800

> <Gold.Chemscore.Hbond>
2.3520

> <Gold.Chemscore.Metal>
0.0000

> <Gold.Chemscore.Lipo>
42.6423

> <Gold.Chemscore.Internal_Hbond>
0.0000

> <Gold.Chemscore.DEClash>
1.6711

> <Gold.Chemscore.DEInternal>
1.0531

> <Gold.Chemscore.Rot>
1.0000

> <Gold.Chemscore.Internal.Correction>
   9.000000E+99

> <Gold.Chemscore.Hbonds>
donor molecule, donor type, donor heavy atom, donor atom, acceptor molecule, acceptor atom, score
      L1  H     3    21       P1  7948  0.98
      L1  H     6    22       P1  7948  0.92
      P1  H  8011  8017       L1     9  0.07

> <Gold.Chemscore.Hbond.Weighted>
-7.8556

> <Gold.Chemscore.Metal.Weighted>
-0.0000

> <Gold.Chemscore.Lipo.Weighted>
-4.9891

> <Gold.Chemscore.Internal_Hbond.Weighted>
0.0000

> <Gold.Chemscore.DEClash.Weighted>
1.6711

> <Gold.Chemscore.DEInternal.Weighted>
1.0531

> <Gold.Chemscore.Rot.Weighted>
2.5600

> <Gold.Chemscore.Internal.Correction.Weighted>
   9.000000E+99

> <Gold.Protein.RotatedTorsions>
[ 6907 6896 6895 6894 ] final  162.59 input  -60.11 | X-H torsion
[ 7974 7965 7964 7962 ] final  -64.85 input  175.53 | X-H torsion
[ 8008 7997 7996 7995 ] final  -59.30 input   59.86 | X-H torsion
[ 10167 10162 10161 10158 ] final -171.06 input  -65.29 | X-H torsion
[ 10718 10713 10712 10709 ] final -120.69 input   66.30 | X-H torsion
[ 10763 10752 10751 10750 ] final  -46.19 input  -60.55 | X-H torsion
[ 11005 11000 10999 10996 ] final  -15.03 input  -57.11 | X-H torsion

> <Gold.Protein.ActiveResidues>
 VAL166  LYS551  ARG553  GLY616  TRP617  ASP618  TYR619  PRO620  LYS621  CYS622 
 ASP623  PHE694  ASN695  SER759  ASP760  ASP761  ALA762  ILE779  LEU786  VAL792 
 PHE793  MET794  SER795  GLU796  ALA797  LYS798  CYS799  TRP800  GLU811  SER814 

> <Gold.Protein.RotatedAtoms>
  151.9382  133.3630  159.3955 H   0  0  0  0  0  0  0  0  0  0  0  0  # atno 6907 bound_to 6896
  150.7003  134.4467  159.5326 H   0  0  0  0  0  0  0  0  0  0  0  0  # atno 6908 bound_to 6896
  152.2119  134.8493  160.0547 H   0  0  0  0  0  0  0  0  0  0  0  0  # atno 6909 bound_to 6896
  145.7616  140.8859  143.0427 H   0  0  0  0  0  0  0  0  0  0  0  0  # atno 7974 bound_to 7965
  154.4346  140.1065  156.6094 H   0  0  0  0  0  0  0  0  0  0  0  0  # atno 8008 bound_to 7997
  155.5826  140.3491  155.4526 H   0  0  0  0  0  0  0  0  0  0  0  0  # atno 8009 bound_to 7997
  156.0307  140.1260  157.0250 H   0  0  0  0  0  0  0  0  0  0  0  0  # atno 8010 bound_to 7997
  139.5824  144.1393  152.1533 H   0  0  0  0  0  0  0  0  0  0  0  0  # atno 10167 bound_to 10162
  156.1278  130.6372  150.9571 H   0  0  0  0  0  0  0  0  0  0  0  0  # atno 10718 bound_to 10713
  154.0409  135.6644  153.4790 H   0  0  0  0  0  0  0  0  0  0  0  0  # atno 10763 bound_to 10752
  153.0502  135.5089  154.7843 H   0  0  0  0  0  0  0  0  0  0  0  0  # atno 10764 bound_to 10752
  154.6819  135.3046  154.9567 H   0  0  0  0  0  0  0  0  0  0  0  0  # atno 10765 bound_to 10752
  140.7924  133.8277  155.9392 H   0  0  0  0  0  0  0  0  0  0  0  0  # atno 11005 bound_to 11000
  144.6829  139.9730  143.7482 LP  0  0  0  0  0  0  0  0  0  0  0  0  # atno 17320 bound_to 7965
  146.0259  139.3291  143.0785 LP  0  0  0  0  0  0  0  0  0  0  0  0  # atno 17321 bound_to 7965
  140.0949  144.5589  150.7029 LP  0  0  0  0  0  0  0  0  0  0  0  0  # atno 17342 bound_to 10162
  140.7101  143.2498  151.4608 LP  0  0  0  0  0  0  0  0  0  0  0  0  # atno 17343 bound_to 10162
  157.6458  131.0904  150.8156 LP  0  0  0  0  0  0  0  0  0  0  0  0  # atno 17370 bound_to 10713
  156.8244  130.4995  149.5339 LP  0  0  0  0  0  0  0  0  0  0  0  0  # atno 17371 bound_to 10713
  140.9376  134.1942  157.4820 LP  0  0  0  0  0  0  0  0  0  0  0  0  # atno 17394 bound_to 11000
  139.8730  134.9858  156.5299 LP  0  0  0  0  0  0  0  0  0  0  0  0  # atno 17395 bound_to 11000

$$$$
