#       Name:                AV-unprocessed.smi:192
#       Creating user name   scv26
#       Creation time:       Thu Mar 26 19:32:01 2020


#       File generated by GOLD software.
#

@<TRIPOS>MOLECULE
AV-unprocessed.smi:192
    66    68     1
SMALL
NO_CHARGES


@<TRIPOS>ATOM
      1 ****        -2.2677   2.8573   3.9250 C.3            1 S1                 0.0000
      2 ****        -1.8797   1.3919   4.1706 C.3            1 S1                 0.0000
      3 ****        -2.1422   0.4531   2.9694 C.3            1 S1                 0.0000
      4 ****        -3.6541   0.2125   2.7595 C.3            1 S1                 0.0000
      5 ****        -4.0004  -0.4581   1.4216 C.3            1 S1                 0.0000
      6 ****        -1.3927  -0.8918   3.1544 C.3            1 S1                 0.0000
      7 ****         0.0665  -0.7712   3.1509 N.pl3          1 S1                 0.0000
      8 ****         0.8602  -1.8374   3.7586 C.3            1 S1                 0.0000
      9 ****         1.0174  -3.0814   2.8655 C.3            1 S1                 0.0000
     10 ****        -0.2273  -3.8394   2.6652 C.1            1 S1                 0.0000
     11 ****        -1.2059  -4.4361   2.5075 N.1            1 S1                 0.0000
     12 ****         0.6653  -0.1691   2.0949 C.ar           1 S1                 0.0000
     13 ****         1.6966   0.6702   2.3644 N.ar           1 S1                 0.0000
     14 ****         2.3135   1.3168   1.3713 C.ar           1 S1                 0.0000
     15 ****         2.0698   1.2608   0.0608 N.ar           1 S1                 0.0000
     16 ****         1.0495   0.3997  -0.2183 C.ar           1 S1                 0.0000
     17 ****         0.2969  -0.3500   0.7298 C.ar           1 S1                 0.0000
     18 ****        -0.6590  -1.1146   0.0712 N.2            1 S1                 0.0000
     19 ****        -0.4950  -0.8189  -1.1886 C.2            1 S1                 0.0000
     20 ****         0.5277   0.0624  -1.4550 N.pl3          1 S1                 0.0000
     21 ****         0.8925   0.5863  -2.7382 C.3            1 S1                 0.0000
     22 ****         0.7793  -0.2676  -4.0026 C.3            1 S1                 0.0000
     23 ****         1.9952   0.4753  -4.6025 C.3            1 S1                 0.0000
     24 ****         3.0274  -0.3914  -5.3450 C.3            1 S1                 0.0000
     25 ****         2.4500  -1.0873  -6.4304 O.3            1 S1                 0.0000
     26 ****         1.6864   1.7327  -5.4431 C.3            1 S1                 0.0000
     27 ****         0.8892   1.4411  -6.5722 O.3            1 S1                 0.0000
     28 ****         2.3587   0.7807  -3.1319 C.3            1 S1                 0.0000
     29 ****        -1.9860   3.4750   4.7779 H              1 S1                 0.0000
     30 ****        -3.3400   2.9798   3.7782 H              1 S1                 0.0000
     31 ****        -1.7590   3.2569   3.0473 H              1 S1                 0.0000
     32 ****        -0.8181   1.3806   4.4183 H              1 S1                 0.0000
     33 ****        -2.3951   1.0165   5.0554 H              1 S1                 0.0000
     34 ****        -1.7700   0.9500   2.0732 H              1 S1                 0.0000
     35 ****        -4.0542  -0.3808   3.5826 H              1 S1                 0.0000
     36 ****        -4.1873   1.1615   2.7894 H              1 S1                 0.0000
     37 ****        -5.0810  -0.5126   1.2883 H              1 S1                 0.0000
     38 ****        -3.6163  -1.4758   1.3616 H              1 S1                 0.0000
     39 ****        -3.5923   0.1052   0.5819 H              1 S1                 0.0000
     40 ****        -1.7025  -1.3438   4.0973 H              1 S1                 0.0000
     41 ****        -1.6811  -1.6014   2.3830 H              1 S1                 0.0000
     42 ****         1.8466  -1.4468   4.0113 H              1 S1                 0.0000
     43 ****         0.4028  -2.1230   4.7063 H              1 S1                 0.0000
     44 ****         1.4203  -2.8176   1.8876 H              1 S1                 0.0000
     45 ****         1.7308  -3.7672   3.3224 H              1 S1                 0.0000
     46 ****         3.1161   1.9752   1.6692 H              1 S1                 0.0000
     47 ****        -1.1167  -1.2447  -1.9629 H              1 S1                 0.0000
     48 ****         0.3348   1.5175  -2.8507 H              1 S1                 0.0000
     49 ****         0.9818  -1.3237  -3.8140 H              1 S1                 0.0000
     50 ****        -0.1562  -0.1428  -4.5485 H              1 S1                 0.0000
     51 ****         3.8592   0.2102  -5.7128 H              1 S1                 0.0000
     52 ****         3.4613  -1.1360  -4.6770 H              1 S1                 0.0000
     53 ****         3.1248  -1.5916  -6.8581 H              1 S1                 0.0000
     54 ****         1.1538   2.4793  -4.8537 H              1 S1                 0.0000
     55 ****         2.6044   2.2154  -5.7797 H              1 S1                 0.0000
     56 ****         0.7443   2.2416  -7.0528 H              1 S1                 0.0000
     57 ****         2.7442   1.7848  -2.9515 H              1 S1                 0.0000
     58 ****         3.0101   0.0290  -2.6819 H              1 S1                 0.0000
     59 ****        -2.0517  -4.9518   2.3712 LP             1 S1                 0.0000
     60 ****         1.9959   0.8053   3.3090 LP             1 S1                 0.0000
     61 ****         2.5712   1.7835  -0.6288 LP             1 S1                 0.0000
     62 ****        -1.3216  -1.7473   0.4720 LP             1 S1                 0.0000
     63 ****         2.0557  -0.4348  -7.0775 LP             1 S1                 0.0000
     64 ****         1.7334  -1.6990  -6.0955 LP             1 S1                 0.0000
     65 ****         0.0124   1.0618  -6.2769 LP             1 S1                 0.0000
     66 ****         1.3597   0.7785  -7.1550 LP             1 S1                 0.0000
@<TRIPOS>BOND
    1    1    2 1     
    2    1   29 1     
    3    1   30 1     
    4    1   31 1     
    5    2    3 1     
    6    2   32 1     
    7    2   33 1     
    8    3    4 1     
    9    3    6 1     
   10    3   34 1     
   11    4    5 1     
   12    4   35 1     
   13    4   36 1     
   14    5   37 1     
   15    5   38 1     
   16    5   39 1     
   17    6    7 1     
   18    6   40 1     
   19    6   41 1     
   20    7    8 1     
   21    7   12 1     
   22    8    9 1     
   23    8   42 1     
   24    8   43 1     
   25    9   10 1     
   26    9   44 1     
   27    9   45 1     
   28   10   11 3     
   29   12   17 ar    
   30   12   13 ar    
   31   13   14 ar    
   32   14   15 ar    
   33   14   46 1     
   34   15   16 ar    
   35   16   20 1     
   36   16   17 ar    
   37   17   18 1     
   38   18   19 2     
   39   19   20 1     
   40   19   47 1     
   41   20   21 1     
   42   21   28 1     
   43   21   22 1     
   44   21   48 1     
   45   22   23 1     
   46   22   49 1     
   47   22   50 1     
   48   23   24 1     
   49   23   26 1     
   50   23   28 1     
   51   24   25 1     
   52   24   51 1     
   53   24   52 1     
   54   25   53 1     
   55   26   27 1     
   56   26   54 1     
   57   26   55 1     
   58   27   56 1     
   59   28   57 1     
   60   28   58 1     
   61   11   59 1     
   62   13   60 1     
   63   15   61 1     
   64   18   62 1     
   65   25   63 1     
   66   25   64 1     
   67   27   65 1     
   68   27   66 1     
@<TRIPOS>SUBSTRUCTURE
      1 S1             1
@<TRIPOS>SET
LONE_PAIRS      STATIC     ATOMS    <user>   **** ""
8 59 60 61 62 63 64 65 66
DONOR_HYDROGENS      STATIC     ATOMS    <user>   **** ""
2 53 56
ATOM$BLUE        STATIC     ATOMS    COLORGROUP SYSTEM
8 59 60 61 62 63 64 65 66
ATOM$RED        STATIC     ATOMS    COLORGROUP SYSTEM
2 53 56
