AV-unprocessed.smi:1464|AV-procd|sdf|5950|dock6
  -GOLD-   22720 6 33D 1   1.00000     0.00000
 Structure written by MMmdl.
 41 42  0  0  0  0  0  0  0  0  1 V2000
  146.4780  133.1926  150.4998 C   0  0  0  0  0  0  0  0  0  0  0  0
  146.2931  134.4010  151.4350 C   0  0  1  0  0  0  0  0  0  0  0  0
  144.9660  135.1158  151.1060 C   0  0  0  0  0  0  0  0  0  0  0  0
  144.7305  136.3406  151.9998 C   0  0  0  0  0  0  0  0  0  0  0  0
  144.7716  135.9518  153.4842 C   0  0  0  0  0  0  0  0  0  0  0  0
  146.0894  135.2425  153.8539 C   0  0  2  0  0  0  0  0  0  0  0  0
  147.2134  136.1790  153.8177 N   0  0  0  0  0  0  0  0  0  0  0  0
  147.6402  136.9295  154.8443 C   0  0  0  0  0  0  0  0  0  0  0  0
  147.1000  136.9316  155.9513 O   0  0  0  0  0  0  0  0  0  0  0  0
  148.8507  137.8304  154.5605 C   0  0  0  0  0  0  0  0  0  0  0  0
  148.5112  139.2602  154.5284 N   0  0  0  0  0  0  0  0  0  0  0  0
  147.1492  139.5210  154.5333 N   0  0  0  0  0  0  0  0  0  0  0  0
  146.7266  140.7402  154.5205 C   0  0  0  0  0  0  0  0  0  0  0  0
  145.3701  140.9534  154.5300 O   0  0  0  0  0  0  0  0  0  0  0  0
  147.6506  141.8529  154.4962 C   0  0  0  0  0  0  0  0  0  0  0  0
  148.9753  141.5883  154.4864 C   0  0  0  0  0  0  0  0  0  0  0  0
  149.4890  140.2174  154.5010 C   0  0  0  0  0  0  0  0  0  0  0  0
  150.6899  139.9471  154.4902 O   0  0  0  0  0  0  0  0  0  0  0  0
  146.3525  134.0169  152.9404 C   0  0  2  0  0  0  0  0  0  0  0  0
  147.6616  133.3011  153.3314 C   0  0  0  0  0  0  0  0  0  0  0  0
  145.0449  140.5340  153.7481 H   0  0  0  0  0  0  0  0  0  0  0  0
  145.7386  132.4172  150.7024 H   0  0  0  0  0  0  0  0  0  0  0  0
  147.4679  132.7490  150.6020 H   0  0  0  0  0  0  0  0  0  0  0  0
  146.3707  133.4871  149.4554 H   0  0  0  0  0  0  0  0  0  0  0  0
  147.1054  135.0987  151.2268 H   0  0  0  0  0  0  0  0  0  0  0  0
  144.9595  135.4267  150.0607 H   0  0  0  0  0  0  0  0  0  0  0  0
  144.1346  134.4191  151.2233 H   0  0  0  0  0  0  0  0  0  0  0  0
  145.4859  137.0995  151.7924 H   0  0  0  0  0  0  0  0  0  0  0  0
  143.7673  136.7928  151.7623 H   0  0  0  0  0  0  0  0  0  0  0  0
  144.6243  136.8352  154.1067 H   0  0  0  0  0  0  0  0  0  0  0  0
  143.9346  135.2870  153.7019 H   0  0  0  0  0  0  0  0  0  0  0  0
  145.9920  134.8719  154.8761 H   0  0  0  0  0  0  0  0  0  0  0  0
  147.7137  136.2486  152.9433 H   0  0  0  0  0  0  0  0  0  0  0  0
  149.6277  137.6509  155.3064 H   0  0  0  0  0  0  0  0  0  0  0  0
  149.2838  137.5218  153.6074 H   0  0  0  0  0  0  0  0  0  0  0  0
  147.2805  142.8674  154.4864 H   0  0  0  0  0  0  0  0  0  0  0  0
  149.6764  142.4099  154.4685 H   0  0  0  0  0  0  0  0  0  0  0  0
  145.5430  133.3091  153.1259 H   0  0  0  0  0  0  0  0  0  0  0  0
  148.5396  133.8871  153.0581 H   0  0  0  0  0  0  0  0  0  0  0  0
  147.7477  132.3284  152.8480 H   0  0  0  0  0  0  0  0  0  0  0  0
  147.7033  133.1237  154.4064 H   0  0  0  0  0  0  0  0  0  0  0  0
  1  2  1  0  0  0  0
  1 22  1  0  0  0  0
  1 23  1  0  0  0  0
  1 24  1  0  0  0  0
  2 19  1  0  0  0  0
  2  3  1  0  0  0  0
  2 25  1  0  0  0  0
  3  4  1  0  0  0  0
  3 26  1  0  0  0  0
  3 27  1  0  0  0  0
  4  5  1  0  0  0  0
  4 28  1  0  0  0  0
  4 29  1  0  0  0  0
  5  6  1  0  0  0  0
  5 30  1  0  0  0  0
  5 31  1  0  0  0  0
  6  7  1  0  0  0  0
  6 19  1  0  0  0  0
  6 32  1  0  0  0  0
  7  8  1  0  0  0  0
  7 33  1  0  0  0  0
  8  9  2  0  0  0  0
  8 10  1  0  0  0  0
 10 34  1  0  0  0  0
 10 35  1  0  0  0  0
 10 11  1  0  0  0  0
 11 12  1  0  0  0  0
 11 17  1  0  0  0  0
 12 13  2  0  0  0  0
 13 14  1  0  0  0  0
 13 15  1  0  0  0  0
 14 21  1  0  0  0  0
 15 36  1  0  0  0  0
 15 16  2  0  0  0  0
 16 37  1  0  0  0  0
 16 17  1  0  0  0  0
 17 18  2  0  0  0  0
 19 20  1  0  0  0  0
 19 38  1  0  0  0  0
 20 39  1  0  0  0  0
 20 40  1  0  0  0  0
 20 41  1  0  0  0  0
M  END
> <s_m_source_file>
AV-unprocessed.smi

> <i_m_source_file_index>
1464

> <i_lp_mmshare_version>
43012

> <i_f3d_flags>
0

> <s_epik_input>
W0NIM11bQ0BASF0xW0NIMl1bQ0gyXVtDSDJdW0NASF0oW0NASF0xW0NIM10pW05IXUMoPU8pW0NIMl1uMltuSF1jKD1PKVtjSF1bY0hdYzI9Tw==

> <s_epik_cmdline>
J2VwaWtfcHl0aG9uJywgJy1waCcsICc3LjAnLCAnLXRuJywgJzgnLCAnLW1hJywgJzIwMCcsICctbWV0YWxfYmluZGluZycsICctaW1hZScsICc8aW5maWxlLm1hZT4nLCAnLW9tYWUnLCAnPG91dGZpbGUubWFlPic=

> <r_lp_tautomer_probability>
0.9996

> <r_epik_Ionization_Penalty>
2.10335

> <r_epik_Ionization_Penalty_Charging>
3.98079e-08

> <r_epik_Ionization_Penalty_Neutral>
2.10335

> <r_epik_State_Penalty>
1.67957

> <r_epik_Charging_Adjusted_Penalty>
1.67957

> <i_epik_Tot_Q>
0

> <i_epik_Tot_abs_Q>
0

> <r_epik_Metal_State_Penalty>
1.67957

> <b_epik_Metal_Only>
0

> <s_lp_Force_Field>
OPLS_2005

> <r_lp_Energy>
23.2489

> <b_lp_Chiralities_Consistent>
1

> <s_lp_Variant>
AV-unprocessed.smi:1464-16

> <Gold.Version>
5.8.1

> <Gold.Id.Protein>
6NUR|6NUR_protein|mol2

> <Gold.PLP.Fitness>
36.5784

> <Gold.PLP.PLP>
-28.9368

> <Gold.PLP.part.hbond>
-3.0000

> <Gold.PLP.part.metal>
0.0000

> <Gold.PLP.part.buried>
-1.1967

> <Gold.PLP.part.nonpolar>
-24.8490

> <Gold.PLP.part.repulsive>
0.2398

> <Gold.PLP.ligand.clash>
0.0000

> <Gold.PLP.ligand.torsion>
0.5533

> <Gold.PLP.Chemscore.Hbond>
2.9120

> <Gold.PLP.Chemscore.CHOScore>
0.0000

> <Gold.PLP.Chemscore.Metal>
0.0000

> <Gold.Chemscore.Hbonds>
donor molecule, donor type, donor heavy atom, donor atom, acceptor molecule, acceptor atom, score
      L1  H     7    33       P1  7948  1.00
      L1  H    14    21       P1 10175  0.90
      P1  H  7989  7998       L1    18  1.00

> <Gold.PLP.Chemscore.Internal.Correction>
0.0122

> <Gold.Rescore>
     Score         DG    S(hbond)    S(metal)    S(lipo)     H(rot)  DE(clash)    DE(int)     intcor
     14.13     -15.94       2.90        0.00      55.14       2.22       0.07       1.75       ----

> <Gold.Chemscore.Fitness>
14.1254

> <Gold.Chemscore.DG>
-15.9442

> <Gold.Chemscore.ZeroCoef>
-5.4800

> <Gold.Chemscore.Hbond>
2.9050

> <Gold.Chemscore.Metal>
0.0000

> <Gold.Chemscore.Lipo>
55.1356

> <Gold.Chemscore.Internal_Hbond>
0.0000

> <Gold.Chemscore.DEClash>
0.0705

> <Gold.Chemscore.DEInternal>
1.7483

> <Gold.Chemscore.Rot>
2.2224

> <Gold.Chemscore.Internal.Correction>
   9.000000E+99

> <Gold.Chemscore.Hbonds>
donor molecule, donor type, donor heavy atom, donor atom, acceptor molecule, acceptor atom, score
      L1  H     7    33       P1  7948  0.99
      L1  H    14    21       P1 10175  0.88
      P1  H  7989  7998       L1    18  0.92

> <Gold.Chemscore.Hbond.Weighted>
-9.7027

> <Gold.Chemscore.Metal.Weighted>
-0.0000

> <Gold.Chemscore.Lipo.Weighted>
-6.4509

> <Gold.Chemscore.Internal_Hbond.Weighted>
0.0000

> <Gold.Chemscore.DEClash.Weighted>
0.0705

> <Gold.Chemscore.DEInternal.Weighted>
1.7483

> <Gold.Chemscore.Rot.Weighted>
5.6893

> <Gold.Chemscore.Internal.Correction.Weighted>
   9.000000E+99

> <Gold.Protein.RotatedTorsions>
[ 6907 6896 6895 6894 ] final  -90.50 input  -60.11 | X-H torsion
[ 7974 7965 7964 7962 ] final -111.28 input  175.53 | X-H torsion
[ 8008 7997 7996 7995 ] final  -19.69 input   59.86 | X-H torsion
[ 10167 10162 10161 10158 ] final  112.01 input  -65.29 | X-H torsion
[ 10718 10713 10712 10709 ] final   19.54 input   66.30 | X-H torsion
[ 10763 10752 10751 10750 ] final  -31.28 input  -60.55 | X-H torsion
[ 11005 11000 10999 10996 ] final -150.87 input  -57.11 | X-H torsion

> <Gold.Protein.ActiveResidues>
 VAL166  LYS551  ARG553  GLY616  TRP617  ASP618  TYR619  PRO620  LYS621  CYS622 
 ASP623  PHE694  ASN695  SER759  ASP760  ASP761  ALA762  ILE779  LEU786  VAL792 
 PHE793  MET794  SER795  GLU796  ALA797  LYS798  CYS799  TRP800  GLU811  SER814 

> <Gold.Protein.RotatedAtoms>
  150.6882  134.2423  159.4477 H   0  0  0  0  0  0  0  0  0  0  0  0  # atno 6907 bound_to 6896
  152.0366  134.9734  160.0582 H   0  0  0  0  0  0  0  0  0  0  0  0  # atno 6908 bound_to 6896
  152.1252  133.4341  159.4731 H   0  0  0  0  0  0  0  0  0  0  0  0  # atno 6909 bound_to 6896
  145.1580  140.8864  143.3607 H   0  0  0  0  0  0  0  0  0  0  0  0  # atno 7974 bound_to 7965
  154.4820  140.2082  155.9742 H   0  0  0  0  0  0  0  0  0  0  0  0  # atno 8008 bound_to 7997
  156.1179  140.3218  155.8135 H   0  0  0  0  0  0  0  0  0  0  0  0  # atno 8009 bound_to 7997
  155.4520  140.0517  157.2991 H   0  0  0  0  0  0  0  0  0  0  0  0  # atno 8010 bound_to 7997
  139.6568  144.7129  151.1942 H   0  0  0  0  0  0  0  0  0  0  0  0  # atno 10167 bound_to 10162
  157.1118  130.6512  149.5899 H   0  0  0  0  0  0  0  0  0  0  0  0  # atno 10718 bound_to 10713
  153.7948  135.6895  153.4865 H   0  0  0  0  0  0  0  0  0  0  0  0  # atno 10763 bound_to 10752
  153.1726  135.4537  154.9921 H   0  0  0  0  0  0  0  0  0  0  0  0  # atno 10764 bound_to 10752
  154.8030  135.3345  154.7441 H   0  0  0  0  0  0  0  0  0  0  0  0  # atno 10765 bound_to 10752
  140.7356  134.3572  157.5158 H   0  0  0  0  0  0  0  0  0  0  0  0  # atno 11005 bound_to 11000
  145.0361  139.3300  143.6000 LP  0  0  0  0  0  0  0  0  0  0  0  0  # atno 17320 bound_to 7965
  146.3486  139.9716  142.8705 LP  0  0  0  0  0  0  0  0  0  0  0  0  # atno 17321 bound_to 7965
  140.7562  143.6059  150.8653 LP  0  0  0  0  0  0  0  0  0  0  0  0  # atno 17342 bound_to 10162
  139.9713  143.6054  152.2972 LP  0  0  0  0  0  0  0  0  0  0  0  0  # atno 17343 bound_to 10162
  155.9848  130.4875  150.7003 LP  0  0  0  0  0  0  0  0  0  0  0  0  # atno 17370 bound_to 10713
  157.4552  131.0877  151.0804 LP  0  0  0  0  0  0  0  0  0  0  0  0  # atno 17371 bound_to 10713
  139.8817  134.9047  156.2883 LP  0  0  0  0  0  0  0  0  0  0  0  0  # atno 17394 bound_to 11000
  140.9882  133.7225  156.0774 LP  0  0  0  0  0  0  0  0  0  0  0  0  # atno 17395 bound_to 11000

$$$$
