AV-unprocessed.smi:2409|AV-procd|sdf|9523|dock1
  -GOLD-   2272013153D 1   1.00000     0.00000
 Structure written by MMmdl.
 35 36  0  0  0  0  0  0  0  0  1 V2000
  151.3604  144.2763  158.9452 C   0  0  0  0  0  0  0  0  0  0  0  0
  151.0238  142.9825  159.4161 O   0  0  0  0  0  0  0  0  0  0  0  0
  151.5069  141.9857  158.6442 C   0  0  0  0  0  0  0  0  0  0  0  0
  151.1910  141.5711  157.3801 C   0  0  0  0  0  0  0  0  0  0  0  0
  150.2341  142.0799  156.4660 N   0  0  0  0  0  0  0  0  0  0  0  0
  149.5056  141.3862  155.5719 C   0  0  0  0  0  0  0  0  0  0  0  0
  149.5578  140.1662  155.4326 O   0  0  0  0  0  0  0  0  0  0  0  0
  148.6845  142.1389  154.8182 N   0  0  0  0  0  0  0  0  0  0  0  0
  147.7873  141.7069  153.7869 C   0  0  1  0  0  0  0  0  0  0  0  0
  146.7343  140.6902  154.1712 C   0  0  0  0  0  0  0  0  0  0  0  0
  146.3256  142.1074  153.8679 C   0  0  1  0  0  0  0  0  0  0  0  0
  145.7970  143.0107  154.9649 C   0  0  0  0  0  0  0  0  0  0  0  0
  152.0954  140.5091  157.1033 C   0  0  0  0  0  0  0  0  0  0  0  0
  152.2437  139.6891  155.8541 C   0  0  0  0  0  0  0  0  0  0  0  0
  152.8775  140.2607  158.1480 N   0  0  0  0  0  0  0  0  0  0  0  0
  152.5131  141.1582  159.0964 N   0  0  0  0  0  0  0  0  0  0  0  0
  153.1929  141.1671  160.3753 C   0  0  0  0  0  0  0  0  0  0  0  0
  150.9483  145.0282  159.6180 H   0  0  0  0  0  0  0  0  0  0  0  0
  150.9565  144.4603  157.9491 H   0  0  0  0  0  0  0  0  0  0  0  0
  152.4426  144.4103  158.9121 H   0  0  0  0  0  0  0  0  0  0  0  0
  150.1609  143.0856  156.4199 H   0  0  0  0  0  0  0  0  0  0  0  0
  148.6705  143.1277  155.0229 H   0  0  0  0  0  0  0  0  0  0  0  0
  148.1970  141.5771  152.7862 H   0  0  0  0  0  0  0  0  0  0  0  0
  146.4804  139.9285  153.4367 H   0  0  0  0  0  0  0  0  0  0  0  0
  146.6981  140.3628  155.2087 H   0  0  0  0  0  0  0  0  0  0  0  0
  145.8361  142.2687  152.9092 H   0  0  0  0  0  0  0  0  0  0  0  0
  146.2406  142.7616  155.9293 H   0  0  0  0  0  0  0  0  0  0  0  0
  144.7154  142.9024  155.0467 H   0  0  0  0  0  0  0  0  0  0  0  0
  146.0260  144.0512  154.7343 H   0  0  0  0  0  0  0  0  0  0  0  0
  151.4235  139.8695  155.1592 H   0  0  0  0  0  0  0  0  0  0  0  0
  152.2533  138.6228  156.0817 H   0  0  0  0  0  0  0  0  0  0  0  0
  153.1735  139.9289  155.3384 H   0  0  0  0  0  0  0  0  0  0  0  0
  152.5118  141.5069  161.1559 H   0  0  0  0  0  0  0  0  0  0  0  0
  154.0472  141.8428  160.3295 H   0  0  0  0  0  0  0  0  0  0  0  0
  153.5416  140.1645  160.6259 H   0  0  0  0  0  0  0  0  0  0  0  0
  1  2  1  0  0  0  0
  1 18  1  0  0  0  0
  1 19  1  0  0  0  0
  1 20  1  0  0  0  0
  2  3  1  0  0  0  0
  3 16  1  0  0  0  0
  3  4  2  0  0  0  0
  4  5  1  0  0  0  0
  4 13  1  0  0  0  0
  5  6  1  0  0  0  0
  5 21  1  0  0  0  0
  6  7  2  0  0  0  0
  6  8  1  0  0  0  0
  8  9  1  0  0  0  0
  8 22  1  0  0  0  0
  9 11  1  0  0  0  0
  9 10  1  0  0  0  0
  9 23  1  0  0  0  0
 10 11  1  0  0  0  0
 10 24  1  0  0  0  0
 10 25  1  0  0  0  0
 11 12  1  0  0  0  0
 11 26  1  0  0  0  0
 12 27  1  0  0  0  0
 12 28  1  0  0  0  0
 12 29  1  0  0  0  0
 13 14  1  0  0  0  0
 13 15  2  0  0  0  0
 14 30  1  0  0  0  0
 14 31  1  0  0  0  0
 14 32  1  0  0  0  0
 15 16  1  0  0  0  0
 16 17  1  0  0  0  0
 17 33  1  0  0  0  0
 17 34  1  0  0  0  0
 17 35  1  0  0  0  0
M  END
> <s_m_source_file>
AV-unprocessed.smi

> <i_m_source_file_index>
2409

> <i_lp_mmshare_version>
43012

> <i_f3d_flags>
0

> <s_epik_input>
W0NIM11uMW5jKFtDSDNdKWMoYzFPW0NIM10pW05IXUMoPU8pW05IXVtDQEBIXTJbQ0gyXVtDQEhdMltDSDNd

> <s_epik_cmdline>
J2VwaWtfcHl0aG9uJywgJy1waCcsICc3LjAnLCAnLXRuJywgJzgnLCAnLW1hJywgJzIwMCcsICctbWV0YWxfYmluZGluZycsICctaW1hZScsICc8aW5maWxlLm1hZT4nLCAnLW9tYWUnLCAnPG91dGZpbGUubWFlPic=

> <r_lp_tautomer_probability>
1

> <r_epik_Ionization_Penalty>
0.000417804

> <r_epik_Ionization_Penalty_Charging>
0

> <r_epik_Ionization_Penalty_Neutral>
0.000417804

> <r_epik_State_Penalty>
-0

> <r_epik_Charging_Adjusted_Penalty>
0

> <i_epik_Tot_Q>
0

> <i_epik_Tot_abs_Q>
0

> <r_epik_Metal_State_Penalty>
-0

> <b_epik_Metal_Only>
0

> <s_lp_Force_Field>
OPLS_2005

> <r_lp_Energy>
35.5407

> <b_lp_Chiralities_Consistent>
1

> <s_lp_Variant>
AV-unprocessed.smi:2409-2

> <Gold.Version>
5.8.1

> <Gold.Id.Protein>
6NUR|6NUR_protein|mol2

> <Gold.PLP.Fitness>
41.0217

> <Gold.PLP.PLP>
-33.6475

> <Gold.PLP.part.hbond>
-3.0000

> <Gold.PLP.part.metal>
0.0000

> <Gold.PLP.part.buried>
-5.5936

> <Gold.PLP.part.nonpolar>
-26.2810

> <Gold.PLP.part.repulsive>
0.3713

> <Gold.PLP.ligand.clash>
0.0000

> <Gold.PLP.ligand.torsion>
0.3557

> <Gold.PLP.Chemscore.Hbond>
2.6815

> <Gold.PLP.Chemscore.CHOScore>
0.0000

> <Gold.PLP.Chemscore.Metal>
0.0000

> <Gold.Chemscore.Hbonds>
donor molecule, donor type, donor heavy atom, donor atom, acceptor molecule, acceptor atom, score
      L1  H     5    21       P1  8028  0.49
      L1  H     8    22       P1  8028  1.00
      P1  H  7997  8008       L1    15  0.51

> <Gold.PLP.Chemscore.Internal.Correction>
0.0410

> <Gold.Rescore>
     Score         DG    S(hbond)    S(metal)    S(lipo)     H(rot)  DE(clash)    DE(int)     intcor
     16.07     -17.97       2.59        0.00      59.86       1.23       0.28       1.62       ----

> <Gold.Chemscore.Fitness>
16.0705

> <Gold.Chemscore.DG>
-17.9740

> <Gold.Chemscore.ZeroCoef>
-5.4800

> <Gold.Chemscore.Hbond>
2.5858

> <Gold.Chemscore.Metal>
0.0000

> <Gold.Chemscore.Lipo>
59.8647

> <Gold.Chemscore.Internal_Hbond>
0.0000

> <Gold.Chemscore.DEClash>
0.2842

> <Gold.Chemscore.DEInternal>
1.6193

> <Gold.Chemscore.Rot>
1.2292

> <Gold.Chemscore.Internal.Correction>
   9.000000E+99

> <Gold.Chemscore.Hbonds>
donor molecule, donor type, donor heavy atom, donor atom, acceptor molecule, acceptor atom, score
      L1  H     5    21       P1  8028  0.48
      L1  H     8    22       P1  8028  1.00
      P1  H  7997  8008       L1    15  0.03

> <Gold.Chemscore.Hbond.Weighted>
-8.6365

> <Gold.Chemscore.Metal.Weighted>
-0.0000

> <Gold.Chemscore.Lipo.Weighted>
-7.0042

> <Gold.Chemscore.Internal_Hbond.Weighted>
0.0000

> <Gold.Chemscore.DEClash.Weighted>
0.2842

> <Gold.Chemscore.DEInternal.Weighted>
1.6193

> <Gold.Chemscore.Rot.Weighted>
3.1467

> <Gold.Chemscore.Internal.Correction.Weighted>
   9.000000E+99

> <Gold.Protein.RotatedTorsions>
[ 6907 6896 6895 6894 ] final  -53.28 input  -60.11 | X-H torsion
[ 7974 7965 7964 7962 ] final -112.74 input  175.53 | X-H torsion
[ 8008 7997 7996 7995 ] final  -78.89 input   59.86 | X-H torsion
[ 10167 10162 10161 10158 ] final  161.45 input  -65.29 | X-H torsion
[ 10718 10713 10712 10709 ] final  166.25 input   66.30 | X-H torsion
[ 10763 10752 10751 10750 ] final  147.41 input  -60.55 | X-H torsion
[ 11005 11000 10999 10996 ] final  -79.65 input  -57.11 | X-H torsion

> <Gold.Protein.ActiveResidues>
 VAL166  LYS551  ARG553  GLY616  TRP617  ASP618  TYR619  PRO620  LYS621  CYS622 
 ASP623  PHE694  ASN695  SER759  ASP760  ASP761  ALA762  ILE779  LEU786  VAL792 
 PHE793  MET794  SER795  GLU796  ALA797  LYS798  CYS799  TRP800  GLU811  SER814 

> <Gold.Protein.RotatedAtoms>
  150.8441  134.7744  159.6955 H   0  0  0  0  0  0  0  0  0  0  0  0  # atno 6907 bound_to 6896
  152.4522  134.5366  159.9836 H   0  0  0  0  0  0  0  0  0  0  0  0  # atno 6908 bound_to 6896
  151.5500  133.3381  159.2987 H   0  0  0  0  0  0  0  0  0  0  0  0  # atno 6909 bound_to 6896
  145.1404  140.8774  143.3706 H   0  0  0  0  0  0  0  0  0  0  0  0  # atno 7974 bound_to 7965
  154.5732  140.0687  156.8995 H   0  0  0  0  0  0  0  0  0  0  0  0  # atno 8008 bound_to 7997
  155.2596  140.3357  155.4256 H   0  0  0  0  0  0  0  0  0  0  0  0  # atno 8009 bound_to 7997
  156.2134  140.1768  156.7629 H   0  0  0  0  0  0  0  0  0  0  0  0  # atno 8010 bound_to 7997
  139.4849  144.4535  151.8798 H   0  0  0  0  0  0  0  0  0  0  0  0  # atno 10167 bound_to 10162
  157.0685  131.0359  151.2620 H   0  0  0  0  0  0  0  0  0  0  0  0  # atno 10718 bound_to 10713
  154.0378  135.2892  155.3359 H   0  0  0  0  0  0  0  0  0  0  0  0  # atno 10763 bound_to 10752
  154.6948  135.5212  153.8445 H   0  0  0  0  0  0  0  0  0  0  0  0  # atno 10764 bound_to 10752
  153.0612  135.6614  154.0585 H   0  0  0  0  0  0  0  0  0  0  0  0  # atno 10765 bound_to 10752
  141.1667  133.7115  156.8154 H   0  0  0  0  0  0  0  0  0  0  0  0  # atno 11005 bound_to 11000
  145.0539  139.3159  143.5915 LP  0  0  0  0  0  0  0  0  0  0  0  0  # atno 17320 bound_to 7965
  146.3505  139.9957  142.8681 LP  0  0  0  0  0  0  0  0  0  0  0  0  # atno 17321 bound_to 7965
  140.3994  144.2513  150.5894 LP  0  0  0  0  0  0  0  0  0  0  0  0  # atno 17342 bound_to 10162
  140.5072  143.2301  151.8590 LP  0  0  0  0  0  0  0  0  0  0  0  0  # atno 17343 bound_to 10162
  157.4897  130.7814  149.7495 LP  0  0  0  0  0  0  0  0  0  0  0  0  # atno 17370 bound_to 10713
  155.9957  130.3910  150.2807 LP  0  0  0  0  0  0  0  0  0  0  0  0  # atno 17371 bound_to 10713
  140.2157  134.8794  157.3323 LP  0  0  0  0  0  0  0  0  0  0  0  0  # atno 17394 bound_to 11000
  140.2040  134.4220  155.7647 LP  0  0  0  0  0  0  0  0  0  0  0  0  # atno 17395 bound_to 11000

$$$$
