AV-unprocessed.smi:2503|AV-procd|sdf|9848|dock9
  -GOLD-   2272013473D 1   1.00000     0.00000
 Structure written by MMmdl.
 36 37  0  0  0  0  0  0  0  0  1 V2000
  154.1720  136.5812  156.7609 C   0  0  0  0  0  0  0  0  0  0  0  0
  153.1104  137.6749  156.9516 C   0  0  0  0  0  0  0  0  0  0  0  0
  151.8406  137.1331  157.6247 C   0  0  0  0  0  0  0  0  0  0  0  0
  152.7910  138.3763  155.6586 C   0  0  0  0  0  0  0  0  0  0  0  0
  153.0552  139.6630  155.4440 N   0  0  0  0  0  0  0  0  0  0  0  0
  152.6478  139.9043  154.1380 C   0  0  0  0  0  0  0  0  0  0  0  0
  152.1597  138.7425  153.5939 C   0  0  0  0  0  0  0  0  0  0  0  0
  152.2674  137.7624  154.5736 N   0  0  0  0  0  0  0  0  0  0  0  0
  151.8822  136.3679  154.4063 C   0  0  0  0  0  0  0  0  0  0  0  0
  152.6044  135.7244  153.2184 C   0  0  0  0  0  0  0  0  0  0  0  0
  153.8105  135.4846  153.3088 O   0  0  0  0  0  0  0  0  0  0  0  0
  151.8237  135.4602  152.1453 N   0  0  0  0  0  0  0  0  0  0  0  0
  152.1024  134.8469  150.9709 C   0  0  0  0  0  0  0  0  0  0  0  0
  153.1616  134.2398  150.8215 O   0  0  0  0  0  0  0  0  0  0  0  0
  151.1823  134.9469  149.9939 N   0  0  0  0  0  0  0  0  0  0  0  0
  151.3740  134.5875  148.6264 C   0  0  0  0  0  0  0  0  0  0  0  0
  150.3274  133.7067  147.9791 C   0  0  0  0  0  0  0  0  0  0  0  0
  151.6764  133.1367  148.3207 C   0  0  0  0  0  0  0  0  0  0  0  0
  155.0875  136.9943  156.3368 H   0  0  0  0  0  0  0  0  0  0  0  0
  153.8200  135.7947  156.0923 H   0  0  0  0  0  0  0  0  0  0  0  0
  154.4305  136.1153  157.7121 H   0  0  0  0  0  0  0  0  0  0  0  0
  153.5482  138.3952  157.6400 H   0  0  0  0  0  0  0  0  0  0  0  0
  151.1265  137.9346  157.8180 H   0  0  0  0  0  0  0  0  0  0  0  0
  152.0728  136.6622  158.5800 H   0  0  0  0  0  0  0  0  0  0  0  0
  151.3451  136.3906  156.9985 H   0  0  0  0  0  0  0  0  0  0  0  0
  152.7393  140.8846  153.6942 H   0  0  0  0  0  0  0  0  0  0  0  0
  151.7631  138.5343  152.6110 H   0  0  0  0  0  0  0  0  0  0  0  0
  152.0766  135.8294  155.3349 H   0  0  0  0  0  0  0  0  0  0  0  0
  150.8065  136.3151  154.2345 H   0  0  0  0  0  0  0  0  0  0  0  0
  150.8645  135.7610  152.2386 H   0  0  0  0  0  0  0  0  0  0  0  0
  150.2732  135.3111  150.2432 H   0  0  0  0  0  0  0  0  0  0  0  0
  151.8532  135.3199  147.9781 H   0  0  0  0  0  0  0  0  0  0  0  0
  149.4806  133.3925  148.5866 H   0  0  0  0  0  0  0  0  0  0  0  0
  150.1066  133.8804  146.9279 H   0  0  0  0  0  0  0  0  0  0  0  0
  152.3573  132.9292  147.4978 H   0  0  0  0  0  0  0  0  0  0  0  0
  151.7294  132.4400  149.1554 H   0  0  0  0  0  0  0  0  0  0  0  0
  1  2  1  0  0  0  0
  1 19  1  0  0  0  0
  1 20  1  0  0  0  0
  1 21  1  0  0  0  0
  2  3  1  0  0  0  0
  2  4  1  0  0  0  0
  2 22  1  0  0  0  0
  3 23  1  0  0  0  0
  3 24  1  0  0  0  0
  3 25  1  0  0  0  0
  4  8  1  0  0  0  0
  4  5  2  0  0  0  0
  5  6  1  0  0  0  0
  6  7  2  0  0  0  0
  6 26  1  0  0  0  0
  7  8  1  0  0  0  0
  7 27  1  0  0  0  0
  8  9  1  0  0  0  0
  9 10  1  0  0  0  0
  9 28  1  0  0  0  0
  9 29  1  0  0  0  0
 10 11  2  0  0  0  0
 10 12  1  0  0  0  0
 12 13  1  0  0  0  0
 12 30  1  0  0  0  0
 13 14  2  0  0  0  0
 13 15  1  0  0  0  0
 15 16  1  0  0  0  0
 15 31  1  0  0  0  0
 16 18  1  0  0  0  0
 16 17  1  0  0  0  0
 16 32  1  0  0  0  0
 17 18  1  0  0  0  0
 17 33  1  0  0  0  0
 17 34  1  0  0  0  0
 18 35  1  0  0  0  0
 18 36  1  0  0  0  0
M  END
> <s_m_source_file>
AV-unprocessed.smi

> <i_m_source_file_index>
2503

> <i_lp_mmshare_version>
43012

> <i_f3d_flags>
0

> <s_epik_input>
W0NIM11bQ0hdKFtDSDNdKWMxbltjSF1bY0hdbjFbQ0gyXUMoPU8pW05IXUMoPU8pW05IXVtDSF0yW0NIMl1bQ0gyXTI=

> <s_epik_cmdline>
J2VwaWtfcHl0aG9uJywgJy1waCcsICc3LjAnLCAnLXRuJywgJzgnLCAnLW1hJywgJzIwMCcsICctbWV0YWxfYmluZGluZycsICctaW1hZScsICc8aW5maWxlLm1hZT4nLCAnLW9tYWUnLCAnPG91dGZpbGUubWFlPic=

> <r_lp_tautomer_probability>
1

> <r_epik_Ionization_Penalty>
0.441646

> <r_epik_Ionization_Penalty_Charging>
0.441618

> <r_epik_Ionization_Penalty_Neutral>
2.81151e-05

> <r_epik_State_Penalty>
0.443748

> <r_epik_Charging_Adjusted_Penalty>
0.885366

> <i_epik_Tot_Q>
0

> <i_epik_Tot_abs_Q>
0

> <r_epik_Metal_State_Penalty>
0.251733

> <b_epik_Metal_Only>
0

> <s_lp_Force_Field>
OPLS_2005

> <r_lp_Energy>
20.0487

> <b_lp_Chiralities_Consistent>
1

> <s_lp_Variant>
AV-unprocessed.smi:2503-2

> <Gold.Version>
5.8.1

> <Gold.Id.Protein>
6NUR|6NUR_protein|mol2

> <Gold.PLP.Fitness>
40.6738

> <Gold.PLP.PLP>
-29.2426

> <Gold.PLP.part.hbond>
-3.6909

> <Gold.PLP.part.metal>
0.0000

> <Gold.PLP.part.buried>
-2.1268

> <Gold.PLP.part.nonpolar>
-23.1994

> <Gold.PLP.part.repulsive>
0.0328

> <Gold.PLP.ligand.clash>
0.0000

> <Gold.PLP.ligand.torsion>
0.2718

> <Gold.PLP.Chemscore.Hbond>
2.9600

> <Gold.PLP.Chemscore.CHOScore>
0.9926

> <Gold.PLP.Chemscore.Metal>
0.0000

> <Gold.Chemscore.Hbonds>
donor molecule, donor type, donor heavy atom, donor atom, acceptor molecule, acceptor atom, score
      P1  H  7997  8008       L1     5  1.00
      L1  C     7    27       P1  7949  0.24

> <Gold.PLP.Chemscore.Internal.Correction>
0.1169

> <Gold.Rescore>
     Score         DG    S(hbond)    S(metal)    S(lipo)     H(rot)  DE(clash)    DE(int)     intcor
     13.03     -14.61       2.18        0.00      54.60       1.77       0.08       1.49       ----

> <Gold.Chemscore.Fitness>
13.0335

> <Gold.Chemscore.DG>
-14.6081

> <Gold.Chemscore.ZeroCoef>
-5.4800

> <Gold.Chemscore.Hbond>
2.1799

> <Gold.Chemscore.Metal>
0.0000

> <Gold.Chemscore.Lipo>
54.5994

> <Gold.Chemscore.Internal_Hbond>
0.0000

> <Gold.Chemscore.DEClash>
0.0810

> <Gold.Chemscore.DEInternal>
1.4935

> <Gold.Chemscore.Rot>
1.7738

> <Gold.Chemscore.Internal.Correction>
   9.000000E+99

> <Gold.Chemscore.Hbonds>
donor molecule, donor type, donor heavy atom, donor atom, acceptor molecule, acceptor atom, score
      P1  H  7997  8008       L1     5  0.88

> <Gold.Chemscore.Hbond.Weighted>
-7.2809

> <Gold.Chemscore.Metal.Weighted>
-0.0000

> <Gold.Chemscore.Lipo.Weighted>
-6.3881

> <Gold.Chemscore.Internal_Hbond.Weighted>
0.0000

> <Gold.Chemscore.DEClash.Weighted>
0.0810

> <Gold.Chemscore.DEInternal.Weighted>
1.4935

> <Gold.Chemscore.Rot.Weighted>
4.5409

> <Gold.Chemscore.Internal.Correction.Weighted>
   9.000000E+99

> <Gold.Protein.RotatedTorsions>
[ 6907 6896 6895 6894 ] final -163.58 input  -60.11 | X-H torsion
[ 7974 7965 7964 7962 ] final  -69.55 input  175.53 | X-H torsion
[ 8008 7997 7996 7995 ] final  -18.20 input   59.86 | X-H torsion
[ 10167 10162 10161 10158 ] final  -75.92 input  -65.29 | X-H torsion
[ 10718 10713 10712 10709 ] final   44.65 input   66.30 | X-H torsion
[ 10763 10752 10751 10750 ] final  -67.81 input  -60.55 | X-H torsion
[ 11005 11000 10999 10996 ] final   81.34 input  -57.11 | X-H torsion

> <Gold.Protein.ActiveResidues>
 VAL166  LYS551  ARG553  GLY616  TRP617  ASP618  TYR619  PRO620  LYS621  CYS622 
 ASP623  PHE694  ASN695  SER759  ASP760  ASP761  ALA762  ILE779  LEU786  VAL792 
 PHE793  MET794  SER795  GLU796  ALA797  LYS798  CYS799  TRP800  GLU811  SER814 

> <Gold.Protein.RotatedAtoms>
  151.3983  133.3766  159.2728 H   0  0  0  0  0  0  0  0  0  0  0  0  # atno 6907 bound_to 6896
  150.9453  134.8860  159.7648 H   0  0  0  0  0  0  0  0  0  0  0  0  # atno 6908 bound_to 6896
  152.5089  134.3935  159.9444 H   0  0  0  0  0  0  0  0  0  0  0  0  # atno 6909 bound_to 6896
  145.7024  140.9111  143.0724 H   0  0  0  0  0  0  0  0  0  0  0  0  # atno 7974 bound_to 7965
  154.4923  140.2122  155.9521 H   0  0  0  0  0  0  0  0  0  0  0  0  # atno 8008 bound_to 7997
  156.1323  140.3195  155.8336 H   0  0  0  0  0  0  0  0  0  0  0  0  # atno 8009 bound_to 7997
  155.4274  140.0501  157.3012 H   0  0  0  0  0  0  0  0  0  0  0  0  # atno 8010 bound_to 7997
  140.4901  143.2382  151.7921 H   0  0  0  0  0  0  0  0  0  0  0  0  # atno 10167 bound_to 10162
  157.4290  130.8014  149.7586 H   0  0  0  0  0  0  0  0  0  0  0  0  # atno 10718 bound_to 10713
  154.3799  135.6076  153.5785 H   0  0  0  0  0  0  0  0  0  0  0  0  # atno 10763 bound_to 10752
  152.9788  135.5858  154.4422 H   0  0  0  0  0  0  0  0  0  0  0  0  # atno 10764 bound_to 10752
  154.4190  135.2845  155.1966 H   0  0  0  0  0  0  0  0  0  0  0  0  # atno 10765 bound_to 10752
  139.9102  134.7989  156.2028 H   0  0  0  0  0  0  0  0  0  0  0  0  # atno 11005 bound_to 11000
  144.6965  139.8965  143.7456 LP  0  0  0  0  0  0  0  0  0  0  0  0  # atno 17320 bound_to 7965
  146.0786  139.3774  143.0478 LP  0  0  0  0  0  0  0  0  0  0  0  0  # atno 17321 bound_to 7965
  139.4849  144.4660  151.9483 LP  0  0  0  0  0  0  0  0  0  0  0  0  # atno 17342 bound_to 10162
  140.3747  144.2812  150.5915 LP  0  0  0  0  0  0  0  0  0  0  0  0  # atno 17343 bound_to 10162
  155.9907  130.3943  150.3018 LP  0  0  0  0  0  0  0  0  0  0  0  0  # atno 17370 bound_to 10713
  157.1173  131.0237  151.3023 LP  0  0  0  0  0  0  0  0  0  0  0  0  # atno 17371 bound_to 10713
  141.0514  133.6887  156.1779 LP  0  0  0  0  0  0  0  0  0  0  0  0  # atno 17394 bound_to 11000
  140.6804  134.4773  157.5589 LP  0  0  0  0  0  0  0  0  0  0  0  0  # atno 17395 bound_to 11000

$$$$
