#       Name:                AV-unprocessed.smi:672
#       Creating user name   scv26
#       Creation time:       Fri Mar 27 00:25:38 2020


#       File generated by GOLD software.
#

@<TRIPOS>MOLECULE
AV-unprocessed.smi:672
    40    41     1
SMALL
NO_CHARGES


@<TRIPOS>ATOM
      1 ****        -6.6594   1.6153   0.9246 C.3            1 S1                 0.0000
      2 ****        -5.9100   2.7478   0.2147 C.3            1 S1                 0.0000
      3 ****        -4.6022   2.3035  -0.3498 C.2            1 S1                 0.0000
      4 ****        -4.4742   1.8134  -1.5857 N.2            1 S1                 0.0000
      5 ****        -3.1673   1.4448  -1.8691 N.2            1 S1                 0.0000
      6 ****        -2.3327   1.6327  -0.8368 C.2            1 S1                 0.0000
      7 ****        -1.0245   1.3353  -0.9013 N.pl3          1 S1                -1.0000
      8 ****        -0.5815   0.1401  -0.4488 C.2            1 S1                 0.0000
      9 ****        -1.2740  -0.7643   0.0241 O.2            1 S1                 0.0000
     10 ****         0.7466  -0.0155  -0.5455 N.am           1 S1                 0.0000
     11 ****         1.5012  -1.2015  -0.1458 C.3            1 S1                 0.0000
     12 ****         1.6897  -1.2725   1.3836 C.3            1 S1                 0.0000
     13 ****         3.1719  -0.9994   1.6385 C.3            1 S1                 0.0000
     14 ****         3.8701  -1.5432   0.3949 C.3            1 S1                 0.0000
     15 ****         5.5429  -0.8671   0.1853 S.3            1 S1                 0.0000
     16 ****         6.1065  -1.8383  -1.2370 C.3            1 S1                 0.0000
     17 ****         2.9187  -1.1767  -0.7489 C.3            1 S1                 0.0000
     18 ****        -3.1163   2.3201   0.5849 S.3            1 S1                 0.0000
     19 ****        -7.6089   1.9691   1.3262 H              1 S1                 0.0000
     20 ****        -6.0742   1.2170   1.7540 H              1 S1                 0.0000
     21 ****        -6.8717   0.7938   0.2398 H              1 S1                 0.0000
     22 ****        -6.5235   3.1520  -0.5913 H              1 S1                 0.0000
     23 ****        -5.7291   3.5676   0.9104 H              1 S1                 0.0000
     24 ****         1.2747   0.7514  -0.9351 H              1 S1                 0.0000
     25 ****         0.9780  -2.0959  -0.4891 H              1 S1                 0.0000
     26 ****         1.0494  -0.5826   1.9348 H              1 S1                 0.0000
     27 ****         1.4441  -2.2781   1.7274 H              1 S1                 0.0000
     28 ****         3.3337   0.0767   1.7189 H              1 S1                 0.0000
     29 ****         3.5306  -1.4610   2.5589 H              1 S1                 0.0000
     30 ****         3.9357  -2.6291   0.4766 H              1 S1                 0.0000
     31 ****         7.1393  -1.5859  -1.4766 H              1 S1                 0.0000
     32 ****         5.4907  -1.6308  -2.1120 H              1 S1                 0.0000
     33 ****         6.0527  -2.9044  -1.0168 H              1 S1                 0.0000
     34 ****         3.0140  -1.8588  -1.5943 H              1 S1                 0.0000
     35 ****         3.1587  -0.1766  -1.1146 H              1 S1                 0.0000
     36 ****        -5.2323   1.7228  -2.2315 LP             1 S1                 0.0000
     37 ****        -2.8774   1.0768  -2.7525 LP             1 S1                 0.0000
     38 ****        -0.3789   1.9966  -1.2833 LP             1 S1                 0.0000
     39 ****        -2.2643  -0.6480   0.1004 LP             1 S1                 0.0000
     40 ****        -0.8452  -1.6138   0.3313 LP             1 S1                 0.0000
@<TRIPOS>BOND
    1    1    2 1     
    2    1   19 1     
    3    1   20 1     
    4    1   21 1     
    5    2    3 1     
    6    2   22 1     
    7    2   23 1     
    8    3   18 1     
    9    3    4 2     
   10    4    5 1     
   11    5    6 2     
   12    6    7 1     
   13    6   18 1     
   14    7    8 1     
   15    8    9 2     
   16    8   10 am    
   17   10   11 1     
   18   10   24 1     
   19   11   17 1     
   20   11   12 1     
   21   11   25 1     
   22   12   13 1     
   23   12   26 1     
   24   12   27 1     
   25   13   14 1     
   26   13   28 1     
   27   13   29 1     
   28   14   15 1     
   29   14   17 1     
   30   14   30 1     
   31   15   16 1     
   32   16   31 1     
   33   16   32 1     
   34   16   33 1     
   35   17   34 1     
   36   17   35 1     
   37    4   36 1     
   38    5   37 1     
   39    7   38 1     
   40    9   39 1     
   41    9   40 1     
@<TRIPOS>SUBSTRUCTURE
      1 S1             1
@<TRIPOS>SET
LONE_PAIRS      STATIC     ATOMS    <user>   **** ""
5 36 37 38 39 40
DONOR_HYDROGENS      STATIC     ATOMS    <user>   **** ""
1 24
ATOM$BLUE        STATIC     ATOMS    COLORGROUP SYSTEM
5 36 37 38 39 40
ATOM$RED        STATIC     ATOMS    COLORGROUP SYSTEM
1 24
