AV-unprocessed.smi:1730|AV-procd|sdf|6973|dock2
  -GOLD-   22720 8183D 1   1.00000     0.00000
 Structure written by MMmdl.
 38 39  0  0  0  0  0  0  0  0  1 V2000
  151.7717  138.3565  154.4235 C   0  0  0  0  0  0  0  0  0  0  0  0
  150.4002  138.2711  154.0518 O   0  0  0  0  0  0  0  0  0  0  0  0
  149.6122  139.3998  154.1739 C   0  0  0  0  0  0  0  0  0  0  0  0
  150.1848  140.5396  154.6368 N   0  0  0  0  0  0  0  0  0  0  0  0
  149.4185  141.6437  154.7506 C   0  0  0  0  0  0  0  0  0  0  0  0
  148.0544  141.6737  154.4076 C   0  0  0  0  0  0  0  0  0  0  0  0
  147.4575  140.4926  153.9292 C   0  0  0  0  0  0  0  0  0  0  0  0
  148.2457  139.3216  153.8167 C   0  0  0  0  0  0  0  0  0  0  0  0
  147.7486  138.0845  153.3221 N   0  0  0  0  0  0  0  0  0  0  0  0
  146.5305  137.5441  153.4923 C   0  0  0  0  0  0  0  0  0  0  0  0
  145.6214  138.0374  154.1594 O   0  0  0  0  0  0  0  0  0  0  0  0
  146.4341  136.3678  152.8558 N   0  0  0  0  0  0  0  0  0  0  0  0
  145.2610  135.4957  152.8342 C   0  0  1  0  0  0  0  0  0  0  0  0
  144.0016  136.3633  152.6966 C   0  0  0  0  0  0  0  0  0  0  0  0
  145.3787  134.4703  151.6890 C   0  0  1  0  0  0  0  0  0  0  0  0
  146.5302  133.4736  151.8272 C   0  0  0  0  0  0  0  0  0  0  0  0
  146.0761  132.2908  150.9874 C   0  0  0  0  0  0  0  0  0  0  0  0
  144.5689  132.5074  150.8233 C   0  0  0  0  0  0  0  0  0  0  0  0
  144.2522  133.6080  151.6648 O   0  0  0  0  0  0  0  0  0  0  0  0
  152.2475  137.3881  154.2701 H   0  0  0  0  0  0  0  0  0  0  0  0
  151.8834  138.6159  155.4772 H   0  0  0  0  0  0  0  0  0  0  0  0
  152.3061  139.0876  153.8153 H   0  0  0  0  0  0  0  0  0  0  0  0
  149.9095  142.5322  155.1190 H   0  0  0  0  0  0  0  0  0  0  0  0
  147.4803  142.5834  154.5040 H   0  0  0  0  0  0  0  0  0  0  0  0
  146.4170  140.5123  153.6439 H   0  0  0  0  0  0  0  0  0  0  0  0
  148.4226  137.5155  152.8309 H   0  0  0  0  0  0  0  0  0  0  0  0
  147.2403  136.0454  152.3410 H   0  0  0  0  0  0  0  0  0  0  0  0
  145.1830  134.9516  153.7773 H   0  0  0  0  0  0  0  0  0  0  0  0
  143.0991  135.7517  152.7123 H   0  0  0  0  0  0  0  0  0  0  0  0
  144.0055  136.9260  151.7623 H   0  0  0  0  0  0  0  0  0  0  0  0
  143.9262  137.0780  153.5168 H   0  0  0  0  0  0  0  0  0  0  0  0
  145.4494  134.9824  150.7271 H   0  0  0  0  0  0  0  0  0  0  0  0
  147.4867  133.8828  151.5006 H   0  0  0  0  0  0  0  0  0  0  0  0
  146.6350  133.1634  152.8679 H   0  0  0  0  0  0  0  0  0  0  0  0
  146.5680  132.2849  150.0141 H   0  0  0  0  0  0  0  0  0  0  0  0
  146.3016  131.3464  151.4838 H   0  0  0  0  0  0  0  0  0  0  0  0
  144.3288  132.7648  149.7907 H   0  0  0  0  0  0  0  0  0  0  0  0
  143.9875  131.6273  151.0985 H   0  0  0  0  0  0  0  0  0  0  0  0
  1  2  1  0  0  0  0
  1 20  1  0  0  0  0
  1 21  1  0  0  0  0
  1 22  1  0  0  0  0
  2  3  1  0  0  0  0
  3  8  1  0  0  0  0
  3  4  2  0  0  0  0
  4  5  1  0  0  0  0
  5  6  2  0  0  0  0
  5 23  1  0  0  0  0
  6  7  1  0  0  0  0
  6 24  1  0  0  0  0
  7  8  2  0  0  0  0
  7 25  1  0  0  0  0
  8  9  1  0  0  0  0
  9 10  1  0  0  0  0
  9 26  1  0  0  0  0
 10 11  2  0  0  0  0
 10 12  1  0  0  0  0
 12 13  1  0  0  0  0
 12 27  1  0  0  0  0
 13 14  1  0  0  0  0
 13 15  1  0  0  0  0
 13 28  1  0  0  0  0
 14 29  1  0  0  0  0
 14 30  1  0  0  0  0
 14 31  1  0  0  0  0
 15 19  1  0  0  0  0
 15 16  1  0  0  0  0
 15 32  1  0  0  0  0
 16 17  1  0  0  0  0
 16 33  1  0  0  0  0
 16 34  1  0  0  0  0
 17 18  1  0  0  0  0
 17 35  1  0  0  0  0
 17 36  1  0  0  0  0
 18 19  1  0  0  0  0
 18 37  1  0  0  0  0
 18 38  1  0  0  0  0
M  END
> <s_m_source_file>
AV-unprocessed.smi

> <i_m_source_file_index>
1730

> <i_lp_mmshare_version>
43012

> <i_f3d_flags>
0

> <s_epik_input>
W0NIM11PYzFuW2NIXVtjSF1bY0hdYzFbTkhdQyg9TylbTkhdW0NASF0oW0NIM10pW0NAQEhdMltDSDJdW0NIMl1bQ0gyXU8y

> <s_epik_cmdline>
J2VwaWtfcHl0aG9uJywgJy1waCcsICc3LjAnLCAnLXRuJywgJzgnLCAnLW1hJywgJzIwMCcsICctbWV0YWxfYmluZGluZycsICctaW1hZScsICc8aW5maWxlLm1hZT4nLCAnLW9tYWUnLCAnPG91dGZpbGUubWFlPic=

> <r_lp_tautomer_probability>
1

> <r_epik_Ionization_Penalty>
9.187e-05

> <r_epik_Ionization_Penalty_Charging>
0

> <r_epik_Ionization_Penalty_Neutral>
9.187e-05

> <r_epik_State_Penalty>
-0

> <r_epik_Charging_Adjusted_Penalty>
0

> <i_epik_Tot_Q>
0

> <i_epik_Tot_abs_Q>
0

> <r_epik_Metal_State_Penalty>
-0

> <b_epik_Metal_Only>
0

> <s_lp_Force_Field>
OPLS_2005

> <r_lp_Energy>
20.9295

> <b_lp_Chiralities_Consistent>
1

> <s_lp_Variant>
AV-unprocessed.smi:1730-4

> <Gold.Version>
5.8.1

> <Gold.Id.Protein>
6NUR|6NUR_protein|mol2

> <Gold.PLP.Fitness>
42.8499

> <Gold.PLP.PLP>
-32.1767

> <Gold.PLP.part.hbond>
-3.0000

> <Gold.PLP.part.metal>
0.0000

> <Gold.PLP.part.buried>
-3.4212

> <Gold.PLP.part.nonpolar>
-26.6008

> <Gold.PLP.part.repulsive>
0.6740

> <Gold.PLP.ligand.clash>
0.0000

> <Gold.PLP.ligand.torsion>
0.5111

> <Gold.PLP.Chemscore.Hbond>
2.9440

> <Gold.PLP.Chemscore.CHOScore>
0.9408

> <Gold.PLP.Chemscore.Metal>
0.0000

> <Gold.Chemscore.Hbonds>
donor molecule, donor type, donor heavy atom, donor atom, acceptor molecule, acceptor atom, score
      L1  H     9    26       P1  7948  1.00
      L1  H    12    27       P1  7948  1.00
      P1  H  7989  7998       L1     4  0.91
      L1  C     5    23       P1  8028  0.96

> <Gold.PLP.Chemscore.Internal.Correction>
0.0411

> <Gold.Rescore>
     Score         DG    S(hbond)    S(metal)    S(lipo)     H(rot)  DE(clash)    DE(int)     intcor
     14.77     -16.49       2.04        0.00      67.92       1.47       0.13       1.59       ----

> <Gold.Chemscore.Fitness>
14.7651

> <Gold.Chemscore.DG>
-16.4900

> <Gold.Chemscore.ZeroCoef>
-5.4800

> <Gold.Chemscore.Hbond>
2.0432

> <Gold.Chemscore.Metal>
0.0000

> <Gold.Chemscore.Lipo>
67.9231

> <Gold.Chemscore.Internal_Hbond>
0.0000

> <Gold.Chemscore.DEClash>
0.1303

> <Gold.Chemscore.DEInternal>
1.5945

> <Gold.Chemscore.Rot>
1.4693

> <Gold.Chemscore.Internal.Correction>
   9.000000E+99

> <Gold.Chemscore.Hbonds>
donor molecule, donor type, donor heavy atom, donor atom, acceptor molecule, acceptor atom, score
      L1  H     9    26       P1  7948  0.99
      L1  H    12    27       P1  7948  0.95
      P1  H  7989  7998       L1     4  0.35

> <Gold.Chemscore.Hbond.Weighted>
-6.8243

> <Gold.Chemscore.Metal.Weighted>
-0.0000

> <Gold.Chemscore.Lipo.Weighted>
-7.9470

> <Gold.Chemscore.Internal_Hbond.Weighted>
0.0000

> <Gold.Chemscore.DEClash.Weighted>
0.1303

> <Gold.Chemscore.DEInternal.Weighted>
1.5945

> <Gold.Chemscore.Rot.Weighted>
3.7613

> <Gold.Chemscore.Internal.Correction.Weighted>
   9.000000E+99

> <Gold.Protein.RotatedTorsions>
[ 6907 6896 6895 6894 ] final   53.55 input  -60.11 | X-H torsion
[ 7974 7965 7964 7962 ] final   67.57 input  175.53 | X-H torsion
[ 8008 7997 7996 7995 ] final  -24.94 input   59.86 | X-H torsion
[ 10167 10162 10161 10158 ] final -146.62 input  -65.29 | X-H torsion
[ 10718 10713 10712 10709 ] final  179.38 input   66.30 | X-H torsion
[ 10763 10752 10751 10750 ] final -119.62 input  -60.55 | X-H torsion
[ 11005 11000 10999 10996 ] final  -95.81 input  -57.11 | X-H torsion

> <Gold.Protein.ActiveResidues>
 VAL166  LYS551  ARG553  GLY616  TRP617  ASP618  TYR619  PRO620  LYS621  CYS622 
 ASP623  PHE694  ASN695  SER759  ASP760  ASP761  ALA762  ILE779  LEU786  VAL792 
 PHE793  MET794  SER795  GLU796  ALA797  LYS798  CYS799  TRP800  GLU811  SER814 

> <Gold.Protein.RotatedAtoms>
  152.3348  134.7212  160.0279 H   0  0  0  0  0  0  0  0  0  0  0  0  # atno 6907 bound_to 6896
  151.7616  133.3329  159.3427 H   0  0  0  0  0  0  0  0  0  0  0  0  # atno 6908 bound_to 6896
  150.7444  134.6032  159.6092 H   0  0  0  0  0  0  0  0  0  0  0  0  # atno 6909 bound_to 6896
  145.8130  139.3043  143.1088 H   0  0  0  0  0  0  0  0  0  0  0  0  # atno 7974 bound_to 7965
  154.4502  140.1940  156.0543 H   0  0  0  0  0  0  0  0  0  0  0  0  # atno 8008 bound_to 7997
  156.0631  140.3294  155.7458 H   0  0  0  0  0  0  0  0  0  0  0  0  # atno 8009 bound_to 7997
  155.5381  140.0584  157.2866 H   0  0  0  0  0  0  0  0  0  0  0  0  # atno 8010 bound_to 7997
  139.7696  143.8257  152.2622 H   0  0  0  0  0  0  0  0  0  0  0  0  # atno 10167 bound_to 10162
  156.8765  130.9801  151.3067 H   0  0  0  0  0  0  0  0  0  0  0  0  # atno 10718 bound_to 10713
  154.8622  135.4232  154.2329 H   0  0  0  0  0  0  0  0  0  0  0  0  # atno 10763 bound_to 10752
  153.3310  135.6988  153.6953 H   0  0  0  0  0  0  0  0  0  0  0  0  # atno 10764 bound_to 10752
  153.5970  135.3544  155.2905 H   0  0  0  0  0  0  0  0  0  0  0  0  # atno 10765 bound_to 10752
  141.1430  133.8053  157.0486 H   0  0  0  0  0  0  0  0  0  0  0  0  # atno 11005 bound_to 11000
  145.9756  140.8724  143.0140 LP  0  0  0  0  0  0  0  0  0  0  0  0  # atno 17320 bound_to 7965
  144.6755  140.2008  143.7387 LP  0  0  0  0  0  0  0  0  0  0  0  0  # atno 17321 bound_to 7965
  139.8287  144.7263  150.9478 LP  0  0  0  0  0  0  0  0  0  0  0  0  # atno 17342 bound_to 10162
  140.7813  143.4090  151.1024 LP  0  0  0  0  0  0  0  0  0  0  0  0  # atno 17343 bound_to 10162
  157.6165  130.8622  149.9037 LP  0  0  0  0  0  0  0  0  0  0  0  0  # atno 17370 bound_to 10713
  156.0699  130.3686  150.0798 LP  0  0  0  0  0  0  0  0  0  0  0  0  # atno 17371 bound_to 10713
  140.0646  134.9736  157.1364 LP  0  0  0  0  0  0  0  0  0  0  0  0  # atno 17394 bound_to 11000
  140.3798  134.2299  155.7172 LP  0  0  0  0  0  0  0  0  0  0  0  0  # atno 17395 bound_to 11000

$$$$
