#       Name:                AV-unprocessed.smi:68
#       Creating user name   scv26
#       Creation time:       Thu Mar 26 16:53:42 2020


#       File generated by GOLD software.
#

@<TRIPOS>MOLECULE
AV-unprocessed.smi:68
    29    30     1
SMALL
NO_CHARGES


@<TRIPOS>ATOM
      1 ****        -4.6215   0.3530   0.3368 O.2            1 S1                 0.0000
      2 ****        -3.3923   0.3346   0.3443 C.2            1 S1                 0.0000
      3 ****        -2.6712   1.5323   0.3553 N.am           1 S1                 0.0000
      4 ****        -1.2793   1.6417   0.3659 C.2            1 S1                 0.0000
      5 ****        -0.7513   2.7528   0.3559 O.2            1 S1                 0.0000
      6 ****        -0.5382   0.4389   0.3794 N.am           1 S1                 0.0000
      7 ****         0.9724   0.5015   0.3851 C.3            1 S1                 0.0000
      8 ****         1.5249   0.3838  -1.0400 C.3            1 S1                 0.0000
      9 ****         2.7278  -0.5102  -0.8310 C.3            1 S1                 0.0000
     10 ****         2.2390  -1.4262   0.2835 C.3            1 S1                 0.0000
     11 ****         1.4783  -0.5698   1.1302 O.3            1 S1                 0.0000
     12 ****        -1.2129  -0.7747   0.3529 C.2            1 S1                 0.0000
     13 ****        -2.5636  -0.8672   0.3382 C.2            1 S1                 0.0000
     14 ****        -3.1458  -2.0781   0.3123 F              1 S1                 0.0000
     15 ****        -3.2026   2.3908   0.3509 H              1 S1                 0.0000
     16 ****         1.2662   1.4212   0.8934 H              1 S1                 0.0000
     17 ****         0.7956  -0.1079  -1.6858 H              1 S1                 0.0000
     18 ****         1.7671   1.3629  -1.4538 H              1 S1                 0.0000
     19 ****         3.0223  -1.0509  -1.7308 H              1 S1                 0.0000
     20 ****         3.5795   0.0787  -0.4877 H              1 S1                 0.0000
     21 ****         1.5990  -2.2116  -0.1196 H              1 S1                 0.0000
     22 ****         3.0566  -1.8999   0.8271 H              1 S1                 0.0000
     23 ****        -0.6505  -1.6955   0.3379 H              1 S1                 0.0000
     24 ****        -5.1343  -0.5054   0.3255 LP             1 S1                 0.0000
     25 ****        -5.1085   1.2264   0.3419 LP             1 S1                 0.0000
     26 ****        -1.3189   3.5760   0.3402 LP             1 S1                 0.0000
     27 ****         0.2455   2.8328   0.3635 LP             1 S1                 0.0000
     28 ****         0.7197  -1.0850   1.5290 LP             1 S1                 0.0000
     29 ****         2.0639  -0.2193   1.8611 LP             1 S1                 0.0000
@<TRIPOS>BOND
    1    1    2 2     
    2    2   13 1     
    3    2    3 1     
    4    3   15 1     
    5    3    4 1     
    6    4    5 2     
    7    4    6 1     
    8    6    7 1     
    9    6   12 1     
   10    7   11 1     
   11    7    8 1     
   12    7   16 1     
   13    8    9 1     
   14    8   17 1     
   15    8   18 1     
   16    9   10 1     
   17    9   19 1     
   18    9   20 1     
   19   10   11 1     
   20   10   21 1     
   21   10   22 1     
   22   12   13 2     
   23   12   23 1     
   24   13   14 1     
   25    1   24 1     
   26    1   25 1     
   27    5   26 1     
   28    5   27 1     
   29   11   28 1     
   30   11   29 1     
@<TRIPOS>SUBSTRUCTURE
      1 S1             1
@<TRIPOS>SET
LONE_PAIRS      STATIC     ATOMS    <user>   **** ""
6 24 25 26 27 28 29
DONOR_HYDROGENS      STATIC     ATOMS    <user>   **** ""
1 15
ATOM$BLUE        STATIC     ATOMS    COLORGROUP SYSTEM
6 24 25 26 27 28 29
ATOM$RED        STATIC     ATOMS    COLORGROUP SYSTEM
1 15
