AV-unprocessed.smi:1798|AV-procd|sdf|7259|dock1
  -GOLD-   22720 8513D 1   1.00000     0.00000
 Structure written by MMmdl.
 40 41  0  0  0  0  0  0  0  0  3 V2000
  153.3700  142.0219  161.1419 C   0  0  0  0  0  0  0  0  0  0  0  0
  152.2772  142.1442  160.0705 C   0  0  2  0  0  0  0  0  0  0  0  0
  152.1193  140.8347  159.2746 C   0  0  0  0  0  0  0  0  0  0  0  0
  151.0283  140.9533  158.1980 C   0  0  0  0  0  0  0  0  0  0  0  0
  151.3018  142.1352  157.2460 C   0  0  1  0  0  0  0  0  0  0  0  0
  150.2191  142.2783  156.2773 N   0  0  0  0  0  0  0  0  0  0  0  0
  149.9742  141.4413  155.2578 C   0  0  0  0  0  0  0  0  0  0  0  0
  150.6444  140.4313  155.0375 O   0  0  0  0  0  0  0  0  0  0  0  0
  148.7730  141.7983  154.3703 C   0  0  0  0  0  0  0  0  0  0  0  0
  147.6915  140.8003  154.4250 N   0  0  0  0  0  0  0  0  0  0  0  0
  147.4154  140.0887  153.2406 C   0  0  0  0  0  0  0  0  0  0  0  0
  146.4441  139.1572  153.1746 C   0  0  0  0  0  0  0  0  0  0  0  0
  146.1709  138.4404  151.9483 N   0  3  0  0  0  0  0  0  0  0  0  0
  146.7719  138.7670  150.9298 O   0  0  0  0  0  0  0  0  0  0  0  0
  145.3476  137.5301  151.9611 O   0  5  0  0  0  0  0  0  0  0  0  0
  145.6753  138.8987  154.3769 C   0  0  0  0  0  0  0  0  0  0  0  0
  145.9321  139.5782  155.5118 C   0  0  0  0  0  0  0  0  0  0  0  0
  146.9876  140.5941  155.5801 C   0  0  0  0  0  0  0  0  0  0  0  0
  147.2242  141.2215  156.6125 O   0  0  0  0  0  0  0  0  0  0  0  0
  151.4614  143.4446  158.0395 C   0  0  0  0  0  0  0  0  0  0  0  0
  152.5526  143.3215  159.1156 C   0  0  0  0  0  0  0  0  0  0  0  0
  154.3450  141.8281  160.6936 H   0  0  0  0  0  0  0  0  0  0  0  0
  153.1531  141.2068  161.8327 H   0  0  0  0  0  0  0  0  0  0  0  0
  153.4490  142.9374  161.7285 H   0  0  0  0  0  0  0  0  0  0  0  0
  151.3350  142.3415  160.5841 H   0  0  0  0  0  0  0  0  0  0  0  0
  153.0672  140.5737  158.8019 H   0  0  0  0  0  0  0  0  0  0  0  0
  151.8762  140.0140  159.9503 H   0  0  0  0  0  0  0  0  0  0  0  0
  150.9699  140.0207  157.6357 H   0  0  0  0  0  0  0  0  0  0  0  0
  150.0582  141.0838  158.6798 H   0  0  0  0  0  0  0  0  0  0  0  0
  152.2352  141.9490  156.7108 H   0  0  0  0  0  0  0  0  0  0  0  0
  149.6135  143.0787  156.3883 H   0  0  0  0  0  0  0  0  0  0  0  0
  148.4049  142.7784  154.6767 H   0  0  0  0  0  0  0  0  0  0  0  0
  149.1100  141.9311  153.3404 H   0  0  0  0  0  0  0  0  0  0  0  0
  148.0373  140.3596  152.3996 H   0  0  0  0  0  0  0  0  0  0  0  0
  144.8882  138.1591  154.3758 H   0  0  0  0  0  0  0  0  0  0  0  0
  145.3467  139.3708  156.3954 H   0  0  0  0  0  0  0  0  0  0  0  0
  151.7061  144.2640  157.3626 H   0  0  0  0  0  0  0  0  0  0  0  0
  150.5152  143.7082  158.5145 H   0  0  0  0  0  0  0  0  0  0  0  0
  152.6145  144.2530  159.6792 H   0  0  0  0  0  0  0  0  0  0  0  0
  153.5227  143.1879  158.6346 H   0  0  0  0  0  0  0  0  0  0  0  0
  1  2  1  0  0  0  0
  1 22  1  0  0  0  0
  1 23  1  0  0  0  0
  1 24  1  0  0  0  0
  2 21  1  0  0  0  0
  2  3  1  0  0  0  0
  2 25  1  0  0  0  0
  3  4  1  0  0  0  0
  3 26  1  0  0  0  0
  3 27  1  0  0  0  0
  4  5  1  0  0  0  0
  4 28  1  0  0  0  0
  4 29  1  0  0  0  0
  5  6  1  0  0  0  0
  5 20  1  0  0  0  0
  5 30  1  0  0  0  0
  6  7  1  0  0  0  0
  6 31  1  0  0  0  0
  7  8  2  0  0  0  0
  7  9  1  0  0  0  0
  9 10  1  0  0  0  0
  9 32  1  0  0  0  0
  9 33  1  0  0  0  0
 10 18  1  0  0  0  0
 10 11  1  0  0  0  0
 11 12  2  0  0  0  0
 11 34  1  0  0  0  0
 12 13  1  0  0  0  0
 12 16  1  0  0  0  0
 13 14  2  0  0  0  0
 13 15  1  0  0  0  0
 16 17  2  0  0  0  0
 16 35  1  0  0  0  0
 17 18  1  0  0  0  0
 17 36  1  0  0  0  0
 18 19  2  0  0  0  0
 20 21  1  0  0  0  0
 20 37  1  0  0  0  0
 20 38  1  0  0  0  0
 21 39  1  0  0  0  0
 21 40  1  0  0  0  0
M  CHG  1  13   1
M  CHG  1  15  -1
M  END
> <s_m_source_file>
AV-unprocessed.smi

> <i_m_source_file_index>
1798

> <i_lp_mmshare_version>
43012

> <i_f3d_flags>
0

> <s_epik_input>
W0NIM11bQ0BASF0xW0NIMl1bQ0gyXVtDQEhdKFtDSDJdW0NIMl0xKVtOSF1DKD1PKVtDSDJdbjJbY0hdYyhbTitdKD1PKVtPLV0pW2NIXVtjSF1jMj1P

> <s_epik_cmdline>
J2VwaWtfcHl0aG9uJywgJy1waCcsICc3LjAnLCAnLXRuJywgJzgnLCAnLW1hJywgJzIwMCcsICctbWV0YWxfYmluZGluZycsICctaW1hZScsICc8aW5maWxlLm1hZT4nLCAnLW9tYWUnLCAnPG91dGZpbGUubWFlPic=

> <r_lp_tautomer_probability>
1

> <r_epik_Ionization_Penalty>
1.91292e-08

> <r_epik_Ionization_Penalty_Charging>
8.23013e-11

> <r_epik_Ionization_Penalty_Neutral>
1.90469e-08

> <r_epik_State_Penalty>
-0

> <r_epik_Charging_Adjusted_Penalty>
8.23013e-11

> <i_epik_Tot_Q>
0

> <i_epik_Tot_abs_Q>
2

> <r_epik_Metal_State_Penalty>
-0

> <b_epik_Metal_Only>
0

> <s_lp_Force_Field>
OPLS_2005

> <r_lp_Energy>
19.9033

> <b_lp_Chiralities_Consistent>
1

> <s_lp_Variant>
AV-unprocessed.smi:1798-1

> <Gold.Version>
5.8.1

> <Gold.Id.Protein>
6NUR|6NUR_protein|mol2

> <Gold.PLP.Fitness>
50.6036

> <Gold.PLP.PLP>
-39.0456

> <Gold.PLP.part.hbond>
-3.0000

> <Gold.PLP.part.metal>
0.0000

> <Gold.PLP.part.buried>
-4.4140

> <Gold.PLP.part.nonpolar>
-32.6756

> <Gold.PLP.part.repulsive>
0.7944

> <Gold.PLP.ligand.clash>
0.0000

> <Gold.PLP.ligand.torsion>
0.1965

> <Gold.PLP.Chemscore.Hbond>
2.9760

> <Gold.PLP.Chemscore.CHOScore>
1.0000

> <Gold.PLP.Chemscore.Metal>
0.0000

> <Gold.Chemscore.Hbonds>
donor molecule, donor type, donor heavy atom, donor atom, acceptor molecule, acceptor atom, score
      L1  H     6    31       P1  8028  0.98
      P1  H  7954  7966       L1    14  0.90
      P1  H  7989  7998       L1     8  1.00
      L1  C    11    34       P1  7957  0.95

> <Gold.PLP.Chemscore.Internal.Correction>
0.0229

> <Gold.Rescore>
     Score         DG    S(hbond)    S(metal)    S(lipo)     H(rot)  DE(clash)    DE(int)     intcor
     19.07     -20.52       2.59        0.00      88.38       1.55       1.24       0.20       ----

> <Gold.Chemscore.Fitness>
19.0728

> <Gold.Chemscore.DG>
-20.5180

> <Gold.Chemscore.ZeroCoef>
-5.4800

> <Gold.Chemscore.Hbond>
2.5948

> <Gold.Chemscore.Metal>
0.0000

> <Gold.Chemscore.Lipo>
88.3804

> <Gold.Chemscore.Internal_Hbond>
0.0000

> <Gold.Chemscore.DEClash>
1.2444

> <Gold.Chemscore.DEInternal>
0.2008

> <Gold.Chemscore.Rot>
1.5505

> <Gold.Chemscore.Internal.Correction>
   9.000000E+99

> <Gold.Chemscore.Hbonds>
donor molecule, donor type, donor heavy atom, donor atom, acceptor molecule, acceptor atom, score
      L1  H     6    31       P1  8028  0.93
      P1  H  7954  7966       L1    14  0.86
      P1  H  7989  7998       L1     8  0.38

> <Gold.Chemscore.Hbond.Weighted>
-8.6666

> <Gold.Chemscore.Metal.Weighted>
-0.0000

> <Gold.Chemscore.Lipo.Weighted>
-10.3405

> <Gold.Chemscore.Internal_Hbond.Weighted>
0.0000

> <Gold.Chemscore.DEClash.Weighted>
1.2444

> <Gold.Chemscore.DEInternal.Weighted>
0.2008

> <Gold.Chemscore.Rot.Weighted>
3.9692

> <Gold.Chemscore.Internal.Correction.Weighted>
   9.000000E+99

> <Gold.Protein.RotatedTorsions>
[ 6907 6896 6895 6894 ] final   37.39 input  -60.11 | X-H torsion
[ 7974 7965 7964 7962 ] final  130.63 input  175.53 | X-H torsion
[ 8008 7997 7996 7995 ] final -127.31 input   59.86 | X-H torsion
[ 10167 10162 10161 10158 ] final   98.80 input  -65.29 | X-H torsion
[ 10718 10713 10712 10709 ] final    4.54 input   66.30 | X-H torsion
[ 10763 10752 10751 10750 ] final -149.24 input  -60.55 | X-H torsion
[ 11005 11000 10999 10996 ] final  147.64 input  -57.11 | X-H torsion

> <Gold.Protein.ActiveResidues>
 VAL166  LYS551  ARG553  GLY616  TRP617  ASP618  TYR619  PRO620  LYS621  CYS622 
 ASP623  PHE694  ASN695  SER759  ASP760  ASP761  ALA762  ILE779  LEU786  VAL792 
 PHE793  MET794  SER795  GLU796  ALA797  LYS798  CYS799  TRP800  GLU811  SER814 

> <Gold.Protein.RotatedAtoms>
  152.1426  134.9051  160.0552 H   0  0  0  0  0  0  0  0  0  0  0  0  # atno 6907 bound_to 6896
  152.0113  133.3857  159.4229 H   0  0  0  0  0  0  0  0  0  0  0  0  # atno 6908 bound_to 6896
  150.6866  134.3649  159.5010 H   0  0  0  0  0  0  0  0  0  0  0  0  # atno 6909 bound_to 6896
  145.0158  139.4177  143.5222 H   0  0  0  0  0  0  0  0  0  0  0  0  # atno 7974 bound_to 7965
  155.2441  140.0430  157.2978 H   0  0  0  0  0  0  0  0  0  0  0  0  # atno 8008 bound_to 7997
  154.5810  140.2400  155.8024 H   0  0  0  0  0  0  0  0  0  0  0  0  # atno 8009 bound_to 7997
  156.2193  140.2975  155.9921 H   0  0  0  0  0  0  0  0  0  0  0  0  # atno 8010 bound_to 7997
  139.7675  144.6933  151.0203 H   0  0  0  0  0  0  0  0  0  0  0  0  # atno 10167 bound_to 10162
  156.8941  130.5698  149.5649 H   0  0  0  0  0  0  0  0  0  0  0  0  # atno 10718 bound_to 10713
  154.8188  135.3314  154.7098 H   0  0  0  0  0  0  0  0  0  0  0  0  # atno 10763 bound_to 10752
  153.7735  135.6924  153.4906 H   0  0  0  0  0  0  0  0  0  0  0  0  # atno 10764 bound_to 10752
  153.2029  135.4510  155.0236 H   0  0  0  0  0  0  0  0  0  0  0  0  # atno 10765 bound_to 10752
  140.0892  134.9051  157.1624 H   0  0  0  0  0  0  0  0  0  0  0  0  # atno 11005 bound_to 11000
  146.3477  139.9628  142.8715 LP  0  0  0  0  0  0  0  0  0  0  0  0  # atno 17320 bound_to 7965
  145.1961  140.9834  143.4182 LP  0  0  0  0  0  0  0  0  0  0  0  0  # atno 17321 bound_to 7965
  140.7812  143.4626  151.0257 LP  0  0  0  0  0  0  0  0  0  0  0  0  # atno 17342 bound_to 10162
  139.8310  143.7691  152.3180 LP  0  0  0  0  0  0  0  0  0  0  0  0  # atno 17343 bound_to 10162
  156.0614  130.5666  150.9200 LP  0  0  0  0  0  0  0  0  0  0  0  0  # atno 17370 bound_to 10713
  157.6066  131.0938  150.8869 LP  0  0  0  0  0  0  0  0  0  0  0  0  # atno 17371 bound_to 10713
  140.3376  134.2740  155.7217 LP  0  0  0  0  0  0  0  0  0  0  0  0  # atno 17394 bound_to 11000
  141.2072  133.7811  157.0130 LP  0  0  0  0  0  0  0  0  0  0  0  0  # atno 17395 bound_to 11000

$$$$
