AV-unprocessed.smi:21|AV-procd|sdf|160|dock1
  -GOLD-   2262015393D 1   1.00000     0.00000
 Structure written by MMmdl.
 61 64  0  0  0  0  0  0  0  0  1 V2000
  149.4055  144.7868  160.2110 C   0  0  0  0  0  0  0  0  0  0  0  0
  150.3951  145.7975  160.3237 O   0  0  0  0  0  0  0  0  0  0  0  0
  151.6340  145.4394  159.7278 C   0  0  2  0  0  0  0  0  0  0  0  0
  151.4485  144.8841  158.3058 C   0  0  0  0  0  0  0  0  0  0  0  0
  152.2619  143.5825  158.3019 C   0  0  2  0  0  0  0  0  0  0  0  0
  151.8216  142.5734  157.2164 C   0  0  0  0  0  0  0  0  0  0  0  0
  150.6320  141.8032  157.5830 N   0  0  0  0  0  0  0  0  0  0  0  0
  150.7861  140.7487  158.5805 C   0  0  0  0  0  0  0  0  0  0  0  0
  149.6517  141.6657  156.6508 C   0  0  0  0  0  0  0  0  0  0  0  0
  149.9977  141.4752  155.3490 N   0  0  0  0  0  0  0  0  0  0  0  0
  149.0589  141.3856  154.4030 C   0  0  0  0  0  0  0  0  0  0  0  0
  147.7340  141.4573  154.5345 N   0  0  0  0  0  0  0  0  0  0  0  0
  147.3762  141.6264  155.8388 C   0  0  0  0  0  0  0  0  0  0  0  0
  148.2596  141.7277  156.9514 C   0  0  0  0  0  0  0  0  0  0  0  0
  147.5219  141.8599  158.1227 N   0  0  0  0  0  0  0  0  0  0  0  0
  146.2797  141.8592  157.7247 C   0  0  0  0  0  0  0  0  0  0  0  0
  146.1023  141.7544  156.3643 N   0  0  0  0  0  0  0  0  0  0  0  0
  144.8371  141.7408  155.6522 C   0  0  0  0  0  0  0  0  0  0  0  0
  143.9940  143.0387  155.8021 C   0  0  1  0  0  0  0  0  0  0  0  0
  144.7353  144.2077  155.1085 C   0  0  0  0  0  0  0  0  0  0  0  0
  144.3471  144.3348  153.7558 O   0  0  0  0  0  0  0  0  0  0  0  0
  142.5373  142.8914  155.2663 C   0  0  2  0  0  0  0  0  0  0  0  0
  141.7097  144.1684  155.2941 C   0  0  0  0  0  0  0  0  0  0  0  0
  140.2878  143.6406  155.1745 C   0  0  0  0  0  0  0  0  0  0  0  0
  140.2863  142.4476  155.9402 O   0  0  0  0  0  0  0  0  0  0  0  0
  141.6161  141.9548  156.0680 C   0  0  0  0  0  0  0  0  0  0  0  0
  152.1310  143.0904  159.6638 N   0  0  0  0  0  0  0  0  0  0  0  0
  153.0921  142.0539  160.0169 C   0  0  0  0  0  0  0  0  0  0  0  0
  152.2726  144.2737  160.4939 C   0  0  0  0  0  0  0  0  0  0  0  0
  152.3217  146.2871  159.7363 H   0  0  0  0  0  0  0  0  0  0  0  0
  153.3079  143.8446  158.1331 H   0  0  0  0  0  0  0  0  0  0  0  0
  148.4826  145.1258  160.6813 H   0  0  0  0  0  0  0  0  0  0  0  0
  149.7139  143.8648  160.7050 H   0  0  0  0  0  0  0  0  0  0  0  0
  149.1856  144.5652  159.1660 H   0  0  0  0  0  0  0  0  0  0  0  0
  150.3953  144.6654  158.1210 H   0  0  0  0  0  0  0  0  0  0  0  0
  151.7824  145.5895  157.5452 H   0  0  0  0  0  0  0  0  0  0  0  0
  151.5793  143.1060  156.2973 H   0  0  0  0  0  0  0  0  0  0  0  0
  152.6585  141.9279  156.9598 H   0  0  0  0  0  0  0  0  0  0  0  0
  149.8283  140.5117  159.0448 H   0  0  0  0  0  0  0  0  0  0  0  0
  151.4689  141.0657  159.3691 H   0  0  0  0  0  0  0  0  0  0  0  0
  151.1881  139.8409  158.1293 H   0  0  0  0  0  0  0  0  0  0  0  0
  149.4220  141.2434  153.3959 H   0  0  0  0  0  0  0  0  0  0  0  0
  145.4553  141.9555  158.4161 H   0  0  0  0  0  0  0  0  0  0  0  0
  145.0717  141.5541  154.6040 H   0  0  0  0  0  0  0  0  0  0  0  0
  144.2572  140.8811  155.9901 H   0  0  0  0  0  0  0  0  0  0  0  0
  143.9288  143.2903  156.8614 H   0  0  0  0  0  0  0  0  0  0  0  0
  144.5492  145.1480  155.6284 H   0  0  0  0  0  0  0  0  0  0  0  0
  145.8130  144.0519  155.1038 H   0  0  0  0  0  0  0  0  0  0  0  0
  143.8701  143.5583  153.5049 H   0  0  0  0  0  0  0  0  0  0  0  0
  142.5726  142.5414  154.2332 H   0  0  0  0  0  0  0  0  0  0  0  0
  141.8361  144.6867  156.2457 H   0  0  0  0  0  0  0  0  0  0  0  0
  141.9552  144.8610  154.4888 H   0  0  0  0  0  0  0  0  0  0  0  0
  139.5412  144.3489  155.5344 H   0  0  0  0  0  0  0  0  0  0  0  0
  140.0570  143.3954  154.1371 H   0  0  0  0  0  0  0  0  0  0  0  0
  141.6592  140.9274  155.7099 H   0  0  0  0  0  0  0  0  0  0  0  0
  141.8742  141.9564  157.1271 H   0  0  0  0  0  0  0  0  0  0  0  0
  152.9838  141.7731  161.0651 H   0  0  0  0  0  0  0  0  0  0  0  0
  154.1168  142.3943  159.8617 H   0  0  0  0  0  0  0  0  0  0  0  0
  152.9375  141.1552  159.4204 H   0  0  0  0  0  0  0  0  0  0  0  0
  153.3304  144.4948  160.6466 H   0  0  0  0  0  0  0  0  0  0  0  0
  151.8270  144.1239  161.4778 H   0  0  0  0  0  0  0  0  0  0  0  0
  1  2  1  0  0  0  0
  1 32  1  0  0  0  0
  1 33  1  0  0  0  0
  1 34  1  0  0  0  0
  2  3  1  0  0  0  0
  3 30  1  0  0  0  0
  3 29  1  0  0  0  0
  3  4  1  0  0  0  0
  4  5  1  0  0  0  0
  4 35  1  0  0  0  0
  4 36  1  0  0  0  0
  5 31  1  0  0  0  0
  5  6  1  0  0  0  0
  5 27  1  0  0  0  0
  6  7  1  0  0  0  0
  6 37  1  0  0  0  0
  6 38  1  0  0  0  0
  7  8  1  0  0  0  0
  7  9  1  0  0  0  0
  8 39  1  0  0  0  0
  8 40  1  0  0  0  0
  8 41  1  0  0  0  0
  9 14  1  0  0  0  0
  9 10  2  0  0  0  0
 10 11  1  0  0  0  0
 11 12  2  0  0  0  0
 11 42  1  0  0  0  0
 12 13  1  0  0  0  0
 13 17  1  0  0  0  0
 13 14  2  0  0  0  0
 14 15  1  0  0  0  0
 15 16  2  0  0  0  0
 16 17  1  0  0  0  0
 16 43  1  0  0  0  0
 17 18  1  0  0  0  0
 18 19  1  0  0  0  0
 18 44  1  0  0  0  0
 18 45  1  0  0  0  0
 19 20  1  0  0  0  0
 19 22  1  0  0  0  0
 19 46  1  0  0  0  0
 20 21  1  0  0  0  0
 20 47  1  0  0  0  0
 20 48  1  0  0  0  0
 21 49  1  0  0  0  0
 22 26  1  0  0  0  0
 22 23  1  0  0  0  0
 22 50  1  0  0  0  0
 23 24  1  0  0  0  0
 23 51  1  0  0  0  0
 23 52  1  0  0  0  0
 24 25  1  0  0  0  0
 24 53  1  0  0  0  0
 24 54  1  0  0  0  0
 25 26  1  0  0  0  0
 26 55  1  0  0  0  0
 26 56  1  0  0  0  0
 27 28  1  0  0  0  0
 27 29  1  0  0  0  0
 28 57  1  0  0  0  0
 28 58  1  0  0  0  0
 28 59  1  0  0  0  0
 29 60  1  0  0  0  0
 29 61  1  0  0  0  0
M  END
> <s_m_source_file>
AV-unprocessed.smi

> <i_m_source_file_index>
21

> <i_lp_mmshare_version>
43012

> <i_f3d_flags>
0

> <s_epik_input>
W0NIM11PW0NASF0xW0NIMl1bQ0BIXShOKFtDSDNdKVtDSDJdMSlbQ0gyXU4oW0NIM10pYyhuW2NIXW4yKWMoYzIzKW5bY0hdbjNbQ0gyXVtDQEhdKFtDSDJdW09IXSlbQ0BASF00W0NIMl1bQ0gyXU9bQ0gyXTQ=

> <s_epik_cmdline>
J2VwaWtfcHl0aG9uJywgJy1waCcsICc3LjAnLCAnLXRuJywgJzgnLCAnLW1hJywgJzIwMCcsICctbWV0YWxfYmluZGluZycsICctaW1hZScsICc8aW5maWxlLm1hZT4nLCAnLW9tYWUnLCAnPG91dGZpbGUubWFlPic=

> <r_lp_tautomer_probability>
1

> <r_epik_Ionization_Penalty>
2.17574

> <r_epik_Ionization_Penalty_Charging>
0

> <r_epik_Ionization_Penalty_Neutral>
2.17574

> <r_epik_State_Penalty>
2.31336

> <r_epik_Charging_Adjusted_Penalty>
2.31336

> <i_epik_Tot_Q>
0

> <i_epik_Tot_abs_Q>
0

> <r_epik_Metal_State_Penalty>
2.31025

> <b_epik_Metal_Only>
0

> <s_lp_Force_Field>
OPLS_2005

> <r_lp_Energy>
69.8382

> <b_lp_Chiralities_Consistent>
1

> <s_lp_Variant>
AV-unprocessed.smi:21-40

> <Gold.Version>
5.8.1

> <Gold.Id.Protein>
6NUR|6NUR_protein|mol2

> <Gold.PLP.Fitness>
46.7695

> <Gold.PLP.PLP>
-43.6281

> <Gold.PLP.part.hbond>
-2.4016

> <Gold.PLP.part.metal>
0.0000

> <Gold.PLP.part.buried>
-8.9425

> <Gold.PLP.part.nonpolar>
-32.8859

> <Gold.PLP.part.repulsive>
1.2447

> <Gold.PLP.ligand.clash>
0.0000

> <Gold.PLP.ligand.torsion>
1.8035

> <Gold.PLP.Chemscore.Hbond>
0.9440

> <Gold.PLP.Chemscore.CHOScore>
0.9709

> <Gold.PLP.Chemscore.Metal>
0.0000

> <Gold.Chemscore.Hbonds>
donor molecule, donor type, donor heavy atom, donor atom, acceptor molecule, acceptor atom, score
      L1  H    21    49       P1 10174  0.81
      L1  C    11    42       P1  7957  0.98

> <Gold.PLP.Chemscore.Internal.Correction>
1.0038

> <Gold.Rescore>
     Score         DG    S(hbond)    S(metal)    S(lipo)     H(rot)  DE(clash)    DE(int)     intcor
      7.00     -11.18       0.66        0.00      95.47       3.00       0.36       3.83       ----

> <Gold.Chemscore.Fitness>
6.9997

> <Gold.Chemscore.DG>
-11.1808

> <Gold.Chemscore.ZeroCoef>
-5.4800

> <Gold.Chemscore.Hbond>
0.6644

> <Gold.Chemscore.Metal>
0.0000

> <Gold.Chemscore.Lipo>
95.4671

> <Gold.Chemscore.Internal_Hbond>
0.0000

> <Gold.Chemscore.DEClash>
0.3556

> <Gold.Chemscore.DEInternal>
3.8255

> <Gold.Chemscore.Rot>
3.0031

> <Gold.Chemscore.Internal.Correction>
   9.000000E+99

> <Gold.Chemscore.Hbonds>
donor molecule, donor type, donor heavy atom, donor atom, acceptor molecule, acceptor atom, score
      L1  H    21    49       P1 10174  0.42

> <Gold.Chemscore.Hbond.Weighted>
-2.2192

> <Gold.Chemscore.Metal.Weighted>
-0.0000

> <Gold.Chemscore.Lipo.Weighted>
-11.1696

> <Gold.Chemscore.Internal_Hbond.Weighted>
0.0000

> <Gold.Chemscore.DEClash.Weighted>
0.3556

> <Gold.Chemscore.DEInternal.Weighted>
3.8255

> <Gold.Chemscore.Rot.Weighted>
7.6880

> <Gold.Chemscore.Internal.Correction.Weighted>
   9.000000E+99

> <Gold.Protein.RotatedTorsions>
[ 6907 6896 6895 6894 ] final -170.35 input  -60.11 | X-H torsion
[ 7974 7965 7964 7962 ] final -108.36 input  175.53 | X-H torsion
[ 8008 7997 7996 7995 ] final  -99.48 input   59.86 | X-H torsion
[ 10167 10162 10161 10158 ] final  140.14 input  -65.29 | X-H torsion
[ 10718 10713 10712 10709 ] final   21.14 input   66.30 | X-H torsion
[ 10763 10752 10751 10750 ] final   73.88 input  -60.55 | X-H torsion
[ 11005 11000 10999 10996 ] final  160.42 input  -57.11 | X-H torsion

> <Gold.Protein.ActiveResidues>
 VAL166  LYS551  ARG553  GLY616  TRP617  ASP618  TYR619  PRO620  LYS621  CYS622 
 ASP623  PHE694  ASN695  SER759  ASP760  ASP761  ALA762  ILE779  LEU786  VAL792 
 PHE793  MET794  SER795  GLU796  ALA797  LYS798  CYS799  TRP800  GLU811  SER814 

> <Gold.Protein.RotatedAtoms>
  151.5062  133.3494  159.2877 H   0  0  0  0  0  0  0  0  0  0  0  0  # atno 6907 bound_to 6896
  150.8741  134.8123  159.7187 H   0  0  0  0  0  0  0  0  0  0  0  0  # atno 6908 bound_to 6896
  152.4718  134.4951  159.9759 H   0  0  0  0  0  0  0  0  0  0  0  0  # atno 6909 bound_to 6896
  145.1938  140.9026  143.3409 H   0  0  0  0  0  0  0  0  0  0  0  0  # atno 7974 bound_to 7965
  154.8154  140.0447  157.1372 H   0  0  0  0  0  0  0  0  0  0  0  0  # atno 8008 bound_to 7997
  154.9321  140.3041  155.5142 H   0  0  0  0  0  0  0  0  0  0  0  0  # atno 8009 bound_to 7997
  156.2975  140.2321  156.4382 H   0  0  0  0  0  0  0  0  0  0  0  0  # atno 8010 bound_to 7997
  139.5058  144.6252  151.5953 H   0  0  0  0  0  0  0  0  0  0  0  0  # atno 10167 bound_to 10162
  157.1343  130.6605  149.5961 H   0  0  0  0  0  0  0  0  0  0  0  0  # atno 10718 bound_to 10713
  153.0550  135.5046  154.7959 H   0  0  0  0  0  0  0  0  0  0  0  0  # atno 10763 bound_to 10752
  154.6792  135.2965  154.9638 H   0  0  0  0  0  0  0  0  0  0  0  0  # atno 10764 bound_to 10752
  154.0430  135.6714  153.4845 H   0  0  0  0  0  0  0  0  0  0  0  0  # atno 10765 bound_to 10752
  140.2058  134.8304  157.3067 H   0  0  0  0  0  0  0  0  0  0  0  0  # atno 11005 bound_to 11000
  145.0015  139.3594  143.6165 LP  0  0  0  0  0  0  0  0  0  0  0  0  # atno 17320 bound_to 7965
  146.3431  139.9240  142.8763 LP  0  0  0  0  0  0  0  0  0  0  0  0  # atno 17321 bound_to 7965
  140.5967  143.9683  150.6359 LP  0  0  0  0  0  0  0  0  0  0  0  0  # atno 17342 bound_to 10162
  140.2881  143.3343  152.1088 LP  0  0  0  0  0  0  0  0  0  0  0  0  # atno 17343 bound_to 10162
  155.9801  130.4800  150.6755 LP  0  0  0  0  0  0  0  0  0  0  0  0  # atno 17370 bound_to 10713
  157.4364  131.0856  151.0987 LP  0  0  0  0  0  0  0  0  0  0  0  0  # atno 17371 bound_to 10713
  140.2004  134.4261  155.7666 LP  0  0  0  0  0  0  0  0  0  0  0  0  # atno 17394 bound_to 11000
  141.2227  133.7069  156.8175 LP  0  0  0  0  0  0  0  0  0  0  0  0  # atno 17395 bound_to 11000

$$$$
