#       Name:                AV-unprocessed.smi:3178
#       Creating user name   scv26
#       Creation time:       Fri Mar 27 17:57:01 2020


#       File generated by GOLD software.
#

@<TRIPOS>MOLECULE
AV-unprocessed.smi:3178
    40    40     1
SMALL
NO_CHARGES


@<TRIPOS>ATOM
      1 ****        -1.4805  -1.9616  -0.5158 C.3            1 S1                 0.0000
      2 ****        -0.5018  -1.2862  -1.2959 O.3            1 S1                 0.0000
      3 ****        -0.8712  -0.0565  -1.9302 C.3            1 S1                 0.0000
      4 ****        -1.8018  -0.3656  -3.1193 C.3            1 S1                 0.0000
      5 ****        -1.5568   0.9209  -0.9462 C.3            1 S1                 0.0000
      6 ****         0.4517   0.5420  -2.4681 C.3            1 S1                 0.0000
      7 ****         1.3625   0.9069  -1.3876 N.am           1 S1                 0.0000
      8 ****         2.3279   0.1208  -0.8861 C.2            1 S1                 0.0000
      9 ****         2.6799  -0.9403  -1.4009 O.2            1 S1                 0.0000
     10 ****         2.9626   0.5847   0.4251 C.3            1 S1                 0.0000
     11 ****         1.9195   0.6020   1.5135 C.2            1 S1                 0.0000
     12 ****         1.1674  -0.4959   2.0293 C.2            1 S1                 0.0000
     13 ****         0.3412   0.0658   2.9606 C.2            1 S1                 0.0000
     14 ****        -0.7002  -0.5379   3.8405 C.3            1 S1                 0.0000
     15 ****         0.6310   1.4107   2.9685 N.pl3          1 S1                 0.0000
     16 ****         1.5931   1.7501   2.0907 N.2            1 S1                 0.0000
     17 ****         0.1857   2.0989   3.5589 H              1 S1                 0.0000
     18 ****        -1.0697  -2.9154  -0.1859 H              1 S1                 0.0000
     19 ****        -2.3885  -2.1737  -1.0788 H              1 S1                 0.0000
     20 ****        -1.7405  -1.3984   0.3804 H              1 S1                 0.0000
     21 ****        -2.0072   0.5344  -3.6999 H              1 S1                 0.0000
     22 ****        -2.7638  -0.7629  -2.7971 H              1 S1                 0.0000
     23 ****        -1.3512  -1.0956  -3.7926 H              1 S1                 0.0000
     24 ****        -1.6972   1.9005  -1.4040 H              1 S1                 0.0000
     25 ****        -0.9685   1.0617  -0.0388 H              1 S1                 0.0000
     26 ****        -2.5431   0.5682  -0.6445 H              1 S1                 0.0000
     27 ****         0.9324  -0.1494  -3.1626 H              1 S1                 0.0000
     28 ****         0.2440   1.4475  -3.0391 H              1 S1                 0.0000
     29 ****         1.1589   1.7661  -0.8977 H              1 S1                 0.0000
     30 ****         3.7785  -0.0869   0.6947 H              1 S1                 0.0000
     31 ****         3.4030   1.5723   0.2795 H              1 S1                 0.0000
     32 ****         1.2177  -1.5361   1.7431 H              1 S1                 0.0000
     33 ****        -0.2769  -1.3404   4.4446 H              1 S1                 0.0000
     34 ****        -1.5112  -0.9559   3.2441 H              1 S1                 0.0000
     35 ****        -1.1269   0.2036   4.5164 H              1 S1                 0.0000
     36 ****        -0.2112  -1.9156  -2.0165 LP             1 S1                 0.0000
     37 ****         0.2720  -1.0884  -0.6941 LP             1 S1                 0.0000
     38 ****         2.2394  -1.2592  -2.2401 LP             1 S1                 0.0000
     39 ****         3.4064  -1.4834  -0.9799 LP             1 S1                 0.0000
     40 ****         1.9736   2.6580   1.9146 LP             1 S1                 0.0000
@<TRIPOS>BOND
    1    1    2 1     
    2    1   18 1     
    3    1   19 1     
    4    1   20 1     
    5    2    3 1     
    6    3    4 1     
    7    3    5 1     
    8    3    6 1     
    9    4   21 1     
   10    4   22 1     
   11    4   23 1     
   12    5   24 1     
   13    5   25 1     
   14    5   26 1     
   15    6    7 1     
   16    6   27 1     
   17    6   28 1     
   18    7    8 am    
   19    7   29 1     
   20    8    9 2     
   21    8   10 1     
   22   10   11 1     
   23   10   30 1     
   24   10   31 1     
   25   11   16 2     
   26   11   12 1     
   27   12   13 2     
   28   12   32 1     
   29   13   14 1     
   30   13   15 1     
   31   14   33 1     
   32   14   34 1     
   33   14   35 1     
   34   15   17 1     
   35   15   16 1     
   36    2   36 1     
   37    2   37 1     
   38    9   38 1     
   39    9   39 1     
   40   16   40 1     
@<TRIPOS>SUBSTRUCTURE
      1 S1             1
@<TRIPOS>SET
LONE_PAIRS      STATIC     ATOMS    <user>   **** ""
5 36 37 38 39 40
DONOR_HYDROGENS      STATIC     ATOMS    <user>   **** ""
2 29 17
ATOM$BLUE        STATIC     ATOMS    COLORGROUP SYSTEM
5 36 37 38 39 40
ATOM$RED        STATIC     ATOMS    COLORGROUP SYSTEM
2 29 17
