#       Name:                AV-unprocessed.smi:38
#       Creating user name   scv26
#       Creation time:       Thu Mar 26 16:19:03 2020


#       File generated by GOLD software.
#

@<TRIPOS>MOLECULE
AV-unprocessed.smi:38
    38    39     1
SMALL
NO_CHARGES


@<TRIPOS>ATOM
      1 ****        -2.3716   4.4257   1.2278 O.2            1 S1                 0.0000
      2 ****        -2.0874   3.3092   0.7971 C.2            1 S1                 0.0000
      3 ****        -3.0271   2.3508   0.5515 N.pl3          1 S1                -1.0000
      4 ****        -2.7098   1.1122   0.0723 C.2            1 S1                 0.0000
      5 ****        -3.5499   0.2361  -0.1339 O.2            1 S1                 0.0000
      6 ****        -1.3470   0.8063  -0.1954 N.am           1 S1                 0.0000
      7 ****        -0.9875  -0.5673  -0.7230 C.3            1 S1                 0.0000
      8 ****        -0.8657  -1.5653   0.4314 C.3            1 S1                 0.0000
      9 ****         0.6261  -1.5534   0.6913 C.3            1 S1                 0.0000
     10 ****         1.0409  -2.7565   1.3049 O.3            1 S1                 0.0000
     11 ****         1.1875  -1.3908  -0.7233 C.3            1 S1                 0.0000
     12 ****         2.6024  -0.7915  -0.7591 C.3            1 S1                 0.0000
     13 ****         3.2132  -1.0569  -2.0039 O.3            1 S1                 0.0000
     14 ****         0.2587  -0.5118  -1.3587 O.3            1 S1                 0.0000
     15 ****        -0.3713   1.7568   0.0556 C.2            1 S1                 0.0000
     16 ****        -0.6888   2.9769   0.5341 C.2            1 S1                 0.0000
     17 ****         0.2816   3.8768   0.7691 F              1 S1                 0.0000
     18 ****        -1.7583  -0.8233  -1.4516 H              1 S1                 0.0000
     19 ****         0.8926  -0.6997   1.3162 H              1 S1                 0.0000
     20 ****         1.1566  -2.3548  -1.2354 H              1 S1                 0.0000
     21 ****        -1.4711  -1.2859   1.2948 H              1 S1                 0.0000
     22 ****        -1.1940  -2.5418   0.0718 H              1 S1                 0.0000
     23 ****         0.6095  -2.8286   2.1425 H              1 S1                 0.0000
     24 ****         2.5895   0.2806  -0.5640 H              1 S1                 0.0000
     25 ****         3.2220  -1.2512   0.0112 H              1 S1                 0.0000
     26 ****         4.0804  -0.6819  -1.9986 H              1 S1                 0.0000
     27 ****         0.6674   1.5303  -0.1255 H              1 S1                 0.0000
     28 ****        -1.6486   5.0961   1.3948 LP             1 S1                 0.0000
     29 ****        -3.3256   4.6630   1.4111 LP             1 S1                 0.0000
     30 ****        -3.9876   2.5643   0.7298 LP             1 S1                 0.0000
     31 ****        -4.5160   0.4164   0.0506 LP             1 S1                 0.0000
     32 ****        -3.2661  -0.6559  -0.4859 LP             1 S1                 0.0000
     33 ****         2.0323  -2.7446   1.4356 LP             1 S1                 0.0000
     34 ****         0.7901  -3.5338   0.7279 LP             1 S1                 0.0000
     35 ****         2.6730  -0.6470  -2.7388 LP             1 S1                 0.0000
     36 ****         3.2739  -2.0449  -2.1460 LP             1 S1                 0.0000
     37 ****         0.6088   0.4238  -1.3142 LP             1 S1                 0.0000
     38 ****         0.1519  -0.7827  -2.3153 LP             1 S1                 0.0000
@<TRIPOS>BOND
    1    1    2 2     
    2    2   16 1     
    3    2    3 1     
    4    3    4 1     
    5    4    5 2     
    6    4    6 am    
    7    6    7 1     
    8    6   15 1     
    9    7   18 1     
   10    7   14 1     
   11    7    8 1     
   12    8    9 1     
   13    8   21 1     
   14    8   22 1     
   15    9   19 1     
   16    9   10 1     
   17    9   11 1     
   18   10   23 1     
   19   11   20 1     
   20   11   12 1     
   21   11   14 1     
   22   12   13 1     
   23   12   24 1     
   24   12   25 1     
   25   13   26 1     
   26   15   16 2     
   27   15   27 1     
   28   16   17 1     
   29    1   28 1     
   30    1   29 1     
   31    3   30 1     
   32    5   31 1     
   33    5   32 1     
   34   10   33 1     
   35   10   34 1     
   36   13   35 1     
   37   13   36 1     
   38   14   37 1     
   39   14   38 1     
@<TRIPOS>SUBSTRUCTURE
      1 S1             1
@<TRIPOS>SET
LONE_PAIRS      STATIC     ATOMS    <user>   **** ""
11 28 29 30 31 32 33 34 35 36 37 38
DONOR_HYDROGENS      STATIC     ATOMS    <user>   **** ""
2 23 26
ATOM$BLUE        STATIC     ATOMS    COLORGROUP SYSTEM
11 28 29 30 31 32 33 34 35 36 37 38
ATOM$RED        STATIC     ATOMS    COLORGROUP SYSTEM
2 23 26
