AV-unprocessed.smi:2473|AV-procd|sdf|9745|dock9
  -GOLD-   2272013383D 1   1.00000     0.00000
 Structure written by MMmdl.
 48 49  0  0  0  0  0  0  0  0  2 V2000
  153.3250  141.5338  160.6483 C   0  0  0  0  0  0  0  0  0  0  0  0
  152.3492  142.2961  159.7403 C   0  0  2  0  0  0  0  0  0  0  0  0
  151.7648  141.3765  158.6532 C   0  0  0  0  0  0  0  0  0  0  0  0
  150.7808  142.1375  157.7432 C   0  0  2  0  0  0  0  0  0  0  0  0
  150.2054  141.2266  156.6511 C   0  0  0  0  0  0  0  0  0  0  0  0
  150.6372  140.0837  156.4982 O   0  0  0  0  0  0  0  0  0  0  0  0
  149.2474  141.7580  155.8771 N   0  0  0  0  0  0  0  0  0  0  0  0
  148.6339  141.0998  154.7277 C   0  0  0  0  0  0  0  0  0  0  0  0
  147.5757  141.9781  154.0290 C   0  0  0  0  0  0  0  0  0  0  0  0
  146.4456  142.4000  154.9234 C   0  0  0  0  0  0  0  0  0  0  0  0
  146.2502  141.9621  156.1731 N   0  3  0  0  0  0  0  0  0  0  0  0
  145.1416  142.5493  156.7184 C   0  0  0  0  0  0  0  0  0  0  0  0
  144.6329  143.3819  155.7568 C   0  0  0  0  0  0  0  0  0  0  0  0
  145.4523  143.2683  154.6629 N   0  0  0  0  0  0  0  0  0  0  0  0
  145.2943  143.9700  153.3872 C   0  0  0  0  0  0  0  0  0  0  0  0
  151.4762  143.3612  157.1073 C   0  0  0  0  0  0  0  0  0  0  0  0
  152.1028  144.3244  158.1448 C   0  0  0  0  0  0  0  0  0  0  0  0
  152.9484  145.3740  157.3976 C   0  0  0  0  0  0  0  0  0  0  0  0
  151.0073  145.0770  158.9319 C   0  0  0  0  0  0  0  0  0  0  0  0
  153.0261  143.5265  159.0996 C   0  0  0  0  0  0  0  0  0  0  0  0
  154.1743  141.1482  160.0834 H   0  0  0  0  0  0  0  0  0  0  0  0
  152.8341  140.6877  161.1299 H   0  0  0  0  0  0  0  0  0  0  0  0
  153.7148  142.1793  161.4358 H   0  0  0  0  0  0  0  0  0  0  0  0
  151.5293  142.6394  160.3711 H   0  0  0  0  0  0  0  0  0  0  0  0
  152.5797  140.9578  158.0598 H   0  0  0  0  0  0  0  0  0  0  0  0
  151.2583  140.5309  159.1211 H   0  0  0  0  0  0  0  0  0  0  0  0
  149.9491  142.4822  158.3589 H   0  0  0  0  0  0  0  0  0  0  0  0
  148.9436  142.6992  156.0816 H   0  0  0  0  0  0  0  0  0  0  0  0
  149.3992  140.7847  154.0170 H   0  0  0  0  0  0  0  0  0  0  0  0
  148.1610  140.1885  155.0949 H   0  0  0  0  0  0  0  0  0  0  0  0
  148.0372  142.8755  153.6182 H   0  0  0  0  0  0  0  0  0  0  0  0
  147.1308  141.4430  153.1898 H   0  0  0  0  0  0  0  0  0  0  0  0
  144.8062  142.3351  157.7228 H   0  0  0  0  0  0  0  0  0  0  0  0
  143.7677  144.0293  155.7696 H   0  0  0  0  0  0  0  0  0  0  0  0
  144.4506  144.6578  153.4503 H   0  0  0  0  0  0  0  0  0  0  0  0
  145.1096  143.2429  152.5960 H   0  0  0  0  0  0  0  0  0  0  0  0
  146.1991  144.5349  153.1656 H   0  0  0  0  0  0  0  0  0  0  0  0
  152.2587  143.0103  156.4320 H   0  0  0  0  0  0  0  0  0  0  0  0
  150.7673  143.9072  156.4825 H   0  0  0  0  0  0  0  0  0  0  0  0
  153.4171  146.0734  158.0907 H   0  0  0  0  0  0  0  0  0  0  0  0
  152.3389  145.9560  156.7053 H   0  0  0  0  0  0  0  0  0  0  0  0
  153.7454  144.9073  156.8174 H   0  0  0  0  0  0  0  0  0  0  0  0
  151.4451  145.7748  159.6464 H   0  0  0  0  0  0  0  0  0  0  0  0
  150.3584  144.4084  159.4953 H   0  0  0  0  0  0  0  0  0  0  0  0
  150.3694  145.6553  158.2628 H   0  0  0  0  0  0  0  0  0  0  0  0
  153.4055  144.1856  159.8816 H   0  0  0  0  0  0  0  0  0  0  0  0
  153.9034  143.1869  158.5463 H   0  0  0  0  0  0  0  0  0  0  0  0
  146.8423  141.2911  156.6463 H   0  0  0  0  0  0  0  0  0  0  0  0
  1  2  1  0  0  0  0
  1 21  1  0  0  0  0
  1 22  1  0  0  0  0
  1 23  1  0  0  0  0
  2 20  1  0  0  0  0
  2  3  1  0  0  0  0
  2 24  1  0  0  0  0
  3  4  1  0  0  0  0
  3 25  1  0  0  0  0
  3 26  1  0  0  0  0
  4  5  1  0  0  0  0
  4 16  1  0  0  0  0
  4 27  1  0  0  0  0
  5  6  2  0  0  0  0
  5  7  1  0  0  0  0
  7  8  1  0  0  0  0
  7 28  1  0  0  0  0
  8  9  1  0  0  0  0
  8 29  1  0  0  0  0
  8 30  1  0  0  0  0
  9 10  1  0  0  0  0
  9 31  1  0  0  0  0
  9 32  1  0  0  0  0
 10 14  1  0  0  0  0
 10 11  2  0  0  0  0
 11 12  1  0  0  0  0
 11 48  1  0  0  0  0
 12 13  2  0  0  0  0
 12 33  1  0  0  0  0
 13 14  1  0  0  0  0
 13 34  1  0  0  0  0
 14 15  1  0  0  0  0
 15 35  1  0  0  0  0
 15 36  1  0  0  0  0
 15 37  1  0  0  0  0
 16 17  1  0  0  0  0
 16 38  1  0  0  0  0
 16 39  1  0  0  0  0
 17 18  1  0  0  0  0
 17 19  1  0  0  0  0
 17 20  1  0  0  0  0
 18 40  1  0  0  0  0
 18 41  1  0  0  0  0
 18 42  1  0  0  0  0
 19 43  1  0  0  0  0
 19 44  1  0  0  0  0
 19 45  1  0  0  0  0
 20 46  1  0  0  0  0
 20 47  1  0  0  0  0
M  CHG  1  11   1
M  END
> <s_m_source_file>
AV-unprocessed.smi

> <i_m_source_file_index>
2473

> <i_lp_mmshare_version>
43012

> <i_f3d_flags>
0

> <s_epik_input>
W0NIM11bQ0BASF0oW0NIMl0xKVtDSDJdW0NASF0oW0NIMl1DMShbQ0gzXSlbQ0gzXSlDKD1PKVtOSF1bQ0gyXVtDSDJdYzJuW2NIXVtjSF1uMltDSDNd

> <s_epik_cmdline>
J2VwaWtfcHl0aG9uJywgJy1waCcsICc3LjAnLCAnLXRuJywgJzgnLCAnLW1hJywgJzIwMCcsICctbWV0YWxfYmluZGluZycsICctaW1hZScsICc8aW5maWxlLm1hZT4nLCAnLW9tYWUnLCAnPG91dGZpbGUubWFlPic=

> <r_lp_tautomer_probability>
1

> <r_epik_Ionization_Penalty>
0.0796112

> <r_epik_Ionization_Penalty_Charging>
0

> <r_epik_Ionization_Penalty_Neutral>
0.0796112

> <r_epik_State_Penalty>
0.0704541

> <r_epik_Charging_Adjusted_Penalty>
0.0704541

> <i_epik_Tot_Q>
1

> <i_epik_Tot_abs_Q>
1

> <r_epik_Metal_State_Penalty>
0.409899

> <b_epik_Metal_Only>
0

> <s_lp_Force_Field>
OPLS_2005

> <r_lp_Energy>
16.1806

> <b_lp_Chiralities_Consistent>
1

> <s_lp_Variant>
AV-unprocessed.smi:2473-3

> <Gold.Version>
5.8.1

> <Gold.Id.Protein>
6NUR|6NUR_protein|mol2

> <Gold.PLP.Fitness>
49.0728

> <Gold.PLP.PLP>
-46.2746

> <Gold.PLP.part.hbond>
-1.0000

> <Gold.PLP.part.metal>
0.0000

> <Gold.PLP.part.buried>
-6.5812

> <Gold.PLP.part.nonpolar>
-39.1523

> <Gold.PLP.part.repulsive>
0.1025

> <Gold.PLP.ligand.clash>
0.0000

> <Gold.PLP.ligand.torsion>
0.1091

> <Gold.PLP.Chemscore.Hbond>
1.0000

> <Gold.PLP.Chemscore.CHOScore>
0.0000

> <Gold.PLP.Chemscore.Metal>
0.0000

> <Gold.Chemscore.Hbonds>
donor molecule, donor type, donor heavy atom, donor atom, acceptor molecule, acceptor atom, score
      L1  H     7    28       P1  8028  0.93

> <Gold.PLP.Chemscore.Internal.Correction>
0.0165

> <Gold.Rescore>
     Score         DG    S(hbond)    S(metal)    S(lipo)     H(rot)  DE(clash)    DE(int)     intcor
     17.33     -20.32       0.99        0.00     133.12       1.58       2.87       0.12       ----

> <Gold.Chemscore.Fitness>
17.3327

> <Gold.Chemscore.DG>
-20.3166

> <Gold.Chemscore.ZeroCoef>
-5.4800

> <Gold.Chemscore.Hbond>
0.9915

> <Gold.Chemscore.Metal>
0.0000

> <Gold.Chemscore.Lipo>
133.1160

> <Gold.Chemscore.Internal_Hbond>
0.0000

> <Gold.Chemscore.DEClash>
2.8665

> <Gold.Chemscore.DEInternal>
0.1173

> <Gold.Chemscore.Rot>
1.5818

> <Gold.Chemscore.Internal.Correction>
   9.000000E+99

> <Gold.Chemscore.Hbonds>
donor molecule, donor type, donor heavy atom, donor atom, acceptor molecule, acceptor atom, score
      L1  H     7    28       P1  8028  0.85

> <Gold.Chemscore.Hbond.Weighted>
-3.3115

> <Gold.Chemscore.Metal.Weighted>
-0.0000

> <Gold.Chemscore.Lipo.Weighted>
-15.5746

> <Gold.Chemscore.Internal_Hbond.Weighted>
0.0000

> <Gold.Chemscore.DEClash.Weighted>
2.8665

> <Gold.Chemscore.DEInternal.Weighted>
0.1173

> <Gold.Chemscore.Rot.Weighted>
4.0495

> <Gold.Chemscore.Internal.Correction.Weighted>
   9.000000E+99

> <Gold.Protein.RotatedTorsions>
[ 6907 6896 6895 6894 ] final -168.06 input  -60.11 | X-H torsion
[ 7974 7965 7964 7962 ] final -172.03 input  175.53 | X-H torsion
[ 8008 7997 7996 7995 ] final -105.95 input   59.86 | X-H torsion
[ 10167 10162 10161 10158 ] final  144.91 input  -65.29 | X-H torsion
[ 10718 10713 10712 10709 ] final  138.59 input   66.30 | X-H torsion
[ 10763 10752 10751 10750 ] final  -87.58 input  -60.55 | X-H torsion
[ 11005 11000 10999 10996 ] final -176.73 input  -57.11 | X-H torsion

> <Gold.Protein.ActiveResidues>
 VAL166  LYS551  ARG553  GLY616  TRP617  ASP618  TYR619  PRO620  LYS621  CYS622 
 ASP623  PHE694  ASN695  SER759  ASP760  ASP761  ALA762  ILE779  LEU786  VAL792 
 PHE793  MET794  SER795  GLU796  ALA797  LYS798  CYS799  TRP800  GLU811  SER814 

> <Gold.Protein.RotatedAtoms>
  151.4696  133.3572  159.2821 H   0  0  0  0  0  0  0  0  0  0  0  0  # atno 6907 bound_to 6896
  150.8970  134.8381  159.7344 H   0  0  0  0  0  0  0  0  0  0  0  0  # atno 6908 bound_to 6896
  152.4857  134.4612  159.9657 H   0  0  0  0  0  0  0  0  0  0  0  0  # atno 6909 bound_to 6896
  144.7150  140.1833  143.6356 H   0  0  0  0  0  0  0  0  0  0  0  0  # atno 7974 bound_to 7965
  154.9074  140.0411  157.1927 H   0  0  0  0  0  0  0  0  0  0  0  0  # atno 8008 bound_to 7997
  154.8382  140.2910  155.5655 H   0  0  0  0  0  0  0  0  0  0  0  0  # atno 8009 bound_to 7997
  156.2991  140.2487  156.3320 H   0  0  0  0  0  0  0  0  0  0  0  0  # atno 8010 bound_to 7997
  139.4937  144.5939  151.6624 H   0  0  0  0  0  0  0  0  0  0  0  0  # atno 10167 bound_to 10162
  157.4237  131.1041  151.0326 H   0  0  0  0  0  0  0  0  0  0  0  0  # atno 10718 bound_to 10713
  154.6351  135.5408  153.7725 H   0  0  0  0  0  0  0  0  0  0  0  0  # atno 10763 bound_to 10752
  153.0304  135.6445  154.1243 H   0  0  0  0  0  0  0  0  0  0  0  0  # atno 10764 bound_to 10752
  154.1170  135.2923  155.3197 H   0  0  0  0  0  0  0  0  0  0  0  0  # atno 10765 bound_to 10752
  140.4489  134.6362  157.4792 H   0  0  0  0  0  0  0  0  0  0  0  0  # atno 11005 bound_to 11000
  145.8836  139.2336  143.1591 LP  0  0  0  0  0  0  0  0  0  0  0  0  # atno 17320 bound_to 7965
  145.9971  140.8552  143.0037 LP  0  0  0  0  0  0  0  0  0  0  0  0  # atno 17321 bound_to 7965
  140.5572  144.0328  150.6153 LP  0  0  0  0  0  0  0  0  0  0  0  0  # atno 17342 bound_to 10162
  140.3402  143.3024  152.0596 LP  0  0  0  0  0  0  0  0  0  0  0  0  # atno 17343 bound_to 10162
  157.1247  130.6077  149.5514 LP  0  0  0  0  0  0  0  0  0  0  0  0  # atno 17370 bound_to 10713
  155.9889  130.4934  150.7191 LP  0  0  0  0  0  0  0  0  0  0  0  0  # atno 17371 bound_to 10713
  140.0020  134.6821  155.9515 LP  0  0  0  0  0  0  0  0  0  0  0  0  # atno 17394 bound_to 11000
  141.1673  133.6537  156.4525 LP  0  0  0  0  0  0  0  0  0  0  0  0  # atno 17395 bound_to 11000

$$$$
