AV-unprocessed.smi:2198|AV-procd|sdf|8911|dock6
  -GOLD-   2272012123D 1   1.00000     0.00000
 Structure written by MMmdl.
 43 44  0  0  0  0  0  0  0  0  1 V2000
  148.0038  141.4159  153.7101 C   0  0  0  0  0  0  0  0  0  0  0  0
  148.8884  140.8392  154.7951 C   0  0  0  0  0  0  0  0  0  0  0  0
  150.0943  140.4189  154.5955 N   0  0  0  0  0  0  0  0  0  0  0  0
  150.8177  139.9065  155.6815 C   0  0  0  0  0  0  0  0  0  0  0  0
  152.2274  139.4355  155.3679 C   0  0  0  0  0  0  0  0  0  0  0  0
  150.2786  139.8422  156.9343 C   0  0  0  0  0  0  0  0  0  0  0  0
  151.0440  139.2942  158.1379 C   0  0  0  0  0  0  0  0  0  0  0  0
  152.3587  140.0032  158.4724 C   0  0  0  0  0  0  0  0  0  0  0  0
  153.4367  139.5027  158.1513 O   0  0  0  0  0  0  0  0  0  0  0  0
  152.2515  141.1716  159.1226 N   0  0  0  0  0  0  0  0  0  0  0  0
  153.3681  142.0112  159.5533 C   0  0  2  0  0  0  0  0  0  0  0  0
  153.6489  141.7950  161.0526 C   0  0  0  0  0  0  0  0  0  0  0  0
  152.5457  142.3939  161.9419 C   0  0  0  0  0  0  0  0  0  0  0  0
  152.3220  143.8814  161.6284 C   0  0  0  0  0  0  0  0  0  0  0  0
  151.9974  144.1039  160.1389 C   0  0  1  0  0  0  0  0  0  0  0  0
  151.7772  145.5915  159.8304 C   0  0  0  0  0  0  0  0  0  0  0  0
  153.1056  143.5026  159.2493 C   0  0  0  0  0  0  0  0  0  0  0  0
  148.9005  140.3237  157.1506 C   0  0  0  0  0  0  0  0  0  0  0  0
  148.3201  140.3156  158.2350 O   0  0  0  0  0  0  0  0  0  0  0  0
  148.2794  140.7997  156.0482 N   0  0  0  0  0  0  0  0  0  0  0  0
  147.3348  141.1427  156.1449 H   0  0  0  0  0  0  0  0  0  0  0  0
  148.4613  142.3112  153.2893 H   0  0  0  0  0  0  0  0  0  0  0  0
  147.0186  141.6844  154.0937 H   0  0  0  0  0  0  0  0  0  0  0  0
  147.8707  140.6893  152.9085 H   0  0  0  0  0  0  0  0  0  0  0  0
  152.3221  138.3647  155.5484 H   0  0  0  0  0  0  0  0  0  0  0  0
  152.9556  139.9583  155.9880 H   0  0  0  0  0  0  0  0  0  0  0  0
  152.4843  139.6221  154.3243 H   0  0  0  0  0  0  0  0  0  0  0  0
  150.4169  139.3067  159.0299 H   0  0  0  0  0  0  0  0  0  0  0  0
  151.2509  138.2383  157.9603 H   0  0  0  0  0  0  0  0  0  0  0  0
  151.3241  141.5052  159.3419 H   0  0  0  0  0  0  0  0  0  0  0  0
  154.2569  141.6967  159.0031 H   0  0  0  0  0  0  0  0  0  0  0  0
  153.7665  140.7319  161.2661 H   0  0  0  0  0  0  0  0  0  0  0  0
  154.6011  142.2621  161.3076 H   0  0  0  0  0  0  0  0  0  0  0  0
  151.6142  141.8453  161.7971 H   0  0  0  0  0  0  0  0  0  0  0  0
  152.8112  142.2732  162.9926 H   0  0  0  0  0  0  0  0  0  0  0  0
  151.5122  144.2667  162.2487 H   0  0  0  0  0  0  0  0  0  0  0  0
  153.2143  144.4472  161.9001 H   0  0  0  0  0  0  0  0  0  0  0  0
  151.0638  143.5853  159.9164 H   0  0  0  0  0  0  0  0  0  0  0  0
  152.6752  146.1760  160.0324 H   0  0  0  0  0  0  0  0  0  0  0  0
  150.9693  146.0028  160.4362 H   0  0  0  0  0  0  0  0  0  0  0  0
  151.5116  145.7400  158.7834 H   0  0  0  0  0  0  0  0  0  0  0  0
  154.0301  144.0604  159.4050 H   0  0  0  0  0  0  0  0  0  0  0  0
  152.8529  143.6329  158.1962 H   0  0  0  0  0  0  0  0  0  0  0  0
  1  2  1  0  0  0  0
  1 22  1  0  0  0  0
  1 23  1  0  0  0  0
  1 24  1  0  0  0  0
  2 20  1  0  0  0  0
  2  3  2  0  0  0  0
  3  4  1  0  0  0  0
  4  5  1  0  0  0  0
  4  6  2  0  0  0  0
  5 25  1  0  0  0  0
  5 26  1  0  0  0  0
  5 27  1  0  0  0  0
  6  7  1  0  0  0  0
  6 18  1  0  0  0  0
  7  8  1  0  0  0  0
  7 28  1  0  0  0  0
  7 29  1  0  0  0  0
  8  9  2  0  0  0  0
  8 10  1  0  0  0  0
 10 11  1  0  0  0  0
 10 30  1  0  0  0  0
 11 17  1  0  0  0  0
 11 12  1  0  0  0  0
 11 31  1  0  0  0  0
 12 13  1  0  0  0  0
 12 32  1  0  0  0  0
 12 33  1  0  0  0  0
 13 14  1  0  0  0  0
 13 34  1  0  0  0  0
 13 35  1  0  0  0  0
 14 15  1  0  0  0  0
 14 36  1  0  0  0  0
 14 37  1  0  0  0  0
 15 16  1  0  0  0  0
 15 17  1  0  0  0  0
 15 38  1  0  0  0  0
 16 39  1  0  0  0  0
 16 40  1  0  0  0  0
 16 41  1  0  0  0  0
 17 42  1  0  0  0  0
 17 43  1  0  0  0  0
 18 19  2  0  0  0  0
 18 20  1  0  0  0  0
 20 21  1  0  0  0  0
M  END
> <s_m_source_file>
AV-unprocessed.smi

> <i_m_source_file_index>
2198

> <i_lp_mmshare_version>
43012

> <i_f3d_flags>
0

> <s_epik_input>
W0NIM11jMW5jKFtDSDNdKWMoYyg9TylbbkhdMSlbQ0gyXUMoPU8pW05IXVtDQEBIXTJbQ0gyXVtDSDJdW0NIMl1bQ0BASF0oW0NIM10pW0NIMl0y

> <s_epik_cmdline>
J2VwaWtfcHl0aG9uJywgJy1waCcsICc3LjAnLCAnLXRuJywgJzgnLCAnLW1hJywgJzIwMCcsICctbWV0YWxfYmluZGluZycsICctaW1hZScsICc8aW5maWxlLm1hZT4nLCAnLW9tYWUnLCAnPG91dGZpbGUubWFlPic=

> <r_lp_tautomer_probability>
0.839158

> <r_epik_Ionization_Penalty>
0.000372587

> <r_epik_Ionization_Penalty_Charging>
0.000337977

> <r_epik_Ionization_Penalty_Neutral>
3.46101e-05

> <r_epik_State_Penalty>
0.09125

> <r_epik_Charging_Adjusted_Penalty>
0.091588

> <i_epik_Tot_Q>
0

> <i_epik_Tot_abs_Q>
0

> <r_epik_Metal_State_Penalty>
0.25197

> <b_epik_Metal_Only>
0

> <s_lp_Force_Field>
OPLS_2005

> <r_lp_Energy>
10.2455

> <b_lp_Chiralities_Consistent>
1

> <s_lp_Variant>
AV-unprocessed.smi:2198-1

> <Gold.Version>
5.8.1

> <Gold.Id.Protein>
6NUR|6NUR_protein|mol2

> <Gold.PLP.Fitness>
51.4461

> <Gold.PLP.PLP>
-46.6513

> <Gold.PLP.part.hbond>
-3.0000

> <Gold.PLP.part.metal>
0.0000

> <Gold.PLP.part.buried>
-4.9593

> <Gold.PLP.part.nonpolar>
-40.1181

> <Gold.PLP.part.repulsive>
0.2212

> <Gold.PLP.ligand.clash>
0.0000

> <Gold.PLP.ligand.torsion>
0.4978

> <Gold.PLP.Chemscore.Hbond>
1.9272

> <Gold.PLP.Chemscore.CHOScore>
0.0000

> <Gold.PLP.Chemscore.Metal>
0.0000

> <Gold.Chemscore.Hbonds>
donor molecule, donor type, donor heavy atom, donor atom, acceptor molecule, acceptor atom, score
      P1  H  7989  7998       L1     3  0.80
      P1  H  7997  8010       L1     9  1.00

> <Gold.PLP.Chemscore.Internal.Correction>
0.0087

> <Gold.Rescore>
     Score         DG    S(hbond)    S(metal)    S(lipo)     H(rot)  DE(clash)    DE(int)     intcor
     20.45     -21.13       1.80        0.00     114.81       1.48       0.18       0.50       ----

> <Gold.Chemscore.Fitness>
20.4463

> <Gold.Chemscore.DG>
-21.1289

> <Gold.Chemscore.ZeroCoef>
-5.4800

> <Gold.Chemscore.Hbond>
1.7979

> <Gold.Chemscore.Metal>
0.0000

> <Gold.Chemscore.Lipo>
114.8108

> <Gold.Chemscore.Internal_Hbond>
0.0000

> <Gold.Chemscore.DEClash>
0.1782

> <Gold.Chemscore.DEInternal>
0.5044

> <Gold.Chemscore.Rot>
1.4801

> <Gold.Chemscore.Internal.Correction>
   9.000000E+99

> <Gold.Chemscore.Hbonds>
donor molecule, donor type, donor heavy atom, donor atom, acceptor molecule, acceptor atom, score
      P1  H  7989  7998       L1     3  0.13
      P1  H  7997  8010       L1     9  0.97

> <Gold.Chemscore.Hbond.Weighted>
-6.0051

> <Gold.Chemscore.Metal.Weighted>
-0.0000

> <Gold.Chemscore.Lipo.Weighted>
-13.4329

> <Gold.Chemscore.Internal_Hbond.Weighted>
0.0000

> <Gold.Chemscore.DEClash.Weighted>
0.1782

> <Gold.Chemscore.DEInternal.Weighted>
0.5044

> <Gold.Chemscore.Rot.Weighted>
3.7891

> <Gold.Chemscore.Internal.Correction.Weighted>
   9.000000E+99

> <Gold.Protein.RotatedTorsions>
[ 6907 6896 6895 6894 ] final  -41.09 input  -60.11 | X-H torsion
[ 7974 7965 7964 7962 ] final -175.71 input  175.53 | X-H torsion
[ 8008 7997 7996 7995 ] final   15.00 input   59.86 | X-H torsion
[ 10167 10162 10161 10158 ] final -117.25 input  -65.29 | X-H torsion
[ 10718 10713 10712 10709 ] final   51.12 input   66.30 | X-H torsion
[ 10763 10752 10751 10750 ] final  -77.02 input  -60.55 | X-H torsion
[ 11005 11000 10999 10996 ] final  167.99 input  -57.11 | X-H torsion

> <Gold.Protein.ActiveResidues>
 VAL166  LYS551  ARG553  GLY616  TRP617  ASP618  TYR619  PRO620  LYS621  CYS622 
 ASP623  PHE694  ASN695  SER759  ASP760  ASP761  ALA762  ILE779  LEU786  VAL792 
 PHE793  MET794  SER795  GLU796  ALA797  LYS798  CYS799  TRP800  GLU811  SER814 

> <Gold.Protein.RotatedAtoms>
  150.9708  134.9081  159.7786 H   0  0  0  0  0  0  0  0  0  0  0  0  # atno 6907 bound_to 6896
  152.5189  134.3543  159.9272 H   0  0  0  0  0  0  0  0  0  0  0  0  # atno 6908 bound_to 6896
  151.3552  133.3869  159.2719 H   0  0  0  0  0  0  0  0  0  0  0  0  # atno 6909 bound_to 6896
  144.7127  140.1280  143.6400 H   0  0  0  0  0  0  0  0  0  0  0  0  # atno 7974 bound_to 7965
  154.8564  140.2937  155.5566 H   0  0  0  0  0  0  0  0  0  0  0  0  # atno 8008 bound_to 7997
  156.3018  140.2486  156.3464 H   0  0  0  0  0  0  0  0  0  0  0  0  # atno 8009 bound_to 7997
  154.8965  140.0393  157.1858 H   0  0  0  0  0  0  0  0  0  0  0  0  # atno 8010 bound_to 7997
  140.0704  143.4883  152.1983 H   0  0  0  0  0  0  0  0  0  0  0  0  # atno 10167 bound_to 10162
  157.4950  130.8400  149.8247 H   0  0  0  0  0  0  0  0  0  0  0  0  # atno 10718 bound_to 10713
  154.5075  135.5778  153.6578 H   0  0  0  0  0  0  0  0  0  0  0  0  # atno 10763 bound_to 10752
  152.9890  135.6150  154.2923 H   0  0  0  0  0  0  0  0  0  0  0  0  # atno 10764 bound_to 10752
  154.2835  135.2850  155.2666 H   0  0  0  0  0  0  0  0  0  0  0  0  # atno 10765 bound_to 10752
  140.2826  134.7738  157.3771 H   0  0  0  0  0  0  0  0  0  0  0  0  # atno 11005 bound_to 11000
  145.9312  139.2607  143.1324 LP  0  0  0  0  0  0  0  0  0  0  0  0  # atno 17320 bound_to 7965
  145.9521  140.8901  143.0254 LP  0  0  0  0  0  0  0  0  0  0  0  0  # atno 17321 bound_to 7965
  139.5840  144.7523  151.3568 LP  0  0  0  0  0  0  0  0  0  0  0  0  # atno 17342 bound_to 10162
  140.7128  143.7345  150.7599 LP  0  0  0  0  0  0  0  0  0  0  0  0  # atno 17343 bound_to 10162
  156.0195  130.3801  150.2005 LP  0  0  0  0  0  0  0  0  0  0  0  0  # atno 17370 bound_to 10713
  157.0195  130.9975  151.3344 LP  0  0  0  0  0  0  0  0  0  0  0  0  # atno 17371 bound_to 10713
  140.1269  134.5146  155.8137 LP  0  0  0  0  0  0  0  0  0  0  0  0  # atno 17394 bound_to 11000
  141.2160  133.6776  156.6969 LP  0  0  0  0  0  0  0  0  0  0  0  0  # atno 17395 bound_to 11000

$$$$
