AV-unprocessed.smi:2620|AV-procd|sdf|10224|dock9
  -GOLD-   2272014233D 1   1.00000     0.00000
 Structure written by MMmdl.
 35 36  0  0  0  0  0  0  0  0  2 V2000
  148.3475  132.9378  153.5926 C   0  0  0  0  0  0  0  0  0  0  0  0
  149.3960  133.2919  154.4773 O   0  0  0  0  0  0  0  0  0  0  0  0
  149.1911  134.5570  155.0823 C   0  0  0  0  0  0  0  0  0  0  0  0
  150.5144  135.0317  155.7006 C   0  0  0  0  0  0  0  0  0  0  0  0
  150.3130  136.2043  156.5619 N   0  0  0  0  0  0  0  0  0  0  0  0
  150.8463  137.4256  156.1067 C   0  0  0  0  0  0  0  0  0  0  0  0
  150.7253  138.5683  156.8084 C   0  0  0  0  0  0  0  0  0  0  0  0
  151.3128  139.8302  156.2955 C   0  0  0  0  0  0  0  0  0  0  0  0
  151.5279  139.9874  155.0925 O   0  0  0  0  0  0  0  0  0  0  0  0
  151.6114  140.9142  157.2795 C   0  0  0  0  0  0  0  0  0  0  0  0
  150.8168  142.0854  157.2697 C   0  0  0  0  0  0  0  0  0  0  0  0
  151.0711  143.1361  158.1709 C   0  0  0  0  0  0  0  0  0  0  0  0
  152.1251  143.0289  159.0952 C   0  0  0  0  0  0  0  0  0  0  0  0
  152.9214  141.8693  159.1185 C   0  0  0  0  0  0  0  0  0  0  0  0
  152.6729  140.8117  158.2197 C   0  0  0  0  0  0  0  0  0  0  0  0
  153.4655  139.6996  158.3044 O   0  5  0  0  0  0  0  0  0  0  0  0
  150.0294  138.5060  158.0793 C   0  0  0  0  0  0  0  0  0  0  0  0
  149.5266  137.3379  158.5256 C   0  0  0  0  0  0  0  0  0  0  0  0
  148.8469  137.2528  159.7757 C   0  0  0  0  0  0  0  0  0  0  0  0
  148.2848  137.2025  160.7863 N   0  0  0  0  0  0  0  0  0  0  0  0
  149.6566  136.0925  157.7563 C   0  0  0  0  0  0  0  0  0  0  0  0
  149.2108  135.0149  158.1548 O   0  0  0  0  0  0  0  0  0  0  0  0
  148.5506  131.9596  153.1567 H   0  0  0  0  0  0  0  0  0  0  0  0
  148.2588  133.6575  152.7777 H   0  0  0  0  0  0  0  0  0  0  0  0
  147.3920  132.8812  154.1154 H   0  0  0  0  0  0  0  0  0  0  0  0
  148.8416  135.2734  154.3370 H   0  0  0  0  0  0  0  0  0  0  0  0
  148.4223  134.4810  155.8532 H   0  0  0  0  0  0  0  0  0  0  0  0
  150.9607  134.2177  156.2739 H   0  0  0  0  0  0  0  0  0  0  0  0
  151.2369  135.2498  154.9122 H   0  0  0  0  0  0  0  0  0  0  0  0
  151.3574  137.3658  155.1557 H   0  0  0  0  0  0  0  0  0  0  0  0
  150.0081  142.1909  156.5610 H   0  0  0  0  0  0  0  0  0  0  0  0
  150.4594  144.0257  158.1505 H   0  0  0  0  0  0  0  0  0  0  0  0
  152.3230  143.8342  159.7869 H   0  0  0  0  0  0  0  0  0  0  0  0
  153.7265  141.7918  159.8348 H   0  0  0  0  0  0  0  0  0  0  0  0
  149.9192  139.3923  158.6878 H   0  0  0  0  0  0  0  0  0  0  0  0
  1  2  1  0  0  0  0
  1 23  1  0  0  0  0
  1 24  1  0  0  0  0
  1 25  1  0  0  0  0
  2  3  1  0  0  0  0
  3  4  1  0  0  0  0
  3 26  1  0  0  0  0
  3 27  1  0  0  0  0
  4  5  1  0  0  0  0
  4 28  1  0  0  0  0
  4 29  1  0  0  0  0
  5 21  1  0  0  0  0
  5  6  1  0  0  0  0
  6  7  2  0  0  0  0
  6 30  1  0  0  0  0
  7  8  1  0  0  0  0
  7 17  1  0  0  0  0
  8  9  2  0  0  0  0
  8 10  1  0  0  0  0
 10 15  1  0  0  0  0
 10 11  2  0  0  0  0
 11 12  1  0  0  0  0
 11 31  1  0  0  0  0
 12 13  2  0  0  0  0
 12 32  1  0  0  0  0
 13 14  1  0  0  0  0
 13 33  1  0  0  0  0
 14 15  2  0  0  0  0
 14 34  1  0  0  0  0
 15 16  1  0  0  0  0
 17 18  2  0  0  0  0
 17 35  1  0  0  0  0
 18 19  1  0  0  0  0
 18 21  1  0  0  0  0
 19 20  3  0  0  0  0
 21 22  2  0  0  0  0
M  CHG  1  16  -1
M  END
> <s_m_source_file>
AV-unprocessed.smi

> <i_m_source_file_index>
2620

> <i_lp_mmshare_version>
43012

> <i_f3d_flags>
0

> <s_epik_input>
W0NIM11PW0NIMl1bQ0gyXW4xW2NIXWMoW2NIXWMoQyNOKWMxPU8pQyg9TyljMltjSF1bY0hdW2NIXVtjSF1jMltPSF0=

> <s_epik_cmdline>
J2VwaWtfcHl0aG9uJywgJy1waCcsICc3LjAnLCAnLXRuJywgJzgnLCAnLW1hJywgJzIwMCcsICctbWV0YWxfYmluZGluZycsICctaW1hZScsICc8aW5maWxlLm1hZT4nLCAnLW9tYWUnLCAnPG91dGZpbGUubWFlPic=

> <r_epik_Ionization_Penalty>
0.694682

> <r_epik_Ionization_Penalty_Charging>
0.694682

> <r_epik_Ionization_Penalty_Neutral>
1.08437e-11

> <r_epik_State_Penalty>
0.716871

> <r_epik_Charging_Adjusted_Penalty>
1.41155

> <i_epik_Tot_Q>
-1

> <i_epik_Tot_abs_Q>
1

> <r_epik_Metal_State_Penalty>
0.716871

> <b_epik_Metal_Only>
0

> <s_lp_Force_Field>
OPLS_2005

> <r_lp_Energy>
23.3851

> <b_lp_Chiralities_Consistent>
1

> <s_lp_Variant>
AV-unprocessed.smi:2620-2

> <Gold.Version>
5.8.1

> <Gold.Id.Protein>
6NUR|6NUR_protein|mol2

> <Gold.PLP.Fitness>
48.8566

> <Gold.PLP.PLP>
-34.2951

> <Gold.PLP.part.hbond>
-5.0000

> <Gold.PLP.part.metal>
0.0000

> <Gold.PLP.part.buried>
-5.2812

> <Gold.PLP.part.nonpolar>
-25.1673

> <Gold.PLP.part.repulsive>
0.1228

> <Gold.PLP.ligand.clash>
0.0000

> <Gold.PLP.ligand.torsion>
1.7188

> <Gold.PLP.Chemscore.Hbond>
5.4389

> <Gold.PLP.Chemscore.CHOScore>
0.0000

> <Gold.PLP.Chemscore.Metal>
0.0000

> <Gold.Chemscore.Hbonds>
donor molecule, donor type, donor heavy atom, donor atom, acceptor molecule, acceptor atom, score
      P1  H  6896  6908       L1    22  0.94
      P1  H  6931  6943       L1    20  0.86
      P1  H  6934  6947       L1    20  0.48
      P1  H  7989  7998       L1     9  1.00
      P1  H  7997  8008       L1    16  1.90

> <Gold.PLP.Chemscore.Internal.Correction>
1.6823

> <Gold.Rescore>
     Score         DG    S(hbond)    S(metal)    S(lipo)     H(rot)  DE(clash)    DE(int)     intcor
     20.20     -23.62       3.78        0.00      78.55       1.44       0.45       2.97       ----

> <Gold.Chemscore.Fitness>
20.2045

> <Gold.Chemscore.DG>
-23.6184

> <Gold.Chemscore.ZeroCoef>
-5.4800

> <Gold.Chemscore.Hbond>
3.7809

> <Gold.Chemscore.Metal>
0.0000

> <Gold.Chemscore.Lipo>
78.5468

> <Gold.Chemscore.Internal_Hbond>
0.0000

> <Gold.Chemscore.DEClash>
0.4483

> <Gold.Chemscore.DEInternal>
2.9656

> <Gold.Chemscore.Rot>
1.4374

> <Gold.Chemscore.Internal.Correction>
   9.000000E+99

> <Gold.Chemscore.Hbonds>
donor molecule, donor type, donor heavy atom, donor atom, acceptor molecule, acceptor atom, score
      P1  H  6896  6908       L1    22  0.54
      P1  H  6931  6943       L1    20  0.59
      P1  H  6934  6947       L1    20  0.24
      P1  H  7989  7998       L1     9  0.98
      P1  H  7997  8008       L1    16  0.21

> <Gold.Chemscore.Hbond.Weighted>
-12.6282

> <Gold.Chemscore.Metal.Weighted>
-0.0000

> <Gold.Chemscore.Lipo.Weighted>
-9.1900

> <Gold.Chemscore.Internal_Hbond.Weighted>
0.0000

> <Gold.Chemscore.DEClash.Weighted>
0.4483

> <Gold.Chemscore.DEInternal.Weighted>
2.9656

> <Gold.Chemscore.Rot.Weighted>
3.6797

> <Gold.Chemscore.Internal.Correction.Weighted>
   9.000000E+99

> <Gold.Protein.RotatedTorsions>
[ 6907 6896 6895 6894 ] final  145.09 input  -60.11 | X-H torsion
[ 7974 7965 7964 7962 ] final   22.49 input  175.53 | X-H torsion
[ 8008 7997 7996 7995 ] final  -83.66 input   59.86 | X-H torsion
[ 10167 10162 10161 10158 ] final   95.15 input  -65.29 | X-H torsion
[ 10718 10713 10712 10709 ] final  -97.35 input   66.30 | X-H torsion
[ 10763 10752 10751 10750 ] final -167.69 input  -60.55 | X-H torsion
[ 11005 11000 10999 10996 ] final  -58.82 input  -57.11 | X-H torsion

> <Gold.Protein.ActiveResidues>
 VAL166  LYS551  ARG553  GLY616  TRP617  ASP618  TYR619  PRO620  LYS621  CYS622 
 ASP623  PHE694  ASN695  SER759  ASP760  ASP761  ALA762  ILE779  LEU786  VAL792 
 PHE793  MET794  SER795  GLU796  ALA797  LYS798  CYS799  TRP800  GLU811  SER814 

> <Gold.Protein.RotatedAtoms>
  152.1853  133.4735  159.4979 H   0  0  0  0  0  0  0  0  0  0  0  0  # atno 6907 bound_to 6896
  150.6941  134.1782  159.4247 H   0  0  0  0  0  0  0  0  0  0  0  0  # atno 6908 bound_to 6896
  151.9694  135.0084  160.0602 H   0  0  0  0  0  0  0  0  0  0  0  0  # atno 6909 bound_to 6896
  146.2026  139.7878  142.8750 H   0  0  0  0  0  0  0  0  0  0  0  0  # atno 7974 bound_to 7965
  154.6214  140.0616  156.9620 H   0  0  0  0  0  0  0  0  0  0  0  0  # atno 8008 bound_to 7997
  155.1811  140.3299  155.4356 H   0  0  0  0  0  0  0  0  0  0  0  0  # atno 8009 bound_to 7997
  156.2433  140.1897  156.6908 H   0  0  0  0  0  0  0  0  0  0  0  0  # atno 8010 bound_to 7997
  139.8015  144.6811  150.9758 H   0  0  0  0  0  0  0  0  0  0  0  0  # atno 10167 bound_to 10162
  156.0082  130.5190  150.6361 H   0  0  0  0  0  0  0  0  0  0  0  0  # atno 10718 bound_to 10713
  154.6706  135.2938  154.9747 H   0  0  0  0  0  0  0  0  0  0  0  0  # atno 10763 bound_to 10752
  154.0776  135.6609  153.4837 H   0  0  0  0  0  0  0  0  0  0  0  0  # atno 10764 bound_to 10752
  153.0484  135.5189  154.7700 H   0  0  0  0  0  0  0  0  0  0  0  0  # atno 10765 bound_to 10752
  141.1223  133.6613  156.4977 H   0  0  0  0  0  0  0  0  0  0  0  0  # atno 11005 bound_to 11000
  145.3430  141.0292  143.3381 LP  0  0  0  0  0  0  0  0  0  0  0  0  # atno 17320 bound_to 7965
  144.8719  139.5027  143.6764 LP  0  0  0  0  0  0  0  0  0  0  0  0  # atno 17321 bound_to 7965
  140.7820  143.4276  151.0743 LP  0  0  0  0  0  0  0  0  0  0  0  0  # atno 17342 bound_to 10162
  139.7948  143.8167  152.3156 LP  0  0  0  0  0  0  0  0  0  0  0  0  # atno 17343 bound_to 10162
  157.4150  131.0829  151.1185 LP  0  0  0  0  0  0  0  0  0  0  0  0  # atno 17370 bound_to 10713
  157.1805  130.6307  149.5670 LP  0  0  0  0  0  0  0  0  0  0  0  0  # atno 17371 bound_to 10713
  140.4471  134.6963  157.5021 LP  0  0  0  0  0  0  0  0  0  0  0  0  # atno 17394 bound_to 11000
  140.0190  134.6575  155.9267 LP  0  0  0  0  0  0  0  0  0  0  0  0  # atno 17395 bound_to 11000

$$$$
