AV-unprocessed.smi:1933|AV-procd|sdf|7815|dock3
  -GOLD-   22720 9553D 1   1.00000     0.00000
 Structure written by MMmdl.
 47 49  0  0  0  0  0  0  0  0  1 V2000
  144.6276  136.5594  152.5075 O   0  0  0  0  0  0  0  0  0  0  0  0
  145.8359  136.4474  152.2993 C   0  0  0  0  0  0  0  0  0  0  0  0
  146.7313  137.4026  152.5907 N   0  0  0  0  0  0  0  0  0  0  0  0
  146.4331  138.6998  153.1924 C   0  0  0  0  0  0  0  0  0  0  0  0
  146.7682  138.7427  154.7075 C   0  0  2  0  0  0  0  0  0  0  0  0
  145.6419  139.3873  155.5678 C   0  0  2  0  0  0  0  0  0  0  0  0
  144.2153  138.8881  155.4339 C   0  0  0  0  0  0  0  0  0  0  0  0
  143.4620  139.9663  156.2054 C   0  0  0  0  0  0  0  0  0  0  0  0
  144.1620  141.1795  155.9378 O   0  0  0  0  0  0  0  0  0  0  0  0
  145.4450  140.8934  155.3834 C   0  0  0  0  0  0  0  0  0  0  0  0
  148.1347  139.2071  155.0209 N   0  0  0  0  0  0  0  0  0  0  0  0
  149.1649  138.3946  154.3779 C   0  0  0  0  0  0  0  0  0  0  0  0
  150.5793  138.8150  154.8149 C   0  0  0  0  0  0  0  0  0  0  0  0
  150.7771  140.1986  154.5426 O   0  0  0  0  0  0  0  0  0  0  0  0
  149.8144  141.0288  155.1840 C   0  0  0  0  0  0  0  0  0  0  0  0
  148.4033  140.6183  154.7313 C   0  0  0  0  0  0  0  0  0  0  0  0
  146.4349  135.3707  151.7606 N   0  0  0  0  0  0  0  0  0  0  0  0
  145.8423  134.1425  151.3629 C   0  0  0  0  0  0  0  0  0  0  0  0
  144.4571  134.2078  151.0894 C   0  0  0  0  0  0  0  0  0  0  0  0
  143.7757  133.0447  150.6809 C   0  0  0  0  0  0  0  0  0  0  0  0
  144.4979  131.8447  150.5566 C   0  0  0  0  0  0  0  0  0  0  0  0
  145.8742  131.8655  150.8488 C   0  0  0  0  0  0  0  0  0  0  0  0
  146.5292  132.9791  151.2402 N   0  0  0  0  0  0  0  0  0  0  0  0
  147.7015  137.2177  152.3820 H   0  0  0  0  0  0  0  0  0  0  0  0
  147.0310  139.4347  152.6538 H   0  0  0  0  0  0  0  0  0  0  0  0
  145.3915  138.9768  153.0220 H   0  0  0  0  0  0  0  0  0  0  0  0
  146.7330  137.6991  155.0244 H   0  0  0  0  0  0  0  0  0  0  0  0
  145.9191  139.2546  156.6142 H   0  0  0  0  0  0  0  0  0  0  0  0
  143.8693  138.9124  154.4040 H   0  0  0  0  0  0  0  0  0  0  0  0
  144.0593  137.8871  155.8352 H   0  0  0  0  0  0  0  0  0  0  0  0
  142.4137  140.0358  155.9141 H   0  0  0  0  0  0  0  0  0  0  0  0
  143.5041  139.7671  157.2771 H   0  0  0  0  0  0  0  0  0  0  0  0
  146.2261  141.4771  155.8710 H   0  0  0  0  0  0  0  0  0  0  0  0
  145.4277  141.1673  154.3281 H   0  0  0  0  0  0  0  0  0  0  0  0
  149.0185  137.3426  154.6254 H   0  0  0  0  0  0  0  0  0  0  0  0
  149.0847  138.4749  153.2934 H   0  0  0  0  0  0  0  0  0  0  0  0
  150.7265  138.6235  155.8790 H   0  0  0  0  0  0  0  0  0  0  0  0
  151.3300  138.2346  154.2785 H   0  0  0  0  0  0  0  0  0  0  0  0
  149.9132  140.9463  156.2675 H   0  0  0  0  0  0  0  0  0  0  0  0
  150.0094  142.0686  154.9216 H   0  0  0  0  0  0  0  0  0  0  0  0
  148.3218  140.8019  153.6595 H   0  0  0  0  0  0  0  0  0  0  0  0
  147.6770  141.2711  155.2037 H   0  0  0  0  0  0  0  0  0  0  0  0
  147.4342  135.4302  151.6338 H   0  0  0  0  0  0  0  0  0  0  0  0
  143.9174  135.1383  151.1895 H   0  0  0  0  0  0  0  0  0  0  0  0
  142.7178  133.0744  150.4662 H   0  0  0  0  0  0  0  0  0  0  0  0
  144.0104  130.9327  150.2454 H   0  0  0  0  0  0  0  0  0  0  0  0
  146.4652  130.9654  150.7657 H   0  0  0  0  0  0  0  0  0  0  0  0
  1  2  2  0  0  0  0
  2  3  1  0  0  0  0
  2 17  1  0  0  0  0
  3  4  1  0  0  0  0
  3 24  1  0  0  0  0
  4  5  1  0  0  0  0
  4 25  1  0  0  0  0
  4 26  1  0  0  0  0
  5  6  1  0  0  0  0
  5 11  1  0  0  0  0
  5 27  1  0  0  0  0
  6 10  1  0  0  0  0
  6  7  1  0  0  0  0
  6 28  1  0  0  0  0
  7  8  1  0  0  0  0
  7 29  1  0  0  0  0
  7 30  1  0  0  0  0
  8  9  1  0  0  0  0
  8 31  1  0  0  0  0
  8 32  1  0  0  0  0
  9 10  1  0  0  0  0
 10 33  1  0  0  0  0
 10 34  1  0  0  0  0
 11 16  1  0  0  0  0
 11 12  1  0  0  0  0
 12 13  1  0  0  0  0
 12 35  1  0  0  0  0
 12 36  1  0  0  0  0
 13 14  1  0  0  0  0
 13 37  1  0  0  0  0
 13 38  1  0  0  0  0
 14 15  1  0  0  0  0
 15 16  1  0  0  0  0
 15 39  1  0  0  0  0
 15 40  1  0  0  0  0
 16 41  1  0  0  0  0
 16 42  1  0  0  0  0
 17 18  1  0  0  0  0
 17 43  1  0  0  0  0
 18 23  1  0  0  0  0
 18 19  2  0  0  0  0
 19 20  1  0  0  0  0
 19 44  1  0  0  0  0
 20 21  2  0  0  0  0
 20 45  1  0  0  0  0
 21 22  1  0  0  0  0
 21 46  1  0  0  0  0
 22 23  2  0  0  0  0
 22 47  1  0  0  0  0
M  END
> <s_m_source_file>
AV-unprocessed.smi

> <i_m_source_file_index>
1933

> <i_lp_mmshare_version>
43012

> <i_f3d_flags>
0

> <s_epik_input>
bjFbY0hdW2NIXVtjSF1bY0hdYzFbTkhdQyg9TylbTkhdW0NIMl1bQ0BIXShbQ0BASF0yW0NIMl1bQ0gyXU9bQ0gyXTIpTjNbQ0gyXVtDSDJdT1tDSDJdW0NIMl0z

> <s_epik_cmdline>
J2VwaWtfcHl0aG9uJywgJy1waCcsICc3LjAnLCAnLXRuJywgJzgnLCAnLW1hJywgJzIwMCcsICctbWV0YWxfYmluZGluZycsICctaW1hZScsICc8aW5maWxlLm1hZT4nLCAnLW9tYWUnLCAnPG91dGZpbGUubWFlPic=

> <r_epik_Ionization_Penalty>
0.125062

> <r_epik_Ionization_Penalty_Charging>
0

> <r_epik_Ionization_Penalty_Neutral>
0.125062

> <r_epik_State_Penalty>
0.114484

> <r_epik_Charging_Adjusted_Penalty>
0.114484

> <i_epik_Tot_Q>
0

> <i_epik_Tot_abs_Q>
0

> <r_epik_Metal_State_Penalty>
0.114484

> <b_epik_Metal_Only>
0

> <s_lp_Force_Field>
OPLS_2005

> <r_lp_Energy>
57.3648

> <b_lp_Chiralities_Consistent>
1

> <s_lp_Variant>
AV-unprocessed.smi:1933-1

> <Gold.Version>
5.8.1

> <Gold.Id.Protein>
6NUR|6NUR_protein|mol2

> <Gold.PLP.Fitness>
41.0439

> <Gold.PLP.PLP>
-30.6738

> <Gold.PLP.part.hbond>
-2.9345

> <Gold.PLP.part.metal>
0.0000

> <Gold.PLP.part.buried>
-5.9285

> <Gold.PLP.part.nonpolar>
-23.9108

> <Gold.PLP.part.repulsive>
0.7410

> <Gold.PLP.ligand.clash>
0.0000

> <Gold.PLP.ligand.torsion>
0.8728

> <Gold.PLP.Chemscore.Hbond>
2.9913

> <Gold.PLP.Chemscore.CHOScore>
0.9355

> <Gold.PLP.Chemscore.Metal>
0.0000

> <Gold.Chemscore.Hbonds>
donor molecule, donor type, donor heavy atom, donor atom, acceptor molecule, acceptor atom, score
      L1  H     3    24       P1  7948  1.00
      L1  H    17    43       P1  7948  1.00
      P1  H  7989  7998       L1    14  0.94
      L1  C    22    47       P1 10747  0.87

> <Gold.PLP.Chemscore.Internal.Correction>
0.3356

> <Gold.Rescore>
     Score         DG    S(hbond)    S(metal)    S(lipo)     H(rot)  DE(clash)    DE(int)     intcor
     16.41     -18.80       2.86        0.00      69.83       1.72       0.04       2.35       ----

> <Gold.Chemscore.Fitness>
16.4095

> <Gold.Chemscore.DG>
-18.7953

> <Gold.Chemscore.ZeroCoef>
-5.4800

> <Gold.Chemscore.Hbond>
2.8558

> <Gold.Chemscore.Metal>
0.0000

> <Gold.Chemscore.Lipo>
69.8300

> <Gold.Chemscore.Internal_Hbond>
0.0000

> <Gold.Chemscore.DEClash>
0.0354

> <Gold.Chemscore.DEInternal>
2.3505

> <Gold.Chemscore.Rot>
1.7161

> <Gold.Chemscore.Internal.Correction>
   9.000000E+99

> <Gold.Chemscore.Hbonds>
donor molecule, donor type, donor heavy atom, donor atom, acceptor molecule, acceptor atom, score
      L1  H     3    24       P1  7948  0.97
      L1  H    17    43       P1  7948  0.93
      P1  H  7989  7998       L1    14  0.83

> <Gold.Chemscore.Hbond.Weighted>
-9.5384

> <Gold.Chemscore.Metal.Weighted>
-0.0000

> <Gold.Chemscore.Lipo.Weighted>
-8.1701

> <Gold.Chemscore.Internal_Hbond.Weighted>
0.0000

> <Gold.Chemscore.DEClash.Weighted>
0.0354

> <Gold.Chemscore.DEInternal.Weighted>
2.3505

> <Gold.Chemscore.Rot.Weighted>
4.3932

> <Gold.Chemscore.Internal.Correction.Weighted>
   9.000000E+99

> <Gold.Protein.RotatedTorsions>
[ 6907 6896 6895 6894 ] final  -19.02 input  -60.11 | X-H torsion
[ 7974 7965 7964 7962 ] final  124.98 input  175.53 | X-H torsion
[ 8008 7997 7996 7995 ] final   55.71 input   59.86 | X-H torsion
[ 10167 10162 10161 10158 ] final  -25.46 input  -65.29 | X-H torsion
[ 10718 10713 10712 10709 ] final   35.17 input   66.30 | X-H torsion
[ 10763 10752 10751 10750 ] final -173.17 input  -60.55 | X-H torsion
[ 11005 11000 10999 10996 ] final  -37.79 input  -57.11 | X-H torsion

> <Gold.Protein.ActiveResidues>
 VAL166  LYS551  ARG553  GLY616  TRP617  ASP618  TYR619  PRO620  LYS621  CYS622 
 ASP623  PHE694  ASN695  SER759  ASP760  ASP761  ALA762  ILE779  LEU786  VAL792 
 PHE793  MET794  SER795  GLU796  ALA797  LYS798  CYS799  TRP800  GLU811  SER814 

> <Gold.Protein.RotatedAtoms>
  151.2694  135.0679  159.9127 H   0  0  0  0  0  0  0  0  0  0  0  0  # atno 6907 bound_to 6896
  152.5353  134.0147  159.7964 H   0  0  0  0  0  0  0  0  0  0  0  0  # atno 6908 bound_to 6896
  151.0382  133.5679  159.2684 H   0  0  0  0  0  0  0  0  0  0  0  0  # atno 6909 bound_to 6896
  145.0782  139.3677  143.4923 H   0  0  0  0  0  0  0  0  0  0  0  0  # atno 7974 bound_to 7965
  155.5056  140.3475  155.4379 H   0  0  0  0  0  0  0  0  0  0  0  0  # atno 8008 bound_to 7997
  156.0884  140.1404  156.9651 H   0  0  0  0  0  0  0  0  0  0  0  0  # atno 8009 bound_to 7997
  154.4620  140.0931  156.6896 H   0  0  0  0  0  0  0  0  0  0  0  0  # atno 8010 bound_to 7997
  140.7286  143.4263  151.0872 H   0  0  0  0  0  0  0  0  0  0  0  0  # atno 10167 bound_to 10162
  157.3194  130.7440  149.6775 H   0  0  0  0  0  0  0  0  0  0  0  0  # atno 10718 bound_to 10713
  154.6110  135.2864  155.0432 H   0  0  0  0  0  0  0  0  0  0  0  0  # atno 10763 bound_to 10752
  154.1662  135.6480  153.5002 H   0  0  0  0  0  0  0  0  0  0  0  0  # atno 10764 bound_to 10752
  153.0195  135.5390  154.6863 H   0  0  0  0  0  0  0  0  0  0  0  0  # atno 10765 bound_to 10752
  140.9979  133.6971  156.1968 H   0  0  0  0  0  0  0  0  0  0  0  0  # atno 11005 bound_to 11000
  146.3530  140.0559  142.8632 LP  0  0  0  0  0  0  0  0  0  0  0  0  # atno 17320 bound_to 7965
  145.1210  140.9462  143.4600 LP  0  0  0  0  0  0  0  0  0  0  0  0  # atno 17321 bound_to 7965
  139.7914  143.8212  152.3152 LP  0  0  0  0  0  0  0  0  0  0  0  0  # atno 17342 bound_to 10162
  139.8198  144.7301  150.9588 LP  0  0  0  0  0  0  0  0  0  0  0  0  # atno 17343 bound_to 10162
  155.9684  130.4227  150.4531 LP  0  0  0  0  0  0  0  0  0  0  0  0  # atno 17370 bound_to 10713
  157.2543  131.0553  151.2360 LP  0  0  0  0  0  0  0  0  0  0  0  0  # atno 17371 bound_to 10713
  140.6937  134.4639  157.5588 LP  0  0  0  0  0  0  0  0  0  0  0  0  # atno 17394 bound_to 11000
  139.9024  134.8526  156.1843 LP  0  0  0  0  0  0  0  0  0  0  0  0  # atno 17395 bound_to 11000

$$$$
