AV-unprocessed.smi:1812|AV-procd|sdf|7339|dock3
  -GOLD-   22720 9 03D 1   1.00000     0.00000
 Structure written by MMmdl.
 33 35  0  0  0  0  0  0  0  0  2 V2000
  148.6597  140.1622  155.7944 O   0  0  0  0  0  0  0  0  0  0  0  0
  149.3632  140.2487  154.7854 C   0  0  0  0  0  0  0  0  0  0  0  0
  148.8009  140.2327  153.5689 N   0  0  0  0  0  0  0  0  0  0  0  0
  147.3780  140.1012  153.2750 C   0  0  0  0  0  0  0  0  0  0  0  0
  147.0461  138.6538  152.8877 C   0  0  1  0  0  0  0  0  0  0  0  0
  145.7928  138.1015  153.5642 C   0  0  0  0  0  0  0  0  0  0  0  0
  145.3134  137.0225  152.6044 C   0  0  0  0  0  0  0  0  0  0  0  0
  146.1047  137.2850  151.3194 C   0  0  0  0  0  0  0  0  0  0  0  0
  146.7113  138.5545  151.5124 O   0  0  0  0  0  0  0  0  0  0  0  0
  150.7107  140.3606  154.7571 N   0  5  0  0  0  0  0  0  0  0  0  0
  151.4005  140.4813  155.9033 C   0  0  0  0  0  0  0  0  0  0  0  0
  152.5172  139.7816  156.1489 N   0  0  0  0  0  0  0  0  0  0  0  0
  153.0650  140.0503  157.3949 N   0  0  0  0  0  0  0  0  0  0  0  0
  152.3481  140.9458  158.0779 C   0  0  0  0  0  0  0  0  0  0  0  0
  152.7291  141.3984  159.4475 C   0  0  0  0  0  0  0  0  0  0  0  0
  152.8944  142.8658  159.7789 C   0  0  0  0  0  0  0  0  0  0  0  0
  154.1029  141.9664  159.7206 C   0  0  0  0  0  0  0  0  0  0  0  0
  150.9241  141.5345  157.2348 S   0  0  0  0  0  0  0  0  0  0  0  0
  149.4194  140.3118  152.7749 H   0  0  0  0  0  0  0  0  0  0  0  0
  146.7728  140.3850  154.1374 H   0  0  0  0  0  0  0  0  0  0  0  0
  147.1191  140.7848  152.4656 H   0  0  0  0  0  0  0  0  0  0  0  0
  147.8956  138.0001  153.0965 H   0  0  0  0  0  0  0  0  0  0  0  0
  145.9913  137.7211  154.5665 H   0  0  0  0  0  0  0  0  0  0  0  0
  145.0333  138.8804  153.6444 H   0  0  0  0  0  0  0  0  0  0  0  0
  145.5209  136.0228  152.9875 H   0  0  0  0  0  0  0  0  0  0  0  0
  144.2388  137.1021  152.4380 H   0  0  0  0  0  0  0  0  0  0  0  0
  146.8839  136.5325  151.1887 H   0  0  0  0  0  0  0  0  0  0  0  0
  145.4748  137.2809  150.4297 H   0  0  0  0  0  0  0  0  0  0  0  0
  152.2827  140.7544  160.2027 H   0  0  0  0  0  0  0  0  0  0  0  0
  152.7773  143.5922  158.9770 H   0  0  0  0  0  0  0  0  0  0  0  0
  152.5615  143.1979  160.7600 H   0  0  0  0  0  0  0  0  0  0  0  0
  154.5775  141.6985  160.6624 H   0  0  0  0  0  0  0  0  0  0  0  0
  154.7772  142.0865  158.8750 H   0  0  0  0  0  0  0  0  0  0  0  0
  1  2  2  0  0  0  0
  2  3  1  0  0  0  0
  2 10  1  0  0  0  0
  3  4  1  0  0  0  0
  3 19  1  0  0  0  0
  4  5  1  0  0  0  0
  4 20  1  0  0  0  0
  4 21  1  0  0  0  0
  5  9  1  0  0  0  0
  5  6  1  0  0  0  0
  5 22  1  0  0  0  0
  6  7  1  0  0  0  0
  6 23  1  0  0  0  0
  6 24  1  0  0  0  0
  7  8  1  0  0  0  0
  7 25  1  0  0  0  0
  7 26  1  0  0  0  0
  8  9  1  0  0  0  0
  8 27  1  0  0  0  0
  8 28  1  0  0  0  0
 10 11  1  0  0  0  0
 11 18  1  0  0  0  0
 11 12  2  0  0  0  0
 12 13  1  0  0  0  0
 13 14  2  0  0  0  0
 14 15  1  0  0  0  0
 14 18  1  0  0  0  0
 15 17  1  0  0  0  0
 15 16  1  0  0  0  0
 15 29  1  0  0  0  0
 16 17  1  0  0  0  0
 16 30  1  0  0  0  0
 16 31  1  0  0  0  0
 17 32  1  0  0  0  0
 17 33  1  0  0  0  0
M  CHG  1  10  -1
M  END
> <s_m_source_file>
AV-unprocessed.smi

> <i_m_source_file_index>
1812

> <i_lp_mmshare_version>
43012

> <i_f3d_flags>
0

> <s_epik_input>
TzFbQ0gyXVtDSDJdW0NIMl1bQ0BIXTFbQ0gyXVtOSF1DKD1PKVtOSF1jMm5uYyhzMilbQ0hdM1tDSDJdW0NIMl0z

> <s_epik_cmdline>
J2VwaWtfcHl0aG9uJywgJy1waCcsICc3LjAnLCAnLXRuJywgJzgnLCAnLW1hJywgJzIwMCcsICctbWV0YWxfYmluZGluZycsICctaW1hZScsICc8aW5maWxlLm1hZT4nLCAnLW9tYWUnLCAnPG91dGZpbGUubWFlPic=

> <r_lp_tautomer_probability>
1

> <r_epik_Ionization_Penalty>
4.72991

> <r_epik_Ionization_Penalty_Charging>
4.58249

> <r_epik_Ionization_Penalty_Neutral>
0.147417

> <r_epik_State_Penalty>
4.58223

> <r_epik_Charging_Adjusted_Penalty>
9.16473

> <i_epik_Tot_Q>
-1

> <i_epik_Tot_abs_Q>
1

> <r_epik_Metal_State_Penalty>
0.861876

> <b_epik_Metal_Only>
1

> <s_lp_Force_Field>
OPLS_2005

> <r_lp_Energy>
14.1682

> <b_lp_Chiralities_Consistent>
1

> <s_lp_Variant>
AV-unprocessed.smi:1812-4

> <Gold.Version>
5.8.1

> <Gold.Id.Protein>
6NUR|6NUR_protein|mol2

> <Gold.PLP.Fitness>
38.9695

> <Gold.PLP.PLP>
-32.6345

> <Gold.PLP.part.hbond>
-4.6814

> <Gold.PLP.part.metal>
0.0000

> <Gold.PLP.part.buried>
1.5552

> <Gold.PLP.part.nonpolar>
-30.0715

> <Gold.PLP.part.repulsive>
0.6851

> <Gold.PLP.ligand.clash>
0.0000

> <Gold.PLP.ligand.torsion>
1.2588

> <Gold.PLP.Chemscore.Hbond>
2.8844

> <Gold.PLP.Chemscore.CHOScore>
0.0000

> <Gold.PLP.Chemscore.Metal>
0.0000

> <Gold.Chemscore.Hbonds>
donor molecule, donor type, donor heavy atom, donor atom, acceptor molecule, acceptor atom, score
      L1  H     3    19       P1  7957  0.93
      P1  H  7954  7966       L1     9  0.10
      P1  H  7989  7998       L1    10  1.00
      P1  H  7997  8010       L1    13  0.82

> <Gold.PLP.Chemscore.Internal.Correction>
0.1995

> <Gold.Rescore>
     Score         DG    S(hbond)    S(metal)    S(lipo)     H(rot)  DE(clash)    DE(int)     intcor
     15.21     -16.88       1.94        0.00      73.58       1.45       0.23       1.44       ----

> <Gold.Chemscore.Fitness>
15.2092

> <Gold.Chemscore.DG>
-16.8788

> <Gold.Chemscore.ZeroCoef>
-5.4800

> <Gold.Chemscore.Hbond>
1.9430

> <Gold.Chemscore.Metal>
0.0000

> <Gold.Chemscore.Lipo>
73.5781

> <Gold.Chemscore.Internal_Hbond>
0.0000

> <Gold.Chemscore.DEClash>
0.2252

> <Gold.Chemscore.DEInternal>
1.4444

> <Gold.Chemscore.Rot>
1.4451

> <Gold.Chemscore.Internal.Correction>
   9.000000E+99

> <Gold.Chemscore.Hbonds>
donor molecule, donor type, donor heavy atom, donor atom, acceptor molecule, acceptor atom, score
      L1  H     3    19       P1  7957  0.89
      P1  H  7989  7998       L1    10  0.73
      P1  H  7997  8010       L1    13  0.20

> <Gold.Chemscore.Hbond.Weighted>
-6.4897

> <Gold.Chemscore.Metal.Weighted>
-0.0000

> <Gold.Chemscore.Lipo.Weighted>
-8.6086

> <Gold.Chemscore.Internal_Hbond.Weighted>
0.0000

> <Gold.Chemscore.DEClash.Weighted>
0.2252

> <Gold.Chemscore.DEInternal.Weighted>
1.4444

> <Gold.Chemscore.Rot.Weighted>
3.6995

> <Gold.Chemscore.Internal.Correction.Weighted>
   9.000000E+99

> <Gold.Protein.RotatedTorsions>
[ 6907 6896 6895 6894 ] final  -81.33 input  -60.11 | X-H torsion
[ 7974 7965 7964 7962 ] final -160.06 input  175.53 | X-H torsion
[ 8008 7997 7996 7995 ] final   32.27 input   59.86 | X-H torsion
[ 10167 10162 10161 10158 ] final  -83.58 input  -65.29 | X-H torsion
[ 10718 10713 10712 10709 ] final   86.21 input   66.30 | X-H torsion
[ 10763 10752 10751 10750 ] final   92.36 input  -60.55 | X-H torsion
[ 11005 11000 10999 10996 ] final  149.50 input  -57.11 | X-H torsion

> <Gold.Protein.ActiveResidues>
 VAL166  LYS551  ARG553  GLY616  TRP617  ASP618  TYR619  PRO620  LYS621  CYS622 
 ASP623  PHE694  ASN695  SER759  ASP760  ASP761  ALA762  ILE779  LEU786  VAL792 
 PHE793  MET794  SER795  GLU796  ALA797  LYS798  CYS799  TRP800  GLU811  SER814 

> <Gold.Protein.RotatedAtoms>
  150.6914  134.3834  159.5044 H   0  0  0  0  0  0  0  0  0  0  0  0  # atno 6907 bound_to 6896
  152.1633  134.8891  160.0549 H   0  0  0  0  0  0  0  0  0  0  0  0  # atno 6908 bound_to 6896
  151.9945  133.3768  159.4194 H   0  0  0  0  0  0  0  0  0  0  0  0  # atno 6909 bound_to 6896
  144.7441  140.3595  143.6099 H   0  0  0  0  0  0  0  0  0  0  0  0  # atno 7974 bound_to 7965
  155.1198  140.3247  155.4500 H   0  0  0  0  0  0  0  0  0  0  0  0  # atno 8008 bound_to 7997
  156.2666  140.2029  156.6269 H   0  0  0  0  0  0  0  0  0  0  0  0  # atno 8009 bound_to 7997
  154.6692  140.0538  157.0134 H   0  0  0  0  0  0  0  0  0  0  0  0  # atno 8010 bound_to 7997
  140.4213  143.2583  151.8886 H   0  0  0  0  0  0  0  0  0  0  0  0  # atno 10167 bound_to 10162
  157.6925  131.0206  150.2938 H   0  0  0  0  0  0  0  0  0  0  0  0  # atno 10718 bound_to 10713
  153.2183  135.4364  155.0460 H   0  0  0  0  0  0  0  0  0  0  0  0  # atno 10763 bound_to 10752
  154.8237  135.3350  154.6965 H   0  0  0  0  0  0  0  0  0  0  0  0  # atno 10764 bound_to 10752
  153.7399  135.7005  153.5025 H   0  0  0  0  0  0  0  0  0  0  0  0  # atno 10765 bound_to 10752
  140.1050  134.8960  157.1852 H   0  0  0  0  0  0  0  0  0  0  0  0  # atno 11005 bound_to 11000
  145.7192  139.1705  143.2494 LP  0  0  0  0  0  0  0  0  0  0  0  0  # atno 17320 bound_to 7965
  146.1290  140.7211  142.9421 LP  0  0  0  0  0  0  0  0  0  0  0  0  # atno 17321 bound_to 7965
  139.4782  144.5434  151.8494 LP  0  0  0  0  0  0  0  0  0  0  0  0  # atno 17342 bound_to 10162
  140.4531  144.1828  150.5899 LP  0  0  0  0  0  0  0  0  0  0  0  0  # atno 17343 bound_to 10162
  156.3465  130.3824  149.7365 LP  0  0  0  0  0  0  0  0  0  0  0  0  # atno 17370 bound_to 10713
  156.4857  130.8062  151.3074 LP  0  0  0  0  0  0  0  0  0  0  0  0  # atno 17371 bound_to 10713
  140.3168  134.2961  155.7254 LP  0  0  0  0  0  0  0  0  0  0  0  0  # atno 17394 bound_to 11000
  141.2116  133.7685  156.9854 LP  0  0  0  0  0  0  0  0  0  0  0  0  # atno 17395 bound_to 11000

$$$$
