AV-unprocessed.smi:199|AV-procd|sdf|1574|dock3
  -GOLD-   2262019453D 1   1.00000     0.00000
 Structure written by MMmdl.
 51 55  0  0  0  0  0  0  0  0  1 V2000
  147.1059  135.4614  162.6800 C   0  0  0  0  0  0  0  0  0  0  0  0
  147.3079  135.9968  161.2514 C   0  0  2  0  0  0  0  0  0  0  0  0
  146.4787  137.1543  161.1304 O   0  0  0  0  0  0  0  0  0  0  0  0
  145.5952  137.0271  160.0245 C   0  0  0  0  0  0  0  0  0  0  0  0
  145.4660  135.5254  159.8194 C   0  0  0  0  0  0  0  0  0  0  0  0
  146.8809  135.0397  160.1105 C   0  0  2  0  0  0  0  0  0  0  0  0
  146.8284  133.6855  160.5238 O   0  0  0  0  0  0  0  0  0  0  0  0
  147.8480  135.1464  158.9007 C   0  0  0  0  0  0  0  0  0  0  0  0
  148.5462  136.4195  158.8028 N   0  0  0  0  0  0  0  0  0  0  0  0
  149.7462  136.7486  159.3908 C   0  0  0  0  0  0  0  0  0  0  0  0
  150.1704  137.9581  159.1484 N   0  0  0  0  0  0  0  0  0  0  0  0
  149.1972  138.5049  158.3199 C   0  0  0  0  0  0  0  0  0  0  0  0
  149.0236  139.7674  157.6823 C   0  0  0  0  0  0  0  0  0  0  0  0
  149.9000  140.7999  157.8057 N   0  0  0  0  0  0  0  0  0  0  0  0
  151.2935  140.6672  157.4108 C   0  0  2  0  0  0  0  0  0  0  0  0
  151.9073  141.9700  157.9522 C   0  0  0  0  0  0  0  0  0  0  0  0
  150.7441  142.9569  157.7522 C   0  0  0  0  0  0  0  0  0  0  0  0
  149.6879  142.0515  157.0933 C   0  0  1  0  0  0  0  0  0  0  0  0
  150.1294  141.7669  155.6349 C   0  0  2  0  0  0  0  0  0  0  0  0
  148.9946  141.2730  154.7170 C   0  0  0  0  0  0  0  0  0  0  0  0
  149.4746  141.1096  153.3996 O   0  0  0  0  0  0  0  0  0  0  0  0
  151.2482  140.7312  155.8701 C   0  0  0  0  0  0  0  0  0  0  0  0
  147.9264  139.9207  156.8940 N   0  0  0  0  0  0  0  0  0  0  0  0
  147.0440  138.9274  156.7585 C   0  0  0  0  0  0  0  0  0  0  0  0
  147.0675  137.7119  157.3065 N   0  0  0  0  0  0  0  0  0  0  0  0
  148.1743  137.5418  158.0838 C   0  0  0  0  0  0  0  0  0  0  0  0
  147.7425  134.5979  162.8743 H   0  0  0  0  0  0  0  0  0  0  0  0
  146.0709  135.1640  162.8523 H   0  0  0  0  0  0  0  0  0  0  0  0
  147.3580  136.2234  163.4177 H   0  0  0  0  0  0  0  0  0  0  0  0
  148.3515  136.2930  161.1364 H   0  0  0  0  0  0  0  0  0  0  0  0
  144.6376  137.5089  160.2216 H   0  0  0  0  0  0  0  0  0  0  0  0
  146.0407  137.5024  159.1497 H   0  0  0  0  0  0  0  0  0  0  0  0
  144.7686  135.1273  160.5584 H   0  0  0  0  0  0  0  0  0  0  0  0
  145.0830  135.2573  158.8358 H   0  0  0  0  0  0  0  0  0  0  0  0
  147.5763  133.5106  161.0744 H   0  0  0  0  0  0  0  0  0  0  0  0
  148.5986  134.3566  158.9429 H   0  0  0  0  0  0  0  0  0  0  0  0
  147.3011  134.9867  157.9702 H   0  0  0  0  0  0  0  0  0  0  0  0
  150.2979  136.0601  160.0147 H   0  0  0  0  0  0  0  0  0  0  0  0
  151.7964  139.7784  157.7938 H   0  0  0  0  0  0  0  0  0  0  0  0
  152.1533  141.8772  159.0107 H   0  0  0  0  0  0  0  0  0  0  0  0
  152.8112  142.2630  157.4169 H   0  0  0  0  0  0  0  0  0  0  0  0
  150.3890  143.3265  158.7151 H   0  0  0  0  0  0  0  0  0  0  0  0
  151.0141  143.8177  157.1397 H   0  0  0  0  0  0  0  0  0  0  0  0
  148.6885  142.4768  157.1680 H   0  0  0  0  0  0  0  0  0  0  0  0
  150.5416  142.6774  155.1964 H   0  0  0  0  0  0  0  0  0  0  0  0
  148.5771  140.3270  155.0595 H   0  0  0  0  0  0  0  0  0  0  0  0
  148.1799  141.9974  154.7007 H   0  0  0  0  0  0  0  0  0  0  0  0
  148.9312  140.4752  152.9574 H   0  0  0  0  0  0  0  0  0  0  0  0
  152.2009  141.0335  155.4342 H   0  0  0  0  0  0  0  0  0  0  0  0
  150.9868  139.7591  155.4498 H   0  0  0  0  0  0  0  0  0  0  0  0
  146.1990  139.1365  156.1194 H   0  0  0  0  0  0  0  0  0  0  0  0
  1  2  1  0  0  0  0
  1 27  1  0  0  0  0
  1 28  1  0  0  0  0
  1 29  1  0  0  0  0
  2  6  1  0  0  0  0
  2  3  1  0  0  0  0
  2 30  1  0  0  0  0
  3  4  1  0  0  0  0
  4  5  1  0  0  0  0
  4 31  1  0  0  0  0
  4 32  1  0  0  0  0
  5  6  1  0  0  0  0
  5 33  1  0  0  0  0
  5 34  1  0  0  0  0
  6  7  1  0  0  0  0
  6  8  1  0  0  0  0
  7 35  1  0  0  0  0
  8  9  1  0  0  0  0
  8 36  1  0  0  0  0
  8 37  1  0  0  0  0
  9 26  1  0  0  0  0
  9 10  1  0  0  0  0
 10 11  2  0  0  0  0
 10 38  1  0  0  0  0
 11 12  1  0  0  0  0
 12 26  2  0  0  0  0
 12 13  1  0  0  0  0
 13 14  1  0  0  0  0
 13 23  2  0  0  0  0
 14 18  1  0  0  0  0
 14 15  1  0  0  0  0
 15 22  1  0  0  0  0
 15 16  1  0  0  0  0
 15 39  1  0  0  0  0
 16 17  1  0  0  0  0
 16 40  1  0  0  0  0
 16 41  1  0  0  0  0
 17 18  1  0  0  0  0
 17 42  1  0  0  0  0
 17 43  1  0  0  0  0
 18 19  1  0  0  0  0
 18 44  1  0  0  0  0
 19 20  1  0  0  0  0
 19 22  1  0  0  0  0
 19 45  1  0  0  0  0
 20 21  1  0  0  0  0
 20 46  1  0  0  0  0
 20 47  1  0  0  0  0
 21 48  1  0  0  0  0
 22 49  1  0  0  0  0
 22 50  1  0  0  0  0
 23 24  1  0  0  0  0
 24 25  2  0  0  0  0
 24 51  1  0  0  0  0
 25 26  1  0  0  0  0
M  END
> <s_m_source_file>
AV-unprocessed.smi

> <i_m_source_file_index>
199

> <i_lp_mmshare_version>
43012

> <i_f3d_flags>
0

> <s_epik_input>
W0NIMl0xW0NIMl1PW0NAQEhdKFtDSDNdKVtDQEBdMShbT0hdKVtDSDJdbihbY0hdbjIpYyhjMjMpbltjSF1uYzNOKFtDQEBIXTQ1KVtDQEhdKFtDSDJdW0NIMl00KVtDQEhdKFtDSDJdNSlbQ0gyXVtPSF0=

> <s_epik_cmdline>
J2VwaWtfcHl0aG9uJywgJy1waCcsICc3LjAnLCAnLXRuJywgJzgnLCAnLW1hJywgJzIwMCcsICctbWV0YWxfYmluZGluZycsICctaW1hZScsICc8aW5maWxlLm1hZT4nLCAnLW9tYWUnLCAnPG91dGZpbGUubWFlPic=

> <r_lp_tautomer_probability>
1

> <r_epik_Ionization_Penalty>
0.00583903

> <r_epik_Ionization_Penalty_Charging>
0

> <r_epik_Ionization_Penalty_Neutral>
0.00583903

> <r_epik_State_Penalty>
-0

> <r_epik_Charging_Adjusted_Penalty>
0

> <i_epik_Tot_Q>
0

> <i_epik_Tot_abs_Q>
0

> <r_epik_Metal_State_Penalty>
-0

> <b_epik_Metal_Only>
0

> <s_lp_Force_Field>
OPLS_2005

> <r_lp_Energy>
84.8674

> <b_lp_Chiralities_Consistent>
1

> <s_lp_Variant>
AV-unprocessed.smi:199-15

> <Gold.Version>
5.8.1

> <Gold.Id.Protein>
6NUR|6NUR_protein|mol2

> <Gold.PLP.Fitness>
41.3081

> <Gold.PLP.PLP>
-35.8090

> <Gold.PLP.part.hbond>
-4.5308

> <Gold.PLP.part.metal>
0.0000

> <Gold.PLP.part.buried>
-2.8699

> <Gold.PLP.part.nonpolar>
-27.1781

> <Gold.PLP.part.repulsive>
0.0172

> <Gold.PLP.ligand.clash>
0.0000

> <Gold.PLP.ligand.torsion>
1.0012

> <Gold.PLP.Chemscore.Hbond>
2.4778

> <Gold.PLP.Chemscore.CHOScore>
0.0000

> <Gold.PLP.Chemscore.Metal>
0.0000

> <Gold.Chemscore.Hbonds>
donor molecule, donor type, donor heavy atom, donor atom, acceptor molecule, acceptor atom, score
      L1  H    21    48       P1  7957  0.24
      P1  H  6934  6947       L1     3  1.00
      P1  H  7989  7998       L1    21  0.14
      P1  H  8011  8017       L1    21  1.00

> <Gold.PLP.Chemscore.Internal.Correction>
0.0682

> <Gold.Rescore>
     Score         DG    S(hbond)    S(metal)    S(lipo)     H(rot)  DE(clash)    DE(int)     intcor
     10.42     -13.40       1.83        0.00      82.76       3.07       0.45       2.53       ----

> <Gold.Chemscore.Fitness>
10.4242

> <Gold.Chemscore.DG>
-13.3976

> <Gold.Chemscore.ZeroCoef>
-5.4800

> <Gold.Chemscore.Hbond>
1.8267

> <Gold.Chemscore.Metal>
0.0000

> <Gold.Chemscore.Lipo>
82.7622

> <Gold.Chemscore.Internal_Hbond>
0.0000

> <Gold.Chemscore.DEClash>
0.4474

> <Gold.Chemscore.DEInternal>
2.5260

> <Gold.Chemscore.Rot>
3.0729

> <Gold.Chemscore.Internal.Correction>
   9.000000E+99

> <Gold.Chemscore.Hbonds>
donor molecule, donor type, donor heavy atom, donor atom, acceptor molecule, acceptor atom, score
      L1  H    21    48       P1  7957  0.24
      P1  H  6934  6947       L1     3  0.38
      P1  H  7989  7998       L1    21  0.10
      P1  H  8011  8017       L1    21  0.68

> <Gold.Chemscore.Hbond.Weighted>
-6.1011

> <Gold.Chemscore.Metal.Weighted>
-0.0000

> <Gold.Chemscore.Lipo.Weighted>
-9.6832

> <Gold.Chemscore.Internal_Hbond.Weighted>
0.0000

> <Gold.Chemscore.DEClash.Weighted>
0.4474

> <Gold.Chemscore.DEInternal.Weighted>
2.5260

> <Gold.Chemscore.Rot.Weighted>
7.8667

> <Gold.Chemscore.Internal.Correction.Weighted>
   9.000000E+99

> <Gold.Protein.RotatedTorsions>
[ 6907 6896 6895 6894 ] final  -54.50 input  -60.11 | X-H torsion
[ 7974 7965 7964 7962 ] final -140.49 input  175.53 | X-H torsion
[ 8008 7997 7996 7995 ] final   29.75 input   59.86 | X-H torsion
[ 10167 10162 10161 10158 ] final -118.29 input  -65.29 | X-H torsion
[ 10718 10713 10712 10709 ] final   -0.14 input   66.30 | X-H torsion
[ 10763 10752 10751 10750 ] final   51.28 input  -60.55 | X-H torsion
[ 11005 11000 10999 10996 ] final   45.52 input  -57.11 | X-H torsion

> <Gold.Protein.ActiveResidues>
 VAL166  LYS551  ARG553  GLY616  TRP617  ASP618  TYR619  PRO620  LYS621  CYS622 
 ASP623  PHE694  ASN695  SER759  ASP760  ASP761  ALA762  ILE779  LEU786  VAL792 
 PHE793  MET794  SER795  GLU796  ALA797  LYS798  CYS799  TRP800  GLU811  SER814 

> <Gold.Protein.RotatedAtoms>
  150.8333  134.7595  159.6871 H   0  0  0  0  0  0  0  0  0  0  0  0  # atno 6907 bound_to 6896
  152.4434  134.5542  159.9885 H   0  0  0  0  0  0  0  0  0  0  0  0  # atno 6908 bound_to 6896
  151.5698  133.3354  159.3023 H   0  0  0  0  0  0  0  0  0  0  0  0  # atno 6909 bound_to 6896
  144.8593  140.6194  143.5339 H   0  0  0  0  0  0  0  0  0  0  0  0  # atno 7974 bound_to 7965
  155.0795  140.3209  155.4606 H   0  0  0  0  0  0  0  0  0  0  0  0  # atno 8008 bound_to 7997
  156.2770  140.2097  156.5868 H   0  0  0  0  0  0  0  0  0  0  0  0  # atno 8009 bound_to 7997
  154.6990  140.0509  157.0426 H   0  0  0  0  0  0  0  0  0  0  0  0  # atno 8010 bound_to 7997
  140.0591  143.4985  152.2041 H   0  0  0  0  0  0  0  0  0  0  0  0  # atno 10167 bound_to 10162
  156.8249  130.5469  149.5693 H   0  0  0  0  0  0  0  0  0  0  0  0  # atno 10718 bound_to 10713
  152.9785  135.5851  154.4390 H   0  0  0  0  0  0  0  0  0  0  0  0  # atno 10763 bound_to 10752
  154.3994  135.2768  155.2108 H   0  0  0  0  0  0  0  0  0  0  0  0  # atno 10764 bound_to 10752
  154.3946  135.6117  153.5916 H   0  0  0  0  0  0  0  0  0  0  0  0  # atno 10765 bound_to 10752
  140.1452  134.4532  155.8421 H   0  0  0  0  0  0  0  0  0  0  0  0  # atno 11005 bound_to 11000
  145.4344  139.1544  143.4005 LP  0  0  0  0  0  0  0  0  0  0  0  0  # atno 17320 bound_to 7965
  146.2848  140.4462  142.8762 LP  0  0  0  0  0  0  0  0  0  0  0  0  # atno 17321 bound_to 7965
  139.5905  144.7548  151.3413 LP  0  0  0  0  0  0  0  0  0  0  0  0  # atno 17342 bound_to 10162
  140.7180  143.7213  150.7694 LP  0  0  0  0  0  0  0  0  0  0  0  0  # atno 17343 bound_to 10162
  156.0967  130.5938  150.9826 LP  0  0  0  0  0  0  0  0  0  0  0  0  # atno 17370 bound_to 10713
  157.6437  131.0907  150.8197 LP  0  0  0  0  0  0  0  0  0  0  0  0  # atno 17371 bound_to 10713
  141.2191  133.6849  156.7320 LP  0  0  0  0  0  0  0  0  0  0  0  0  # atno 17394 bound_to 11000
  140.2673  134.8420  157.3814 LP  0  0  0  0  0  0  0  0  0  0  0  0  # atno 17395 bound_to 11000

$$$$
