AV-unprocessed.smi:3167|AV-procd|sdf|12098|dock8
  -GOLD-   2272017533D 1   1.00000     0.00000
 Structure written by MMmdl.
 37 38  0  0  0  0  0  0  0  0  2 V2000
  142.3093  135.9241  153.1631 C   0  0  0  0  0  0  0  0  0  0  0  0
  143.4477  136.1845  152.1505 C   0  0  1  0  0  0  0  0  0  0  0  0
  144.7699  136.5137  152.8847 C   0  0  0  0  0  0  0  0  0  0  0  0
  144.9481  137.9486  153.0743 N   0  0  0  0  0  0  0  0  0  0  0  0
  146.1206  138.5313  153.3566 C   0  0  0  0  0  0  0  0  0  0  0  0
  147.1742  137.9068  153.4811 O   0  0  0  0  0  0  0  0  0  0  0  0
  145.9891  139.8621  153.4823 N   0  0  0  0  0  0  0  0  0  0  0  0
  147.0080  140.8036  153.7754 C   0  0  0  0  0  0  0  0  0  0  0  0
  148.3870  140.6213  153.4825 C   0  0  0  0  0  0  0  0  0  0  0  0
  149.1060  141.6652  153.8694 N   0  0  0  0  0  0  0  0  0  0  0  0
  148.1994  142.5118  154.4075 N   0  0  0  0  0  0  0  0  0  0  0  0
  146.9098  142.0291  154.3722 C   0  0  0  0  0  0  0  0  0  0  0  0
  143.6305  135.0232  151.2317 N   0  3  0  0  0  0  0  0  0  0  0  0
  144.8352  135.0647  150.3735 C   0  0  0  0  0  0  0  0  0  0  0  0
  145.0613  133.6223  149.9368 C   0  0  0  0  0  0  0  0  0  0  0  0
  144.6738  132.8248  151.1760 C   0  0  0  0  0  0  0  0  0  0  0  0
  143.6234  133.6896  151.8867 C   0  0  0  0  0  0  0  0  0  0  0  0
  148.4734  143.4051  154.7912 H   0  0  0  0  0  0  0  0  0  0  0  0
  142.1731  136.7642  153.8439 H   0  0  0  0  0  0  0  0  0  0  0  0
  142.5139  135.0408  153.7688 H   0  0  0  0  0  0  0  0  0  0  0  0
  141.3485  135.7765  152.6705 H   0  0  0  0  0  0  0  0  0  0  0  0
  143.1655  137.0465  151.5434 H   0  0  0  0  0  0  0  0  0  0  0  0
  144.7880  136.0187  153.8572 H   0  0  0  0  0  0  0  0  0  0  0  0
  145.6317  136.1444  152.3278 H   0  0  0  0  0  0  0  0  0  0  0  0
  144.1290  138.5328  152.9888 H   0  0  0  0  0  0  0  0  0  0  0  0
  145.0631  140.2436  153.3562 H   0  0  0  0  0  0  0  0  0  0  0  0
  148.8800  139.7837  153.0117 H   0  0  0  0  0  0  0  0  0  0  0  0
  146.0728  142.5876  154.7637 H   0  0  0  0  0  0  0  0  0  0  0  0
  144.7078  135.7324  149.5209 H   0  0  0  0  0  0  0  0  0  0  0  0
  145.6912  135.4107  150.9554 H   0  0  0  0  0  0  0  0  0  0  0  0
  144.3925  133.3748  149.1112 H   0  0  0  0  0  0  0  0  0  0  0  0
  146.0846  133.4318  149.6116 H   0  0  0  0  0  0  0  0  0  0  0  0
  144.3026  131.8292  150.9311 H   0  0  0  0  0  0  0  0  0  0  0  0
  145.5453  132.7032  151.8206 H   0  0  0  0  0  0  0  0  0  0  0  0
  143.8654  133.7580  152.9482 H   0  0  0  0  0  0  0  0  0  0  0  0
  142.6274  133.2542  151.8000 H   0  0  0  0  0  0  0  0  0  0  0  0
  142.8448  135.0233  150.5968 H   0  0  0  0  0  0  0  0  0  0  0  0
  1  2  1  0  0  0  0
  1 19  1  0  0  0  0
  1 20  1  0  0  0  0
  1 21  1  0  0  0  0
  2  3  1  0  0  0  0
  2 13  1  0  0  0  0
  2 22  1  0  0  0  0
  3  4  1  0  0  0  0
  3 23  1  0  0  0  0
  3 24  1  0  0  0  0
  4  5  1  0  0  0  0
  4 25  1  0  0  0  0
  5  6  2  0  0  0  0
  5  7  1  0  0  0  0
  7  8  1  0  0  0  0
  7 26  1  0  0  0  0
  8 12  2  0  0  0  0
  8  9  1  0  0  0  0
  9 10  2  0  0  0  0
  9 27  1  0  0  0  0
 10 11  1  0  0  0  0
 11 18  1  0  0  0  0
 11 12  1  0  0  0  0
 12 28  1  0  0  0  0
 13 17  1  0  0  0  0
 13 14  1  0  0  0  0
 13 37  1  0  0  0  0
 14 15  1  0  0  0  0
 14 29  1  0  0  0  0
 14 30  1  0  0  0  0
 15 16  1  0  0  0  0
 15 31  1  0  0  0  0
 15 32  1  0  0  0  0
 16 17  1  0  0  0  0
 16 33  1  0  0  0  0
 16 34  1  0  0  0  0
 17 35  1  0  0  0  0
 17 36  1  0  0  0  0
M  CHG  1  13   1
M  END
> <s_m_source_file>
AV-unprocessed.smi

> <i_m_source_file_index>
3167

> <i_lp_mmshare_version>
43012

> <i_f3d_flags>
0

> <s_epik_input>
W0NIMl0xW0NIMl1bQ0gyXVtDSDJdTjFbQ0BIXShbQ0gzXSlbQ0gyXVtOSF1DKD1PKVtOSF1jMltjSF1uW25IXVtjSF0y

> <s_epik_cmdline>
J2VwaWtfcHl0aG9uJywgJy1waCcsICc3LjAnLCAnLXRuJywgJzgnLCAnLW1hJywgJzIwMCcsICctbWV0YWxfYmluZGluZycsICctaW1hZScsICc8aW5maWxlLm1hZT4nLCAnLW9tYWUnLCAnPG91dGZpbGUubWFlPic=

> <r_lp_tautomer_probability>
0.5

> <r_epik_Ionization_Penalty>
0.000801258

> <r_epik_Ionization_Penalty_Charging>
0.000761583

> <r_epik_Ionization_Penalty_Neutral>
3.96747e-05

> <r_epik_State_Penalty>
0.000487427

> <r_epik_Charging_Adjusted_Penalty>
0.00124901

> <i_epik_Tot_Q>
1

> <i_epik_Tot_abs_Q>
1

> <r_epik_Metal_State_Penalty>
-0

> <b_epik_Metal_Only>
0

> <s_lp_Force_Field>
OPLS_2005

> <r_lp_Energy>
33.9812

> <b_lp_Chiralities_Consistent>
1

> <s_lp_Variant>
AV-unprocessed.smi:3167-2

> <Gold.Version>
5.8.1

> <Gold.Id.Protein>
6NUR|6NUR_protein|mol2

> <Gold.PLP.Fitness>
39.3001

> <Gold.PLP.PLP>
-25.9775

> <Gold.PLP.part.hbond>
-5.3753

> <Gold.PLP.part.metal>
0.0000

> <Gold.PLP.part.buried>
-1.3211

> <Gold.PLP.part.nonpolar>
-20.5931

> <Gold.PLP.part.repulsive>
1.4343

> <Gold.PLP.ligand.clash>
0.0000

> <Gold.PLP.ligand.torsion>
0.9356

> <Gold.PLP.Chemscore.Hbond>
4.3760

> <Gold.PLP.Chemscore.CHOScore>
0.6790

> <Gold.PLP.Chemscore.Metal>
0.0000

> <Gold.Chemscore.Hbonds>
donor molecule, donor type, donor heavy atom, donor atom, acceptor molecule, acceptor atom, score
      L1  H     4    25       P1 10175  0.78
      L1  H     7    26       P1 10175  1.00
      L1  H    11    18       P1  8028  1.00
      L1  H    13    37       P1 10186  0.82
      P1  H  8011  8017       L1    10  0.64
      L1  C     9    27       P1  7957  0.71

> <Gold.PLP.Chemscore.Internal.Correction>
0.0288

> <Gold.Rescore>
     Score         DG    S(hbond)    S(metal)    S(lipo)     H(rot)  DE(clash)    DE(int)     intcor
     15.79     -17.49       2.91        0.00      55.33       1.63       0.02       1.67       ----

> <Gold.Chemscore.Fitness>
15.7945

> <Gold.Chemscore.DG>
-17.4896

> <Gold.Chemscore.ZeroCoef>
-5.4800

> <Gold.Chemscore.Hbond>
2.9078

> <Gold.Chemscore.Metal>
0.0000

> <Gold.Chemscore.Lipo>
55.3263

> <Gold.Chemscore.Internal_Hbond>
0.0000

> <Gold.Chemscore.DEClash>
0.0202

> <Gold.Chemscore.DEInternal>
1.6748

> <Gold.Chemscore.Rot>
1.6311

> <Gold.Chemscore.Internal.Correction>
   9.000000E+99

> <Gold.Chemscore.Hbonds>
donor molecule, donor type, donor heavy atom, donor atom, acceptor molecule, acceptor atom, score
      L1  H     4    25       P1 10175  0.72
      L1  H     7    26       P1 10175  0.97
      L1  H    11    18       P1  8028  0.98
      L1  H    13    37       P1 10186  0.04
      P1  H  8011  8017       L1    10  0.27

> <Gold.Chemscore.Hbond.Weighted>
-9.7121

> <Gold.Chemscore.Metal.Weighted>
-0.0000

> <Gold.Chemscore.Lipo.Weighted>
-6.4732

> <Gold.Chemscore.Internal_Hbond.Weighted>
0.0000

> <Gold.Chemscore.DEClash.Weighted>
0.0202

> <Gold.Chemscore.DEInternal.Weighted>
1.6748

> <Gold.Chemscore.Rot.Weighted>
4.1757

> <Gold.Chemscore.Internal.Correction.Weighted>
   9.000000E+99

> <Gold.Protein.RotatedTorsions>
[ 6907 6896 6895 6894 ] final -102.89 input  -60.11 | X-H torsion
[ 7974 7965 7964 7962 ] final   57.20 input  175.53 | X-H torsion
[ 8008 7997 7996 7995 ] final  178.19 input   59.86 | X-H torsion
[ 10167 10162 10161 10158 ] final -122.44 input  -65.29 | X-H torsion
[ 10718 10713 10712 10709 ] final  148.55 input   66.30 | X-H torsion
[ 10763 10752 10751 10750 ] final  135.01 input  -60.55 | X-H torsion
[ 11005 11000 10999 10996 ] final  -89.12 input  -57.11 | X-H torsion

> <Gold.Protein.ActiveResidues>
 VAL166  LYS551  ARG553  GLY616  TRP617  ASP618  TYR619  PRO620  LYS621  CYS622 
 ASP623  PHE694  ASN695  SER759  ASP760  ASP761  ALA762  ILE779  LEU786  VAL792 
 PHE793  MET794  SER795  GLU796  ALA797  LYS798  CYS799  TRP800  GLU811  SER814 

> <Gold.Protein.RotatedAtoms>
  150.7216  134.0512  159.3798 H   0  0  0  0  0  0  0  0  0  0  0  0  # atno 6907 bound_to 6896
  151.8489  135.0562  160.0466 H   0  0  0  0  0  0  0  0  0  0  0  0  # atno 6908 bound_to 6896
  152.2805  133.5430  159.5531 H   0  0  0  0  0  0  0  0  0  0  0  0  # atno 6909 bound_to 6896
  145.9316  139.3812  143.0418 H   0  0  0  0  0  0  0  0  0  0  0  0  # atno 7974 bound_to 7965
  156.0574  140.1339  156.9981 H   0  0  0  0  0  0  0  0  0  0  0  0  # atno 8008 bound_to 7997
  154.4464  140.0998  156.6536 H   0  0  0  0  0  0  0  0  0  0  0  0  # atno 8009 bound_to 7997
  155.5431  140.3461  155.4453 H   0  0  0  0  0  0  0  0  0  0  0  0  # atno 8010 bound_to 7997
  140.0143  143.5410  152.2249 H   0  0  0  0  0  0  0  0  0  0  0  0  # atno 10167 bound_to 10162
  157.3072  131.0881  151.1344 H   0  0  0  0  0  0  0  0  0  0  0  0  # atno 10718 bound_to 10713
  153.8329  135.3101  155.3420 H   0  0  0  0  0  0  0  0  0  0  0  0  # atno 10763 bound_to 10752
  154.7965  135.4752  154.0177 H   0  0  0  0  0  0  0  0  0  0  0  0  # atno 10764 bound_to 10752
  153.1623  135.6863  153.8816 H   0  0  0  0  0  0  0  0  0  0  0  0  # atno 10765 bound_to 10752
  141.1590  133.7611  156.9550 H   0  0  0  0  0  0  0  0  0  0  0  0  # atno 11005 bound_to 11000
  145.8419  140.9576  143.0795 LP  0  0  0  0  0  0  0  0  0  0  0  0  # atno 17320 bound_to 7965
  144.6765  140.0295  143.7483 LP  0  0  0  0  0  0  0  0  0  0  0  0  # atno 17321 bound_to 7965
  139.6184  144.7624  151.2796 LP  0  0  0  0  0  0  0  0  0  0  0  0  # atno 17342 bound_to 10162
  140.7369  143.6694  150.8094 LP  0  0  0  0  0  0  0  0  0  0  0  0  # atno 17343 bound_to 10162
  157.2680  130.6691  149.6006 LP  0  0  0  0  0  0  0  0  0  0  0  0  # atno 17370 bound_to 10713
  155.9675  130.4488  150.5632 LP  0  0  0  0  0  0  0  0  0  0  0  0  # atno 17371 bound_to 10713
  140.1232  134.9404  157.2232 LP  0  0  0  0  0  0  0  0  0  0  0  0  # atno 17394 bound_to 11000
  140.3046  134.3092  155.7281 LP  0  0  0  0  0  0  0  0  0  0  0  0  # atno 17395 bound_to 11000

$$$$
