#       Name:                AV-unprocessed.smi:2470
#       Creating user name   scv26
#       Creation time:       Fri Mar 27 13:37:42 2020


#       File generated by GOLD software.
#

@<TRIPOS>MOLECULE
AV-unprocessed.smi:2470
    39    40     1
SMALL
NO_CHARGES


@<TRIPOS>ATOM
      1 ****        -6.0938  -2.7631  -0.4756 C.3            1 S1                 0.0000
      2 ****        -4.6738  -2.7811  -0.3834 O.3            1 S1                 0.0000
      3 ****        -4.0181  -1.5822  -0.1957 C.ar           1 S1                 0.0000
      4 ****        -2.6105  -1.5700  -0.1183 C.ar           1 S1                 0.0000
      5 ****        -1.9778  -0.3211   0.0722 C.ar           1 S1                 0.0000
      6 ****        -0.5596  -0.3524   0.1375 N.am           1 S1                 0.0000
      7 ****         0.2847   0.6769   0.3259 C.2            1 S1                 0.0000
      8 ****        -0.0501   1.8479   0.5069 O.2            1 S1                 0.0000
      9 ****         1.5616   0.2667   0.2968 N.am           1 S1                 0.0000
     10 ****         2.7327   1.1229   0.4598 C.3            1 S1                 0.0000
     11 ****         3.0523   1.2846   1.9543 C.3            1 S1                 0.0000
     12 ****         3.9392   0.6035  -0.2988 C.3            1 S1                 0.0000
     13 ****         5.0701   1.5245  -0.6893 C.3            1 S1                 0.0000
     14 ****         4.1573   0.9531  -1.7512 C.3            1 S1                 0.0000
     15 ****        -2.7239   0.8066   0.1754 N.ar           1 S1                 0.0000
     16 ****        -4.0502   0.6887   0.0901 C.ar           1 S1                 0.0000
     17 ****        -4.7381  -0.4392  -0.0900 N.ar           1 S1                 0.0000
     18 ****        -6.4591  -3.7806  -0.6135 H              1 S1                 0.0000
     19 ****        -6.4297  -2.1721  -1.3288 H              1 S1                 0.0000
     20 ****        -6.5489  -2.3691   0.4343 H              1 S1                 0.0000
     21 ****        -2.0438  -2.4857  -0.2043 H              1 S1                 0.0000
     22 ****        -0.1390  -1.2618   0.0173 H              1 S1                 0.0000
     23 ****         1.7398  -0.7148   0.1429 H              1 S1                 0.0000
     24 ****         2.5011   2.1113   0.0574 H              1 S1                 0.0000
     25 ****         3.9108   1.9403   2.1031 H              1 S1                 0.0000
     26 ****         3.2836   0.3247   2.4171 H              1 S1                 0.0000
     27 ****         2.2118   1.7214   2.4945 H              1 S1                 0.0000
     28 ****         4.2371  -0.4014  -0.0043 H              1 S1                 0.0000
     29 ****         4.9675   2.5825  -0.4559 H              1 S1                 0.0000
     30 ****         6.0822   1.1294  -0.6295 H              1 S1                 0.0000
     31 ****         4.5612   0.1777  -2.3989 H              1 S1                 0.0000
     32 ****         3.4490   1.6319  -2.2224 H              1 S1                 0.0000
     33 ****        -4.6251   1.5990   0.1750 H              1 S1                 0.0000
     34 ****        -4.3265  -3.1794  -1.2324 LP             1 S1                 0.0000
     35 ****        -4.4340  -3.3738   0.3854 LP             1 S1                 0.0000
     36 ****        -1.0192   2.0943   0.5218 LP             1 S1                 0.0000
     37 ****         0.6470   2.5526   0.6389 LP             1 S1                 0.0000
     38 ****        -2.2934   1.6989   0.3112 LP             1 S1                 0.0000
     39 ****        -5.7366  -0.4414  -0.1444 LP             1 S1                 0.0000
@<TRIPOS>BOND
    1    1    2 1     
    2    1   18 1     
    3    1   19 1     
    4    1   20 1     
    5    2    3 1     
    6    3   17 ar    
    7    3    4 ar    
    8    4    5 ar    
    9    4   21 1     
   10    5    6 1     
   11    5   15 ar    
   12    6    7 am    
   13    6   22 1     
   14    7    8 2     
   15    7    9 am    
   16    9   10 1     
   17    9   23 1     
   18   10   11 1     
   19   10   12 1     
   20   10   24 1     
   21   11   25 1     
   22   11   26 1     
   23   11   27 1     
   24   12   14 1     
   25   12   13 1     
   26   12   28 1     
   27   13   14 1     
   28   13   29 1     
   29   13   30 1     
   30   14   31 1     
   31   14   32 1     
   32   15   16 ar    
   33   16   17 ar    
   34   16   33 1     
   35    2   34 1     
   36    2   35 1     
   37    8   36 1     
   38    8   37 1     
   39   15   38 1     
   40   17   39 1     
@<TRIPOS>SUBSTRUCTURE
      1 S1             1
@<TRIPOS>SET
LONE_PAIRS      STATIC     ATOMS    <user>   **** ""
6 34 35 36 37 38 39
DONOR_HYDROGENS      STATIC     ATOMS    <user>   **** ""
2 22 23
ATOM$BLUE        STATIC     ATOMS    COLORGROUP SYSTEM
6 34 35 36 37 38 39
ATOM$RED        STATIC     ATOMS    COLORGROUP SYSTEM
2 22 23
