AV-unprocessed.smi:2930|AV-procd|sdf|11240|dock7
  -GOLD-   2272016133D 1   1.00000     0.00000
 Structure written by MMmdl.
 40 41  0  0  0  0  0  0  0  0  1 V2000
  144.0918  136.6523  152.6735 C   0  0  0  0  0  0  0  0  0  0  0  0
  145.2043  135.5966  152.7344 C   0  0  2  0  0  0  0  0  0  0  0  0
  146.4867  136.2631  152.9472 N   0  0  0  0  0  0  0  0  0  0  0  0
  146.7561  137.1514  153.9147 C   0  0  0  0  0  0  0  0  0  0  0  0
  145.9307  137.5232  154.7485 O   0  0  0  0  0  0  0  0  0  0  0  0
  148.0269  137.5807  153.8362 N   0  0  0  0  0  0  0  0  0  0  0  0
  148.7050  138.4938  154.6874 C   0  0  0  0  0  0  0  0  0  0  0  0
  148.4767  138.6413  156.0765 C   0  0  0  0  0  0  0  0  0  0  0  0
  149.1795  139.5220  156.8201 N   0  0  0  0  0  0  0  0  0  0  0  0
  150.1119  140.2585  156.2017 C   0  0  0  0  0  0  0  0  0  0  0  0
  150.8335  141.1689  156.9793 N   0  0  0  0  0  0  0  0  0  0  0  0
  151.0206  142.5509  156.5472 C   0  0  0  0  0  0  0  0  0  0  0  0
  151.4378  140.7680  158.2465 C   0  0  0  0  0  0  0  0  0  0  0  0
  150.4107  140.1880  154.8978 N   0  0  0  0  0  0  0  0  0  0  0  0
  149.7165  139.3102  154.1436 C   0  0  0  0  0  0  0  0  0  0  0  0
  145.2583  134.7454  151.4642 C   0  0  0  0  0  0  0  0  0  0  0  0
  144.1086  133.7792  151.1386 C   0  0  0  0  0  0  0  0  0  0  0  0
  145.1412  132.8283  150.5270 C   0  0  0  0  0  0  0  0  0  0  0  0
  146.1979  133.5316  151.3826 C   0  0  0  0  0  0  0  0  0  0  0  0
  143.1136  136.1864  152.5511 H   0  0  0  0  0  0  0  0  0  0  0  0
  144.2396  137.3382  151.8386 H   0  0  0  0  0  0  0  0  0  0  0  0
  144.0606  137.2429  153.5897 H   0  0  0  0  0  0  0  0  0  0  0  0
  144.9879  134.9526  153.5888 H   0  0  0  0  0  0  0  0  0  0  0  0
  147.2293  136.0236  152.3071 H   0  0  0  0  0  0  0  0  0  0  0  0
  148.5632  137.2397  153.0519 H   0  0  0  0  0  0  0  0  0  0  0  0
  147.7527  138.0526  156.6174 H   0  0  0  0  0  0  0  0  0  0  0  0
  150.0566  143.0480  156.4352 H   0  0  0  0  0  0  0  0  0  0  0  0
  151.5379  142.5823  155.5878 H   0  0  0  0  0  0  0  0  0  0  0  0
  151.6101  143.1259  157.2612 H   0  0  0  0  0  0  0  0  0  0  0  0
  152.1688  139.9755  158.0834 H   0  0  0  0  0  0  0  0  0  0  0  0
  150.6751  140.3969  158.9318 H   0  0  0  0  0  0  0  0  0  0  0  0
  151.9487  141.5971  158.7361 H   0  0  0  0  0  0  0  0  0  0  0  0
  149.9714  139.2626  153.0949 H   0  0  0  0  0  0  0  0  0  0  0  0
  145.4324  135.3744  150.5883 H   0  0  0  0  0  0  0  0  0  0  0  0
  143.6349  133.3675  152.0315 H   0  0  0  0  0  0  0  0  0  0  0  0
  143.3712  134.1676  150.4355 H   0  0  0  0  0  0  0  0  0  0  0  0
  144.9901  131.7748  150.7633 H   0  0  0  0  0  0  0  0  0  0  0  0
  145.2858  132.9899  149.4577 H   0  0  0  0  0  0  0  0  0  0  0  0
  147.1451  133.7224  150.8773 H   0  0  0  0  0  0  0  0  0  0  0  0
  146.3482  133.0447  152.3476 H   0  0  0  0  0  0  0  0  0  0  0  0
  1  2  1  0  0  0  0
  1 20  1  0  0  0  0
  1 21  1  0  0  0  0
  1 22  1  0  0  0  0
  2  3  1  0  0  0  0
  2 16  1  0  0  0  0
  2 23  1  0  0  0  0
  3  4  1  0  0  0  0
  3 24  1  0  0  0  0
  4  5  2  0  0  0  0
  4  6  1  0  0  0  0
  6  7  1  0  0  0  0
  6 25  1  0  0  0  0
  7 15  1  0  0  0  0
  7  8  2  0  0  0  0
  8  9  1  0  0  0  0
  8 26  1  0  0  0  0
  9 10  2  0  0  0  0
 10 11  1  0  0  0  0
 10 14  1  0  0  0  0
 11 12  1  0  0  0  0
 11 13  1  0  0  0  0
 12 27  1  0  0  0  0
 12 28  1  0  0  0  0
 12 29  1  0  0  0  0
 13 30  1  0  0  0  0
 13 31  1  0  0  0  0
 13 32  1  0  0  0  0
 14 15  2  0  0  0  0
 15 33  1  0  0  0  0
 16 19  1  0  0  0  0
 16 17  1  0  0  0  0
 16 34  1  0  0  0  0
 17 18  1  0  0  0  0
 17 35  1  0  0  0  0
 17 36  1  0  0  0  0
 18 19  1  0  0  0  0
 18 37  1  0  0  0  0
 18 38  1  0  0  0  0
 19 39  1  0  0  0  0
 19 40  1  0  0  0  0
M  END
> <s_m_source_file>
AV-unprocessed.smi

> <i_m_source_file_index>
2930

> <i_lp_mmshare_version>
43012

> <i_f3d_flags>
0

> <s_epik_input>
W0NIMl0xW0NIMl1bQ0gyXVtDSF0xW0NASF0oW0NIM10pW05IXUMoPU8pW05IXWMyW2NIXW5jKE4oW0NIM10pW0NIM10pbltjSF0y

> <s_epik_cmdline>
J2VwaWtfcHl0aG9uJywgJy1waCcsICc3LjAnLCAnLXRuJywgJzgnLCAnLW1hJywgJzIwMCcsICctbWV0YWxfYmluZGluZycsICctaW1hZScsICc8aW5maWxlLm1hZT4nLCAnLW9tYWUnLCAnPG91dGZpbGUubWFlPic=

> <r_lp_tautomer_probability>
1

> <r_epik_Ionization_Penalty>
0.000323856

> <r_epik_Ionization_Penalty_Charging>
0

> <r_epik_Ionization_Penalty_Neutral>
0.000323856

> <r_epik_State_Penalty>
-0

> <r_epik_Charging_Adjusted_Penalty>
0

> <i_epik_Tot_Q>
0

> <i_epik_Tot_abs_Q>
0

> <r_epik_Metal_State_Penalty>
-0

> <b_epik_Metal_Only>
0

> <s_lp_Force_Field>
OPLS_2005

> <r_lp_Energy>
8.18879

> <b_lp_Chiralities_Consistent>
1

> <s_lp_Variant>
AV-unprocessed.smi:2930-1

> <Gold.Version>
5.8.1

> <Gold.Id.Protein>
6NUR|6NUR_protein|mol2

> <Gold.PLP.Fitness>
35.2573

> <Gold.PLP.PLP>
-25.8582

> <Gold.PLP.part.hbond>
-3.0000

> <Gold.PLP.part.metal>
0.0000

> <Gold.PLP.part.buried>
-2.9709

> <Gold.PLP.part.nonpolar>
-20.2380

> <Gold.PLP.part.repulsive>
0.1542

> <Gold.PLP.ligand.clash>
0.0000

> <Gold.PLP.ligand.torsion>
1.1479

> <Gold.PLP.Chemscore.Hbond>
2.8600

> <Gold.PLP.Chemscore.CHOScore>
1.0000

> <Gold.PLP.Chemscore.Metal>
0.0000

> <Gold.Chemscore.Hbonds>
donor molecule, donor type, donor heavy atom, donor atom, acceptor molecule, acceptor atom, score
      L1  H     3    24       P1  7948  0.96
      L1  H     6    25       P1  7948  1.00
      P1  H  7989  7998       L1    14  0.90
      L1  C    15    33       P1  7957  1.00

> <Gold.PLP.Chemscore.Internal.Correction>
0.1148

> <Gold.Rescore>
     Score         DG    S(hbond)    S(metal)    S(lipo)     H(rot)  DE(clash)    DE(int)     intcor
     13.66     -15.91       1.98        0.00      58.90       1.19       0.20       2.04       ----

> <Gold.Chemscore.Fitness>
13.6622

> <Gold.Chemscore.DG>
-15.9098

> <Gold.Chemscore.ZeroCoef>
-5.4800

> <Gold.Chemscore.Hbond>
1.9751

> <Gold.Chemscore.Metal>
0.0000

> <Gold.Chemscore.Lipo>
58.9039

> <Gold.Chemscore.Internal_Hbond>
0.0000

> <Gold.Chemscore.DEClash>
0.2048

> <Gold.Chemscore.DEInternal>
2.0427

> <Gold.Chemscore.Rot>
1.1949

> <Gold.Chemscore.Internal.Correction>
   9.000000E+99

> <Gold.Chemscore.Hbonds>
donor molecule, donor type, donor heavy atom, donor atom, acceptor molecule, acceptor atom, score
      L1  H     3    24       P1  7948  0.92
      L1  H     6    25       P1  7948  0.98
      P1  H  7989  7998       L1    14  0.17

> <Gold.Chemscore.Hbond.Weighted>
-6.5970

> <Gold.Chemscore.Metal.Weighted>
-0.0000

> <Gold.Chemscore.Lipo.Weighted>
-6.8918

> <Gold.Chemscore.Internal_Hbond.Weighted>
0.0000

> <Gold.Chemscore.DEClash.Weighted>
0.2048

> <Gold.Chemscore.DEInternal.Weighted>
2.0427

> <Gold.Chemscore.Rot.Weighted>
3.0590

> <Gold.Chemscore.Internal.Correction.Weighted>
   9.000000E+99

> <Gold.Protein.RotatedTorsions>
[ 6907 6896 6895 6894 ] final -137.61 input  -60.11 | X-H torsion
[ 7974 7965 7964 7962 ] final  176.69 input  175.53 | X-H torsion
[ 8008 7997 7996 7995 ] final    9.66 input   59.86 | X-H torsion
[ 10167 10162 10161 10158 ] final  -17.98 input  -65.29 | X-H torsion
[ 10718 10713 10712 10709 ] final   26.17 input   66.30 | X-H torsion
[ 10763 10752 10751 10750 ] final -159.92 input  -60.55 | X-H torsion
[ 11005 11000 10999 10996 ] final  -28.70 input  -57.11 | X-H torsion

> <Gold.Protein.ActiveResidues>
 VAL166  LYS551  ARG553  GLY616  TRP617  ASP618  TYR619  PRO620  LYS621  CYS622 
 ASP623  PHE694  ASN695  SER759  ASP760  ASP761  ALA762  ILE779  LEU786  VAL792 
 PHE793  MET794  SER795  GLU796  ALA797  LYS798  CYS799  TRP800  GLU811  SER814 

> <Gold.Protein.RotatedAtoms>
  151.0246  133.5845  159.2667 H   0  0  0  0  0  0  0  0  0  0  0  0  # atno 6907 bound_to 6896
  151.2949  135.0751  159.9227 H   0  0  0  0  0  0  0  0  0  0  0  0  # atno 6908 bound_to 6896
  152.5331  133.9938  159.7917 H   0  0  0  0  0  0  0  0  0  0  0  0  # atno 6909 bound_to 6896
  144.7180  140.0134  143.6440 H   0  0  0  0  0  0  0  0  0  0  0  0  # atno 7974 bound_to 7965
  154.7830  140.2822  155.6049 H   0  0  0  0  0  0  0  0  0  0  0  0  # atno 8008 bound_to 7997
  156.2953  140.2619  156.2588 H   0  0  0  0  0  0  0  0  0  0  0  0  # atno 8009 bound_to 7997
  154.9762  140.0375  157.2246 H   0  0  0  0  0  0  0  0  0  0  0  0  # atno 8010 bound_to 7997
  140.7253  143.4962  150.9928 H   0  0  0  0  0  0  0  0  0  0  0  0  # atno 10167 bound_to 10162
  157.2032  130.6899  149.6197 H   0  0  0  0  0  0  0  0  0  0  0  0  # atno 10718 bound_to 10713
  154.7434  135.3074  154.8688 H   0  0  0  0  0  0  0  0  0  0  0  0  # atno 10763 bound_to 10752
  153.9496  135.6765  153.4748 H   0  0  0  0  0  0  0  0  0  0  0  0  # atno 10764 bound_to 10752
  153.1032  135.4902  154.8829 H   0  0  0  0  0  0  0  0  0  0  0  0  # atno 10765 bound_to 10752
  140.9231  133.7386  156.0829 H   0  0  0  0  0  0  0  0  0  0  0  0  # atno 11005 bound_to 11000
  146.0240  139.3275  143.0796 LP  0  0  0  0  0  0  0  0  0  0  0  0  # atno 17320 bound_to 7965
  145.8534  140.9516  143.0738 LP  0  0  0  0  0  0  0  0  0  0  0  0  # atno 17321 bound_to 7965
  139.8669  143.7242  152.3169 LP  0  0  0  0  0  0  0  0  0  0  0  0  # atno 17342 bound_to 10162
  139.7477  144.7542  151.0554 LP  0  0  0  0  0  0  0  0  0  0  0  0  # atno 17343 bound_to 10162
  155.9698  130.4576  150.5967 LP  0  0  0  0  0  0  0  0  0  0  0  0  # atno 17370 bound_to 10713
  157.3746  131.0771  151.1528 LP  0  0  0  0  0  0  0  0  0  0  0  0  # atno 17371 bound_to 10713
  140.7961  134.3562  157.5452 LP  0  0  0  0  0  0  0  0  0  0  0  0  # atno 17394 bound_to 11000
  139.8779  134.9170  156.3167 LP  0  0  0  0  0  0  0  0  0  0  0  0  # atno 17395 bound_to 11000

$$$$
