AV-unprocessed.smi:1247|AV-procd|sdf|5248|dock5
  -GOLD-   22720 4353D 1   1.00000     0.00000
 Structure written by MMmdl.
 47 48  0  0  0  0  0  0  0  0  2 V2000
  151.4663  141.7596  158.0773 C   0  0  0  0  0  0  0  0  0  0  0  0
  151.2309  140.8398  156.9156 C   0  0  0  0  0  0  0  0  0  0  0  0
  150.0256  140.6464  156.1803 C   0  0  0  0  0  0  0  0  0  0  0  0
  150.3864  139.7091  155.2511 C   0  0  0  0  0  0  0  0  0  0  0  0
  149.6310  139.1382  154.2750 N   0  0  0  0  0  0  0  0  0  0  0  0
  148.3880  139.4633  153.8782 C   0  0  0  0  0  0  0  0  0  0  0  0
  147.6981  140.3655  154.3536 O   0  0  0  0  0  0  0  0  0  0  0  0
  147.9717  138.6716  152.8791 N   0  0  0  0  0  0  0  0  0  0  0  0
  146.6765  138.7846  152.2184 C   0  0  0  0  0  0  0  0  0  0  0  0
  146.5238  137.7494  151.0874 C   0  0  0  0  0  0  0  0  0  0  0  0
  145.4015  136.8104  151.3341 N   0  3  1  0  0  0  0  0  0  0  0  0
  145.5447  135.5427  150.5817 C   0  0  0  0  0  0  0  0  0  0  0  0
  144.3080  134.6505  150.7908 C   0  0  1  0  0  0  0  0  0  0  0  0
  144.4548  133.2919  150.0969 C   0  0  0  0  0  0  0  0  0  0  0  0
  144.1250  134.4130  152.1841 O   0  0  0  0  0  0  0  0  0  0  0  0
  143.9731  135.5892  152.9785 C   0  0  2  0  0  0  0  0  0  0  0  0
  142.6131  136.2739  152.7540 C   0  0  0  0  0  0  0  0  0  0  0  0
  145.1770  136.5298  152.7740 C   0  0  0  0  0  0  0  0  0  0  0  0
  151.7128  139.3865  155.4368 N   0  0  0  0  0  0  0  0  0  0  0  0
  152.5458  138.4492  154.7086 C   0  0  0  0  0  0  0  0  0  0  0  0
  152.2299  140.0863  156.4698 N   0  0  0  0  0  0  0  0  0  0  0  0
  150.5670  142.3268  158.3190 H   0  0  0  0  0  0  0  0  0  0  0  0
  152.2596  142.4745  157.8581 H   0  0  0  0  0  0  0  0  0  0  0  0
  151.7551  141.2014  158.9680 H   0  0  0  0  0  0  0  0  0  0  0  0
  149.0699  141.1261  156.3279 H   0  0  0  0  0  0  0  0  0  0  0  0
  150.0696  138.3711  153.7870 H   0  0  0  0  0  0  0  0  0  0  0  0
  148.5971  137.9528  152.5445 H   0  0  0  0  0  0  0  0  0  0  0  0
  145.8867  138.6841  152.9634 H   0  0  0  0  0  0  0  0  0  0  0  0
  146.5902  139.7926  151.8118 H   0  0  0  0  0  0  0  0  0  0  0  0
  146.3431  138.2909  150.1576 H   0  0  0  0  0  0  0  0  0  0  0  0
  147.4458  137.1851  150.9388 H   0  0  0  0  0  0  0  0  0  0  0  0
  145.6636  135.7557  149.5185 H   0  0  0  0  0  0  0  0  0  0  0  0
  146.4485  135.0248  150.9080 H   0  0  0  0  0  0  0  0  0  0  0  0
  143.4259  135.1443  150.3822 H   0  0  0  0  0  0  0  0  0  0  0  0
  144.5871  133.4120  149.0214 H   0  0  0  0  0  0  0  0  0  0  0  0
  143.5691  132.6760  150.2550 H   0  0  0  0  0  0  0  0  0  0  0  0
  145.3146  132.7422  150.4813 H   0  0  0  0  0  0  0  0  0  0  0  0
  143.9874  135.2542  154.0161 H   0  0  0  0  0  0  0  0  0  0  0  0
  142.4638  137.0805  153.4723 H   0  0  0  0  0  0  0  0  0  0  0  0
  141.7955  135.5643  152.8829 H   0  0  0  0  0  0  0  0  0  0  0  0
  142.5262  136.7082  151.7584 H   0  0  0  0  0  0  0  0  0  0  0  0
  146.0736  136.0662  153.1889 H   0  0  0  0  0  0  0  0  0  0  0  0
  145.0181  137.4529  153.3306 H   0  0  0  0  0  0  0  0  0  0  0  0
  152.3986  138.5797  153.6361 H   0  0  0  0  0  0  0  0  0  0  0  0
  152.2757  137.4298  154.9855 H   0  0  0  0  0  0  0  0  0  0  0  0
  153.5992  138.6134  154.9400 H   0  0  0  0  0  0  0  0  0  0  0  0
  144.5666  137.2564  150.9817 H   0  0  0  0  0  0  0  0  0  0  0  0
  1  2  1  0  0  0  0
  1 22  1  0  0  0  0
  1 23  1  0  0  0  0
  1 24  1  0  0  0  0
  2 21  2  0  0  0  0
  2  3  1  0  0  0  0
  3  4  2  0  0  0  0
  3 25  1  0  0  0  0
  4  5  1  0  0  0  0
  4 19  1  0  0  0  0
  5  6  1  0  0  0  0
  5 26  1  0  0  0  0
  6  7  2  0  0  0  0
  6  8  1  0  0  0  0
  8  9  1  0  0  0  0
  8 27  1  0  0  0  0
  9 10  1  0  0  0  0
  9 28  1  0  0  0  0
  9 29  1  0  0  0  0
 10 11  1  0  0  0  0
 10 30  1  0  0  0  0
 10 31  1  0  0  0  0
 11 18  1  0  0  0  0
 11 12  1  0  0  0  0
 11 47  1  0  0  0  0
 12 13  1  0  0  0  0
 12 32  1  0  0  0  0
 12 33  1  0  0  0  0
 13 14  1  0  0  0  0
 13 15  1  0  0  0  0
 13 34  1  0  0  0  0
 14 35  1  0  0  0  0
 14 36  1  0  0  0  0
 14 37  1  0  0  0  0
 15 16  1  0  0  0  0
 16 17  1  0  0  0  0
 16 18  1  0  0  0  0
 16 38  1  0  0  0  0
 17 39  1  0  0  0  0
 17 40  1  0  0  0  0
 17 41  1  0  0  0  0
 18 42  1  0  0  0  0
 18 43  1  0  0  0  0
 19 20  1  0  0  0  0
 19 21  1  0  0  0  0
 20 44  1  0  0  0  0
 20 45  1  0  0  0  0
 20 46  1  0  0  0  0
M  CHG  1  11   1
M  END
> <s_m_source_file>
AV-unprocessed.smi

> <i_m_source_file_index>
1247

> <i_lp_mmshare_version>
43012

> <i_f3d_flags>
0

> <s_epik_input>
W0NIM11jMVtjSF1jKG4objEpW0NIM10pW05IXUMoPU8pW05IXVtDSDJdW0NIMl1OMltDSDJdW0NAQEhdKFtDSDNdKU9bQ0BASF0oW0NIM10pW0NIMl0y

> <s_epik_cmdline>
J2VwaWtfcHl0aG9uJywgJy1waCcsICc3LjAnLCAnLXRuJywgJzgnLCAnLW1hJywgJzIwMCcsICctbWV0YWxfYmluZGluZycsICctaW1hZScsICc8aW5maWxlLm1hZT4nLCAnLW9tYWUnLCAnPG91dGZpbGUubWFlPic=

> <r_lp_tautomer_probability>
1

> <r_epik_Ionization_Penalty>
0.663902

> <r_epik_Ionization_Penalty_Charging>
0.663826

> <r_epik_Ionization_Penalty_Neutral>
7.65444e-05

> <r_epik_State_Penalty>
0.683414

> <r_epik_Charging_Adjusted_Penalty>
1.34724

> <i_epik_Tot_Q>
1

> <i_epik_Tot_abs_Q>
1

> <r_epik_Metal_State_Penalty>
0.683419

> <b_epik_Metal_Only>
0

> <s_lp_Force_Field>
OPLS_2005

> <r_lp_Energy>
18.4757

> <b_lp_Chiralities_Consistent>
1

> <s_lp_Variant>
AV-unprocessed.smi:1247-6

> <Gold.Version>
5.8.1

> <Gold.Id.Protein>
6NUR|6NUR_protein|mol2

> <Gold.PLP.Fitness>
45.1294

> <Gold.PLP.PLP>
-37.8439

> <Gold.PLP.part.hbond>
-4.6063

> <Gold.PLP.part.metal>
0.0000

> <Gold.PLP.part.buried>
0.3577

> <Gold.PLP.part.nonpolar>
-34.3881

> <Gold.PLP.part.repulsive>
0.4158

> <Gold.PLP.ligand.clash>
0.0000

> <Gold.PLP.ligand.torsion>
0.6669

> <Gold.PLP.Chemscore.Hbond>
2.8640

> <Gold.PLP.Chemscore.CHOScore>
0.0000

> <Gold.PLP.Chemscore.Metal>
0.0000

> <Gold.Chemscore.Hbonds>
donor molecule, donor type, donor heavy atom, donor atom, acceptor molecule, acceptor atom, score
      L1  H     8    27       P1  7948  1.00
      L1  H    11    47       P1 10171  0.91
      P1  H  7997  8009       L1    21  0.80

> <Gold.PLP.Chemscore.Internal.Correction>
0.0273

> <Gold.Rescore>
     Score         DG    S(hbond)    S(metal)    S(lipo)     H(rot)  DE(clash)    DE(int)     intcor
     16.14     -20.42       2.85        0.00      79.57       1.52       2.52       1.76       ----

> <Gold.Chemscore.Fitness>
16.1393

> <Gold.Chemscore.DG>
-20.4208

> <Gold.Chemscore.ZeroCoef>
-5.4800

> <Gold.Chemscore.Hbond>
2.8526

> <Gold.Chemscore.Metal>
0.0000

> <Gold.Chemscore.Lipo>
79.5716

> <Gold.Chemscore.Internal_Hbond>
0.0000

> <Gold.Chemscore.DEClash>
2.5180

> <Gold.Chemscore.DEInternal>
1.7635

> <Gold.Chemscore.Rot>
1.5221

> <Gold.Chemscore.Internal.Correction>
   9.000000E+99

> <Gold.Chemscore.Hbonds>
donor molecule, donor type, donor heavy atom, donor atom, acceptor molecule, acceptor atom, score
      L1  H     8    27       P1  7948  0.98
      L1  H    11    47       P1 10171  0.89
      P1  H  7997  8009       L1    21  0.54

> <Gold.Chemscore.Hbond.Weighted>
-9.5276

> <Gold.Chemscore.Metal.Weighted>
-0.0000

> <Gold.Chemscore.Lipo.Weighted>
-9.3099

> <Gold.Chemscore.Internal_Hbond.Weighted>
0.0000

> <Gold.Chemscore.DEClash.Weighted>
2.5180

> <Gold.Chemscore.DEInternal.Weighted>
1.7635

> <Gold.Chemscore.Rot.Weighted>
3.8967

> <Gold.Chemscore.Internal.Correction.Weighted>
   9.000000E+99

> <Gold.Protein.RotatedTorsions>
[ 6907 6896 6895 6894 ] final   48.93 input  -60.11 | X-H torsion
[ 7974 7965 7964 7962 ] final  -62.70 input  175.53 | X-H torsion
[ 8008 7997 7996 7995 ] final -158.58 input   59.86 | X-H torsion
[ 10167 10162 10161 10158 ] final  -63.56 input  -65.29 | X-H torsion
[ 10718 10713 10712 10709 ] final  -21.67 input   66.30 | X-H torsion
[ 10763 10752 10751 10750 ] final  106.04 input  -60.55 | X-H torsion
[ 11005 11000 10999 10996 ] final  -52.72 input  -57.11 | X-H torsion

> <Gold.Protein.ActiveResidues>
 VAL166  LYS551  ARG553  GLY616  TRP617  ASP618  TYR619  PRO620  LYS621  CYS622 
 ASP623  PHE694  ASN695  SER759  ASP760  ASP761  ALA762  ILE779  LEU786  VAL792 
 PHE793  MET794  SER795  GLU796  ALA797  LYS798  CYS799  TRP800  GLU811  SER814 

> <Gold.Protein.RotatedAtoms>
  152.2851  134.7785  160.0388 H   0  0  0  0  0  0  0  0  0  0  0  0  # atno 6907 bound_to 6896
  151.8350  133.3409  159.3633 H   0  0  0  0  0  0  0  0  0  0  0  0  # atno 6908 bound_to 6896
  150.7206  134.5375  159.5775 H   0  0  0  0  0  0  0  0  0  0  0  0  # atno 6909 bound_to 6896
  145.7881  140.8725  143.0295 H   0  0  0  0  0  0  0  0  0  0  0  0  # atno 7974 bound_to 7965
  155.7497  140.0825  157.2207 H   0  0  0  0  0  0  0  0  0  0  0  0  # atno 8008 bound_to 7997
  154.4013  140.1562  156.2766 H   0  0  0  0  0  0  0  0  0  0  0  0  # atno 8009 bound_to 7997
  155.8942  140.3413  155.5981 H   0  0  0  0  0  0  0  0  0  0  0  0  # atno 8010 bound_to 7997
  140.5862  143.2334  151.6238 H   0  0  0  0  0  0  0  0  0  0  0  0  # atno 10167 bound_to 10162
  156.5150  130.4619  149.6628 H   0  0  0  0  0  0  0  0  0  0  0  0  # atno 10718 bound_to 10713
  153.3875  135.3890  155.1900 H   0  0  0  0  0  0  0  0  0  0  0  0  # atno 10763 bound_to 10752
  154.8715  135.3740  154.4779 H   0  0  0  0  0  0  0  0  0  0  0  0  # atno 10764 bound_to 10752
  153.5262  135.7086  153.5767 H   0  0  0  0  0  0  0  0  0  0  0  0  # atno 10765 bound_to 10752
  141.0939  133.6628  156.4066 H   0  0  0  0  0  0  0  0  0  0  0  0  # atno 11005 bound_to 11000
  144.6786  140.0084  143.7484 LP  0  0  0  0  0  0  0  0  0  0  0  0  # atno 17320 bound_to 7965
  146.0005  139.3087  143.0930 LP  0  0  0  0  0  0  0  0  0  0  0  0  # atno 17321 bound_to 7965
  139.5199  144.3239  152.0886 LP  0  0  0  0  0  0  0  0  0  0  0  0  # atno 17342 bound_to 10162
  140.2397  144.4283  150.6265 LP  0  0  0  0  0  0  0  0  0  0  0  0  # atno 17343 bound_to 10162
  156.3204  130.7277  151.2188 LP  0  0  0  0  0  0  0  0  0  0  0  0  # atno 17370 bound_to 10713
  157.7445  131.0457  150.4857 LP  0  0  0  0  0  0  0  0  0  0  0  0  # atno 17371 bound_to 10713
  140.5187  134.6325  157.5310 LP  0  0  0  0  0  0  0  0  0  0  0  0  # atno 17394 bound_to 11000
  139.9771  134.7198  155.9929 LP  0  0  0  0  0  0  0  0  0  0  0  0  # atno 17395 bound_to 11000

$$$$
