AV-unprocessed.smi:554|AV-procd|sdf|2909|dock5
  -GOLD-   2262023403D 1   1.00000     0.00000
 Structure written by MMmdl.
 27 28  0  0  0  0  0  0  0  0  1 V2000
  152.6965  143.0154  161.9003 C   0  0  0  0  0  0  0  0  0  0  0  0
  153.0828  143.0559  160.4379 C   0  0  1  0  0  0  0  0  0  0  0  0
  153.0395  141.8053  159.5921 C   0  0  0  0  0  0  0  0  0  0  0  0
  152.0318  142.9067  159.3593 C   0  0  2  0  0  0  0  0  0  0  0  0
  152.0859  143.7373  158.0913 C   0  0  0  0  0  0  0  0  0  0  0  0
  151.0955  143.3819  157.0834 N   0  0  0  0  0  0  0  0  0  0  0  0
  150.8944  142.1443  156.6086 C   0  0  0  0  0  0  0  0  0  0  0  0
  151.5277  141.1593  156.9896 O   0  0  0  0  0  0  0  0  0  0  0  0
  149.9250  142.1325  155.6769 N   0  0  0  0  0  0  0  0  0  0  0  0
  149.4255  141.0247  154.9428 C   0  0  0  0  0  0  0  0  0  0  0  0
  150.1622  139.9721  154.5685 N   0  0  0  0  0  0  0  0  0  0  0  0
  149.4109  139.0322  153.8584 C   0  0  0  0  0  0  0  0  0  0  0  0
  148.0944  139.3875  153.7004 C   0  0  0  0  0  0  0  0  0  0  0  0
  147.7437  140.9258  154.4423 S   0  0  0  0  0  0  0  0  0  0  0  0
  151.8832  142.3083  162.0675 H   0  0  0  0  0  0  0  0  0  0  0  0
  152.3710  144.0030  162.2270 H   0  0  0  0  0  0  0  0  0  0  0  0
  153.5513  142.7120  162.5049 H   0  0  0  0  0  0  0  0  0  0  0  0
  153.8977  143.7448  160.2235 H   0  0  0  0  0  0  0  0  0  0  0  0
  153.8279  141.6738  158.8536 H   0  0  0  0  0  0  0  0  0  0  0  0
  152.6813  140.8894  160.0577 H   0  0  0  0  0  0  0  0  0  0  0  0
  151.0192  142.6856  159.6924 H   0  0  0  0  0  0  0  0  0  0  0  0
  152.0005  144.7963  158.3404 H   0  0  0  0  0  0  0  0  0  0  0  0
  153.0715  143.6082  157.6437 H   0  0  0  0  0  0  0  0  0  0  0  0
  150.5292  144.1328  156.7165 H   0  0  0  0  0  0  0  0  0  0  0  0
  149.4953  143.0210  155.4650 H   0  0  0  0  0  0  0  0  0  0  0  0
  149.8946  138.1351  153.5012 H   0  0  0  0  0  0  0  0  0  0  0  0
  147.3131  138.8395  153.1951 H   0  0  0  0  0  0  0  0  0  0  0  0
  1  2  1  0  0  0  0
  1 15  1  0  0  0  0
  1 16  1  0  0  0  0
  1 17  1  0  0  0  0
  2  4  1  0  0  0  0
  2  3  1  0  0  0  0
  2 18  1  0  0  0  0
  3  4  1  0  0  0  0
  3 19  1  0  0  0  0
  3 20  1  0  0  0  0
  4  5  1  0  0  0  0
  4 21  1  0  0  0  0
  5  6  1  0  0  0  0
  5 22  1  0  0  0  0
  5 23  1  0  0  0  0
  6  7  1  0  0  0  0
  6 24  1  0  0  0  0
  7  8  2  0  0  0  0
  7  9  1  0  0  0  0
  9 10  1  0  0  0  0
  9 25  1  0  0  0  0
 10 14  1  0  0  0  0
 10 11  2  0  0  0  0
 11 12  1  0  0  0  0
 12 13  2  0  0  0  0
 12 26  1  0  0  0  0
 13 14  1  0  0  0  0
 13 27  1  0  0  0  0
M  END
> <s_m_source_file>
AV-unprocessed.smi

> <i_m_source_file_index>
554

> <i_lp_mmshare_version>
43012

> <i_f3d_flags>
0

> <s_epik_input>
W0NIM11bQ0BASF0xW0NIMl1bQ0BIXTFbQ0gyXVtOSF1DKD1PKVtOSF1jMm5bY0hdW2NIXXMy

> <s_epik_cmdline>
J2VwaWtfcHl0aG9uJywgJy1waCcsICc3LjAnLCAnLXRuJywgJzgnLCAnLW1hJywgJzIwMCcsICctbWV0YWxfYmluZGluZycsICctaW1hZScsICc8aW5maWxlLm1hZT4nLCAnLW9tYWUnLCAnPG91dGZpbGUubWFlPic=

> <r_lp_tautomer_probability>
0.999

> <r_epik_Ionization_Penalty>
0.00042678

> <r_epik_Ionization_Penalty_Charging>
0

> <r_epik_Ionization_Penalty_Neutral>
0.00042678

> <r_epik_State_Penalty>
0.000177984

> <r_epik_Charging_Adjusted_Penalty>
0.000177984

> <i_epik_Tot_Q>
0

> <i_epik_Tot_abs_Q>
0

> <r_epik_Metal_State_Penalty>
-0

> <b_epik_Metal_Only>
0

> <s_lp_Force_Field>
OPLS_2005

> <r_lp_Energy>
12.8371

> <b_lp_Chiralities_Consistent>
1

> <s_lp_Variant>
AV-unprocessed.smi:554-4

> <Gold.Version>
5.8.1

> <Gold.Id.Protein>
6NUR|6NUR_protein|mol2

> <Gold.PLP.Fitness>
43.1367

> <Gold.PLP.PLP>
-32.5695

> <Gold.PLP.part.hbond>
-3.0000

> <Gold.PLP.part.metal>
0.0000

> <Gold.PLP.part.buried>
-1.2246

> <Gold.PLP.part.nonpolar>
-28.5887

> <Gold.PLP.part.repulsive>
0.2828

> <Gold.PLP.ligand.clash>
0.0000

> <Gold.PLP.ligand.torsion>
0.5623

> <Gold.PLP.Chemscore.Hbond>
3.0000

> <Gold.PLP.Chemscore.CHOScore>
0.7176

> <Gold.PLP.Chemscore.Metal>
0.0000

> <Gold.Chemscore.Hbonds>
donor molecule, donor type, donor heavy atom, donor atom, acceptor molecule, acceptor atom, score
      L1  H     6    24       P1  8028  1.00
      L1  H     9    25       P1  8028  1.00
      P1  H  7989  7998       L1    11  1.00
      L1  C    12    26       P1  7948  0.72

> <Gold.PLP.Chemscore.Internal.Correction>
0.5391

> <Gold.Rescore>
     Score         DG    S(hbond)    S(metal)    S(lipo)     H(rot)  DE(clash)    DE(int)     intcor
     19.54     -20.55       2.82        0.00      76.20       1.28       0.24       0.77       ----

> <Gold.Chemscore.Fitness>
19.5385

> <Gold.Chemscore.DG>
-20.5544

> <Gold.Chemscore.ZeroCoef>
-5.4800

> <Gold.Chemscore.Hbond>
2.8243

> <Gold.Chemscore.Metal>
0.0000

> <Gold.Chemscore.Lipo>
76.1986

> <Gold.Chemscore.Internal_Hbond>
0.0000

> <Gold.Chemscore.DEClash>
0.2436

> <Gold.Chemscore.DEInternal>
0.7724

> <Gold.Chemscore.Rot>
1.2788

> <Gold.Chemscore.Internal.Correction>
   9.000000E+99

> <Gold.Chemscore.Hbonds>
donor molecule, donor type, donor heavy atom, donor atom, acceptor molecule, acceptor atom, score
      L1  H     6    24       P1  8028  0.89
      L1  H     9    25       P1  8028  1.00
      P1  H  7989  7998       L1    11  0.25

> <Gold.Chemscore.Hbond.Weighted>
-9.4331

> <Gold.Chemscore.Metal.Weighted>
-0.0000

> <Gold.Chemscore.Lipo.Weighted>
-8.9152

> <Gold.Chemscore.Internal_Hbond.Weighted>
0.0000

> <Gold.Chemscore.DEClash.Weighted>
0.2436

> <Gold.Chemscore.DEInternal.Weighted>
0.7724

> <Gold.Chemscore.Rot.Weighted>
3.2738

> <Gold.Chemscore.Internal.Correction.Weighted>
   9.000000E+99

> <Gold.Protein.RotatedTorsions>
[ 6907 6896 6895 6894 ] final  -37.49 input  -60.11 | X-H torsion
[ 7974 7965 7964 7962 ] final -155.17 input  175.53 | X-H torsion
[ 8008 7997 7996 7995 ] final   73.48 input   59.86 | X-H torsion
[ 10167 10162 10161 10158 ] final   -3.83 input  -65.29 | X-H torsion
[ 10718 10713 10712 10709 ] final   -0.19 input   66.30 | X-H torsion
[ 10763 10752 10751 10750 ] final -127.02 input  -60.55 | X-H torsion
[ 11005 11000 10999 10996 ] final  -53.65 input  -57.11 | X-H torsion

> <Gold.Protein.ActiveResidues>
 VAL166  LYS551  ARG553  GLY616  TRP617  ASP618  TYR619  PRO620  LYS621  CYS622 
 ASP623  PHE694  ASN695  SER759  ASP760  ASP761  ALA762  ILE779  LEU786  VAL792 
 PHE793  MET794  SER795  GLU796  ALA797  LYS798  CYS799  TRP800  GLU811  SER814 

> <Gold.Protein.RotatedAtoms>
  151.0140  134.9419  159.8022 H   0  0  0  0  0  0  0  0  0  0  0  0  # atno 6907 bound_to 6896
  152.5309  134.2990  159.9081 H   0  0  0  0  0  0  0  0  0  0  0  0  # atno 6908 bound_to 6896
  151.2997  133.4086  159.2673 H   0  0  0  0  0  0  0  0  0  0  0  0  # atno 6909 bound_to 6896
  144.7653  140.4286  143.5946 H   0  0  0  0  0  0  0  0  0  0  0  0  # atno 7974 bound_to 7965
  155.7842  140.3481  155.5314 H   0  0  0  0  0  0  0  0  0  0  0  0  # atno 8008 bound_to 7997
  155.8698  140.0984  157.1578 H   0  0  0  0  0  0  0  0  0  0  0  0  # atno 8009 bound_to 7997
  154.4017  140.1342  156.4051 H   0  0  0  0  0  0  0  0  0  0  0  0  # atno 8010 bound_to 7997
  140.6905  143.6495  150.8363 H   0  0  0  0  0  0  0  0  0  0  0  0  # atno 10167 bound_to 10162
  156.8240  130.5466  149.5694 H   0  0  0  0  0  0  0  0  0  0  0  0  # atno 10718 bound_to 10713
  154.8750  135.3976  154.3526 H   0  0  0  0  0  0  0  0  0  0  0  0  # atno 10763 bound_to 10752
  153.4309  135.7025  153.6236 H   0  0  0  0  0  0  0  0  0  0  0  0  # atno 10764 bound_to 10752
  153.4858  135.3759  155.2436 H   0  0  0  0  0  0  0  0  0  0  0  0  # atno 10765 bound_to 10752
  141.0987  133.6621  156.4204 H   0  0  0  0  0  0  0  0  0  0  0  0  # atno 11005 bound_to 11000
  145.6490  139.1562  143.2873 LP  0  0  0  0  0  0  0  0  0  0  0  0  # atno 17320 bound_to 7965
  146.1754  140.6580  142.9213 LP  0  0  0  0  0  0  0  0  0  0  0  0  # atno 17321 bound_to 7965
  140.0207  143.5546  152.2802 LP  0  0  0  0  0  0  0  0  0  0  0  0  # atno 17342 bound_to 10162
  139.6303  144.7643  151.2551 LP  0  0  0  0  0  0  0  0  0  0  0  0  # atno 17343 bound_to 10162
  156.0972  130.5941  150.9833 LP  0  0  0  0  0  0  0  0  0  0  0  0  # atno 17370 bound_to 10713
  157.6442  131.0906  150.8189 LP  0  0  0  0  0  0  0  0  0  0  0  0  # atno 17371 bound_to 10713
  140.5077  134.6425  157.5272 LP  0  0  0  0  0  0  0  0  0  0  0  0  # atno 17394 bound_to 11000
  139.9831  134.7105  155.9823 LP  0  0  0  0  0  0  0  0  0  0  0  0  # atno 17395 bound_to 11000

$$$$
