AV-unprocessed.smi:699|AV-procd|sdf|3405|dock1
  -GOLD-   22720 0383D 1   1.00000     0.00000
 Structure written by MMmdl.
 35 36  0  0  0  0  0  0  0  0  2 V2000
  149.0057  138.7359  153.4719 N   0  0  0  0  0  0  0  0  0  0  0  0
  149.8518  138.7787  154.5042 C   0  0  0  0  0  0  0  0  0  0  0  0
  150.9630  139.2979  154.4119 O   0  0  0  0  0  0  0  0  0  0  0  0
  149.3768  138.1327  155.8242 C   0  0  2  0  0  0  0  0  0  0  0  0
  150.5255  138.0570  156.8407 C   0  0  0  0  0  0  0  0  0  0  0  0
  151.2351  136.7275  156.5706 C   0  0  0  0  0  0  0  0  0  0  0  0
  150.1679  135.7916  155.9886 C   0  0  0  0  0  0  0  0  0  0  0  0
  148.9213  136.6530  155.7094 C   0  0  2  0  0  0  0  0  0  0  0  0
  148.3073  136.2954  154.4290 N   0  0  0  0  0  0  0  0  0  0  0  0
  147.0452  135.8720  154.2729 C   0  0  0  0  0  0  0  0  0  0  0  0
  146.2602  135.7242  155.2090 O   0  0  0  0  0  0  0  0  0  0  0  0
  146.7712  135.6315  152.9787 N   0  0  0  0  0  0  0  0  0  0  0  0
  145.5565  135.1826  152.3908 C   0  0  0  0  0  0  0  0  0  0  0  0
  145.5340  135.0270  150.9868 C   0  0  0  0  0  0  0  0  0  0  0  0
  144.3510  134.5973  150.3520 C   0  0  0  0  0  0  0  0  0  0  0  0
  143.2468  134.3459  151.0872 N   0  3  0  0  0  0  0  0  0  0  0  0
  143.2151  134.4921  152.4290 C   0  0  0  0  0  0  0  0  0  0  0  0
  144.3678  134.9195  153.1193 C   0  0  0  0  0  0  0  0  0  0  0  0
  149.2691  139.1537  152.5911 H   0  0  0  0  0  0  0  0  0  0  0  0
  148.1031  138.2954  153.5767 H   0  0  0  0  0  0  0  0  0  0  0  0
  148.5629  138.7381  156.2274 H   0  0  0  0  0  0  0  0  0  0  0  0
  151.2107  138.9043  156.7841 H   0  0  0  0  0  0  0  0  0  0  0  0
  150.1112  138.0502  157.8499 H   0  0  0  0  0  0  0  0  0  0  0  0
  152.0318  136.8754  155.8404 H   0  0  0  0  0  0  0  0  0  0  0  0
  151.6938  136.3205  157.4723 H   0  0  0  0  0  0  0  0  0  0  0  0
  150.5492  135.3231  155.0799 H   0  0  0  0  0  0  0  0  0  0  0  0
  149.9272  134.9876  156.6854 H   0  0  0  0  0  0  0  0  0  0  0  0
  148.2011  136.4596  156.5069 H   0  0  0  0  0  0  0  0  0  0  0  0
  148.8864  136.3916  153.6075 H   0  0  0  0  0  0  0  0  0  0  0  0
  147.5456  135.7397  152.3401 H   0  0  0  0  0  0  0  0  0  0  0  0
  146.4165  135.2300  150.3972 H   0  0  0  0  0  0  0  0  0  0  0  0
  144.2552  134.4501  149.2861 H   0  0  0  0  0  0  0  0  0  0  0  0
  142.2725  134.2698  152.9080 H   0  0  0  0  0  0  0  0  0  0  0  0
  144.3097  135.0461  154.1891 H   0  0  0  0  0  0  0  0  0  0  0  0
  142.4001  134.0369  150.6085 H   0  0  0  0  0  0  0  0  0  0  0  0
  1  2  1  0  0  0  0
  1 19  1  0  0  0  0
  1 20  1  0  0  0  0
  2  3  2  0  0  0  0
  2  4  1  0  0  0  0
  4  8  1  0  0  0  0
  4  5  1  0  0  0  0
  4 21  1  0  0  0  0
  5  6  1  0  0  0  0
  5 22  1  0  0  0  0
  5 23  1  0  0  0  0
  6  7  1  0  0  0  0
  6 24  1  0  0  0  0
  6 25  1  0  0  0  0
  7  8  1  0  0  0  0
  7 26  1  0  0  0  0
  7 27  1  0  0  0  0
  8  9  1  0  0  0  0
  8 28  1  0  0  0  0
  9 10  1  0  0  0  0
  9 29  1  0  0  0  0
 10 11  2  0  0  0  0
 10 12  1  0  0  0  0
 12 13  1  0  0  0  0
 12 30  1  0  0  0  0
 13 18  1  0  0  0  0
 13 14  2  0  0  0  0
 14 15  1  0  0  0  0
 14 31  1  0  0  0  0
 15 16  2  0  0  0  0
 15 32  1  0  0  0  0
 16 17  1  0  0  0  0
 16 35  1  0  0  0  0
 17 18  2  0  0  0  0
 17 33  1  0  0  0  0
 18 34  1  0  0  0  0
M  CHG  1  16   1
M  END
> <s_m_source_file>
AV-unprocessed.smi

> <i_m_source_file_index>
699

> <i_lp_mmshare_version>
43012

> <i_f3d_flags>
0

> <s_epik_input>
W05IMl1DKD1PKVtDQEBIXTFbQ0gyXVtDSDJdW0NIMl1bQ0BIXTFbTkhdQyg9TylbTkhdYzJbY0hdW2NIXW5bY0hdW2NIXTI=

> <s_epik_cmdline>
J2VwaWtfcHl0aG9uJywgJy1waCcsICc3LjAnLCAnLXRuJywgJzgnLCAnLW1hJywgJzIwMCcsICctbWV0YWxfYmluZGluZycsICctaW1hZScsICc8aW5maWxlLm1hZT4nLCAnLW9tYWUnLCAnPG91dGZpbGUubWFlPic=

> <r_epik_Ionization_Penalty>
1.0332

> <r_epik_Ionization_Penalty_Charging>
1.03318

> <r_epik_Ionization_Penalty_Neutral>
1.91967e-05

> <r_epik_State_Penalty>
1.08452

> <r_epik_Charging_Adjusted_Penalty>
2.11769

> <i_epik_Tot_Q>
1

> <i_epik_Tot_abs_Q>
1

> <r_epik_Metal_State_Penalty>
1.18144

> <b_epik_Metal_Only>
0

> <s_lp_Force_Field>
OPLS_2005

> <r_lp_Energy>
24.8338

> <b_lp_Chiralities_Consistent>
1

> <s_lp_Variant>
AV-unprocessed.smi:699-7

> <Gold.Version>
5.8.1

> <Gold.Id.Protein>
6NUR|6NUR_protein|mol2

> <Gold.PLP.Fitness>
38.9138

> <Gold.PLP.PLP>
-21.3153

> <Gold.PLP.part.hbond>
-5.8652

> <Gold.PLP.part.metal>
0.0000

> <Gold.PLP.part.buried>
-2.4759

> <Gold.PLP.part.nonpolar>
-13.3209

> <Gold.PLP.part.repulsive>
0.2475

> <Gold.PLP.ligand.clash>
0.0000

> <Gold.PLP.ligand.torsion>
0.1022

> <Gold.PLP.Chemscore.Hbond>
5.9280

> <Gold.PLP.Chemscore.CHOScore>
0.0000

> <Gold.PLP.Chemscore.Metal>
0.0000

> <Gold.Chemscore.Hbonds>
donor molecule, donor type, donor heavy atom, donor atom, acceptor molecule, acceptor atom, score
      L1  H     1    19       P1  7957  1.00
      L1  H     9    29       P1  7948  0.93
      L1  H    12    30       P1  7948  1.00
      L1  H    16    35       P1 10186  1.95
      P1  H  7989  7998       L1     3  1.00

> <Gold.PLP.Chemscore.Internal.Correction>
0.0189

> <Gold.Rescore>
     Score         DG    S(hbond)    S(metal)    S(lipo)     H(rot)  DE(clash)    DE(int)     intcor
     18.44     -21.86       4.68        0.00      39.34       1.50       0.26       3.16       ----

> <Gold.Chemscore.Fitness>
18.4373

> <Gold.Chemscore.DG>
-21.8619

> <Gold.Chemscore.ZeroCoef>
-5.4800

> <Gold.Chemscore.Hbond>
4.6794

> <Gold.Chemscore.Metal>
0.0000

> <Gold.Chemscore.Lipo>
39.3361

> <Gold.Chemscore.Internal_Hbond>
0.0000

> <Gold.Chemscore.DEClash>
0.2629

> <Gold.Chemscore.DEInternal>
3.1617

> <Gold.Chemscore.Rot>
1.5038

> <Gold.Chemscore.Internal.Correction>
   9.000000E+99

> <Gold.Chemscore.Hbonds>
donor molecule, donor type, donor heavy atom, donor atom, acceptor molecule, acceptor atom, score
      L1  H     1    19       P1  7957  1.00
      L1  H     9    29       P1  7948  0.89
      L1  H    12    30       P1  7948  0.94
      L1  H    16    35       P1 10186  0.65
      P1  H  7989  7998       L1     3  0.99

> <Gold.Chemscore.Hbond.Weighted>
-15.6292

> <Gold.Chemscore.Metal.Weighted>
-0.0000

> <Gold.Chemscore.Lipo.Weighted>
-4.6023

> <Gold.Chemscore.Internal_Hbond.Weighted>
0.0000

> <Gold.Chemscore.DEClash.Weighted>
0.2629

> <Gold.Chemscore.DEInternal.Weighted>
3.1617

> <Gold.Chemscore.Rot.Weighted>
3.8496

> <Gold.Chemscore.Internal.Correction.Weighted>
   9.000000E+99

> <Gold.Protein.RotatedTorsions>
[ 6907 6896 6895 6894 ] final -177.89 input  -60.11 | X-H torsion
[ 7974 7965 7964 7962 ] final -174.46 input  175.53 | X-H torsion
[ 8008 7997 7996 7995 ] final   85.84 input   59.86 | X-H torsion
[ 10167 10162 10161 10158 ] final   63.87 input  -65.29 | X-H torsion
[ 10718 10713 10712 10709 ] final   73.32 input   66.30 | X-H torsion
[ 10763 10752 10751 10750 ] final   89.72 input  -60.55 | X-H torsion
[ 11005 11000 10999 10996 ] final -110.55 input  -57.11 | X-H torsion

> <Gold.Protein.ActiveResidues>
 VAL166  LYS551  ARG553  GLY616  TRP617  ASP618  TYR619  PRO620  LYS621  CYS622 
 ASP623  PHE694  ASN695  SER759  ASP760  ASP761  ALA762  ILE779  LEU786  VAL792 
 PHE793  MET794  SER795  GLU796  ALA797  LYS798  CYS799  TRP800  GLU811  SER814 

> <Gold.Protein.RotatedAtoms>
  151.6283  133.3334  159.3102 H   0  0  0  0  0  0  0  0  0  0  0  0  # atno 6907 bound_to 6896
  150.8070  134.7204  159.6664 H   0  0  0  0  0  0  0  0  0  0  0  0  # atno 6908 bound_to 6896
  152.4165  134.6036  160.0058 H   0  0  0  0  0  0  0  0  0  0  0  0  # atno 6909 bound_to 6896
  144.7132  140.1468  143.6387 H   0  0  0  0  0  0  0  0  0  0  0  0  # atno 7974 bound_to 7965
  155.9552  140.3398  155.6442 H   0  0  0  0  0  0  0  0  0  0  0  0  # atno 8008 bound_to 7997
  155.6869  140.0744  157.2481 H   0  0  0  0  0  0  0  0  0  0  0  0  # atno 8009 bound_to 7997
  154.4130  140.1664  156.2031 H   0  0  0  0  0  0  0  0  0  0  0  0  # atno 8010 bound_to 7997
  140.1284  144.4666  150.6879 H   0  0  0  0  0  0  0  0  0  0  0  0  # atno 10167 bound_to 10162
  157.6542  130.9623  150.1053 H   0  0  0  0  0  0  0  0  0  0  0  0  # atno 10718 bound_to 10713
  153.1900  135.4460  155.0138 H   0  0  0  0  0  0  0  0  0  0  0  0  # atno 10763 bound_to 10752
  154.8084  135.3284  154.7372 H   0  0  0  0  0  0  0  0  0  0  0  0  # atno 10764 bound_to 10752
  153.7827  135.6976  153.4941 H   0  0  0  0  0  0  0  0  0  0  0  0  # atno 10765 bound_to 10752
  141.0785  133.9260  157.2339 H   0  0  0  0  0  0  0  0  0  0  0  0  # atno 11005 bound_to 11000
  145.9152  139.2512  143.1414 LP  0  0  0  0  0  0  0  0  0  0  0  0  # atno 17320 bound_to 7965
  145.9676  140.8786  143.0179 LP  0  0  0  0  0  0  0  0  0  0  0  0  # atno 17321 bound_to 7965
  140.6831  143.2336  151.5331 LP  0  0  0  0  0  0  0  0  0  0  0  0  # atno 17342 bound_to 10162
  139.5532  144.2341  152.1567 LP  0  0  0  0  0  0  0  0  0  0  0  0  # atno 17343 bound_to 10162
  156.1965  130.3657  149.8843 LP  0  0  0  0  0  0  0  0  0  0  0  0  # atno 17370 bound_to 10713
  156.6758  130.8838  151.3569 LP  0  0  0  0  0  0  0  0  0  0  0  0  # atno 17371 bound_to 10713
  139.9598  135.0157  156.9229 LP  0  0  0  0  0  0  0  0  0  0  0  0  # atno 17394 bound_to 11000
  140.5520  134.0617  155.7372 LP  0  0  0  0  0  0  0  0  0  0  0  0  # atno 17395 bound_to 11000

$$$$
