AV-unprocessed.smi:1607|AV-procd|sdf|6466|dock3
  -GOLD-   22720 7123D 1   1.00000     0.00000
 Structure written by MMmdl.
 39 40  0  0  0  0  0  0  0  0  2 V2000
  145.9102  131.9632  150.0424 C   0  0  0  0  0  0  0  0  0  0  0  0
  146.0606  133.2301  150.8965 C   0  0  1  0  0  0  0  0  0  0  0  0
  144.6940  133.7533  151.3693 C   0  0  0  0  0  0  0  0  0  0  0  0
  144.8763  135.0022  152.2403 C   0  0  0  0  0  0  0  0  0  0  0  0
  145.8304  134.7212  153.4115 C   0  0  0  0  0  0  0  0  0  0  0  0
  147.1431  134.2210  152.9268 N   0  3  1  0  0  0  0  0  0  0  0  0
  148.1256  134.0701  154.0301 C   0  0  0  0  0  0  0  0  0  0  0  0
  148.0876  135.2486  155.0169 C   0  0  0  0  0  0  0  0  0  0  0  0
  148.6646  136.4404  154.4105 N   0  0  0  0  0  0  0  0  0  0  0  0
  149.1462  137.4844  155.1029 C   0  0  0  0  0  0  0  0  0  0  0  0
  149.1227  137.5448  156.3316 O   0  0  0  0  0  0  0  0  0  0  0  0
  149.7369  138.6418  154.2930 C   0  0  0  0  0  0  0  0  0  0  0  0
  151.1796  138.7207  154.4384 N   0  0  0  0  0  0  0  0  0  0  0  0
  152.1373  137.8313  154.1689 C   0  0  0  0  0  0  0  0  0  0  0  0
  153.3397  138.3037  154.4593 N   0  0  0  0  0  0  0  0  0  0  0  0
  153.0715  139.5771  154.9327 N   0  0  0  0  0  0  0  0  0  0  0  0
  151.7918  139.8313  154.9205 N   0  0  0  0  0  0  0  0  0  0  0  0
  146.9883  132.9900  152.1049 C   0  0  0  0  0  0  0  0  0  0  0  0
  145.4600  131.1501  150.6130 H   0  0  0  0  0  0  0  0  0  0  0  0
  146.8777  131.6177  149.6772 H   0  0  0  0  0  0  0  0  0  0  0  0
  145.2784  132.1486  149.1731 H   0  0  0  0  0  0  0  0  0  0  0  0
  146.5171  133.9966  150.2684 H   0  0  0  0  0  0  0  0  0  0  0  0
  144.0608  133.9878  150.5128 H   0  0  0  0  0  0  0  0  0  0  0  0
  144.1754  132.9809  151.9391 H   0  0  0  0  0  0  0  0  0  0  0  0
  145.2699  135.8191  151.6337 H   0  0  0  0  0  0  0  0  0  0  0  0
  143.9096  135.3360  152.6189 H   0  0  0  0  0  0  0  0  0  0  0  0
  145.9719  135.6404  153.9816 H   0  0  0  0  0  0  0  0  0  0  0  0
  145.3891  133.9904  154.0911 H   0  0  0  0  0  0  0  0  0  0  0  0
  147.8997  133.1597  154.5879 H   0  0  0  0  0  0  0  0  0  0  0  0
  149.1274  133.9378  153.6181 H   0  0  0  0  0  0  0  0  0  0  0  0
  147.0666  135.4813  155.3188 H   0  0  0  0  0  0  0  0  0  0  0  0
  148.6413  134.9899  155.9212 H   0  0  0  0  0  0  0  0  0  0  0  0
  148.7137  136.4700  153.4022 H   0  0  0  0  0  0  0  0  0  0  0  0
  149.4928  138.5121  153.2379 H   0  0  0  0  0  0  0  0  0  0  0  0
  149.2983  139.5885  154.6123 H   0  0  0  0  0  0  0  0  0  0  0  0
  151.9552  136.8448  153.7689 H   0  0  0  0  0  0  0  0  0  0  0  0
  146.5957  132.1847  152.7283 H   0  0  0  0  0  0  0  0  0  0  0  0
  147.9600  132.6583  151.7409 H   0  0  0  0  0  0  0  0  0  0  0  0
  147.5072  134.9389  152.3166 H   0  0  0  0  0  0  0  0  0  0  0  0
  1  2  1  0  0  0  0
  1 19  1  0  0  0  0
  1 20  1  0  0  0  0
  1 21  1  0  0  0  0
  2 18  1  0  0  0  0
  2  3  1  0  0  0  0
  2 22  1  0  0  0  0
  3  4  1  0  0  0  0
  3 23  1  0  0  0  0
  3 24  1  0  0  0  0
  4  5  1  0  0  0  0
  4 25  1  0  0  0  0
  4 26  1  0  0  0  0
  5  6  1  0  0  0  0
  5 27  1  0  0  0  0
  5 28  1  0  0  0  0
  6  7  1  0  0  0  0
  6 18  1  0  0  0  0
  6 39  1  0  0  0  0
  7  8  1  0  0  0  0
  7 29  1  0  0  0  0
  7 30  1  0  0  0  0
  8  9  1  0  0  0  0
  8 31  1  0  0  0  0
  8 32  1  0  0  0  0
  9 10  1  0  0  0  0
  9 33  1  0  0  0  0
 10 11  2  0  0  0  0
 10 12  1  0  0  0  0
 12 13  1  0  0  0  0
 12 34  1  0  0  0  0
 12 35  1  0  0  0  0
 13 17  1  0  0  0  0
 13 14  1  0  0  0  0
 14 15  2  0  0  0  0
 14 36  1  0  0  0  0
 15 16  1  0  0  0  0
 16 17  2  0  0  0  0
 18 37  1  0  0  0  0
 18 38  1  0  0  0  0
M  CHG  1   6   1
M  END
> <s_m_source_file>
AV-unprocessed.smi

> <i_m_source_file_index>
1607

> <i_lp_mmshare_version>
43012

> <i_f3d_flags>
0

> <s_epik_input>
W0NIM11bQ0BASF0xW0NIMl1bQ0gyXVtDSDJdTihbQ0gyXTEpW0NIMl1bQ0gyXVtOSF1DKD1PKVtDSDJdbjJbY0hdbm5uMg==

> <s_epik_cmdline>
J2VwaWtfcHl0aG9uJywgJy1waCcsICc3LjAnLCAnLXRuJywgJzgnLCAnLW1hJywgJzIwMCcsICctbWV0YWxfYmluZGluZycsICctaW1hZScsICc8aW5maWxlLm1hZT4nLCAnLW9tYWUnLCAnPG91dGZpbGUubWFlPic=

> <r_lp_tautomer_probability>
1

> <r_epik_Ionization_Penalty>
0.00268321

> <r_epik_Ionization_Penalty_Charging>
0.00267875

> <r_epik_Ionization_Penalty_Neutral>
4.46125e-06

> <r_epik_State_Penalty>
0.00186642

> <r_epik_Charging_Adjusted_Penalty>
0.00454517

> <i_epik_Tot_Q>
1

> <i_epik_Tot_abs_Q>
1

> <r_epik_Metal_State_Penalty>
-0

> <b_epik_Metal_Only>
0

> <s_lp_Force_Field>
OPLS_2005

> <r_lp_Energy>
19.4205

> <b_lp_Chiralities_Consistent>
1

> <s_lp_Variant>
AV-unprocessed.smi:1607-4

> <Gold.Version>
5.8.1

> <Gold.Id.Protein>
6NUR|6NUR_protein|mol2

> <Gold.PLP.Fitness>
46.8328

> <Gold.PLP.PLP>
-29.6037

> <Gold.PLP.part.hbond>
-5.6501

> <Gold.PLP.part.metal>
0.0000

> <Gold.PLP.part.buried>
-3.3852

> <Gold.PLP.part.nonpolar>
-19.8095

> <Gold.PLP.part.repulsive>
0.1171

> <Gold.PLP.ligand.clash>
0.0000

> <Gold.PLP.ligand.torsion>
0.3889

> <Gold.PLP.Chemscore.Hbond>
4.9840

> <Gold.PLP.Chemscore.CHOScore>
0.9983

> <Gold.PLP.Chemscore.Metal>
0.0000

> <Gold.Chemscore.Hbonds>
donor molecule, donor type, donor heavy atom, donor atom, acceptor molecule, acceptor atom, score
      L1  H     6    39       P1  7948  1.98
      L1  H     9    33       P1  7948  1.00
      P1  H  7989  7998       L1    17  0.95
      P1  H  7997  8009       L1    16  1.00
      L1  C    14    36       P1  7949  0.94

> <Gold.PLP.Chemscore.Internal.Correction>
0.0600

> <Gold.Rescore>
     Score         DG    S(hbond)    S(metal)    S(lipo)     H(rot)  DE(clash)    DE(int)     intcor
     13.72     -14.40       2.96        0.00      50.54       2.69       0.34       0.34       ----

> <Gold.Chemscore.Fitness>
13.7162

> <Gold.Chemscore.DG>
-14.3963

> <Gold.Chemscore.ZeroCoef>
-5.4800

> <Gold.Chemscore.Hbond>
2.9632

> <Gold.Chemscore.Metal>
0.0000

> <Gold.Chemscore.Lipo>
50.5450

> <Gold.Chemscore.Internal_Hbond>
0.0000

> <Gold.Chemscore.DEClash>
0.3423

> <Gold.Chemscore.DEInternal>
0.3377

> <Gold.Chemscore.Rot>
2.6932

> <Gold.Chemscore.Internal.Correction>
   9.000000E+99

> <Gold.Chemscore.Hbonds>
donor molecule, donor type, donor heavy atom, donor atom, acceptor molecule, acceptor atom, score
      L1  H     6    39       P1  7948  0.89
      L1  H     9    33       P1  7948  0.97
      P1  H  7989  7998       L1    17  0.06
      P1  H  7997  8009       L1    16  0.65

> <Gold.Chemscore.Hbond.Weighted>
-9.8970

> <Gold.Chemscore.Metal.Weighted>
-0.0000

> <Gold.Chemscore.Lipo.Weighted>
-5.9138

> <Gold.Chemscore.Internal_Hbond.Weighted>
0.0000

> <Gold.Chemscore.DEClash.Weighted>
0.3423

> <Gold.Chemscore.DEInternal.Weighted>
0.3377

> <Gold.Chemscore.Rot.Weighted>
6.8945

> <Gold.Chemscore.Internal.Correction.Weighted>
   9.000000E+99

> <Gold.Protein.RotatedTorsions>
[ 6907 6896 6895 6894 ] final   94.99 input  -60.11 | X-H torsion
[ 7974 7965 7964 7962 ] final  -22.50 input  175.53 | X-H torsion
[ 8008 7997 7996 7995 ] final -119.70 input   59.86 | X-H torsion
[ 10167 10162 10161 10158 ] final  109.17 input  -65.29 | X-H torsion
[ 10718 10713 10712 10709 ] final  157.15 input   66.30 | X-H torsion
[ 10763 10752 10751 10750 ] final  179.59 input  -60.55 | X-H torsion
[ 11005 11000 10999 10996 ] final   58.80 input  -57.11 | X-H torsion

> <Gold.Protein.ActiveResidues>
 VAL166  LYS551  ARG553  GLY616  TRP617  ASP618  TYR619  PRO620  LYS621  CYS622 
 ASP623  PHE694  ASN695  SER759  ASP760  ASP761  ALA762  ILE779  LEU786  VAL792 
 PHE793  MET794  SER795  GLU796  ALA797  LYS798  CYS799  TRP800  GLU811  SER814 

> <Gold.Protein.RotatedAtoms>
  152.5446  134.1109  159.8357 H   0  0  0  0  0  0  0  0  0  0  0  0  # atno 6907 bound_to 6896
  151.1175  133.5120  159.2610 H   0  0  0  0  0  0  0  0  0  0  0  0  # atno 6908 bound_to 6896
  151.1815  135.0372  159.8849 H   0  0  0  0  0  0  0  0  0  0  0  0  # atno 6909 bound_to 6896
  146.1671  140.4488  142.8547 H   0  0  0  0  0  0  0  0  0  0  0  0  # atno 7974 bound_to 7965
  155.1200  140.0398  157.2747 H   0  0  0  0  0  0  0  0  0  0  0  0  # atno 8008 bound_to 7997
  154.6621  140.2593  155.7072 H   0  0  0  0  0  0  0  0  0  0  0  0  # atno 8009 bound_to 7997
  156.2623  140.2815  156.1097 H   0  0  0  0  0  0  0  0  0  0  0  0  # atno 8010 bound_to 7997
  139.6788  144.7120  151.1554 H   0  0  0  0  0  0  0  0  0  0  0  0  # atno 10167 bound_to 10162
  157.1953  131.0664  151.2056 H   0  0  0  0  0  0  0  0  0  0  0  0  # atno 10718 bound_to 10713
  154.5226  135.2795  155.1249 H   0  0  0  0  0  0  0  0  0  0  0  0  # atno 10763 bound_to 10752
  154.2800  135.6287  153.5347 H   0  0  0  0  0  0  0  0  0  0  0  0  # atno 10764 bound_to 10752
  152.9940  135.5649  154.5719 H   0  0  0  0  0  0  0  0  0  0  0  0  # atno 10765 bound_to 10752
  140.0350  134.5956  155.9455 H   0  0  0  0  0  0  0  0  0  0  0  0  # atno 11005 bound_to 11000
  144.8109  140.6384  143.6416 LP  0  0  0  0  0  0  0  0  0  0  0  0  # atno 17320 bound_to 7965
  145.4437  139.1532  143.3956 LP  0  0  0  0  0  0  0  0  0  0  0  0  # atno 17321 bound_to 7965
  140.7645  143.5731  150.8974 LP  0  0  0  0  0  0  0  0  0  0  0  0  # atno 17342 bound_to 10162
  139.9402  143.6391  152.3055 LP  0  0  0  0  0  0  0  0  0  0  0  0  # atno 17343 bound_to 10162
  157.3820  130.7236  149.6637 LP  0  0  0  0  0  0  0  0  0  0  0  0  # atno 17370 bound_to 10713
  155.9707  130.4170  150.4256 LP  0  0  0  0  0  0  0  0  0  0  0  0  # atno 17371 bound_to 10713
  141.1852  133.6554  156.5190 LP  0  0  0  0  0  0  0  0  0  0  0  0  # atno 17394 bound_to 11000
  140.4162  134.7228  157.4864 LP  0  0  0  0  0  0  0  0  0  0  0  0  # atno 17395 bound_to 11000

$$$$
