AV-unprocessed.smi:1410|AV-procd|sdf|5738|dock2
  -GOLD-   22720 5373D 1   1.00000     0.00000
 Structure written by MMmdl.
 40 41  0  0  0  0  0  0  0  0  4 V2000
  152.0378  135.2275  156.6467 N   0  5  0  0  0  0  0  0  0  0  0  0
  150.7165  134.9653  156.5894 C   0  0  0  0  0  0  0  0  0  0  0  0
  149.9581  134.6970  157.5184 O   0  0  0  0  0  0  0  0  0  0  0  0
  150.1708  135.0238  155.1587 C   0  0  0  0  0  0  0  0  0  0  0  0
  150.0150  136.4314  154.7102 N   0  3  2  0  0  0  0  0  0  0  0  0
  151.3173  137.0667  154.3870 C   0  0  0  0  0  0  0  0  0  0  0  0
  151.1178  138.4665  153.7800 C   0  0  0  0  0  0  0  0  0  0  0  0
  150.2795  139.3804  154.6963 C   0  0  2  0  0  0  0  0  0  0  0  0
  151.0145  139.7688  155.9001 N   0  0  0  0  0  0  0  0  0  0  0  0
  150.9650  140.9757  156.4829 C   0  0  0  0  0  0  0  0  0  0  0  0
  150.2879  141.9090  156.0527 O   0  0  0  0  0  0  0  0  0  0  0  0
  151.7601  141.0284  157.5657 N   0  0  0  0  0  0  0  0  0  0  0  0
  151.9864  142.1244  158.4424 C   0  0  0  0  0  0  0  0  0  0  0  0
  151.5668  143.4033  158.0133 C   0  0  0  0  0  0  0  0  0  0  0  0
  151.7842  144.5217  158.8436 C   0  0  0  0  0  0  0  0  0  0  0  0
  152.3994  144.3651  160.0352 N   0  3  0  0  0  0  0  0  0  0  0  0
  152.8316  143.1663  160.4816 C   0  0  0  0  0  0  0  0  0  0  0  0
  152.6421  142.0116  159.6952 C   0  0  0  0  0  0  0  0  0  0  0  0
  148.9670  138.6707  155.0716 C   0  0  0  0  0  0  0  0  0  0  0  0
  149.2132  137.2638  155.6469 C   0  0  0  0  0  0  0  0  0  0  0  0
  152.3819  135.9094  157.3330 H   0  0  0  0  0  0  0  0  0  0  0  0
  150.8224  134.4767  154.4753 H   0  0  0  0  0  0  0  0  0  0  0  0
  149.2072  134.5112  155.1452 H   0  0  0  0  0  0  0  0  0  0  0  0
  151.9300  137.1249  155.2880 H   0  0  0  0  0  0  0  0  0  0  0  0
  151.8616  136.4454  153.6746 H   0  0  0  0  0  0  0  0  0  0  0  0
  152.0848  138.9203  153.5604 H   0  0  0  0  0  0  0  0  0  0  0  0
  150.6107  138.3651  152.8195 H   0  0  0  0  0  0  0  0  0  0  0  0
  150.0268  140.2909  154.1496 H   0  0  0  0  0  0  0  0  0  0  0  0
  151.5954  139.0605  156.3246 H   0  0  0  0  0  0  0  0  0  0  0  0
  152.3180  140.2067  157.7467 H   0  0  0  0  0  0  0  0  0  0  0  0
  151.0761  143.5305  157.0592 H   0  0  0  0  0  0  0  0  0  0  0  0
  151.4884  145.5294  158.5908 H   0  0  0  0  0  0  0  0  0  0  0  0
  153.3192  143.1666  161.4457 H   0  0  0  0  0  0  0  0  0  0  0  0
  153.0138  141.0673  160.0627 H   0  0  0  0  0  0  0  0  0  0  0  0
  148.3992  139.2730  155.7821 H   0  0  0  0  0  0  0  0  0  0  0  0
  148.3413  138.5840  154.1821 H   0  0  0  0  0  0  0  0  0  0  0  0
  148.2506  136.7905  155.8421 H   0  0  0  0  0  0  0  0  0  0  0  0
  149.7274  137.3317  156.6067 H   0  0  0  0  0  0  0  0  0  0  0  0
  149.4978  136.3804  153.8434 H   0  0  0  0  0  0  0  0  0  0  0  0
  152.5487  145.1874  160.6209 H   0  0  0  0  0  0  0  0  0  0  0  0
  1  2  1  0  0  0  0
  1 21  1  0  0  0  0
  2  3  2  0  0  0  0
  2  4  1  0  0  0  0
  4  5  1  0  0  0  0
  4 22  1  0  0  0  0
  4 23  1  0  0  0  0
  5 20  1  0  0  0  0
  5  6  1  0  0  0  0
  5 39  1  0  0  0  0
  6  7  1  0  0  0  0
  6 24  1  0  0  0  0
  6 25  1  0  0  0  0
  7  8  1  0  0  0  0
  7 26  1  0  0  0  0
  7 27  1  0  0  0  0
  8  9  1  0  0  0  0
  8 19  1  0  0  0  0
  8 28  1  0  0  0  0
  9 10  1  0  0  0  0
  9 29  1  0  0  0  0
 10 11  2  0  0  0  0
 10 12  1  0  0  0  0
 12 13  1  0  0  0  0
 12 30  1  0  0  0  0
 13 18  1  0  0  0  0
 13 14  2  0  0  0  0
 14 15  1  0  0  0  0
 14 31  1  0  0  0  0
 15 16  2  0  0  0  0
 15 32  1  0  0  0  0
 16 17  1  0  0  0  0
 16 40  1  0  0  0  0
 17 18  2  0  0  0  0
 17 33  1  0  0  0  0
 18 34  1  0  0  0  0
 19 20  1  0  0  0  0
 19 35  1  0  0  0  0
 19 36  1  0  0  0  0
 20 37  1  0  0  0  0
 20 38  1  0  0  0  0
M  CHG  1   1  -1
M  CHG  1   5   1
M  CHG  1  16   1
M  END
> <s_m_source_file>
AV-unprocessed.smi

> <i_m_source_file_index>
1410

> <i_lp_mmshare_version>
43012

> <i_f3d_flags>
0

> <s_epik_input>
W05IMl1DKD1PKVtDSDJdTjFbQ0gyXVtDSDJdW0NIXShbQ0gyXVtDSDJdMSlbTkhdQyg9TylbTkhdYzJbY0hdW2NIXW5bY0hdW2NIXTI=

> <s_epik_cmdline>
J2VwaWtfcHl0aG9uJywgJy1waCcsICc3LjAnLCAnLXRuJywgJzgnLCAnLW1hJywgJzIwMCcsICctbWV0YWxfYmluZGluZycsICctaW1hZScsICc8aW5maWxlLm1hZT4nLCAnLW9tYWUnLCAnPG91dGZpbGUubWFlPic=

> <r_epik_Ionization_Penalty>
6.84067

> <r_epik_Ionization_Penalty_Charging>
6.84065

> <r_epik_Ionization_Penalty_Neutral>
1.84563e-05

> <r_epik_State_Penalty>
7.68217

> <r_epik_Charging_Adjusted_Penalty>
14.5228

> <i_epik_Tot_Q>
1

> <i_epik_Tot_abs_Q>
3

> <r_epik_Metal_State_Penalty>
3.74331

> <b_epik_Metal_Only>
1

> <s_lp_Force_Field>
OPLS_2005

> <r_lp_Energy>
20.5434

> <b_lp_Chiralities_Consistent>
1

> <s_lp_Variant>
AV-unprocessed.smi:1410-10

> <Gold.Version>
5.8.1

> <Gold.Id.Protein>
6NUR|6NUR_protein|mol2

> <Gold.PLP.Fitness>
46.3230

> <Gold.PLP.PLP>
-33.0529

> <Gold.PLP.part.hbond>
-3.0000

> <Gold.PLP.part.metal>
0.0000

> <Gold.PLP.part.buried>
-4.2142

> <Gold.PLP.part.nonpolar>
-26.7973

> <Gold.PLP.part.repulsive>
0.3670

> <Gold.PLP.ligand.clash>
0.0000

> <Gold.PLP.ligand.torsion>
0.6435

> <Gold.PLP.Chemscore.Hbond>
4.8421

> <Gold.PLP.Chemscore.CHOScore>
0.0000

> <Gold.PLP.Chemscore.Metal>
0.0000

> <Gold.Chemscore.Hbonds>
donor molecule, donor type, donor heavy atom, donor atom, acceptor molecule, acceptor atom, score
      L1  H     5    39       P1  7948  1.98
      P1  H  6896  6908       L1     3  0.84
      P1  H 10752 10764       L1     1  2.00

> <Gold.PLP.Chemscore.Internal.Correction>
0.0310

> <Gold.Rescore>
     Score         DG    S(hbond)    S(metal)    S(lipo)     H(rot)  DE(clash)    DE(int)     intcor
     13.12     -15.52       1.50        0.00      85.99       1.96       0.17       2.22       ----

> <Gold.Chemscore.Fitness>
13.1240

> <Gold.Chemscore.DG>
-15.5208

> <Gold.Chemscore.ZeroCoef>
-5.4800

> <Gold.Chemscore.Hbond>
1.4972

> <Gold.Chemscore.Metal>
0.0000

> <Gold.Chemscore.Lipo>
85.9890

> <Gold.Chemscore.Internal_Hbond>
0.0000

> <Gold.Chemscore.DEClash>
0.1736

> <Gold.Chemscore.DEInternal>
2.2231

> <Gold.Chemscore.Rot>
1.9612

> <Gold.Chemscore.Internal.Correction>
   9.000000E+99

> <Gold.Chemscore.Hbonds>
donor molecule, donor type, donor heavy atom, donor atom, acceptor molecule, acceptor atom, score
      L1  H     5    39       P1  7948  0.69
      P1  H  6896  6908       L1     3  0.77
      P1  H 10752 10764       L1     1  0.49

> <Gold.Chemscore.Hbond.Weighted>
-5.0008

> <Gold.Chemscore.Metal.Weighted>
-0.0000

> <Gold.Chemscore.Lipo.Weighted>
-10.0607

> <Gold.Chemscore.Internal_Hbond.Weighted>
0.0000

> <Gold.Chemscore.DEClash.Weighted>
0.1736

> <Gold.Chemscore.DEInternal.Weighted>
2.2231

> <Gold.Chemscore.Rot.Weighted>
5.0208

> <Gold.Chemscore.Internal.Correction.Weighted>
   9.000000E+99

> <Gold.Protein.RotatedTorsions>
[ 6907 6896 6895 6894 ] final  141.24 input  -60.11 | X-H torsion
[ 7974 7965 7964 7962 ] final  -85.74 input  175.53 | X-H torsion
[ 8008 7997 7996 7995 ] final   84.60 input   59.86 | X-H torsion
[ 10167 10162 10161 10158 ] final  113.04 input  -65.29 | X-H torsion
[ 10718 10713 10712 10709 ] final   45.52 input   66.30 | X-H torsion
[ 10763 10752 10751 10750 ] final  -25.39 input  -60.55 | X-H torsion
[ 11005 11000 10999 10996 ] final  -68.09 input  -57.11 | X-H torsion

> <Gold.Protein.ActiveResidues>
 VAL166  LYS551  ARG553  GLY616  TRP617  ASP618  TYR619  PRO620  LYS621  CYS622 
 ASP623  PHE694  ASN695  SER759  ASP760  ASP761  ALA762  ILE779  LEU786  VAL792 
 PHE793  MET794  SER795  GLU796  ALA797  LYS798  CYS799  TRP800  GLU811  SER814 

> <Gold.Protein.RotatedAtoms>
  152.2333  133.5076  159.5228 H   0  0  0  0  0  0  0  0  0  0  0  0  # atno 6907 bound_to 6896
  150.7043  134.1187  159.4035 H   0  0  0  0  0  0  0  0  0  0  0  0  # atno 6908 bound_to 6896
  151.9108  135.0339  160.0565 H   0  0  0  0  0  0  0  0  0  0  0  0  # atno 6909 bound_to 6896
  145.4892  140.9553  143.1821 H   0  0  0  0  0  0  0  0  0  0  0  0  # atno 7974 bound_to 7965
  155.9391  140.3409  155.6312 H   0  0  0  0  0  0  0  0  0  0  0  0  # atno 8008 bound_to 7997
  155.7062  140.0766  157.2408 H   0  0  0  0  0  0  0  0  0  0  0  0  # atno 8009 bound_to 7997
  154.4099  140.1631  156.2233 H   0  0  0  0  0  0  0  0  0  0  0  0  # atno 8010 bound_to 7997
  139.6491  144.7128  151.2084 H   0  0  0  0  0  0  0  0  0  0  0  0  # atno 10167 bound_to 10162
  157.4384  130.8066  149.7670 H   0  0  0  0  0  0  0  0  0  0  0  0  # atno 10718 bound_to 10713
  153.6991  135.6957  153.5068 H   0  0  0  0  0  0  0  0  0  0  0  0  # atno 10763 bound_to 10752
  153.2356  135.4323  155.0641 H   0  0  0  0  0  0  0  0  0  0  0  0  # atno 10764 bound_to 10752
  154.8349  135.3495  154.6531 H   0  0  0  0  0  0  0  0  0  0  0  0  # atno 10765 bound_to 10752
  141.1524  133.6733  156.6393 H   0  0  0  0  0  0  0  0  0  0  0  0  # atno 11005 bound_to 11000
  144.7843  139.6459  143.7141 LP  0  0  0  0  0  0  0  0  0  0  0  0  # atno 17320 bound_to 7965
  146.2294  139.5785  142.9565 LP  0  0  0  0  0  0  0  0  0  0  0  0  # atno 17321 bound_to 7965
  140.7529  143.6181  150.8540 LP  0  0  0  0  0  0  0  0  0  0  0  0  # atno 17342 bound_to 10162
  139.9827  143.5933  152.2937 LP  0  0  0  0  0  0  0  0  0  0  0  0  # atno 17343 bound_to 10162
  155.9939  130.3921  150.2880 LP  0  0  0  0  0  0  0  0  0  0  0  0  # atno 17370 bound_to 10713
  157.1043  131.0204  151.3073 LP  0  0  0  0  0  0  0  0  0  0  0  0  # atno 17371 bound_to 10713
  140.3406  134.7852  157.4394 LP  0  0  0  0  0  0  0  0  0  0  0  0  # atno 17394 bound_to 11000
  140.0941  134.5561  155.8415 LP  0  0  0  0  0  0  0  0  0  0  0  0  # atno 17395 bound_to 11000

$$$$
