AV-unprocessed.smi:636|AV-procd|sdf|3140|dock9
  -GOLD-   22720 0 63D 1   1.00000     0.00000
 Structure written by MMmdl.
 39 41  0  0  0  0  0  0  0  0  1 V2000
  150.1264  139.1898  157.6686 O   0  0  0  0  0  0  0  0  0  0  0  0
  150.8184  139.7795  156.8398 C   0  0  0  0  0  0  0  0  0  0  0  0
  152.3093  140.0099  157.1432 C   0  0  0  0  0  0  0  0  0  0  0  0
  152.5798  140.8185  158.3462 N   0  0  0  0  0  0  0  0  0  0  0  0
  152.1010  142.1423  158.3428 C   0  0  0  0  0  0  0  0  0  0  0  0
  152.2792  142.9874  159.3746 C   0  0  0  0  0  0  0  0  0  0  0  0
  151.8114  144.4330  159.3148 C   0  0  0  0  0  0  0  0  0  0  0  0
  152.4002  145.0572  158.2960 F   0  0  0  0  0  0  0  0  0  0  0  0
  150.4920  144.5029  159.1386 F   0  0  0  0  0  0  0  0  0  0  0  0
  152.1193  145.0859  160.4360 F   0  0  0  0  0  0  0  0  0  0  0  0
  153.0264  142.4748  160.5053 C   0  0  0  0  0  0  0  0  0  0  0  0
  153.5072  141.2153  160.5255 C   0  0  0  0  0  0  0  0  0  0  0  0
  154.3919  140.6568  161.8999 Cl  0  0  0  0  0  0  0  0  0  0  0  0
  153.2917  140.3045  159.3939 C   0  0  0  0  0  0  0  0  0  0  0  0
  153.7288  139.1531  159.3797 O   0  0  0  0  0  0  0  0  0  0  0  0
  150.3301  140.2375  155.6742 N   0  0  0  0  0  0  0  0  0  0  0  0
  148.9532  140.1153  155.2113 C   0  0  0  0  0  0  0  0  0  0  0  0
  148.6311  138.7179  154.7075 C   0  0  0  0  0  0  0  0  0  0  0  0
  147.2218  138.1747  154.7405 C   0  0  0  0  0  0  0  0  0  0  0  0
  148.2752  137.6000  155.6591 C   0  0  0  0  0  0  0  0  0  0  0  0
  148.6389  141.1459  154.1428 C   0  0  0  0  0  0  0  0  0  0  0  0
  147.5066  142.1289  154.3184 C   0  0  0  0  0  0  0  0  0  0  0  0
  147.4060  141.0361  153.2776 C   0  0  0  0  0  0  0  0  0  0  0  0
  152.7872  139.0338  157.2380 H   0  0  0  0  0  0  0  0  0  0  0  0
  152.7747  140.4621  156.2656 H   0  0  0  0  0  0  0  0  0  0  0  0
  151.5892  142.4312  157.4362 H   0  0  0  0  0  0  0  0  0  0  0  0
  153.2014  143.1156  161.3572 H   0  0  0  0  0  0  0  0  0  0  0  0
  150.9696  140.7127  155.0543 H   0  0  0  0  0  0  0  0  0  0  0  0
  148.2916  140.3227  156.0550 H   0  0  0  0  0  0  0  0  0  0  0  0
  149.2210  138.4271  153.8401 H   0  0  0  0  0  0  0  0  0  0  0  0
  146.4469  138.7883  155.1950 H   0  0  0  0  0  0  0  0  0  0  0  0
  146.9000  137.5641  153.8994 H   0  0  0  0  0  0  0  0  0  0  0  0
  148.6574  136.6073  155.4308 H   0  0  0  0  0  0  0  0  0  0  0  0
  148.1971  137.8369  156.7183 H   0  0  0  0  0  0  0  0  0  0  0  0
  149.5257  141.5369  153.6467 H   0  0  0  0  0  0  0  0  0  0  0  0
  146.8856  142.0338  155.2069 H   0  0  0  0  0  0  0  0  0  0  0  0
  147.6665  143.1463  153.9676 H   0  0  0  0  0  0  0  0  0  0  0  0
  147.4993  141.3248  152.2328 H   0  0  0  0  0  0  0  0  0  0  0  0
  146.7124  140.2217  153.4762 H   0  0  0  0  0  0  0  0  0  0  0  0
  1  2  2  0  0  0  0
  2  3  1  0  0  0  0
  2 16  1  0  0  0  0
  3  4  1  0  0  0  0
  3 24  1  0  0  0  0
  3 25  1  0  0  0  0
  4 14  1  0  0  0  0
  4  5  1  0  0  0  0
  5  6  2  0  0  0  0
  5 26  1  0  0  0  0
  6  7  1  0  0  0  0
  6 11  1  0  0  0  0
  7  8  1  0  0  0  0
  7  9  1  0  0  0  0
  7 10  1  0  0  0  0
 11 12  2  0  0  0  0
 11 27  1  0  0  0  0
 12 13  1  0  0  0  0
 12 14  1  0  0  0  0
 14 15  2  0  0  0  0
 16 17  1  0  0  0  0
 16 28  1  0  0  0  0
 17 18  1  0  0  0  0
 17 21  1  0  0  0  0
 17 29  1  0  0  0  0
 18 20  1  0  0  0  0
 18 19  1  0  0  0  0
 18 30  1  0  0  0  0
 19 20  1  0  0  0  0
 19 31  1  0  0  0  0
 19 32  1  0  0  0  0
 20 33  1  0  0  0  0
 20 34  1  0  0  0  0
 21 23  1  0  0  0  0
 21 22  1  0  0  0  0
 21 35  1  0  0  0  0
 22 23  1  0  0  0  0
 22 36  1  0  0  0  0
 22 37  1  0  0  0  0
 23 38  1  0  0  0  0
 23 39  1  0  0  0  0
M  END
> <s_m_source_file>
AV-unprocessed.smi

> <i_m_source_file_index>
636

> <i_lp_mmshare_version>
43012

> <i_f3d_flags>
0

> <s_epik_input>
W0NIMl0xW0NIMl1bQ0hdMVtDSF0oW0NIXTJbQ0gyXVtDSDJdMilbTkhdQyg9TylbQ0gyXW4zW2NIXWMoQyhGKShGKUYpW2NIXWMoQ2wpYzM9Tw==

> <s_epik_cmdline>
J2VwaWtfcHl0aG9uJywgJy1waCcsICc3LjAnLCAnLXRuJywgJzgnLCAnLW1hJywgJzIwMCcsICctbWV0YWxfYmluZGluZycsICctaW1hZScsICc8aW5maWxlLm1hZT4nLCAnLW9tYWUnLCAnPG91dGZpbGUubWFlPic=

> <r_lp_tautomer_probability>
1

> <r_epik_Ionization_Penalty>
2.07964e-08

> <r_epik_Ionization_Penalty_Charging>
3.83819e-10

> <r_epik_Ionization_Penalty_Neutral>
2.04126e-08

> <r_epik_State_Penalty>
-0

> <r_epik_Charging_Adjusted_Penalty>
3.83819e-10

> <i_epik_Tot_Q>
0

> <i_epik_Tot_abs_Q>
0

> <r_epik_Metal_State_Penalty>
-0

> <b_epik_Metal_Only>
0

> <s_lp_Force_Field>
OPLS_2005

> <r_lp_Energy>
34.6708

> <b_lp_Chiralities_Consistent>
1

> <s_lp_Variant>
AV-unprocessed.smi:636-1

> <Gold.Version>
5.8.1

> <Gold.Id.Protein>
6NUR|6NUR_protein|mol2

> <Gold.PLP.Fitness>
46.6970

> <Gold.PLP.PLP>
-47.8625

> <Gold.PLP.part.hbond>
0.0000

> <Gold.PLP.part.metal>
0.0000

> <Gold.PLP.part.buried>
-5.6412

> <Gold.PLP.part.nonpolar>
-41.9722

> <Gold.PLP.part.repulsive>
0.0853

> <Gold.PLP.ligand.clash>
0.0000

> <Gold.PLP.ligand.torsion>
1.6802

> <Gold.PLP.Chemscore.Hbond>
0.0000

> <Gold.PLP.Chemscore.CHOScore>
0.0000

> <Gold.PLP.Chemscore.Metal>
0.0000

> <Gold.PLP.Chemscore.Internal.Correction>
2.1949

> <Gold.Rescore>
     Score         DG    S(hbond)    S(metal)    S(lipo)     H(rot)  DE(clash)    DE(int)     intcor
     11.14     -12.82       0.00        0.00     104.27       1.90       0.07       1.62       ----

> <Gold.Chemscore.Fitness>
11.1369

> <Gold.Chemscore.DG>
-12.8207

> <Gold.Chemscore.ZeroCoef>
-5.4800

> <Gold.Chemscore.Hbond>
0.0000

> <Gold.Chemscore.Metal>
0.0000

> <Gold.Chemscore.Lipo>
104.2670

> <Gold.Chemscore.Internal_Hbond>
0.0000

> <Gold.Chemscore.DEClash>
0.0673

> <Gold.Chemscore.DEInternal>
1.6166

> <Gold.Chemscore.Rot>
1.8979

> <Gold.Chemscore.Internal.Correction>
   9.000000E+99

> <Gold.Chemscore.Hbond.Weighted>
-0.0000

> <Gold.Chemscore.Metal.Weighted>
-0.0000

> <Gold.Chemscore.Lipo.Weighted>
-12.1992

> <Gold.Chemscore.Internal_Hbond.Weighted>
0.0000

> <Gold.Chemscore.DEClash.Weighted>
0.0673

> <Gold.Chemscore.DEInternal.Weighted>
1.6166

> <Gold.Chemscore.Rot.Weighted>
4.8586

> <Gold.Chemscore.Internal.Correction.Weighted>
   9.000000E+99

> <Gold.Protein.RotatedTorsions>
[ 6907 6896 6895 6894 ] final  -52.38 input  -60.11 | X-H torsion
[ 7974 7965 7964 7962 ] final  -14.93 input  175.53 | X-H torsion
[ 8008 7997 7996 7995 ] final -107.11 input   59.86 | X-H torsion
[ 10167 10162 10161 10158 ] final -158.55 input  -65.29 | X-H torsion
[ 10718 10713 10712 10709 ] final  -64.71 input   66.30 | X-H torsion
[ 10763 10752 10751 10750 ] final   77.50 input  -60.55 | X-H torsion
[ 11005 11000 10999 10996 ] final -108.87 input  -57.11 | X-H torsion

> <Gold.Protein.ActiveResidues>
 VAL166  LYS551  ARG553  GLY616  TRP617  ASP618  TYR619  PRO620  LYS621  CYS622 
 ASP623  PHE694  ASN695  SER759  ASP760  ASP761  ALA762  ILE779  LEU786  VAL792 
 PHE793  MET794  SER795  GLU796  ALA797  LYS798  CYS799  TRP800  GLU811  SER814 

> <Gold.Protein.RotatedAtoms>
  150.8524  134.7852  159.7018 H   0  0  0  0  0  0  0  0  0  0  0  0  # atno 6907 bound_to 6896
  152.4585  134.5235  159.9799 H   0  0  0  0  0  0  0  0  0  0  0  0  # atno 6908 bound_to 6896
  151.5353  133.3404  159.2961 H   0  0  0  0  0  0  0  0  0  0  0  0  # atno 6909 bound_to 6896
  146.2053  140.3419  142.8409 H   0  0  0  0  0  0  0  0  0  0  0  0  # atno 7974 bound_to 7965
  154.9244  140.0406  157.2015 H   0  0  0  0  0  0  0  0  0  0  0  0  # atno 8008 bound_to 7997
  154.8222  140.2885  155.5758 H   0  0  0  0  0  0  0  0  0  0  0  0  # atno 8009 bound_to 7997
  156.2981  140.2517  156.3131 H   0  0  0  0  0  0  0  0  0  0  0  0  # atno 8010 bound_to 7997
  139.6683  143.9790  152.2268 H   0  0  0  0  0  0  0  0  0  0  0  0  # atno 10167 bound_to 10162
  156.0712  130.4237  150.1459 H   0  0  0  0  0  0  0  0  0  0  0  0  # atno 10718 bound_to 10713
  153.0803  135.4912  154.8489 H   0  0  0  0  0  0  0  0  0  0  0  0  # atno 10763 bound_to 10752
  154.7142  135.3026  154.9152 H   0  0  0  0  0  0  0  0  0  0  0  0  # atno 10764 bound_to 10752
  153.9836  135.6787  153.4804 H   0  0  0  0  0  0  0  0  0  0  0  0  # atno 10765 bound_to 10752
  141.0878  133.9108  157.2145 H   0  0  0  0  0  0  0  0  0  0  0  0  # atno 11005 bound_to 11000
  144.8779  140.7361  143.6005 LP  0  0  0  0  0  0  0  0  0  0  0  0  # atno 17320 bound_to 7965
  145.3339  139.1751  143.4522 LP  0  0  0  0  0  0  0  0  0  0  0  0  # atno 17321 bound_to 7965
  139.9547  144.6597  150.8137 LP  0  0  0  0  0  0  0  0  0  0  0  0  # atno 17342 bound_to 10162
  140.7608  143.3160  151.2733 LP  0  0  0  0  0  0  0  0  0  0  0  0  # atno 17343 bound_to 10162
  156.9510  130.9774  151.3498 LP  0  0  0  0  0  0  0  0  0  0  0  0  # atno 17370 bound_to 10713
  157.5784  130.8359  149.8488 LP  0  0  0  0  0  0  0  0  0  0  0  0  # atno 17371 bound_to 10713
  139.9699  135.0131  156.9485 LP  0  0  0  0  0  0  0  0  0  0  0  0  # atno 17394 bound_to 11000
  140.5322  134.0802  155.7319 LP  0  0  0  0  0  0  0  0  0  0  0  0  # atno 17395 bound_to 11000

$$$$
