AV-unprocessed.smi:1831|AV-procd|sdf|7463|dock9
  -GOLD-   22720 9153D 1   1.00000     0.00000
 Structure written by MMmdl.
 40 41  0  0  0  0  0  0  0  0  3 V2000
  153.6783  141.3312  160.9544 C   0  0  0  0  0  0  0  0  0  0  0  0
  152.9354  140.8344  159.7619 C   0  0  0  0  0  0  0  0  0  0  0  0
  152.3630  141.6510  158.8740 N   0  0  0  0  0  0  0  0  0  0  0  0
  151.7333  140.9543  157.8530 N   0  0  0  0  0  0  0  0  0  0  0  0
  151.8474  139.6246  157.9758 C   0  0  0  0  0  0  0  0  0  0  0  0
  151.3093  138.7705  157.0897 N   0  5  0  0  0  0  0  0  0  0  0  0
  150.9115  139.2194  155.8790 C   0  0  0  0  0  0  0  0  0  0  0  0
  151.4624  140.0970  155.2089 O   0  0  0  0  0  0  0  0  0  0  0  0
  149.8227  138.5974  155.4011 N   0  0  0  0  0  0  0  0  0  0  0  0
  149.1871  138.8585  154.1124 C   0  0  0  0  0  0  0  0  0  0  0  0
  147.6742  139.1577  154.2372 C   0  0  1  0  0  0  0  0  0  0  0  0
  147.1503  139.8848  152.9973 C   0  0  0  0  0  0  0  0  0  0  0  0
  146.6820  138.7674  152.0506 C   0  0  0  0  0  0  0  0  0  0  0  0
  146.6639  137.5107  152.8402 N   0  3  2  0  0  0  0  0  0  0  0  0
  145.5575  136.5660  152.5217 C   0  0  0  0  0  0  0  0  0  0  0  0
  145.5509  136.1828  151.0294 C   0  0  0  0  0  0  0  0  0  0  0  0
  144.1918  137.1660  152.9041 C   0  0  0  0  0  0  0  0  0  0  0  0
  146.7766  137.9157  154.2557 C   0  0  0  0  0  0  0  0  0  0  0  0
  152.7478  139.1254  159.4078 S   0  0  0  0  0  0  0  0  0  0  0  0
  154.7268  141.4861  160.7004 H   0  0  0  0  0  0  0  0  0  0  0  0
  153.6171  140.6060  161.7658 H   0  0  0  0  0  0  0  0  0  0  0  0
  153.2564  142.2756  161.2995 H   0  0  0  0  0  0  0  0  0  0  0  0
  149.4041  137.8855  155.9822 H   0  0  0  0  0  0  0  0  0  0  0  0
  149.6882  139.7190  153.6685 H   0  0  0  0  0  0  0  0  0  0  0  0
  149.3620  138.0301  153.4239 H   0  0  0  0  0  0  0  0  0  0  0  0
  147.5102  139.7547  155.1353 H   0  0  0  0  0  0  0  0  0  0  0  0
  146.2970  140.5053  153.2746 H   0  0  0  0  0  0  0  0  0  0  0  0
  147.8923  140.5402  152.5393 H   0  0  0  0  0  0  0  0  0  0  0  0
  145.6957  139.0099  151.6526 H   0  0  0  0  0  0  0  0  0  0  0  0
  147.3637  138.6492  151.2077 H   0  0  0  0  0  0  0  0  0  0  0  0
  145.7080  135.6560  153.1044 H   0  0  0  0  0  0  0  0  0  0  0  0
  144.6989  135.5451  150.7928 H   0  0  0  0  0  0  0  0  0  0  0  0
  146.4454  135.6280  150.7460 H   0  0  0  0  0  0  0  0  0  0  0  0
  145.4889  137.0667  150.3930 H   0  0  0  0  0  0  0  0  0  0  0  0
  143.3804  136.4828  152.6513 H   0  0  0  0  0  0  0  0  0  0  0  0
  144.0106  138.1027  152.3758 H   0  0  0  0  0  0  0  0  0  0  0  0
  144.1156  137.3664  153.9726 H   0  0  0  0  0  0  0  0  0  0  0  0
  147.1461  137.1158  154.8948 H   0  0  0  0  0  0  0  0  0  0  0  0
  145.7883  138.1903  154.6282 H   0  0  0  0  0  0  0  0  0  0  0  0
  147.5294  137.0335  152.6295 H   0  0  0  0  0  0  0  0  0  0  0  0
  1  2  1  0  0  0  0
  1 20  1  0  0  0  0
  1 21  1  0  0  0  0
  1 22  1  0  0  0  0
  2 19  1  0  0  0  0
  2  3  2  0  0  0  0
  3  4  1  0  0  0  0
  4  5  2  0  0  0  0
  5  6  1  0  0  0  0
  5 19  1  0  0  0  0
  6  7  1  0  0  0  0
  7  8  2  0  0  0  0
  7  9  1  0  0  0  0
  9 10  1  0  0  0  0
  9 23  1  0  0  0  0
 10 11  1  0  0  0  0
 10 24  1  0  0  0  0
 10 25  1  0  0  0  0
 11 18  1  0  0  0  0
 11 12  1  0  0  0  0
 11 26  1  0  0  0  0
 12 13  1  0  0  0  0
 12 27  1  0  0  0  0
 12 28  1  0  0  0  0
 13 14  1  0  0  0  0
 13 29  1  0  0  0  0
 13 30  1  0  0  0  0
 14 15  1  0  0  0  0
 14 18  1  0  0  0  0
 14 40  1  0  0  0  0
 15 16  1  0  0  0  0
 15 17  1  0  0  0  0
 15 31  1  0  0  0  0
 16 32  1  0  0  0  0
 16 33  1  0  0  0  0
 16 34  1  0  0  0  0
 17 35  1  0  0  0  0
 17 36  1  0  0  0  0
 17 37  1  0  0  0  0
 18 38  1  0  0  0  0
 18 39  1  0  0  0  0
M  CHG  1   6  -1
M  CHG  1  14   1
M  END
> <s_m_source_file>
AV-unprocessed.smi

> <i_m_source_file_index>
1831

> <i_lp_mmshare_version>
43012

> <i_f3d_flags>
0

> <s_epik_input>
W0NIM11jMW5uYyhzMSlbTkhdQyg9TylbTkhdW0NIMl1bQ0BASF0yW0NIMl1bQ0gyXU4oW0NIMl0yKVtDSF0oW0NIM10pW0NIM10=

> <s_epik_cmdline>
J2VwaWtfcHl0aG9uJywgJy1waCcsICc3LjAnLCAnLXRuJywgJzgnLCAnLW1hJywgJzIwMCcsICctbWV0YWxfYmluZGluZycsICctaW1hZScsICc8aW5maWxlLm1hZT4nLCAnLW9tYWUnLCAnPG91dGZpbGUubWFlPic=

> <r_lp_tautomer_probability>
1

> <r_epik_Ionization_Penalty>
4.24531

> <r_epik_Ionization_Penalty_Charging>
4.11954

> <r_epik_Ionization_Penalty_Neutral>
0.125766

> <r_epik_State_Penalty>
4.11879

> <r_epik_Charging_Adjusted_Penalty>
8.23833

> <i_epik_Tot_Q>
0

> <i_epik_Tot_abs_Q>
2

> <r_epik_Metal_State_Penalty>
0.659341

> <b_epik_Metal_Only>
1

> <s_lp_Force_Field>
OPLS_2005

> <r_lp_Energy>
23.48

> <b_lp_Chiralities_Consistent>
1

> <s_lp_Variant>
AV-unprocessed.smi:1831-8

> <Gold.Version>
5.8.1

> <Gold.Id.Protein>
6NUR|6NUR_protein|mol2

> <Gold.PLP.Fitness>
39.1715

> <Gold.PLP.PLP>
-31.2525

> <Gold.PLP.part.hbond>
-2.0000

> <Gold.PLP.part.metal>
0.0000

> <Gold.PLP.part.buried>
-2.6067

> <Gold.PLP.part.nonpolar>
-26.9037

> <Gold.PLP.part.repulsive>
0.1191

> <Gold.PLP.ligand.clash>
0.0000

> <Gold.PLP.ligand.torsion>
0.5780

> <Gold.PLP.Chemscore.Hbond>
2.9920

> <Gold.PLP.Chemscore.CHOScore>
0.0000

> <Gold.PLP.Chemscore.Metal>
0.0000

> <Gold.Chemscore.Hbonds>
donor molecule, donor type, donor heavy atom, donor atom, acceptor molecule, acceptor atom, score
      L1  H    14    40       P1  7948  2.00
      P1  H  7989  7998       L1     8  1.00

> <Gold.PLP.Chemscore.Internal.Correction>
0.0990

> <Gold.Rescore>
     Score         DG    S(hbond)    S(metal)    S(lipo)     H(rot)  DE(clash)    DE(int)     intcor
     14.02     -16.37       1.94        0.00      70.66       1.51       0.43       1.91       ----

> <Gold.Chemscore.Fitness>
14.0210

> <Gold.Chemscore.DG>
-16.3656

> <Gold.Chemscore.ZeroCoef>
-5.4800

> <Gold.Chemscore.Hbond>
1.9438

> <Gold.Chemscore.Metal>
0.0000

> <Gold.Chemscore.Lipo>
70.6578

> <Gold.Chemscore.Internal_Hbond>
0.0000

> <Gold.Chemscore.DEClash>
0.4339

> <Gold.Chemscore.DEInternal>
1.9107

> <Gold.Chemscore.Rot>
1.5131

> <Gold.Chemscore.Internal.Correction>
   9.000000E+99

> <Gold.Chemscore.Hbonds>
donor molecule, donor type, donor heavy atom, donor atom, acceptor molecule, acceptor atom, score
      L1  H    14    40       P1  7948  1.00
      P1  H  7989  7998       L1     8  0.96

> <Gold.Chemscore.Hbond.Weighted>
-6.4921

> <Gold.Chemscore.Metal.Weighted>
-0.0000

> <Gold.Chemscore.Lipo.Weighted>
-8.2670

> <Gold.Chemscore.Internal_Hbond.Weighted>
0.0000

> <Gold.Chemscore.DEClash.Weighted>
0.4339

> <Gold.Chemscore.DEInternal.Weighted>
1.9107

> <Gold.Chemscore.Rot.Weighted>
3.8735

> <Gold.Chemscore.Internal.Correction.Weighted>
   9.000000E+99

> <Gold.Protein.RotatedTorsions>
[ 6907 6896 6895 6894 ] final   55.54 input  -60.11 | X-H torsion
[ 7974 7965 7964 7962 ] final -146.24 input  175.53 | X-H torsion
[ 8008 7997 7996 7995 ] final  -29.92 input   59.86 | X-H torsion
[ 10167 10162 10161 10158 ] final -160.93 input  -65.29 | X-H torsion
[ 10718 10713 10712 10709 ] final  118.79 input   66.30 | X-H torsion
[ 10763 10752 10751 10750 ] final  -71.84 input  -60.55 | X-H torsion
[ 11005 11000 10999 10996 ] final    3.31 input  -57.11 | X-H torsion

> <Gold.Protein.ActiveResidues>
 VAL166  LYS551  ARG553  GLY616  TRP617  ASP618  TYR619  PRO620  LYS621  CYS622 
 ASP623  PHE694  ASN695  SER759  ASP760  ASP761  ALA762  ILE779  LEU786  VAL792 
 PHE793  MET794  SER795  GLU796  ALA797  LYS798  CYS799  TRP800  GLU811  SER814 

> <Gold.Protein.RotatedAtoms>
  152.3549  134.6954  160.0224 H   0  0  0  0  0  0  0  0  0  0  0  0  # atno 6907 bound_to 6896
  151.7297  133.3312  159.3345 H   0  0  0  0  0  0  0  0  0  0  0  0  # atno 6908 bound_to 6896
  150.7564  134.6308  159.6230 H   0  0  0  0  0  0  0  0  0  0  0  0  # atno 6909 bound_to 6896
  144.8172  140.5481  143.5602 H   0  0  0  0  0  0  0  0  0  0  0  0  # atno 7974 bound_to 7965
  154.4270  140.1805  156.1325 H   0  0  0  0  0  0  0  0  0  0  0  0  # atno 8008 bound_to 7997
  156.0056  140.3355  155.6864 H   0  0  0  0  0  0  0  0  0  0  0  0  # atno 8009 bound_to 7997
  155.6182  140.0657  157.2676 H   0  0  0  0  0  0  0  0  0  0  0  0  # atno 8010 bound_to 7997
  139.6503  144.0097  152.2156 H   0  0  0  0  0  0  0  0  0  0  0  0  # atno 10167 bound_to 10162
  157.6006  131.1051  150.7805 H   0  0  0  0  0  0  0  0  0  0  0  0  # atno 10718 bound_to 10713
  154.4374  135.5949  153.6107 H   0  0  0  0  0  0  0  0  0  0  0  0  # atno 10763 bound_to 10752
  152.9803  135.5989  154.3765 H   0  0  0  0  0  0  0  0  0  0  0  0  # atno 10764 bound_to 10752
  154.3610  135.2841  155.2298 H   0  0  0  0  0  0  0  0  0  0  0  0  # atno 10765 bound_to 10752
  140.5945  133.9893  155.8104 H   0  0  0  0  0  0  0  0  0  0  0  0  # atno 11005 bound_to 11000
  145.5186  139.1477  143.3565 LP  0  0  0  0  0  0  0  0  0  0  0  0  # atno 17320 bound_to 7965
  146.2476  140.5327  142.8907 LP  0  0  0  0  0  0  0  0  0  0  0  0  # atno 17321 bound_to 7965
  139.9809  144.6429  150.7902 LP  0  0  0  0  0  0  0  0  0  0  0  0  # atno 17342 bound_to 10162
  140.7534  143.3008  151.3085 LP  0  0  0  0  0  0  0  0  0  0  0  0  # atno 17343 bound_to 10162
  156.8205  130.4982  149.5344 LP  0  0  0  0  0  0  0  0  0  0  0  0  # atno 17370 bound_to 10713
  156.1079  130.6018  151.0000 LP  0  0  0  0  0  0  0  0  0  0  0  0  # atno 17371 bound_to 10713
  141.0913  133.9912  157.3232 LP  0  0  0  0  0  0  0  0  0  0  0  0  # atno 17394 bound_to 11000
  139.9259  135.0201  156.8233 LP  0  0  0  0  0  0  0  0  0  0  0  0  # atno 17395 bound_to 11000

$$$$
