#       Name:                AV-unprocessed.smi:3331
#       Creating user name   scv26
#       Creation time:       Fri Mar 27 19:20:15 2020


#       File generated by GOLD software.
#

@<TRIPOS>MOLECULE
AV-unprocessed.smi:3331
    50    51     1
SMALL
NO_CHARGES


@<TRIPOS>ATOM
      1 ****        -2.7472  -0.9571   1.0215 C.3            1 S1                 0.0000
      2 ****        -1.8267  -2.1014   0.5617 C.3            1 S1                 0.0000
      3 ****        -2.5479  -3.0876  -0.3840 C.3            1 S1                 0.0000
      4 ****        -2.7031  -2.5384  -1.8200 C.3            1 S1                 0.0000
      5 ****        -3.3006  -3.5932  -2.7616 C.3            1 S1                 0.0000
      6 ****        -1.3484  -2.0149  -2.3406 C.3            1 S1                 0.0000
      7 ****        -0.8302  -1.0012  -1.4111 N.am           1 S1                 0.0000
      8 ****        -0.7304   0.3118  -1.7450 C.2            1 S1                 0.0000
      9 ****        -1.0291   0.7190  -2.8694 O.2            1 S1                 0.0000
     10 ****        -0.2202   1.3325  -0.7051 C.3            1 S1                 0.0000
     11 ****        -0.5939   2.7807  -1.0905 C.3            1 S1                 0.0000
     12 ****         1.2351   1.1886  -0.5363 N.3            1 S1                 0.0000
     13 ****         1.7228   1.7630   0.7097 C.3            1 S1                 0.0000
     14 ****         3.2208   1.4593   0.8557 C.3            1 S1                 0.0000
     15 ****         3.7645   2.0280   2.0738 N.pl3          1 S1                 0.0000
     16 ****         4.5373   3.1606   2.2204 C.2            1 S1                 0.0000
     17 ****         4.8042   3.3003   3.5524 C.2            1 S1                 0.0000
     18 ****         4.1434   2.1894   4.1480 C.2            1 S1                 0.0000
     19 ****         3.5231   1.4289   3.2602 N.2            1 S1                 0.0000
     20 ****        -0.5270  -1.5912  -0.0979 C.3            1 S1                 0.0000
     21 ****        -3.0919  -0.3484   0.1855 H              1 S1                 0.0000
     22 ****        -2.2305  -0.2980   1.7195 H              1 S1                 0.0000
     23 ****        -3.6287  -1.3458   1.5318 H              1 S1                 0.0000
     24 ****        -1.5459  -2.6536   1.4592 H              1 S1                 0.0000
     25 ****        -1.9689  -4.0113  -0.4244 H              1 S1                 0.0000
     26 ****        -3.5210  -3.3618   0.0253 H              1 S1                 0.0000
     27 ****        -3.3986  -1.6985  -1.7912 H              1 S1                 0.0000
     28 ****        -2.6505  -4.4648  -2.8449 H              1 S1                 0.0000
     29 ****        -3.4449  -3.1883  -3.7636 H              1 S1                 0.0000
     30 ****        -4.2715  -3.9345  -2.4016 H              1 S1                 0.0000
     31 ****        -0.6306  -2.8330  -2.4163 H              1 S1                 0.0000
     32 ****        -1.4653  -1.6355  -3.3565 H              1 S1                 0.0000
     33 ****        -0.7251   1.1170   0.2367 H              1 S1                 0.0000
     34 ****        -1.6599   2.8705  -1.3041 H              1 S1                 0.0000
     35 ****        -0.0483   3.1166  -1.9735 H              1 S1                 0.0000
     36 ****        -0.3785   3.4808  -0.2837 H              1 S1                 0.0000
     37 ****         1.7418   1.5767  -1.3191 H              1 S1                 0.0000
     38 ****         1.5639   2.8413   0.7191 H              1 S1                 0.0000
     39 ****         1.1735   1.3409   1.5528 H              1 S1                 0.0000
     40 ****         3.3959   0.3821   0.8658 H              1 S1                 0.0000
     41 ****         3.7769   1.8627   0.0082 H              1 S1                 0.0000
     42 ****         4.8280   3.7667   1.3748 H              1 S1                 0.0000
     43 ****         5.3824   4.0778   4.0294 H              1 S1                 0.0000
     44 ****         4.0962   1.9151   5.1916 H              1 S1                 0.0000
     45 ****        -0.0030  -0.9224   0.5816 H              1 S1                 0.0000
     46 ****         0.1584  -2.4272  -0.2450 H              1 S1                 0.0000
     47 ****        -1.3548   0.0770  -3.5635 LP             1 S1                 0.0000
     48 ****        -0.9458   1.6913  -3.0875 LP             1 S1                 0.0000
     49 ****         1.4058   0.2040  -0.4981 LP             1 S1                 0.0000
     50 ****         2.9943   0.5972   3.4296 LP             1 S1                 0.0000
@<TRIPOS>BOND
    1    1    2 1     
    2    1   21 1     
    3    1   22 1     
    4    1   23 1     
    5    2   20 1     
    6    2    3 1     
    7    2   24 1     
    8    3    4 1     
    9    3   25 1     
   10    3   26 1     
   11    4    5 1     
   12    4    6 1     
   13    4   27 1     
   14    5   28 1     
   15    5   29 1     
   16    5   30 1     
   17    6    7 1     
   18    6   31 1     
   19    6   32 1     
   20    7    8 am    
   21    7   20 1     
   22    8    9 2     
   23    8   10 1     
   24   10   11 1     
   25   10   12 1     
   26   10   33 1     
   27   11   34 1     
   28   11   35 1     
   29   11   36 1     
   30   12   13 1     
   31   12   37 1     
   32   13   14 1     
   33   13   38 1     
   34   13   39 1     
   35   14   15 1     
   36   14   40 1     
   37   14   41 1     
   38   15   19 1     
   39   15   16 1     
   40   16   17 2     
   41   16   42 1     
   42   17   18 1     
   43   17   43 1     
   44   18   19 2     
   45   18   44 1     
   46   20   45 1     
   47   20   46 1     
   48    9   47 1     
   49    9   48 1     
   50   12   49 1     
   51   19   50 1     
@<TRIPOS>SUBSTRUCTURE
      1 S1             1
@<TRIPOS>SET
LONE_PAIRS      STATIC     ATOMS    <user>   **** ""
4 47 48 49 50
DONOR_HYDROGENS      STATIC     ATOMS    <user>   **** ""
1 37
ATOM$BLUE        STATIC     ATOMS    COLORGROUP SYSTEM
4 47 48 49 50
ATOM$RED        STATIC     ATOMS    COLORGROUP SYSTEM
1 37
