AV-unprocessed.smi:1265|AV-procd|sdf|5318|dock9
  -GOLD-   22720 4443D 1   1.00000     0.00000
 Structure written by MMmdl.
 45 47  0  0  0  0  0  0  0  0  2 V2000
  144.7778  136.0349  153.4604 O   0  0  0  0  0  0  0  0  0  0  0  0
  145.8872  136.0515  152.9274 C   0  0  0  0  0  0  0  0  0  0  0  0
  146.8570  136.9158  153.2576 N   0  0  0  0  0  0  0  0  0  0  0  0
  146.7648  137.9549  154.2831 C   0  0  0  0  0  0  0  0  0  0  0  0
  148.0522  138.8409  154.3642 C   0  0  2  0  0  0  0  0  0  0  0  0
  149.2729  137.9780  154.4186 N   0  0  0  0  0  0  0  0  0  0  0  0
  149.3082  136.9745  155.4924 C   0  0  0  0  0  0  0  0  0  0  0  0
  150.5597  136.0827  155.4219 C   0  0  0  0  0  0  0  0  0  0  0  0
  151.7293  136.8889  155.4573 O   0  0  0  0  0  0  0  0  0  0  0  0
  151.7698  137.8206  154.3853 C   0  0  0  0  0  0  0  0  0  0  0  0
  150.5334  138.7328  154.4451 C   0  0  0  0  0  0  0  0  0  0  0  0
  147.9091  139.7883  155.5910 C   0  0  0  0  0  0  0  0  0  0  0  0
  146.8316  140.8375  155.2965 C   0  0  0  0  0  0  0  0  0  0  0  0
  146.8866  141.1800  153.5222 S   0  0  0  0  0  0  0  0  0  0  0  0
  148.0387  139.8242  153.1657 C   0  0  0  0  0  0  0  0  0  0  0  0
  146.2992  135.2041  151.9687 N   0  0  0  0  0  0  0  0  0  0  0  0
  145.5693  134.1603  151.3380 C   0  0  0  0  0  0  0  0  0  0  0  0
  144.2054  134.0180  151.6775 C   0  0  0  0  0  0  0  0  0  0  0  0
  143.4461  132.9857  151.0901 C   0  0  0  0  0  0  0  0  0  0  0  0
  144.0286  132.1353  150.2179 N   0  3  0  0  0  0  0  0  0  0  0  0
  145.3317  132.2214  149.8743 C   0  0  0  0  0  0  0  0  0  0  0  0
  146.1411  133.2341  150.4285 C   0  0  0  0  0  0  0  0  0  0  0  0
  147.7413  136.8429  152.7760 H   0  0  0  0  0  0  0  0  0  0  0  0
  145.8886  138.5603  154.0558 H   0  0  0  0  0  0  0  0  0  0  0  0
  146.5165  137.5111  155.2469 H   0  0  0  0  0  0  0  0  0  0  0  0
  149.2763  137.4552  156.4694 H   0  0  0  0  0  0  0  0  0  0  0  0
  148.4519  136.3072  155.4326 H   0  0  0  0  0  0  0  0  0  0  0  0
  150.5785  135.3913  156.2645 H   0  0  0  0  0  0  0  0  0  0  0  0
  150.5526  135.4786  154.5134 H   0  0  0  0  0  0  0  0  0  0  0  0
  152.6812  138.4133  154.4642 H   0  0  0  0  0  0  0  0  0  0  0  0
  151.8138  137.2909  153.4323 H   0  0  0  0  0  0  0  0  0  0  0  0
  150.5992  139.4175  153.6027 H   0  0  0  0  0  0  0  0  0  0  0  0
  150.5854  139.3408  155.3490 H   0  0  0  0  0  0  0  0  0  0  0  0
  147.7117  139.2553  156.5205 H   0  0  0  0  0  0  0  0  0  0  0  0
  148.8198  140.3595  155.7557 H   0  0  0  0  0  0  0  0  0  0  0  0
  145.8411  140.4611  155.5527 H   0  0  0  0  0  0  0  0  0  0  0  0
  146.9887  141.7511  155.8703 H   0  0  0  0  0  0  0  0  0  0  0  0
  149.0141  140.2838  153.0158 H   0  0  0  0  0  0  0  0  0  0  0  0
  147.7701  139.3389  152.2268 H   0  0  0  0  0  0  0  0  0  0  0  0
  147.2681  135.2824  151.6959 H   0  0  0  0  0  0  0  0  0  0  0  0
  143.7397  134.6962  152.3782 H   0  0  0  0  0  0  0  0  0  0  0  0
  142.3990  132.8146  151.2928 H   0  0  0  0  0  0  0  0  0  0  0  0
  145.6883  131.4779  149.1763 H   0  0  0  0  0  0  0  0  0  0  0  0
  147.1848  133.2715  150.1559 H   0  0  0  0  0  0  0  0  0  0  0  0
  143.4620  131.3938  149.8051 H   0  0  0  0  0  0  0  0  0  0  0  0
  1  2  2  0  0  0  0
  2  3  1  0  0  0  0
  2 16  1  0  0  0  0
  3  4  1  0  0  0  0
  3 23  1  0  0  0  0
  4  5  1  0  0  0  0
  4 24  1  0  0  0  0
  4 25  1  0  0  0  0
  5 15  1  0  0  0  0
  5  6  1  0  0  0  0
  5 12  1  0  0  0  0
  6 11  1  0  0  0  0
  6  7  1  0  0  0  0
  7  8  1  0  0  0  0
  7 26  1  0  0  0  0
  7 27  1  0  0  0  0
  8  9  1  0  0  0  0
  8 28  1  0  0  0  0
  8 29  1  0  0  0  0
  9 10  1  0  0  0  0
 10 11  1  0  0  0  0
 10 30  1  0  0  0  0
 10 31  1  0  0  0  0
 11 32  1  0  0  0  0
 11 33  1  0  0  0  0
 12 13  1  0  0  0  0
 12 34  1  0  0  0  0
 12 35  1  0  0  0  0
 13 14  1  0  0  0  0
 13 36  1  0  0  0  0
 13 37  1  0  0  0  0
 14 15  1  0  0  0  0
 15 38  1  0  0  0  0
 15 39  1  0  0  0  0
 16 17  1  0  0  0  0
 16 40  1  0  0  0  0
 17 22  1  0  0  0  0
 17 18  2  0  0  0  0
 18 19  1  0  0  0  0
 18 41  1  0  0  0  0
 19 20  2  0  0  0  0
 19 42  1  0  0  0  0
 20 21  1  0  0  0  0
 20 45  1  0  0  0  0
 21 22  2  0  0  0  0
 21 43  1  0  0  0  0
 22 44  1  0  0  0  0
M  CHG  1  20   1
M  END
> <s_m_source_file>
AV-unprocessed.smi

> <i_m_source_file_index>
1265

> <i_lp_mmshare_version>
43012

> <i_f3d_flags>
0

> <s_epik_input>
W2NIXTFbY0hdbltjSF1bY0hdYzFbTkhdQyg9TylbTkhdW0NIMl1bQ0BdMihbQ0gyXVtDSDJdU1tDSDJdMilOM1tDSDJdW0NIMl1PW0NIMl1bQ0gyXTM=

> <s_epik_cmdline>
J2VwaWtfcHl0aG9uJywgJy1waCcsICc3LjAnLCAnLXRuJywgJzgnLCAnLW1hJywgJzIwMCcsICctbWV0YWxfYmluZGluZycsICctaW1hZScsICc8aW5maWxlLm1hZT4nLCAnLW9tYWUnLCAnPG91dGZpbGUubWFlPic=

> <r_epik_Ionization_Penalty>
1.06168

> <r_epik_Ionization_Penalty_Charging>
1.04215

> <r_epik_Ionization_Penalty_Neutral>
0.019527

> <r_epik_State_Penalty>
1.12733

> <r_epik_Charging_Adjusted_Penalty>
2.16948

> <i_epik_Tot_Q>
1

> <i_epik_Tot_abs_Q>
1

> <r_epik_Metal_State_Penalty>
1.22116

> <b_epik_Metal_Only>
0

> <s_lp_Force_Field>
OPLS_2005

> <r_lp_Energy>
64.854

> <b_lp_Chiralities_Consistent>
1

> <s_lp_Variant>
AV-unprocessed.smi:1265-4

> <Gold.Version>
5.8.1

> <Gold.Id.Protein>
6NUR|6NUR_protein|mol2

> <Gold.PLP.Fitness>
38.9589

> <Gold.PLP.PLP>
-30.3367

> <Gold.PLP.part.hbond>
-3.0000

> <Gold.PLP.part.metal>
0.0000

> <Gold.PLP.part.buried>
-2.4473

> <Gold.PLP.part.nonpolar>
-26.4167

> <Gold.PLP.part.repulsive>
0.6278

> <Gold.PLP.ligand.clash>
0.0000

> <Gold.PLP.ligand.torsion>
0.1411

> <Gold.PLP.Chemscore.Hbond>
2.9420

> <Gold.PLP.Chemscore.CHOScore>
0.0000

> <Gold.PLP.Chemscore.Metal>
0.0000

> <Gold.Chemscore.Hbonds>
donor molecule, donor type, donor heavy atom, donor atom, acceptor molecule, acceptor atom, score
      L1  H     3    23       P1  7948  1.00
      L1  H    16    40       P1  7948  0.99
      P1  H 10752 10764       L1     9  0.95

> <Gold.PLP.Chemscore.Internal.Correction>
0.0785

> <Gold.Rescore>
     Score         DG    S(hbond)    S(metal)    S(lipo)     H(rot)  DE(clash)    DE(int)     intcor
     15.46     -17.47       1.97        0.00      78.62       1.47       0.44       1.57       ----

> <Gold.Chemscore.Fitness>
15.4587

> <Gold.Chemscore.DG>
-17.4730

> <Gold.Chemscore.ZeroCoef>
-5.4800

> <Gold.Chemscore.Hbond>
1.9668

> <Gold.Chemscore.Metal>
0.0000

> <Gold.Chemscore.Lipo>
78.6179

> <Gold.Chemscore.Internal_Hbond>
0.0000

> <Gold.Chemscore.DEClash>
0.4435

> <Gold.Chemscore.DEInternal>
1.5708

> <Gold.Chemscore.Rot>
1.4743

> <Gold.Chemscore.Internal.Correction>
   9.000000E+99

> <Gold.Chemscore.Hbonds>
donor molecule, donor type, donor heavy atom, donor atom, acceptor molecule, acceptor atom, score
      L1  H     3    23       P1  7948  0.99
      L1  H    16    40       P1  7948  0.90
      P1  H 10752 10764       L1     9  0.09

> <Gold.Chemscore.Hbond.Weighted>
-6.5690

> <Gold.Chemscore.Metal.Weighted>
-0.0000

> <Gold.Chemscore.Lipo.Weighted>
-9.1983

> <Gold.Chemscore.Internal_Hbond.Weighted>
0.0000

> <Gold.Chemscore.DEClash.Weighted>
0.4435

> <Gold.Chemscore.DEInternal.Weighted>
1.5708

> <Gold.Chemscore.Rot.Weighted>
3.7742

> <Gold.Chemscore.Internal.Correction.Weighted>
   9.000000E+99

> <Gold.Protein.RotatedTorsions>
[ 6907 6896 6895 6894 ] final   89.38 input  -60.11 | X-H torsion
[ 7974 7965 7964 7962 ] final   98.03 input  175.53 | X-H torsion
[ 8008 7997 7996 7995 ] final   61.90 input   59.86 | X-H torsion
[ 10167 10162 10161 10158 ] final  -57.62 input  -65.29 | X-H torsion
[ 10718 10713 10712 10709 ] final  -80.07 input   66.30 | X-H torsion
[ 10763 10752 10751 10750 ] final  -35.74 input  -60.55 | X-H torsion
[ 11005 11000 10999 10996 ] final  -11.22 input  -57.11 | X-H torsion

> <Gold.Protein.ActiveResidues>
 VAL166  LYS551  ARG553  GLY616  TRP617  ASP618  TYR619  PRO620  LYS621  CYS622 
 ASP623  PHE694  ASN695  SER759  ASP760  ASP761  ALA762  ILE779  LEU786  VAL792 
 PHE793  MET794  SER795  GLU796  ALA797  LYS798  CYS799  TRP800  GLU811  SER814 

> <Gold.Protein.RotatedAtoms>
  152.5435  134.1976  159.8698 H   0  0  0  0  0  0  0  0  0  0  0  0  # atno 6907 bound_to 6896
  151.1967  133.4628  159.2603 H   0  0  0  0  0  0  0  0  0  0  0  0  # atno 6908 bound_to 6896
  151.1030  134.9995  159.8513 H   0  0  0  0  0  0  0  0  0  0  0  0  # atno 6909 bound_to 6896
  145.4176  139.2325  143.3214 H   0  0  0  0  0  0  0  0  0  0  0  0  # atno 7974 bound_to 7965
  155.6058  140.3494  155.4607 H   0  0  0  0  0  0  0  0  0  0  0  0  # atno 8008 bound_to 7997
  156.0193  140.1250  157.0398 H   0  0  0  0  0  0  0  0  0  0  0  0  # atno 8009 bound_to 7997
  154.4309  140.1066  156.5926 H   0  0  0  0  0  0  0  0  0  0  0  0  # atno 8010 bound_to 7997
  140.6247  143.2433  151.5394 H   0  0  0  0  0  0  0  0  0  0  0  0  # atno 10167 bound_to 10162
  156.0078  130.4564  150.3744 H   0  0  0  0  0  0  0  0  0  0  0  0  # atno 10718 bound_to 10713
  153.8682  135.6833  153.4776 H   0  0  0  0  0  0  0  0  0  0  0  0  # atno 10763 bound_to 10752
  153.1302  135.4701  154.9335 H   0  0  0  0  0  0  0  0  0  0  0  0  # atno 10764 bound_to 10752
  154.7727  135.3243  154.8107 H   0  0  0  0  0  0  0  0  0  0  0  0  # atno 10765 bound_to 10752
  140.7530  133.8576  155.9061 H   0  0  0  0  0  0  0  0  0  0  0  0  # atno 11005 bound_to 11000
  146.2673  140.4896  142.8829 LP  0  0  0  0  0  0  0  0  0  0  0  0  # atno 17320 bound_to 7965
  144.8267  140.6640  143.6318 LP  0  0  0  0  0  0  0  0  0  0  0  0  # atno 17321 bound_to 7965
  139.5469  144.2497  152.1459 LP  0  0  0  0  0  0  0  0  0  0  0  0  # atno 17342 bound_to 10162
  140.1726  144.4921  150.6571 LP  0  0  0  0  0  0  0  0  0  0  0  0  # atno 17343 bound_to 10162
  157.1827  131.0396  151.2740 LP  0  0  0  0  0  0  0  0  0  0  0  0  # atno 17370 bound_to 10713
  157.4131  130.7396  149.6854 LP  0  0  0  0  0  0  0  0  0  0  0  0  # atno 17371 bound_to 10713
  140.9733  134.1502  157.4558 LP  0  0  0  0  0  0  0  0  0  0  0  0  # atno 17394 bound_to 11000
  139.8784  134.9986  156.5908 LP  0  0  0  0  0  0  0  0  0  0  0  0  # atno 17395 bound_to 11000

$$$$
