AV-unprocessed.smi:134|AV-procd|sdf|1167|dock1
  -GOLD-   2262018313D 1   1.00000     0.00000
 Structure written by MMmdl.
 51 54  0  0  0  0  0  0  0  0  1 V2000
  147.7627  139.1560  155.3258 O   0  0  0  0  0  0  0  0  0  0  0  0
  148.3095  138.5975  154.3736 C   0  0  0  0  0  0  0  0  0  0  0  0
  149.8412  138.4934  154.3026 C   0  0  0  0  0  0  0  0  0  0  0  0
  150.5168  138.8977  155.5555 N   0  0  0  0  0  0  0  0  0  0  0  0
  151.4150  137.9849  156.1619 C   0  0  0  0  0  0  0  0  0  0  0  0
  151.6160  136.8699  155.6788 O   0  0  0  0  0  0  0  0  0  0  0  0
  152.0768  138.4618  157.3700 C   0  0  0  0  0  0  0  0  0  0  0  0
  152.9578  137.6692  158.0039 F   0  0  0  0  0  0  0  0  0  0  0  0
  151.8215  139.6914  157.8615 C   0  0  0  0  0  0  0  0  0  0  0  0
  150.9274  140.5655  157.2746 N   0  0  0  0  0  0  0  0  0  0  0  0
  150.7490  141.9422  157.8778 C   0  0  2  0  0  0  0  0  0  0  0  0
  151.3785  143.0700  157.0464 C   0  0  0  0  0  0  0  0  0  0  0  0
  151.8424  144.0123  158.1357 C   0  0  0  0  0  0  0  0  0  0  0  0
  152.2591  143.0426  159.2366 C   0  0  0  0  0  0  0  0  0  0  0  0
  151.3296  141.9655  159.1498 O   0  0  0  0  0  0  0  0  0  0  0  0
  150.2725  140.1911  156.0774 C   0  0  0  0  0  0  0  0  0  0  0  0
  149.5161  140.9689  155.4946 O   0  0  0  0  0  0  0  0  0  0  0  0
  147.6493  138.0515  153.3374 N   0  0  0  0  0  0  0  0  0  0  0  0
  146.2456  138.0325  153.1146 C   0  0  0  0  0  0  0  0  0  0  0  0
  145.3311  138.5415  154.0681 C   0  0  0  0  0  0  0  0  0  0  0  0
  143.9451  138.4885  153.8265 C   0  0  0  0  0  0  0  0  0  0  0  0
  143.4577  137.9182  152.6363 C   0  0  0  0  0  0  0  0  0  0  0  0
  144.3573  137.3941  151.6899 C   0  0  0  0  0  0  0  0  0  0  0  0
  145.7457  137.4445  151.9267 C   0  0  0  0  0  0  0  0  0  0  0  0
  146.8386  136.7798  150.7049 S   0  0  0  0  0  0  0  0  0  0  0  0
  146.3689  135.0821  150.7606 C   0  0  0  0  0  0  0  0  0  0  0  0
  147.1893  134.1462  151.4209 C   0  0  0  0  0  0  0  0  0  0  0  0
  146.8052  132.7920  151.4747 C   0  0  0  0  0  0  0  0  0  0  0  0
  145.6038  132.3748  150.8677 C   0  0  0  0  0  0  0  0  0  0  0  0
  145.1324  130.7167  150.9364 Cl  0  0  0  0  0  0  0  0  0  0  0  0
  144.7873  133.3116  150.2040 C   0  0  0  0  0  0  0  0  0  0  0  0
  145.1703  134.6656  150.1486 C   0  0  0  0  0  0  0  0  0  0  0  0
  150.0997  137.4709  154.0238 H   0  0  0  0  0  0  0  0  0  0  0  0
  150.1998  139.0922  153.4635 H   0  0  0  0  0  0  0  0  0  0  0  0
  152.3432  139.9965  158.7570 H   0  0  0  0  0  0  0  0  0  0  0  0
  149.6740  142.0820  157.9976 H   0  0  0  0  0  0  0  0  0  0  0  0
  152.2252  142.7152  156.4609 H   0  0  0  0  0  0  0  0  0  0  0  0
  150.6466  143.5116  156.3699 H   0  0  0  0  0  0  0  0  0  0  0  0
  152.6509  144.6712  157.8181 H   0  0  0  0  0  0  0  0  0  0  0  0
  151.0101  144.6297  158.4762 H   0  0  0  0  0  0  0  0  0  0  0  0
  153.2668  142.6680  159.0556 H   0  0  0  0  0  0  0  0  0  0  0  0
  152.2446  143.5014  160.2254 H   0  0  0  0  0  0  0  0  0  0  0  0
  148.2172  137.7194  152.5713 H   0  0  0  0  0  0  0  0  0  0  0  0
  145.6775  138.9669  154.9981 H   0  0  0  0  0  0  0  0  0  0  0  0
  143.2554  138.8819  154.5586 H   0  0  0  0  0  0  0  0  0  0  0  0
  142.3943  137.8777  152.4518 H   0  0  0  0  0  0  0  0  0  0  0  0
  143.9791  136.9535  150.7791 H   0  0  0  0  0  0  0  0  0  0  0  0
  148.1085  134.4643  151.8907 H   0  0  0  0  0  0  0  0  0  0  0  0
  147.4325  132.0748  151.9833 H   0  0  0  0  0  0  0  0  0  0  0  0
  143.8667  132.9933  149.7376 H   0  0  0  0  0  0  0  0  0  0  0  0
  144.5426  135.3806  149.6385 H   0  0  0  0  0  0  0  0  0  0  0  0
  1  2  2  0  0  0  0
  2  3  1  0  0  0  0
  2 18  1  0  0  0  0
  3  4  1  0  0  0  0
  3 33  1  0  0  0  0
  3 34  1  0  0  0  0
  4 16  1  0  0  0  0
  4  5  1  0  0  0  0
  5  6  2  0  0  0  0
  5  7  1  0  0  0  0
  7  8  1  0  0  0  0
  7  9  2  0  0  0  0
  9 10  1  0  0  0  0
  9 35  1  0  0  0  0
 10 11  1  0  0  0  0
 10 16  1  0  0  0  0
 11 15  1  0  0  0  0
 11 12  1  0  0  0  0
 11 36  1  0  0  0  0
 12 13  1  0  0  0  0
 12 37  1  0  0  0  0
 12 38  1  0  0  0  0
 13 14  1  0  0  0  0
 13 39  1  0  0  0  0
 13 40  1  0  0  0  0
 14 15  1  0  0  0  0
 14 41  1  0  0  0  0
 14 42  1  0  0  0  0
 16 17  2  0  0  0  0
 18 19  1  0  0  0  0
 18 43  1  0  0  0  0
 19 24  1  0  0  0  0
 19 20  2  0  0  0  0
 20 21  1  0  0  0  0
 20 44  1  0  0  0  0
 21 22  2  0  0  0  0
 21 45  1  0  0  0  0
 22 23  1  0  0  0  0
 22 46  1  0  0  0  0
 23 24  2  0  0  0  0
 23 47  1  0  0  0  0
 24 25  1  0  0  0  0
 25 26  1  0  0  0  0
 26 32  1  0  0  0  0
 26 27  2  0  0  0  0
 27 28  1  0  0  0  0
 27 48  1  0  0  0  0
 28 29  2  0  0  0  0
 28 49  1  0  0  0  0
 29 30  1  0  0  0  0
 29 31  1  0  0  0  0
 31 32  2  0  0  0  0
 31 50  1  0  0  0  0
 32 51  1  0  0  0  0
M  END
> <s_m_source_file>
AV-unprocessed.smi

> <i_m_source_file_index>
134

> <i_lp_mmshare_version>
43012

> <i_f3d_flags>
0

> <s_epik_input>
TzFbQ0gyXVtDSDJdW0NIMl1bQ0BIXTFuKGMyPU8pW2NIXWMoRiljKD1PKW4yW0NIMl1DKD1PKVtOSF1jM1tjSF1bY0hdW2NIXVtjSF1jM1NjNFtjSF1bY0hdYyhDbClbY0hdW2NIXTQ=

> <s_epik_cmdline>
J2VwaWtfcHl0aG9uJywgJy1waCcsICc3LjAnLCAnLXRuJywgJzgnLCAnLW1hJywgJzIwMCcsICctbWV0YWxfYmluZGluZycsICctaW1hZScsICc8aW5maWxlLm1hZT4nLCAnLW9tYWUnLCAnPG91dGZpbGUubWFlPic=

> <r_lp_tautomer_probability>
1

> <r_epik_Ionization_Penalty>
2.01717e-06

> <r_epik_Ionization_Penalty_Charging>
3.88729e-08

> <r_epik_Ionization_Penalty_Neutral>
1.9783e-06

> <r_epik_State_Penalty>
-0

> <r_epik_Charging_Adjusted_Penalty>
3.88729e-08

> <i_epik_Tot_Q>
0

> <i_epik_Tot_abs_Q>
0

> <r_epik_Metal_State_Penalty>
-0

> <b_epik_Metal_Only>
0

> <s_epik_Chemistry_Notes>
This compound contains an acetal/aminal-like group ( X-CH(R)-Y where X, Y are N, S, or O) that may be acid/base labile, releasing an aldehyde.

> <s_lp_Force_Field>
OPLS_2005

> <r_lp_Energy>
29.8469

> <b_lp_Chiralities_Consistent>
1

> <s_lp_Variant>
AV-unprocessed.smi:134-1

> <Gold.Version>
5.8.1

> <Gold.Id.Protein>
6NUR|6NUR_protein|mol2

> <Gold.PLP.Fitness>
52.6559

> <Gold.PLP.PLP>
-48.6745

> <Gold.PLP.part.hbond>
-2.0000

> <Gold.PLP.part.metal>
0.0000

> <Gold.PLP.part.buried>
-0.9044

> <Gold.PLP.part.nonpolar>
-46.8731

> <Gold.PLP.part.repulsive>
0.2258

> <Gold.PLP.ligand.clash>
0.0000

> <Gold.PLP.ligand.torsion>
0.5785

> <Gold.PLP.Chemscore.Hbond>
1.7030

> <Gold.PLP.Chemscore.CHOScore>
0.0000

> <Gold.PLP.Chemscore.Metal>
0.0000

> <Gold.Chemscore.Hbonds>
donor molecule, donor type, donor heavy atom, donor atom, acceptor molecule, acceptor atom, score
      L1  H    18    43       P1  7948  0.90
      P1  H 10752 10765       L1     6  0.83

> <Gold.PLP.Chemscore.Internal.Correction>
0.0292

> <Gold.Rescore>
     Score         DG    S(hbond)    S(metal)    S(lipo)     H(rot)  DE(clash)    DE(int)     intcor
     13.43     -20.33       1.74        0.00     120.02       1.95       0.05       6.85       ----

> <Gold.Chemscore.Fitness>
13.4275

> <Gold.Chemscore.DG>
-20.3285

> <Gold.Chemscore.ZeroCoef>
-5.4800

> <Gold.Chemscore.Hbond>
1.7397

> <Gold.Chemscore.Metal>
0.0000

> <Gold.Chemscore.Lipo>
120.0216

> <Gold.Chemscore.Internal_Hbond>
0.0000

> <Gold.Chemscore.DEClash>
0.0505

> <Gold.Chemscore.DEInternal>
6.8505

> <Gold.Chemscore.Rot>
1.9549

> <Gold.Chemscore.Internal.Correction>
   9.000000E+99

> <Gold.Chemscore.Hbonds>
donor molecule, donor type, donor heavy atom, donor atom, acceptor molecule, acceptor atom, score
      L1  H    18    43       P1  7948  0.87
      P1  H 10752 10765       L1     6  0.80

> <Gold.Chemscore.Hbond.Weighted>
-5.8106

> <Gold.Chemscore.Metal.Weighted>
-0.0000

> <Gold.Chemscore.Lipo.Weighted>
-14.0425

> <Gold.Chemscore.Internal_Hbond.Weighted>
0.0000

> <Gold.Chemscore.DEClash.Weighted>
0.0505

> <Gold.Chemscore.DEInternal.Weighted>
6.8505

> <Gold.Chemscore.Rot.Weighted>
5.0046

> <Gold.Chemscore.Internal.Correction.Weighted>
   9.000000E+99

> <Gold.Protein.RotatedTorsions>
[ 6907 6896 6895 6894 ] final  -30.90 input  -60.11 | X-H torsion
[ 7974 7965 7964 7962 ] final  131.55 input  175.53 | X-H torsion
[ 8008 7997 7996 7995 ] final  -91.57 input   59.86 | X-H torsion
[ 10167 10162 10161 10158 ] final  155.71 input  -65.29 | X-H torsion
[ 10718 10713 10712 10709 ] final  -83.73 input   66.30 | X-H torsion
[ 10763 10752 10751 10750 ] final -170.82 input  -60.55 | X-H torsion
[ 11005 11000 10999 10996 ] final  -14.88 input  -57.11 | X-H torsion

> <Gold.Protein.ActiveResidues>
 VAL166  LYS551  ARG553  GLY616  TRP617  ASP618  TYR619  PRO620  LYS621  CYS622 
 ASP623  PHE694  ASN695  SER759  ASP760  ASP761  ALA762  ILE779  LEU786  VAL792 
 PHE793  MET794  SER795  GLU796  ALA797  LYS798  CYS799  TRP800  GLU811  SER814 

> <Gold.Protein.RotatedAtoms>
  151.0994  134.9963  159.8440 H   0  0  0  0  0  0  0  0  0  0  0  0  # atno 6907 bound_to 6896
  152.5435  134.1969  159.8706 H   0  0  0  0  0  0  0  0  0  0  0  0  # atno 6908 bound_to 6896
  151.2011  133.4566  159.2629 H   0  0  0  0  0  0  0  0  0  0  0  0  # atno 6909 bound_to 6896
  145.0062  139.4264  143.5268 H   0  0  0  0  0  0  0  0  0  0  0  0  # atno 7974 bound_to 7965
  154.7123  140.0518  157.0562 H   0  0  0  0  0  0  0  0  0  0  0  0  # atno 8008 bound_to 7997
  155.0538  140.3182  155.4664 H   0  0  0  0  0  0  0  0  0  0  0  0  # atno 8009 bound_to 7997
  156.2793  140.2111  156.5664 H   0  0  0  0  0  0  0  0  0  0  0  0  # atno 8010 bound_to 7997
  139.4821  144.5074  151.8076 H   0  0  0  0  0  0  0  0  0  0  0  0  # atno 10167 bound_to 10162
  156.0015  130.4675  150.4301 H   0  0  0  0  0  0  0  0  0  0  0  0  # atno 10718 bound_to 10713
  154.6373  135.2894  155.0146 H   0  0  0  0  0  0  0  0  0  0  0  0  # atno 10763 bound_to 10752
  154.1285  135.6537  153.4921 H   0  0  0  0  0  0  0  0  0  0  0  0  # atno 10764 bound_to 10752
  153.0309  135.5304  154.7225 H   0  0  0  0  0  0  0  0  0  0  0  0  # atno 10765 bound_to 10752
  140.7910  133.8288  155.9379 H   0  0  0  0  0  0  0  0  0  0  0  0  # atno 11005 bound_to 11000
  146.3461  139.9479  142.8732 LP  0  0  0  0  0  0  0  0  0  0  0  0  # atno 17320 bound_to 7965
  145.2086  140.9886  143.4114 LP  0  0  0  0  0  0  0  0  0  0  0  0  # atno 17321 bound_to 7965
  140.4574  144.1771  150.5903 LP  0  0  0  0  0  0  0  0  0  0  0  0  # atno 17342 bound_to 10162
  140.4521  143.2482  151.9333 LP  0  0  0  0  0  0  0  0  0  0  0  0  # atno 17343 bound_to 10162
  157.2351  131.0513  151.2469 LP  0  0  0  0  0  0  0  0  0  0  0  0  # atno 17370 bound_to 10713
  157.3674  130.7163  149.6542 LP  0  0  0  0  0  0  0  0  0  0  0  0  # atno 17371 bound_to 10713
  140.9389  134.1926  157.4811 LP  0  0  0  0  0  0  0  0  0  0  0  0  # atno 17394 bound_to 11000
  139.8731  134.9864  156.5322 LP  0  0  0  0  0  0  0  0  0  0  0  0  # atno 17395 bound_to 11000

$$$$
