AV-unprocessed.smi:197|AV-procd|sdf|1544|dock4
  -GOLD-   2262019403D 1   1.00000     0.00000
 Structure written by MMmdl.
 54 57  0  0  0  0  0  0  0  0  1 V2000
  143.4958  132.5926  150.7896 C   0  0  0  0  0  0  0  0  0  0  0  0
  144.3747  131.5253  150.4836 O   0  0  0  0  0  0  0  0  0  0  0  0
  145.7397  131.8945  150.5921 C   0  0  0  0  0  0  0  0  0  0  0  0
  146.0326  132.3211  152.0382 C   0  0  0  0  0  0  0  0  0  0  0  0
  147.1932  131.5410  152.7112 C   0  0  2  0  0  0  0  0  0  0  0  0
  146.9364  130.0156  152.6771 C   0  0  0  0  0  0  0  0  0  0  0  0
  147.9951  129.3162  153.3212 O   0  0  0  0  0  0  0  0  0  0  0  0
  148.1089  129.6725  154.6920 C   0  0  0  0  0  0  0  0  0  0  0  0
  148.4301  131.1692  154.7938 C   0  0  0  0  0  0  0  0  0  0  0  0
  147.4126  131.9539  154.1040 N   0  0  0  0  0  0  0  0  0  0  0  0
  147.5935  133.2739  154.3402 C   0  0  0  0  0  0  0  0  0  0  0  0
  146.5418  134.0908  154.0861 N   0  0  0  0  0  0  0  0  0  0  0  0
  146.6529  135.4069  154.2891 C   0  0  0  0  0  0  0  0  0  0  0  0
  147.7038  136.0971  154.7372 N   0  0  0  0  0  0  0  0  0  0  0  0
  148.7583  135.2760  155.0100 C   0  0  0  0  0  0  0  0  0  0  0  0
  148.7900  133.8626  154.8423 C   0  0  0  0  0  0  0  0  0  0  0  0
  150.0326  133.3702  155.2232 N   0  0  0  0  0  0  0  0  0  0  0  0
  150.7012  134.4319  155.5806 C   0  0  0  0  0  0  0  0  0  0  0  0
  150.0085  135.6182  155.4958 N   0  0  0  0  0  0  0  0  0  0  0  0
  150.5096  136.9432  155.8268 C   0  0  0  0  0  0  0  0  0  0  0  0
  151.0902  137.7262  154.6165 C   0  0  1  0  0  0  0  0  0  0  0  0
  151.8548  136.8544  153.8057 O   0  0  0  0  0  0  0  0  0  0  0  0
  150.0333  138.4056  153.7538 C   0  0  0  0  0  0  0  0  0  0  0  0
  149.7704  139.7050  154.5094 C   0  0  0  0  0  0  0  0  0  0  0  0
  150.9879  140.0151  155.1823 O   0  0  0  0  0  0  0  0  0  0  0  0
  151.9274  138.9571  155.0122 C   0  0  1  0  0  0  0  0  0  0  0  0
  152.8227  138.8157  156.2523 C   0  0  0  0  0  0  0  0  0  0  0  0
  142.4640  132.2605  150.6749 H   0  0  0  0  0  0  0  0  0  0  0  0
  143.6536  133.4395  150.1206 H   0  0  0  0  0  0  0  0  0  0  0  0
  143.6289  132.9289  151.8186 H   0  0  0  0  0  0  0  0  0  0  0  0
  146.3677  131.0410  150.3330 H   0  0  0  0  0  0  0  0  0  0  0  0
  145.9824  132.6905  149.8882 H   0  0  0  0  0  0  0  0  0  0  0  0
  146.2459  133.3895  152.0148 H   0  0  0  0  0  0  0  0  0  0  0  0
  145.1282  132.2134  152.6381 H   0  0  0  0  0  0  0  0  0  0  0  0
  148.1118  131.7285  152.1560 H   0  0  0  0  0  0  0  0  0  0  0  0
  145.9853  129.7676  153.1516 H   0  0  0  0  0  0  0  0  0  0  0  0
  146.8828  129.6541  151.6511 H   0  0  0  0  0  0  0  0  0  0  0  0
  147.1864  129.4328  155.2235 H   0  0  0  0  0  0  0  0  0  0  0  0
  148.9046  129.0841  155.1490 H   0  0  0  0  0  0  0  0  0  0  0  0
  148.4849  131.4625  155.8433 H   0  0  0  0  0  0  0  0  0  0  0  0
  149.4071  131.3706  154.3515 H   0  0  0  0  0  0  0  0  0  0  0  0
  145.7741  135.9912  154.0594 H   0  0  0  0  0  0  0  0  0  0  0  0
  151.7234  134.3776  155.9264 H   0  0  0  0  0  0  0  0  0  0  0  0
  149.6930  137.5041  156.2832 H   0  0  0  0  0  0  0  0  0  0  0  0
  151.2673  136.8284  156.6029 H   0  0  0  0  0  0  0  0  0  0  0  0
  151.4114  136.7463  152.9783 H   0  0  0  0  0  0  0  0  0  0  0  0
  150.4465  138.6484  152.7732 H   0  0  0  0  0  0  0  0  0  0  0  0
  149.1323  137.8180  153.5836 H   0  0  0  0  0  0  0  0  0  0  0  0
  149.4660  140.5144  153.8454 H   0  0  0  0  0  0  0  0  0  0  0  0
  148.9855  139.5650  155.2534 H   0  0  0  0  0  0  0  0  0  0  0  0
  152.5544  139.2426  154.1651 H   0  0  0  0  0  0  0  0  0  0  0  0
  153.5188  137.9842  156.1394 H   0  0  0  0  0  0  0  0  0  0  0  0
  152.2390  138.6482  157.1573 H   0  0  0  0  0  0  0  0  0  0  0  0
  153.4106  139.7205  156.4070 H   0  0  0  0  0  0  0  0  0  0  0  0
  1  2  1  0  0  0  0
  1 28  1  0  0  0  0
  1 29  1  0  0  0  0
  1 30  1  0  0  0  0
  2  3  1  0  0  0  0
  3  4  1  0  0  0  0
  3 31  1  0  0  0  0
  3 32  1  0  0  0  0
  4  5  1  0  0  0  0
  4 33  1  0  0  0  0
  4 34  1  0  0  0  0
  5 10  1  0  0  0  0
  5  6  1  0  0  0  0
  5 35  1  0  0  0  0
  6  7  1  0  0  0  0
  6 36  1  0  0  0  0
  6 37  1  0  0  0  0
  7  8  1  0  0  0  0
  8  9  1  0  0  0  0
  8 38  1  0  0  0  0
  8 39  1  0  0  0  0
  9 10  1  0  0  0  0
  9 40  1  0  0  0  0
  9 41  1  0  0  0  0
 10 11  1  0  0  0  0
 11 16  1  0  0  0  0
 11 12  2  0  0  0  0
 12 13  1  0  0  0  0
 13 14  2  0  0  0  0
 13 42  1  0  0  0  0
 14 15  1  0  0  0  0
 15 19  1  0  0  0  0
 15 16  2  0  0  0  0
 16 17  1  0  0  0  0
 17 18  2  0  0  0  0
 18 19  1  0  0  0  0
 18 43  1  0  0  0  0
 19 20  1  0  0  0  0
 20 21  1  0  0  0  0
 20 44  1  0  0  0  0
 20 45  1  0  0  0  0
 21 26  1  0  0  0  0
 21 22  1  0  0  0  0
 21 23  1  0  0  0  0
 22 46  1  0  0  0  0
 23 24  1  0  0  0  0
 23 47  1  0  0  0  0
 23 48  1  0  0  0  0
 24 25  1  0  0  0  0
 24 49  1  0  0  0  0
 24 50  1  0  0  0  0
 25 26  1  0  0  0  0
 26 27  1  0  0  0  0
 26 51  1  0  0  0  0
 27 52  1  0  0  0  0
 27 53  1  0  0  0  0
 27 54  1  0  0  0  0
M  END
> <s_m_source_file>
AV-unprocessed.smi

> <i_m_source_file_index>
197

> <i_lp_mmshare_version>
43012

> <i_f3d_flags>
0

> <s_epik_input>
W0NIM11PW0NIMl1bQ0gyXVtDQEBIXTFbQ0gyXU9bQ0gyXVtDSDJdTjFjKG5bY0hdbjIpYyhjMjMpbltjSF1uM1tDSDJdW0NAQF00KFtPSF0pW0NIMl1bQ0gyXU9bQ0BIXTRbQ0gzXQ==

> <s_epik_cmdline>
J2VwaWtfcHl0aG9uJywgJy1waCcsICc3LjAnLCAnLXRuJywgJzgnLCAnLW1hJywgJzIwMCcsICctbWV0YWxfYmluZGluZycsICctaW1hZScsICc8aW5maWxlLm1hZT4nLCAnLW9tYWUnLCAnPG91dGZpbGUubWFlPic=

> <r_lp_tautomer_probability>
1

> <r_epik_Ionization_Penalty>
0.000106218

> <r_epik_Ionization_Penalty_Charging>
0

> <r_epik_Ionization_Penalty_Neutral>
0.000106218

> <r_epik_State_Penalty>
-0

> <r_epik_Charging_Adjusted_Penalty>
0

> <i_epik_Tot_Q>
0

> <i_epik_Tot_abs_Q>
0

> <r_epik_Metal_State_Penalty>
-0

> <b_epik_Metal_Only>
0

> <s_lp_Force_Field>
OPLS_2005

> <r_lp_Energy>
43.403

> <b_lp_Chiralities_Consistent>
1

> <s_lp_Variant>
AV-unprocessed.smi:197-1

> <Gold.Version>
5.8.1

> <Gold.Id.Protein>
6NUR|6NUR_protein|mol2

> <Gold.PLP.Fitness>
38.9977

> <Gold.PLP.PLP>
-35.6323

> <Gold.PLP.part.hbond>
-3.3223

> <Gold.PLP.part.metal>
0.0000

> <Gold.PLP.part.buried>
-1.3586

> <Gold.PLP.part.nonpolar>
-31.9325

> <Gold.PLP.part.repulsive>
0.5532

> <Gold.PLP.ligand.clash>
1.1660

> <Gold.PLP.ligand.torsion>
1.2253

> <Gold.PLP.Chemscore.Hbond>
2.2250

> <Gold.PLP.Chemscore.CHOScore>
0.0000

> <Gold.PLP.Chemscore.Metal>
0.0000

> <Gold.Chemscore.Hbonds>
donor molecule, donor type, donor heavy atom, donor atom, acceptor molecule, acceptor atom, score
      L1  H    22    46       P1  7949  1.00
      P1  H  7989  7998       L1    25  0.22
      P1  H 10752 10763       L1    22  1.00

> <Gold.PLP.Chemscore.Internal.Correction>
0.3069

> <Gold.Rescore>
     Score         DG    S(hbond)    S(metal)    S(lipo)     H(rot)  DE(clash)    DE(int)     intcor
     10.31     -14.89       1.77        0.00      91.99       2.84       0.41       4.17       ----

> <Gold.Chemscore.Fitness>
10.3090

> <Gold.Chemscore.DG>
-14.8875

> <Gold.Chemscore.ZeroCoef>
-5.4800

> <Gold.Chemscore.Hbond>
1.7676

> <Gold.Chemscore.Metal>
0.0000

> <Gold.Chemscore.Lipo>
91.9922

> <Gold.Chemscore.Internal_Hbond>
0.0000

> <Gold.Chemscore.DEClash>
0.4058

> <Gold.Chemscore.DEInternal>
4.1727

> <Gold.Chemscore.Rot>
2.8358

> <Gold.Chemscore.Internal.Correction>
   9.000000E+99

> <Gold.Chemscore.Hbonds>
donor molecule, donor type, donor heavy atom, donor atom, acceptor molecule, acceptor atom, score
      L1  H    22    46       P1  7949  0.83
      P1  H 10752 10763       L1    22  0.78

> <Gold.Chemscore.Hbond.Weighted>
-5.9039

> <Gold.Chemscore.Metal.Weighted>
-0.0000

> <Gold.Chemscore.Lipo.Weighted>
-10.7631

> <Gold.Chemscore.Internal_Hbond.Weighted>
0.0000

> <Gold.Chemscore.DEClash.Weighted>
0.4058

> <Gold.Chemscore.DEInternal.Weighted>
4.1727

> <Gold.Chemscore.Rot.Weighted>
7.2596

> <Gold.Chemscore.Internal.Correction.Weighted>
   9.000000E+99

> <Gold.Protein.RotatedTorsions>
[ 6907 6896 6895 6894 ] final -149.68 input  -60.11 | X-H torsion
[ 7974 7965 7964 7962 ] final   73.93 input  175.53 | X-H torsion
[ 8008 7997 7996 7995 ] final  155.99 input   59.86 | X-H torsion
[ 10167 10162 10161 10158 ] final  -79.24 input  -65.29 | X-H torsion
[ 10718 10713 10712 10709 ] final -114.95 input   66.30 | X-H torsion
[ 10763 10752 10751 10750 ] final   24.21 input  -60.55 | X-H torsion
[ 11005 11000 10999 10996 ] final  119.21 input  -57.11 | X-H torsion

> <Gold.Protein.ActiveResidues>
 VAL166  LYS551  ARG553  GLY616  TRP617  ASP618  TYR619  PRO620  LYS621  CYS622 
 ASP623  PHE694  ASN695  SER759  ASP760  ASP761  ALA762  ILE779  LEU786  VAL792 
 PHE793  MET794  SER795  GLU796  ALA797  LYS798  CYS799  TRP800  GLU811  SER814 

> <Gold.Protein.RotatedAtoms>
  151.1877  133.4686  159.2594 H   0  0  0  0  0  0  0  0  0  0  0  0  # atno 6907 bound_to 6896
  151.1195  135.0071  159.8542 H   0  0  0  0  0  0  0  0  0  0  0  0  # atno 6908 bound_to 6896
  152.5455  134.1789  159.8680 H   0  0  0  0  0  0  0  0  0  0  0  0  # atno 6909 bound_to 6896
  145.7346  139.2697  143.1521 H   0  0  0  0  0  0  0  0  0  0  0  0  # atno 7974 bound_to 7965
  156.2448  140.1924  156.6886 H   0  0  0  0  0  0  0  0  0  0  0  0  # atno 8008 bound_to 7997
  154.6268  140.0601  156.9710 H   0  0  0  0  0  0  0  0  0  0  0  0  # atno 8009 bound_to 7997
  155.1773  140.3273  155.4384 H   0  0  0  0  0  0  0  0  0  0  0  0  # atno 8010 bound_to 7997
  140.4611  143.2453  151.8347 H   0  0  0  0  0  0  0  0  0  0  0  0  # atno 10167 bound_to 10162
  156.0863  130.6054  150.8841 H   0  0  0  0  0  0  0  0  0  0  0  0  # atno 10718 bound_to 10713
  153.0780  135.6610  154.0104 H   0  0  0  0  0  0  0  0  0  0  0  0  # atno 10763 bound_to 10752
  153.9733  135.2962  155.3427 H   0  0  0  0  0  0  0  0  0  0  0  0  # atno 10764 bound_to 10752
  154.7173  135.5179  153.8829 H   0  0  0  0  0  0  0  0  0  0  0  0  # atno 10765 bound_to 10752
  139.9138  134.9627  156.7621 H   0  0  0  0  0  0  0  0  0  0  0  0  # atno 11005 bound_to 11000
  146.0505  140.8074  142.9784 LP  0  0  0  0  0  0  0  0  0  0  0  0  # atno 17320 bound_to 7965
  144.6885  140.3046  143.7258 LP  0  0  0  0  0  0  0  0  0  0  0  0  # atno 17321 bound_to 7965
  139.4806  144.5006  151.9065 LP  0  0  0  0  0  0  0  0  0  0  0  0  # atno 17342 bound_to 10162
  140.4092  144.2391  150.5889 LP  0  0  0  0  0  0  0  0  0  0  0  0  # atno 17343 bound_to 10162
  157.5998  131.0941  150.8979 LP  0  0  0  0  0  0  0  0  0  0  0  0  # atno 17370 bound_to 10713
  156.9138  130.5290  149.5280 LP  0  0  0  0  0  0  0  0  0  0  0  0  # atno 17371 bound_to 10713
  140.6689  133.9578  155.7845 LP  0  0  0  0  0  0  0  0  0  0  0  0  # atno 17394 bound_to 11000
  141.0591  134.0372  157.3682 LP  0  0  0  0  0  0  0  0  0  0  0  0  # atno 17395 bound_to 11000

$$$$
