AV-unprocessed.smi:1697|AV-procd|sdf|6810|dock1
  -GOLD-   22720 7583D 1   1.00000     0.00000
 Structure written by MMmdl.
 55 57  0  0  0  0  0  0  0  0  3 V2000
  143.2951  142.2629  158.2358 C   0  0  0  0  0  0  0  0  0  0  0  0
  143.8794  141.4036  157.1130 C   0  0  0  0  0  0  0  0  0  0  0  0
  144.2317  142.2486  156.0273 O   0  0  0  0  0  0  0  0  0  0  0  0
  145.1268  143.3028  156.3638 C   0  0  2  0  0  0  0  0  0  0  0  0
  145.5633  144.0896  155.1140 C   0  0  0  0  0  0  0  0  0  0  0  0
  146.3868  143.2117  154.1568 C   0  0  0  0  0  0  0  0  0  0  0  0
  147.5772  142.6406  154.8422 N   0  3  2  0  0  0  0  0  0  0  0  0
  148.4772  141.8842  153.9328 C   0  0  0  0  0  0  0  0  0  0  0  0
  149.5061  141.0180  154.6877 C   0  0  1  0  0  0  0  0  0  0  0  0
  150.1828  140.1933  153.7593 O   0  0  0  0  0  0  0  0  0  0  0  0
  150.5387  141.8821  155.4378 C   0  0  0  0  0  0  0  0  0  0  0  0
  151.0253  141.2482  156.6707 N   0  0  0  0  0  0  0  0  0  0  0  0
  151.1999  139.9323  156.9719 C   0  0  0  0  0  0  0  0  0  0  0  0
  151.6766  139.8634  158.2462 N   0  3  0  0  0  0  0  0  0  0  0  0
  151.8143  141.1536  158.7635 C   0  0  0  0  0  0  0  0  0  0  0  0
  152.2579  141.5969  160.0039 C   0  0  0  0  0  0  0  0  0  0  0  0
  152.2794  142.9935  160.2203 C   0  0  0  0  0  0  0  0  0  0  0  0
  152.7581  143.5115  161.5658 C   0  0  0  0  0  0  0  0  0  0  0  0
  151.8643  143.8961  159.2070 C   0  0  0  0  0  0  0  0  0  0  0  0
  151.8914  145.3956  159.4504 C   0  0  0  0  0  0  0  0  0  0  0  0
  151.4173  143.4256  157.9515 C   0  0  0  0  0  0  0  0  0  0  0  0
  151.4007  142.0468  157.7563 C   0  0  0  0  0  0  0  0  0  0  0  0
  147.1868  141.8427  156.0335 C   0  0  0  0  0  0  0  0  0  0  0  0
  146.3646  142.6816  157.0286 C   0  0  0  0  0  0  0  0  0  0  0  0
  143.0104  141.6473  159.0893 H   0  0  0  0  0  0  0  0  0  0  0  0
  142.4070  142.7977  157.8985 H   0  0  0  0  0  0  0  0  0  0  0  0
  144.0202  143.0001  158.5814 H   0  0  0  0  0  0  0  0  0  0  0  0
  144.7487  140.8620  157.4848 H   0  0  0  0  0  0  0  0  0  0  0  0
  143.1431  140.6656  156.7918 H   0  0  0  0  0  0  0  0  0  0  0  0
  144.6499  143.9735  157.0806 H   0  0  0  0  0  0  0  0  0  0  0  0
  144.7025  144.5058  154.5919 H   0  0  0  0  0  0  0  0  0  0  0  0
  146.1661  144.9452  155.4215 H   0  0  0  0  0  0  0  0  0  0  0  0
  145.7683  142.4035  153.7627 H   0  0  0  0  0  0  0  0  0  0  0  0
  146.6883  143.8188  153.3046 H   0  0  0  0  0  0  0  0  0  0  0  0
  147.8853  141.2308  153.2895 H   0  0  0  0  0  0  0  0  0  0  0  0
  148.9832  142.5859  153.2677 H   0  0  0  0  0  0  0  0  0  0  0  0
  149.0049  140.3732  155.4078 H   0  0  0  0  0  0  0  0  0  0  0  0
  149.7840  140.3072  152.9095 H   0  0  0  0  0  0  0  0  0  0  0  0
  151.4053  142.0783  154.8045 H   0  0  0  0  0  0  0  0  0  0  0  0
  150.1194  142.8550  155.6975 H   0  0  0  0  0  0  0  0  0  0  0  0
  150.9946  139.0945  156.3207 H   0  0  0  0  0  0  0  0  0  0  0  0
  152.5733  140.9041  160.7706 H   0  0  0  0  0  0  0  0  0  0  0  0
  151.9578  144.0494  162.0749 H   0  0  0  0  0  0  0  0  0  0  0  0
  153.6043  144.1870  161.4389 H   0  0  0  0  0  0  0  0  0  0  0  0
  153.0789  142.6969  162.2160 H   0  0  0  0  0  0  0  0  0  0  0  0
  151.5229  145.9474  158.5850 H   0  0  0  0  0  0  0  0  0  0  0  0
  152.9087  145.7326  159.6512 H   0  0  0  0  0  0  0  0  0  0  0  0
  151.2648  145.6572  160.3032 H   0  0  0  0  0  0  0  0  0  0  0  0
  151.1027  144.1124  157.1799 H   0  0  0  0  0  0  0  0  0  0  0  0
  146.6174  140.9679  155.7154 H   0  0  0  0  0  0  0  0  0  0  0  0
  148.0801  141.4719  156.5374 H   0  0  0  0  0  0  0  0  0  0  0  0
  146.9928  143.4746  157.4364 H   0  0  0  0  0  0  0  0  0  0  0  0
  146.0628  142.0650  157.8760 H   0  0  0  0  0  0  0  0  0  0  0  0
  148.1204  143.4179  155.1910 H   0  0  0  0  0  0  0  0  0  0  0  0
  151.8942  138.9981  158.7240 H   0  0  0  0  0  0  0  0  0  0  0  0
  1  2  1  0  0  0  0
  1 25  1  0  0  0  0
  1 26  1  0  0  0  0
  1 27  1  0  0  0  0
  2  3  1  0  0  0  0
  2 28  1  0  0  0  0
  2 29  1  0  0  0  0
  3  4  1  0  0  0  0
  4 24  1  0  0  0  0
  4  5  1  0  0  0  0
  4 30  1  0  0  0  0
  5  6  1  0  0  0  0
  5 31  1  0  0  0  0
  5 32  1  0  0  0  0
  6  7  1  0  0  0  0
  6 33  1  0  0  0  0
  6 34  1  0  0  0  0
  7  8  1  0  0  0  0
  7 23  1  0  0  0  0
  7 54  1  0  0  0  0
  8  9  1  0  0  0  0
  8 35  1  0  0  0  0
  8 36  1  0  0  0  0
  9 10  1  0  0  0  0
  9 11  1  0  0  0  0
  9 37  1  0  0  0  0
 10 38  1  0  0  0  0
 11 12  1  0  0  0  0
 11 39  1  0  0  0  0
 11 40  1  0  0  0  0
 12 22  1  0  0  0  0
 12 13  1  0  0  0  0
 13 14  2  0  0  0  0
 13 41  1  0  0  0  0
 14 15  1  0  0  0  0
 14 55  1  0  0  0  0
 15 22  2  0  0  0  0
 15 16  1  0  0  0  0
 16 17  2  0  0  0  0
 16 42  1  0  0  0  0
 17 18  1  0  0  0  0
 17 19  1  0  0  0  0
 18 43  1  0  0  0  0
 18 44  1  0  0  0  0
 18 45  1  0  0  0  0
 19 20  1  0  0  0  0
 19 21  2  0  0  0  0
 20 46  1  0  0  0  0
 20 47  1  0  0  0  0
 20 48  1  0  0  0  0
 21 22  1  0  0  0  0
 21 49  1  0  0  0  0
 23 24  1  0  0  0  0
 23 50  1  0  0  0  0
 23 51  1  0  0  0  0
 24 52  1  0  0  0  0
 24 53  1  0  0  0  0
M  CHG  1   7   1
M  CHG  1  14   1
M  END
> <s_m_source_file>
AV-unprocessed.smi

> <i_m_source_file_index>
1697

> <i_lp_mmshare_version>
43012

> <i_f3d_flags>
0

> <s_epik_input>
W0NIM11bQ0gyXU9bQ0hdMVtDSDJdW0NIMl1OKFtDSDJdW0NIMl0xKVtDSDJdW0NASF0oW09IXSlbQ0gyXW4oW2NIXW4yKWMoYzIzKVtjSF1jKFtDSDNdKWMoW2NIXTMpW0NIM10=

> <s_epik_cmdline>
J2VwaWtfcHl0aG9uJywgJy1waCcsICc3LjAnLCAnLXRuJywgJzgnLCAnLW1hJywgJzIwMCcsICctbWV0YWxfYmluZGluZycsICctaW1hZScsICc8aW5maWxlLm1hZT4nLCAnLW9tYWUnLCAnPG91dGZpbGUubWFlPic=

> <r_epik_Ionization_Penalty>
1.20016

> <r_epik_Ionization_Penalty_Charging>
1.20016

> <r_epik_Ionization_Penalty_Neutral>
1.70998e-06

> <r_epik_State_Penalty>
1.27959

> <r_epik_Charging_Adjusted_Penalty>
2.47975

> <i_epik_Tot_Q>
2

> <i_epik_Tot_abs_Q>
2

> <r_epik_Metal_State_Penalty>
5.29682

> <b_epik_Metal_Only>
0

> <s_lp_Force_Field>
OPLS_2005

> <r_lp_Energy>
32.2175

> <b_lp_Chiralities_Consistent>
1

> <s_lp_Variant>
AV-unprocessed.smi:1697-8

> <Gold.Version>
5.8.1

> <Gold.Id.Protein>
6NUR|6NUR_protein|mol2

> <Gold.PLP.Fitness>
58.0337

> <Gold.PLP.PLP>
-48.1801

> <Gold.PLP.part.hbond>
-3.0000

> <Gold.PLP.part.metal>
0.0000

> <Gold.PLP.part.buried>
-6.2893

> <Gold.PLP.part.nonpolar>
-38.0019

> <Gold.PLP.part.repulsive>
0.2567

> <Gold.PLP.ligand.clash>
0.0000

> <Gold.PLP.ligand.torsion>
0.9794

> <Gold.PLP.Chemscore.Hbond>
3.8480

> <Gold.PLP.Chemscore.CHOScore>
0.0000

> <Gold.PLP.Chemscore.Metal>
0.0000

> <Gold.Chemscore.Hbonds>
donor molecule, donor type, donor heavy atom, donor atom, acceptor molecule, acceptor atom, score
      L1  H     7    54       P1  8028  2.00
      L1  H    10    38       P1  7957  1.00
      P1  H  7989  7998       L1    10  0.74

> <Gold.PLP.Chemscore.Internal.Correction>
0.2683

> <Gold.Rescore>
     Score         DG    S(hbond)    S(metal)    S(lipo)     H(rot)  DE(clash)    DE(int)     intcor
     18.71     -19.82       1.83        0.00     121.50       2.35       0.11       1.00       ----

> <Gold.Chemscore.Fitness>
18.7100

> <Gold.Chemscore.DG>
-19.8164

> <Gold.Chemscore.ZeroCoef>
-5.4800

> <Gold.Chemscore.Hbond>
1.8350

> <Gold.Chemscore.Metal>
0.0000

> <Gold.Chemscore.Lipo>
121.4989

> <Gold.Chemscore.Internal_Hbond>
0.0000

> <Gold.Chemscore.DEClash>
0.1107

> <Gold.Chemscore.DEInternal>
0.9957

> <Gold.Chemscore.Rot>
2.3468

> <Gold.Chemscore.Internal.Correction>
   9.000000E+99

> <Gold.Chemscore.Hbonds>
donor molecule, donor type, donor heavy atom, donor atom, acceptor molecule, acceptor atom, score
      L1  H     7    54       P1  8028  0.81
      L1  H    10    38       P1  7957  0.98
      P1  H  7989  7998       L1    10  0.10

> <Gold.Chemscore.Hbond.Weighted>
-6.1288

> <Gold.Chemscore.Metal.Weighted>
-0.0000

> <Gold.Chemscore.Lipo.Weighted>
-14.2154

> <Gold.Chemscore.Internal_Hbond.Weighted>
0.0000

> <Gold.Chemscore.DEClash.Weighted>
0.1107

> <Gold.Chemscore.DEInternal.Weighted>
0.9957

> <Gold.Chemscore.Rot.Weighted>
6.0077

> <Gold.Chemscore.Internal.Correction.Weighted>
   9.000000E+99

> <Gold.Protein.RotatedTorsions>
[ 6907 6896 6895 6894 ] final -168.17 input  -60.11 | X-H torsion
[ 7974 7965 7964 7962 ] final  -70.60 input  175.53 | X-H torsion
[ 8008 7997 7996 7995 ] final  -35.81 input   59.86 | X-H torsion
[ 10167 10162 10161 10158 ] final  160.46 input  -65.29 | X-H torsion
[ 10718 10713 10712 10709 ] final  -74.70 input   66.30 | X-H torsion
[ 10763 10752 10751 10750 ] final -114.13 input  -60.55 | X-H torsion
[ 11005 11000 10999 10996 ] final  -46.54 input  -57.11 | X-H torsion

> <Gold.Protein.ActiveResidues>
 VAL166  LYS551  ARG553  GLY616  TRP617  ASP618  TYR619  PRO620  LYS621  CYS622 
 ASP623  PHE694  ASN695  SER759  ASP760  ASP761  ALA762  ILE779  LEU786  VAL792 
 PHE793  MET794  SER795  GLU796  ALA797  LYS798  CYS799  TRP800  GLU811  SER814 

> <Gold.Protein.RotatedAtoms>
  151.4713  133.3568  159.2823 H   0  0  0  0  0  0  0  0  0  0  0  0  # atno 6907 bound_to 6896
  150.8959  134.8369  159.7337 H   0  0  0  0  0  0  0  0  0  0  0  0  # atno 6908 bound_to 6896
  152.4851  134.4628  159.9662 H   0  0  0  0  0  0  0  0  0  0  0  0  # atno 6909 bound_to 6896
  145.6889  140.9160  143.0792 H   0  0  0  0  0  0  0  0  0  0  0  0  # atno 7974 bound_to 7965
  154.4087  140.1647  156.2272 H   0  0  0  0  0  0  0  0  0  0  0  0  # atno 8008 bound_to 7997
  155.9314  140.3414  155.6229 H   0  0  0  0  0  0  0  0  0  0  0  0  # atno 8009 bound_to 7997
  155.7102  140.0756  157.2365 H   0  0  0  0  0  0  0  0  0  0  0  0  # atno 8010 bound_to 7997
  139.4840  144.4631  151.8678 H   0  0  0  0  0  0  0  0  0  0  0  0  # atno 10167 bound_to 10162
  156.0233  130.4423  150.2932 H   0  0  0  0  0  0  0  0  0  0  0  0  # atno 10718 bound_to 10713
  154.8426  135.4429  154.1457 H   0  0  0  0  0  0  0  0  0  0  0  0  # atno 10763 bound_to 10752
  153.2631  135.6938  153.7564 H   0  0  0  0  0  0  0  0  0  0  0  0  # atno 10764 bound_to 10752
  153.6833  135.3399  155.3159 H   0  0  0  0  0  0  0  0  0  0  0  0  # atno 10765 bound_to 10752
  141.0585  133.6717  156.3170 H   0  0  0  0  0  0  0  0  0  0  0  0  # atno 11005 bound_to 11000
  144.7003  139.8795  143.7446 LP  0  0  0  0  0  0  0  0  0  0  0  0  # atno 17320 bound_to 7965
  146.0899  139.3888  143.0412 LP  0  0  0  0  0  0  0  0  0  0  0  0  # atno 17321 bound_to 7965
  140.4095  144.2388  150.5889 LP  0  0  0  0  0  0  0  0  0  0  0  0  # atno 17342 bound_to 10162
  140.4980  143.2326  151.8721 LP  0  0  0  0  0  0  0  0  0  0  0  0  # atno 17343 bound_to 10162
  157.1035  131.0202  151.3076 LP  0  0  0  0  0  0  0  0  0  0  0  0  # atno 17370 bound_to 10713
  157.4761  130.7737  149.7369 LP  0  0  0  0  0  0  0  0  0  0  0  0  # atno 17371 bound_to 10713
  140.5915  134.5645  157.5500 LP  0  0  0  0  0  0  0  0  0  0  0  0  # atno 17394 bound_to 11000
  139.9411  134.7784  156.0675 LP  0  0  0  0  0  0  0  0  0  0  0  0  # atno 17395 bound_to 11000

$$$$
