AV-unprocessed.smi:2412|AV-procd|sdf|9532|dock7
  -GOLD-   2272013163D 1   1.00000     0.00000
 Structure written by MMmdl.
 37 38  0  0  0  0  0  0  0  0  1 V2000
  150.8851  142.4369  157.0272 C   0  0  0  0  0  0  0  0  0  0  0  0
  151.4031  143.2672  158.1886 C   0  0  0  0  0  0  0  0  0  0  0  0
  150.9901  144.6094  158.3329 C   0  0  0  0  0  0  0  0  0  0  0  0
  151.3994  145.4125  159.3363 N   0  0  0  0  0  0  0  0  0  0  0  0
  152.2453  144.8947  160.2500 C   0  0  0  0  0  0  0  0  0  0  0  0
  152.7207  143.5699  160.2038 C   0  0  0  0  0  0  0  0  0  0  0  0
  152.3034  142.7315  159.1417 C   0  0  0  0  0  0  0  0  0  0  0  0
  152.7075  141.3720  159.0139 N   0  0  0  0  0  0  0  0  0  0  0  0
  153.6695  140.7117  159.6817 C   0  0  0  0  0  0  0  0  0  0  0  0
  154.4168  141.2011  160.5287 O   0  0  0  0  0  0  0  0  0  0  0  0
  153.7330  139.4284  159.2959 N   0  0  0  0  0  0  0  0  0  0  0  0
  154.6518  138.4309  159.8419 C   0  0  0  0  0  0  0  0  0  0  0  0
  153.9718  137.4318  160.7967 C   0  0  0  0  0  0  0  0  0  0  0  0
  153.1461  136.6276  160.3601 O   0  0  0  0  0  0  0  0  0  0  0  0
  154.3179  137.4613  162.1005 N   0  0  0  0  0  0  0  0  0  0  0  0
  155.2945  138.3660  162.7070 C   0  0  0  0  0  0  0  0  0  0  0  0
  155.1824  138.1458  164.2163 C   0  0  0  0  0  0  0  0  0  0  0  0
  154.6294  136.7340  164.3494 C   0  0  0  0  0  0  0  0  0  0  0  0
  153.7638  136.5529  163.1026 C   0  0  0  0  0  0  0  0  0  0  0  0
  150.2314  143.0233  156.3809 H   0  0  0  0  0  0  0  0  0  0  0  0
  150.3173  141.5815  157.3942 H   0  0  0  0  0  0  0  0  0  0  0  0
  151.7141  142.0692  156.4219 H   0  0  0  0  0  0  0  0  0  0  0  0
  150.3075  145.0544  157.6238 H   0  0  0  0  0  0  0  0  0  0  0  0
  152.5482  145.5549  161.0492 H   0  0  0  0  0  0  0  0  0  0  0  0
  153.3787  143.2244  160.9859 H   0  0  0  0  0  0  0  0  0  0  0  0
  152.2378  140.8514  158.2882 H   0  0  0  0  0  0  0  0  0  0  0  0
  153.0827  139.1090  158.5930 H   0  0  0  0  0  0  0  0  0  0  0  0
  155.0861  137.8799  159.0075 H   0  0  0  0  0  0  0  0  0  0  0  0
  155.4746  138.9342  160.3517 H   0  0  0  0  0  0  0  0  0  0  0  0
  156.2928  138.1008  162.3557 H   0  0  0  0  0  0  0  0  0  0  0  0
  155.1092  139.4108  162.4547 H   0  0  0  0  0  0  0  0  0  0  0  0
  156.1322  138.2790  164.7350 H   0  0  0  0  0  0  0  0  0  0  0  0
  154.4698  138.8565  164.6372 H   0  0  0  0  0  0  0  0  0  0  0  0
  155.4519  136.0177  164.3313 H   0  0  0  0  0  0  0  0  0  0  0  0
  154.0741  136.5820  165.2754 H   0  0  0  0  0  0  0  0  0  0  0  0
  152.7314  136.8402  163.3072 H   0  0  0  0  0  0  0  0  0  0  0  0
  153.7666  135.5147  162.7662 H   0  0  0  0  0  0  0  0  0  0  0  0
  1  2  1  0  0  0  0
  1 20  1  0  0  0  0
  1 21  1  0  0  0  0
  1 22  1  0  0  0  0
  2  7  1  0  0  0  0
  2  3  2  0  0  0  0
  3  4  1  0  0  0  0
  3 23  1  0  0  0  0
  4  5  2  0  0  0  0
  5  6  1  0  0  0  0
  5 24  1  0  0  0  0
  6  7  2  0  0  0  0
  6 25  1  0  0  0  0
  7  8  1  0  0  0  0
  8  9  1  0  0  0  0
  8 26  1  0  0  0  0
  9 10  2  0  0  0  0
  9 11  1  0  0  0  0
 11 12  1  0  0  0  0
 11 27  1  0  0  0  0
 12 13  1  0  0  0  0
 12 28  1  0  0  0  0
 12 29  1  0  0  0  0
 13 14  2  0  0  0  0
 13 15  1  0  0  0  0
 15 19  1  0  0  0  0
 15 16  1  0  0  0  0
 16 17  1  0  0  0  0
 16 30  1  0  0  0  0
 16 31  1  0  0  0  0
 17 18  1  0  0  0  0
 17 32  1  0  0  0  0
 17 33  1  0  0  0  0
 18 19  1  0  0  0  0
 18 34  1  0  0  0  0
 18 35  1  0  0  0  0
 19 36  1  0  0  0  0
 19 37  1  0  0  0  0
M  END
> <s_m_source_file>
AV-unprocessed.smi

> <i_m_source_file_index>
2412

> <i_lp_mmshare_version>
43012

> <i_f3d_flags>
0

> <s_epik_input>
W0NIM11jMVtjSF1uW2NIXVtjSF1jMVtOSF1DKD1PKVtOSF1bQ0gyXUMoPU8pTjJbQ0gyXVtDSDJdW0NIMl1bQ0gyXTI=

> <s_epik_cmdline>
J2VwaWtfcHl0aG9uJywgJy1waCcsICc3LjAnLCAnLXRuJywgJzgnLCAnLW1hJywgJzIwMCcsICctbWV0YWxfYmluZGluZycsICctaW1hZScsICc8aW5maWxlLm1hZT4nLCAnLW9tYWUnLCAnPG91dGZpbGUubWFlPic=

> <r_epik_Ionization_Penalty>
0.157619

> <r_epik_Ionization_Penalty_Charging>
0

> <r_epik_Ionization_Penalty_Neutral>
0.157619

> <r_epik_State_Penalty>
0.146889

> <r_epik_Charging_Adjusted_Penalty>
0.146889

> <i_epik_Tot_Q>
0

> <i_epik_Tot_abs_Q>
0

> <r_epik_Metal_State_Penalty>
0.115729

> <b_epik_Metal_Only>
0

> <s_lp_Force_Field>
OPLS_2005

> <r_lp_Energy>
29.7149

> <b_lp_Chiralities_Consistent>
1

> <s_lp_Variant>
AV-unprocessed.smi:2412-1

> <Gold.Version>
5.8.1

> <Gold.Id.Protein>
6NUR|6NUR_protein|mol2

> <Gold.PLP.Fitness>
44.3978

> <Gold.PLP.PLP>
-39.0431

> <Gold.PLP.part.hbond>
-1.1206

> <Gold.PLP.part.metal>
0.0000

> <Gold.PLP.part.buried>
-6.5557

> <Gold.PLP.part.nonpolar>
-31.9712

> <Gold.PLP.part.repulsive>
0.3213

> <Gold.PLP.ligand.clash>
0.0000

> <Gold.PLP.ligand.torsion>
0.1691

> <Gold.PLP.Chemscore.Hbond>
1.0000

> <Gold.PLP.Chemscore.CHOScore>
0.8971

> <Gold.PLP.Chemscore.Metal>
0.0000

> <Gold.Chemscore.Hbonds>
donor molecule, donor type, donor heavy atom, donor atom, acceptor molecule, acceptor atom, score
      P1  H  6896  6909       L1    14  1.00
      L1  C     3    23       P1  8028  0.64
      L1  C     3    23       P1  8029  0.24

> <Gold.PLP.Chemscore.Internal.Correction>
0.0014

> <Gold.Rescore>
     Score         DG    S(hbond)    S(metal)    S(lipo)     H(rot)  DE(clash)    DE(int)     intcor
     15.97     -17.47       0.99        0.00     101.87       1.26       0.12       1.39       ----

> <Gold.Chemscore.Fitness>
15.9656

> <Gold.Chemscore.DG>
-17.4692

> <Gold.Chemscore.ZeroCoef>
-5.4800

> <Gold.Chemscore.Hbond>
0.9893

> <Gold.Chemscore.Metal>
0.0000

> <Gold.Chemscore.Lipo>
101.8715

> <Gold.Chemscore.Internal_Hbond>
0.0000

> <Gold.Chemscore.DEClash>
0.1179

> <Gold.Chemscore.DEInternal>
1.3857

> <Gold.Chemscore.Rot>
1.2633

> <Gold.Chemscore.Internal.Correction>
   9.000000E+99

> <Gold.Chemscore.Hbonds>
donor molecule, donor type, donor heavy atom, donor atom, acceptor molecule, acceptor atom, score
      P1  H  6896  6909       L1    14  0.99

> <Gold.Chemscore.Hbond.Weighted>
-3.3044

> <Gold.Chemscore.Metal.Weighted>
-0.0000

> <Gold.Chemscore.Lipo.Weighted>
-11.9190

> <Gold.Chemscore.Internal_Hbond.Weighted>
0.0000

> <Gold.Chemscore.DEClash.Weighted>
0.1179

> <Gold.Chemscore.DEInternal.Weighted>
1.3857

> <Gold.Chemscore.Rot.Weighted>
3.2341

> <Gold.Chemscore.Internal.Correction.Weighted>
   9.000000E+99

> <Gold.Protein.RotatedTorsions>
[ 6907 6896 6895 6894 ] final  154.51 input  -60.11 | X-H torsion
[ 7974 7965 7964 7962 ] final   58.08 input  175.53 | X-H torsion
[ 8008 7997 7996 7995 ] final  -86.77 input   59.86 | X-H torsion
[ 10167 10162 10161 10158 ] final -113.26 input  -65.29 | X-H torsion
[ 10718 10713 10712 10709 ] final  174.19 input   66.30 | X-H torsion
[ 10763 10752 10751 10750 ] final   18.70 input  -60.55 | X-H torsion
[ 11005 11000 10999 10996 ] final -111.62 input  -57.11 | X-H torsion

> <Gold.Protein.ActiveResidues>
 VAL166  LYS551  ARG553  GLY616  TRP617  ASP618  TYR619  PRO620  LYS621  CYS622 
 ASP623  PHE694  ASN695  SER759  ASP760  ASP761  ALA762  ILE779  LEU786  VAL792 
 PHE793  MET794  SER795  GLU796  ALA797  LYS798  CYS799  TRP800  GLU811  SER814 

> <Gold.Protein.RotatedAtoms>
  152.0575  133.4047  159.4403 H   0  0  0  0  0  0  0  0  0  0  0  0  # atno 6907 bound_to 6896
  150.6867  134.3238  159.4807 H   0  0  0  0  0  0  0  0  0  0  0  0  # atno 6908 bound_to 6896
  152.1055  134.9311  160.0619 H   0  0  0  0  0  0  0  0  0  0  0  0  # atno 6909 bound_to 6896
  145.9221  139.3738  143.0472 H   0  0  0  0  0  0  0  0  0  0  0  0  # atno 7974 bound_to 7965
  154.6557  140.0574  157.0005 H   0  0  0  0  0  0  0  0  0  0  0  0  # atno 8008 bound_to 7997
  155.1304  140.3256  155.4457 H   0  0  0  0  0  0  0  0  0  0  0  0  # atno 8009 bound_to 7997
  156.2596  140.1982  156.6424 H   0  0  0  0  0  0  0  0  0  0  0  0  # atno 8010 bound_to 7997
  140.1138  143.4504  152.1735 H   0  0  0  0  0  0  0  0  0  0  0  0  # atno 10167 bound_to 10162
  156.9533  131.0038  151.2944 H   0  0  0  0  0  0  0  0  0  0  0  0  # atno 10718 bound_to 10713
  153.1226  135.6722  153.9311 H   0  0  0  0  0  0  0  0  0  0  0  0  # atno 10763 bound_to 10752
  153.8821  135.3057  155.3447 H   0  0  0  0  0  0  0  0  0  0  0  0  # atno 10764 bound_to 10752
  154.7635  135.4976  153.9589 H   0  0  0  0  0  0  0  0  0  0  0  0  # atno 10765 bound_to 10752
  141.0724  133.9358  157.2459 H   0  0  0  0  0  0  0  0  0  0  0  0  # atno 11005 bound_to 11000
  145.8536  140.9515  143.0736 LP  0  0  0  0  0  0  0  0  0  0  0  0  # atno 17320 bound_to 7965
  144.6754  140.0439  143.7480 LP  0  0  0  0  0  0  0  0  0  0  0  0  # atno 17321 bound_to 7965
  139.5605  144.7402  151.4169 LP  0  0  0  0  0  0  0  0  0  0  0  0  # atno 17342 bound_to 10162
  140.6911  143.7859  150.7256 LP  0  0  0  0  0  0  0  0  0  0  0  0  # atno 17343 bound_to 10162
  157.5707  130.8309  149.8388 LP  0  0  0  0  0  0  0  0  0  0  0  0  # atno 17370 bound_to 10713
  156.0353  130.3753  150.1576 LP  0  0  0  0  0  0  0  0  0  0  0  0  # atno 17371 bound_to 10713
  139.9536  135.0170  156.9066 LP  0  0  0  0  0  0  0  0  0  0  0  0  # atno 17394 bound_to 11000
  140.5646  134.0502  155.7410 LP  0  0  0  0  0  0  0  0  0  0  0  0  # atno 17395 bound_to 11000

$$$$
