AV-unprocessed.smi:783|AV-procd|sdf|3716|dock7
  -GOLD-   22720 1143D 1   1.00000     0.00000
 Structure written by MMmdl.
 45 46  0  0  0  0  0  0  0  0  1 V2000
  153.6990  141.9194  161.5923 C   0  0  0  0  0  0  0  0  0  0  0  0
  152.6223  141.9295  160.4878 C   0  0  2  0  0  0  0  0  0  0  0  0
  152.9699  140.9957  159.3183 C   0  0  0  0  0  0  0  0  0  0  0  0
  154.1198  140.5823  159.1668 O   0  0  0  0  0  0  0  0  0  0  0  0
  151.9557  140.6656  158.5027 N   0  0  0  0  0  0  0  0  0  0  0  0
  152.0346  139.7658  157.3515 C   0  0  0  0  0  0  0  0  0  0  0  0
  150.8072  139.8967  156.3974 C   0  0  0  0  0  0  0  0  0  0  0  0
  150.7917  138.7885  155.2906 C   0  0  0  0  0  0  0  0  0  0  0  0
  150.7855  139.1492  154.1108 O   0  0  0  0  0  0  0  0  0  0  0  0
  150.7626  137.4610  155.5899 N   0  0  0  0  0  0  0  0  0  0  0  0
  150.6837  136.3273  154.6631 C   0  0  0  0  0  0  0  0  0  0  0  0
  150.8327  137.0373  156.9921 C   0  0  0  0  0  0  0  0  0  0  0  0
  149.5185  139.8418  157.2662 C   0  0  0  0  0  0  0  0  0  0  0  0
  148.4110  140.5565  156.4852 C   0  0  0  0  0  0  0  0  0  0  0  0
  149.1347  141.5196  155.5419 C   0  0  0  0  0  0  0  0  0  0  0  0
  150.6360  141.3083  155.7816 C   0  0  0  0  0  0  0  0  0  0  0  0
  152.3418  143.2738  159.9964 N   0  0  0  0  0  0  0  0  0  0  0  0
  152.4563  143.7439  158.7035 C   0  0  0  0  0  0  0  0  0  0  0  0
  152.1286  145.0695  158.7168 C   0  0  0  0  0  0  0  0  0  0  0  0
  151.8366  145.3309  160.0842 C   0  0  0  0  0  0  0  0  0  0  0  0
  151.9728  144.2595  160.8477 N   0  0  0  0  0  0  0  0  0  0  0  0
  153.8507  140.9121  161.9815 H   0  0  0  0  0  0  0  0  0  0  0  0
  153.4019  142.5511  162.4298 H   0  0  0  0  0  0  0  0  0  0  0  0
  154.6630  142.2816  161.2322 H   0  0  0  0  0  0  0  0  0  0  0  0
  151.7013  141.5565  160.9393 H   0  0  0  0  0  0  0  0  0  0  0  0
  151.0467  141.0548  158.7066 H   0  0  0  0  0  0  0  0  0  0  0  0
  152.9434  140.0321  156.8112 H   0  0  0  0  0  0  0  0  0  0  0  0
  152.2122  138.7439  157.6776 H   0  0  0  0  0  0  0  0  0  0  0  0
  150.4271  136.5736  153.6387 H   0  0  0  0  0  0  0  0  0  0  0  0
  149.9256  135.6201  155.0015 H   0  0  0  0  0  0  0  0  0  0  0  0
  151.6379  135.8004  154.6422 H   0  0  0  0  0  0  0  0  0  0  0  0
  149.9500  137.3723  157.5386 H   0  0  0  0  0  0  0  0  0  0  0  0
  151.7164  137.4532  157.4789 H   0  0  0  0  0  0  0  0  0  0  0  0
  150.8922  135.9532  157.0971 H   0  0  0  0  0  0  0  0  0  0  0  0
  149.2254  138.8335  157.5622 H   0  0  0  0  0  0  0  0  0  0  0  0
  149.6783  140.3883  158.1971 H   0  0  0  0  0  0  0  0  0  0  0  0
  147.8270  139.8387  155.9079 H   0  0  0  0  0  0  0  0  0  0  0  0
  147.7223  141.0757  157.1525 H   0  0  0  0  0  0  0  0  0  0  0  0
  148.8796  141.2824  154.5084 H   0  0  0  0  0  0  0  0  0  0  0  0
  148.8479  142.5568  155.7182 H   0  0  0  0  0  0  0  0  0  0  0  0
  150.9944  142.0600  156.4863 H   0  0  0  0  0  0  0  0  0  0  0  0
  151.1761  141.4729  154.8519 H   0  0  0  0  0  0  0  0  0  0  0  0
  152.7582  143.1020  157.8889 H   0  0  0  0  0  0  0  0  0  0  0  0
  152.1062  145.7501  157.8786 H   0  0  0  0  0  0  0  0  0  0  0  0
  151.5361  146.2619  160.5424 H   0  0  0  0  0  0  0  0  0  0  0  0
  1  2  1  0  0  0  0
  1 22  1  0  0  0  0
  1 23  1  0  0  0  0
  1 24  1  0  0  0  0
  2  3  1  0  0  0  0
  2 17  1  0  0  0  0
  2 25  1  0  0  0  0
  3  4  2  0  0  0  0
  3  5  1  0  0  0  0
  5  6  1  0  0  0  0
  5 26  1  0  0  0  0
  6  7  1  0  0  0  0
  6 27  1  0  0  0  0
  6 28  1  0  0  0  0
  7 16  1  0  0  0  0
  7  8  1  0  0  0  0
  7 13  1  0  0  0  0
  8  9  2  0  0  0  0
  8 10  1  0  0  0  0
 10 11  1  0  0  0  0
 10 12  1  0  0  0  0
 11 29  1  0  0  0  0
 11 30  1  0  0  0  0
 11 31  1  0  0  0  0
 12 32  1  0  0  0  0
 12 33  1  0  0  0  0
 12 34  1  0  0  0  0
 13 14  1  0  0  0  0
 13 35  1  0  0  0  0
 13 36  1  0  0  0  0
 14 15  1  0  0  0  0
 14 37  1  0  0  0  0
 14 38  1  0  0  0  0
 15 16  1  0  0  0  0
 15 39  1  0  0  0  0
 15 40  1  0  0  0  0
 16 41  1  0  0  0  0
 16 42  1  0  0  0  0
 17 21  1  0  0  0  0
 17 18  1  0  0  0  0
 18 19  2  0  0  0  0
 18 43  1  0  0  0  0
 19 20  1  0  0  0  0
 19 44  1  0  0  0  0
 20 21  2  0  0  0  0
 20 45  1  0  0  0  0
M  END
> <s_m_source_file>
AV-unprocessed.smi

> <i_m_source_file_index>
783

> <i_lp_mmshare_version>
43012

> <i_f3d_flags>
0

> <s_epik_input>
bjFbY0hdW2NIXVtjSF1uMVtDQEhdKFtDSDNdKUMoPU8pW05IXVtDSDJdQzIoQyg9TylOKFtDSDNdKVtDSDNdKVtDSDJdW0NIMl1bQ0gyXVtDSDJdMg==

> <s_epik_cmdline>
J2VwaWtfcHl0aG9uJywgJy1waCcsICc3LjAnLCAnLXRuJywgJzgnLCAnLW1hJywgJzIwMCcsICctbWV0YWxfYmluZGluZycsICctaW1hZScsICc8aW5maWxlLm1hZT4nLCAnLW9tYWUnLCAnPG91dGZpbGUubWFlPic=

> <r_lp_tautomer_probability>
1

> <r_epik_Ionization_Penalty>
3.31274e-05

> <r_epik_Ionization_Penalty_Charging>
0

> <r_epik_Ionization_Penalty_Neutral>
3.31274e-05

> <r_epik_State_Penalty>
-0

> <r_epik_Charging_Adjusted_Penalty>
0

> <i_epik_Tot_Q>
0

> <i_epik_Tot_abs_Q>
0

> <r_epik_Metal_State_Penalty>
-0

> <b_epik_Metal_Only>
0

> <s_lp_Force_Field>
OPLS_2005

> <r_lp_Energy>
39.8422

> <b_lp_Chiralities_Consistent>
1

> <s_lp_Variant>
AV-unprocessed.smi:783-1

> <Gold.Version>
5.8.1

> <Gold.Id.Protein>
6NUR|6NUR_protein|mol2

> <Gold.PLP.Fitness>
46.1192

> <Gold.PLP.PLP>
-42.2489

> <Gold.PLP.part.hbond>
-2.0000

> <Gold.PLP.part.metal>
0.0000

> <Gold.PLP.part.buried>
-2.4337

> <Gold.PLP.part.nonpolar>
-37.2074

> <Gold.PLP.part.repulsive>
0.4252

> <Gold.PLP.ligand.clash>
0.0000

> <Gold.PLP.ligand.torsion>
0.5799

> <Gold.PLP.Chemscore.Hbond>
1.5743

> <Gold.PLP.Chemscore.CHOScore>
0.0000

> <Gold.PLP.Chemscore.Metal>
0.0000

> <Gold.Chemscore.Hbonds>
donor molecule, donor type, donor heavy atom, donor atom, acceptor molecule, acceptor atom, score
      P1  H  7989  7998       L1     9  1.00
      P1  H  7997  8009       L1     4  0.56

> <Gold.PLP.Chemscore.Internal.Correction>
0.3071

> <Gold.Rescore>
     Score         DG    S(hbond)    S(metal)    S(lipo)     H(rot)  DE(clash)    DE(int)     intcor
     15.66     -17.66       1.55        0.00     100.37       1.84       0.30       1.70       ----

> <Gold.Chemscore.Fitness>
15.6635

> <Gold.Chemscore.DG>
-17.6619

> <Gold.Chemscore.ZeroCoef>
-5.4800

> <Gold.Chemscore.Hbond>
1.5452

> <Gold.Chemscore.Metal>
0.0000

> <Gold.Chemscore.Lipo>
100.3733

> <Gold.Chemscore.Internal_Hbond>
0.0000

> <Gold.Chemscore.DEClash>
0.2960

> <Gold.Chemscore.DEInternal>
1.7024

> <Gold.Chemscore.Rot>
1.8449

> <Gold.Chemscore.Internal.Correction>
   9.000000E+99

> <Gold.Chemscore.Hbonds>
donor molecule, donor type, donor heavy atom, donor atom, acceptor molecule, acceptor atom, score
      P1  H  7989  7998       L1     9  0.95
      P1  H  7997  8009       L1     4  0.55

> <Gold.Chemscore.Hbond.Weighted>
-5.1611

> <Gold.Chemscore.Metal.Weighted>
-0.0000

> <Gold.Chemscore.Lipo.Weighted>
-11.7437

> <Gold.Chemscore.Internal_Hbond.Weighted>
0.0000

> <Gold.Chemscore.DEClash.Weighted>
0.2960

> <Gold.Chemscore.DEInternal.Weighted>
1.7024

> <Gold.Chemscore.Rot.Weighted>
4.7229

> <Gold.Chemscore.Internal.Correction.Weighted>
   9.000000E+99

> <Gold.Protein.RotatedTorsions>
[ 6907 6896 6895 6894 ] final  176.56 input  -60.11 | X-H torsion
[ 7974 7965 7964 7962 ] final   68.00 input  175.53 | X-H torsion
[ 8008 7997 7996 7995 ] final  126.02 input   59.86 | X-H torsion
[ 10167 10162 10161 10158 ] final   78.76 input  -65.29 | X-H torsion
[ 10718 10713 10712 10709 ] final  -36.96 input   66.30 | X-H torsion
[ 10763 10752 10751 10750 ] final   79.00 input  -60.55 | X-H torsion
[ 11005 11000 10999 10996 ] final   32.74 input  -57.11 | X-H torsion

> <Gold.Protein.ActiveResidues>
 VAL166  LYS551  ARG553  GLY616  TRP617  ASP618  TYR619  PRO620  LYS621  CYS622 
 ASP623  PHE694  ASN695  SER759  ASP760  ASP761  ALA762  ILE779  LEU786  VAL792 
 PHE793  MET794  SER795  GLU796  ALA797  LYS798  CYS799  TRP800  GLU811  SER814 

> <Gold.Protein.RotatedAtoms>
  151.7182  133.3314  159.3308 H   0  0  0  0  0  0  0  0  0  0  0  0  # atno 6907 bound_to 6896
  150.7664  134.6471  159.6278 H   0  0  0  0  0  0  0  0  0  0  0  0  # atno 6908 bound_to 6896
  152.3668  134.6794  160.0241 H   0  0  0  0  0  0  0  0  0  0  0  0  # atno 6909 bound_to 6896
  145.8079  139.3016  143.1116 H   0  0  0  0  0  0  0  0  0  0  0  0  # atno 7974 bound_to 7965
  156.2852  140.2702  156.2044 H   0  0  0  0  0  0  0  0  0  0  0  0  # atno 8008 bound_to 7997
  155.0328  140.0386  157.2498 H   0  0  0  0  0  0  0  0  0  0  0  0  # atno 8009 bound_to 7997
  154.7340  140.2712  155.6436 H   0  0  0  0  0  0  0  0  0  0  0  0  # atno 8010 bound_to 7997
  139.9675  144.5918  150.8016 H   0  0  0  0  0  0  0  0  0  0  0  0  # atno 10167 bound_to 10162
  156.3208  130.4265  149.7962 H   0  0  0  0  0  0  0  0  0  0  0  0  # atno 10718 bound_to 10713
  153.0918  135.4856  154.8703 H   0  0  0  0  0  0  0  0  0  0  0  0  # atno 10763 bound_to 10752
  154.7278  135.3053  154.8945 H   0  0  0  0  0  0  0  0  0  0  0  0  # atno 10764 bound_to 10752
  153.9590  135.6814  153.4798 H   0  0  0  0  0  0  0  0  0  0  0  0  # atno 10765 bound_to 10752
  140.2703  134.3090  155.7830 H   0  0  0  0  0  0  0  0  0  0  0  0  # atno 11005 bound_to 11000
  145.9809  140.8683  143.0115 LP  0  0  0  0  0  0  0  0  0  0  0  0  # atno 17320 bound_to 7965
  144.6761  140.2078  143.7380 LP  0  0  0  0  0  0  0  0  0  0  0  0  # atno 17321 bound_to 7965
  140.7533  143.3006  151.3091 LP  0  0  0  0  0  0  0  0  0  0  0  0  # atno 17342 bound_to 10162
  139.6507  144.0368  152.2624 LP  0  0  0  0  0  0  0  0  0  0  0  0  # atno 17343 bound_to 10162
  156.5271  130.8241  151.3224 LP  0  0  0  0  0  0  0  0  0  0  0  0  # atno 17370 bound_to 10713
  157.7411  130.9864  150.2424 LP  0  0  0  0  0  0  0  0  0  0  0  0  # atno 17371 bound_to 10713
  141.2178  133.7463  156.9324 LP  0  0  0  0  0  0  0  0  0  0  0  0  # atno 17394 bound_to 11000
  140.1379  134.9313  157.2427 LP  0  0  0  0  0  0  0  0  0  0  0  0  # atno 17395 bound_to 11000

$$$$
