#       Name:                AV-unprocessed.smi:746
#       Creating user name   scv26
#       Creation time:       Fri Mar 27 00:57:18 2020


#       File generated by GOLD software.
#

@<TRIPOS>MOLECULE
AV-unprocessed.smi:746
    55    57     1
SMALL
NO_CHARGES


@<TRIPOS>ATOM
      1 ****        -4.3436   8.2398  -1.1939 C.3            1 S1                 0.0000
      2 ****        -4.0635   6.8547  -1.0906 O.3            1 S1                 0.0000
      3 ****        -2.6723   6.5830  -1.0639 C.3            1 S1                 0.0000
      4 ****        -2.4619   5.0708  -0.9499 C.3            1 S1                 0.0000
      5 ****        -1.0666   4.8076  -0.9077 O.3            1 S1                 0.0000
      6 ****        -0.6583   3.4956  -0.8086 C.ar           1 S1                 0.0000
      7 ****        -1.5336   2.3827  -0.7497 C.ar           1 S1                 0.0000
      8 ****        -0.9828   1.0906  -0.6481 C.ar           1 S1                 0.0000
      9 ****         0.4236   0.9468  -0.5984 C.ar           1 S1                 0.0000
     10 ****         1.1034  -0.2979  -0.5104 N.am           1 S1                 0.0000
     11 ****         0.6689  -1.4641   0.0069 C.2            1 S1                 0.0000
     12 ****        -0.4996  -1.6750   0.3269 O.2            1 S1                 0.0000
     13 ****         1.6333  -2.4168   0.0214 N.am           1 S1                 0.0000
     14 ****         2.9738  -2.1376   0.5787 C.3            1 S1                 0.0000
     15 ****         3.0455  -2.6103   2.0514 C.3            1 S1                 0.0000
     16 ****         2.6575  -4.0973   2.2047 C.3            1 S1                 0.0000
     17 ****         1.3290  -4.3757   1.4818 C.3            1 S1                 0.0000
     18 ****         0.9165  -5.8426   1.3172 C.3            1 S1                 0.0000
     19 ****         0.0938  -5.8951   0.0112 C.3            1 S1                 0.0000
     20 ****         0.1629  -4.4915  -0.6176 C.3            1 S1                 0.0000
     21 ****         1.4035  -3.8742   0.0444 C.3            1 S1                 0.0000
     22 ****         1.2044   2.1172  -0.6793 C.ar           1 S1                 0.0000
     23 ****         0.6845   3.3583  -0.7763 N.ar           1 S1                 0.0000
     24 ****        -5.4222   8.3957  -1.2039 H              1 S1                 0.0000
     25 ****        -3.9348   8.6573  -2.1147 H              1 S1                 0.0000
     26 ****        -3.9321   8.7899  -0.3467 H              1 S1                 0.0000
     27 ****        -2.1984   6.9583  -1.9723 H              1 S1                 0.0000
     28 ****        -2.2083   7.0889  -0.2157 H              1 S1                 0.0000
     29 ****        -2.9438   4.7005  -0.0435 H              1 S1                 0.0000
     30 ****        -2.9161   4.5716  -1.8073 H              1 S1                 0.0000
     31 ****        -2.6069   2.4913  -0.7844 H              1 S1                 0.0000
     32 ****        -1.6491   0.2428  -0.6243 H              1 S1                 0.0000
     33 ****         2.0851  -0.2683  -0.7443 H              1 S1                 0.0000
     34 ****         3.7277  -2.6552  -0.0162 H              1 S1                 0.0000
     35 ****         3.2463  -1.0827   0.5313 H              1 S1                 0.0000
     36 ****         4.0478  -2.4463   2.4481 H              1 S1                 0.0000
     37 ****         2.3734  -2.0000   2.6563 H              1 S1                 0.0000
     38 ****         3.4458  -4.7183   1.7774 H              1 S1                 0.0000
     39 ****         2.5835  -4.3665   3.2586 H              1 S1                 0.0000
     40 ****         0.5251  -3.8476   1.9986 H              1 S1                 0.0000
     41 ****         1.7983  -6.4771   1.2180 H              1 S1                 0.0000
     42 ****         0.3502  -6.2017   2.1770 H              1 S1                 0.0000
     43 ****         0.5208  -6.6367  -0.6649 H              1 S1                 0.0000
     44 ****        -0.9399  -6.1868   0.1999 H              1 S1                 0.0000
     45 ****         0.2433  -4.5248  -1.7044 H              1 S1                 0.0000
     46 ****        -0.7575  -3.9677  -0.3701 H              1 S1                 0.0000
     47 ****         2.2623  -4.3429  -0.4420 H              1 S1                 0.0000
     48 ****         2.2830   2.0586  -0.6592 H              1 S1                 0.0000
     49 ****        -4.4668   6.3864  -1.8768 LP             1 S1                 0.0000
     50 ****        -4.4746   6.5062  -0.2483 LP             1 S1                 0.0000
     51 ****        -0.6960   5.2948  -0.1170 LP             1 S1                 0.0000
     52 ****        -0.6683   5.1804  -1.7458 LP             1 S1                 0.0000
     53 ****        -1.1877  -0.9592   0.2077 LP             1 S1                 0.0000
     54 ****        -0.7618  -2.5624   0.7062 LP             1 S1                 0.0000
     55 ****         1.2809   4.1595  -0.8233 LP             1 S1                 0.0000
@<TRIPOS>BOND
    1    1    2 1     
    2    1   24 1     
    3    1   25 1     
    4    1   26 1     
    5    2    3 1     
    6    3    4 1     
    7    3   27 1     
    8    3   28 1     
    9    4    5 1     
   10    4   29 1     
   11    4   30 1     
   12    5    6 1     
   13    6   23 ar    
   14    6    7 ar    
   15    7    8 ar    
   16    7   31 1     
   17    8    9 ar    
   18    8   32 1     
   19    9   10 1     
   20    9   22 ar    
   21   10   11 am    
   22   10   33 1     
   23   11   12 2     
   24   11   13 am    
   25   13   21 1     
   26   13   14 1     
   27   14   15 1     
   28   14   34 1     
   29   14   35 1     
   30   15   16 1     
   31   15   36 1     
   32   15   37 1     
   33   16   17 1     
   34   16   38 1     
   35   16   39 1     
   36   17   21 1     
   37   17   18 1     
   38   17   40 1     
   39   18   19 1     
   40   18   41 1     
   41   18   42 1     
   42   19   20 1     
   43   19   43 1     
   44   19   44 1     
   45   20   21 1     
   46   20   45 1     
   47   20   46 1     
   48   21   47 1     
   49   22   23 ar    
   50   22   48 1     
   51    2   49 1     
   52    2   50 1     
   53    5   51 1     
   54    5   52 1     
   55   12   53 1     
   56   12   54 1     
   57   23   55 1     
@<TRIPOS>SUBSTRUCTURE
      1 S1             1
@<TRIPOS>SET
LONE_PAIRS      STATIC     ATOMS    <user>   **** ""
7 49 50 51 52 53 54 55
DONOR_HYDROGENS      STATIC     ATOMS    <user>   **** ""
1 33
ATOM$BLUE        STATIC     ATOMS    COLORGROUP SYSTEM
7 49 50 51 52 53 54 55
ATOM$RED        STATIC     ATOMS    COLORGROUP SYSTEM
1 33
