#       Name:                AV-unprocessed.smi:2021
#       Creating user name   scv26
#       Creation time:       Fri Mar 27 10:43:05 2020


#       File generated by GOLD software.
#

@<TRIPOS>MOLECULE
AV-unprocessed.smi:2021
    48    49     1
SMALL
NO_CHARGES


@<TRIPOS>ATOM
      1 ****        -3.3074   2.9288   0.9274 C.3            1 S1                 0.0000
      2 ****        -3.9734   1.6217   1.3899 C.3            1 S1                 0.0000
      3 ****        -4.2176   1.5850   2.9085 C.3            1 S1                 0.0000
      4 ****        -3.2940   0.3452   0.8350 C.3            1 S1                 0.0000
      5 ****        -1.8304   0.3395   0.7395 N.3            1 S1                 0.0000
      6 ****        -1.1679   0.3247   2.0408 C.3            1 S1                 0.0000
      7 ****         0.3634   0.2649   1.9094 C.3            1 S1                 0.0000
      8 ****         0.7342  -0.8658   1.1298 O.3            1 S1                 0.0000
      9 ****         0.1625  -0.8477  -0.1757 C.3            1 S1                 0.0000
     10 ****         0.6408  -2.0964  -0.9357 C.3            1 S1                 0.0000
     11 ****         2.0898  -2.1000  -1.1059 N.am           1 S1                 0.0000
     12 ****         2.7564  -1.4167  -2.0466 C.2            1 S1                 0.0000
     13 ****         2.2038  -0.7215  -2.8990 O.2            1 S1                 0.0000
     14 ****         4.0822  -1.5920  -1.9258 N.am           1 S1                 0.0000
     15 ****         5.1123  -1.0278  -2.7191 C.2            1 S1                 0.0000
     16 ****         6.3791  -1.3324  -2.4136 N.2            1 S1                 0.0000
     17 ****         7.2841  -0.7131  -3.2671 N.2            1 S1                 0.0000
     18 ****         6.6635   0.0354  -4.1840 C.2            1 S1                 0.0000
     19 ****         4.9110   0.0580  -4.0975 S.3            1 S1                 0.0000
     20 ****        -1.3717  -0.8090  -0.0368 C.3            1 S1                 0.0000
     21 ****        -2.3148   3.0528   1.3603 H              1 S1                 0.0000
     22 ****        -3.9022   3.7948   1.2191 H              1 S1                 0.0000
     23 ****        -3.2034   2.9520  -0.1577 H              1 S1                 0.0000
     24 ****        -4.9719   1.6248   0.9508 H              1 S1                 0.0000
     25 ****        -3.2974   1.6545   3.4848 H              1 S1                 0.0000
     26 ****        -4.7249   0.6656   3.2023 H              1 S1                 0.0000
     27 ****        -4.8515   2.4169   3.2164 H              1 S1                 0.0000
     28 ****        -3.6346  -0.5286   1.3922 H              1 S1                 0.0000
     29 ****        -3.6884   0.2085  -0.1730 H              1 S1                 0.0000
     30 ****        -1.4189   1.2221   2.6011 H              1 S1                 0.0000
     31 ****        -1.5168  -0.5270   2.6267 H              1 S1                 0.0000
     32 ****         0.7474   1.1754   1.4469 H              1 S1                 0.0000
     33 ****         0.8256   0.1866   2.8935 H              1 S1                 0.0000
     34 ****         0.4973   0.0481  -0.7022 H              1 S1                 0.0000
     35 ****         0.3571  -2.9976  -0.3914 H              1 S1                 0.0000
     36 ****         0.1539  -2.1581  -1.9104 H              1 S1                 0.0000
     37 ****         2.6224  -2.6430  -0.4423 H              1 S1                 0.0000
     38 ****         4.3921  -2.1921  -1.1758 H              1 S1                 0.0000
     39 ****         7.2423   0.5779  -4.9166 H              1 S1                 0.0000
     40 ****        -1.7157  -1.7319   0.4332 H              1 S1                 0.0000
     41 ****        -1.8190  -0.7817  -1.0311 H              1 S1                 0.0000
     42 ****        -1.5826   1.1935   0.2821 LP             1 S1                 0.0000
     43 ****         0.4285  -1.6931   1.6011 LP             1 S1                 0.0000
     44 ****         1.7303  -0.8809   1.0423 LP             1 S1                 0.0000
     45 ****         1.2068  -0.6454  -2.9127 LP             1 S1                 0.0000
     46 ****         2.7519  -0.2328  -3.5778 LP             1 S1                 0.0000
     47 ****         6.6433  -1.9345  -1.6602 LP             1 S1                 0.0000
     48 ****         8.2769  -0.8149  -3.2032 LP             1 S1                 0.0000
@<TRIPOS>BOND
    1    1    2 1     
    2    1   21 1     
    3    1   22 1     
    4    1   23 1     
    5    2    3 1     
    6    2    4 1     
    7    2   24 1     
    8    3   25 1     
    9    3   26 1     
   10    3   27 1     
   11    4    5 1     
   12    4   28 1     
   13    4   29 1     
   14    5   20 1     
   15    5    6 1     
   16    6    7 1     
   17    6   30 1     
   18    6   31 1     
   19    7    8 1     
   20    7   32 1     
   21    7   33 1     
   22    8    9 1     
   23    9   10 1     
   24    9   20 1     
   25    9   34 1     
   26   10   11 1     
   27   10   35 1     
   28   10   36 1     
   29   11   12 am    
   30   11   37 1     
   31   12   13 2     
   32   12   14 am    
   33   14   15 1     
   34   14   38 1     
   35   15   19 1     
   36   15   16 2     
   37   16   17 1     
   38   17   18 2     
   39   18   19 1     
   40   18   39 1     
   41   20   40 1     
   42   20   41 1     
   43    5   42 1     
   44    8   43 1     
   45    8   44 1     
   46   13   45 1     
   47   13   46 1     
   48   16   47 1     
   49   17   48 1     
@<TRIPOS>SUBSTRUCTURE
      1 S1             1
@<TRIPOS>SET
LONE_PAIRS      STATIC     ATOMS    <user>   **** ""
7 42 43 44 45 46 47 48
DONOR_HYDROGENS      STATIC     ATOMS    <user>   **** ""
2 37 38
ATOM$BLUE        STATIC     ATOMS    COLORGROUP SYSTEM
7 42 43 44 45 46 47 48
ATOM$RED        STATIC     ATOMS    COLORGROUP SYSTEM
2 37 38
