AV-unprocessed.smi:781|AV-procd|sdf|3707|dock6
  -GOLD-   22720 1133D 1   1.00000     0.00000
 Structure written by MMmdl.
 38 40  0  0  0  0  0  0  0  0  1 V2000
  143.8765  132.4353  150.1100 C   0  0  0  0  0  0  0  0  0  0  0  0
  144.3446  133.5704  150.9544 C   0  0  0  0  0  0  0  0  0  0  0  0
  145.5306  134.2446  151.0322 C   0  0  0  0  0  0  0  0  0  0  0  0
  145.2857  135.2068  152.0477 C   0  0  0  0  0  0  0  0  0  0  0  0
  146.2931  136.1259  152.4365 N   0  0  0  0  0  0  0  0  0  0  0  0
  146.2182  137.0695  153.3904 C   0  0  0  0  0  0  0  0  0  0  0  0
  145.2338  137.2892  154.0966 O   0  0  0  0  0  0  0  0  0  0  0  0
  147.3654  137.7562  153.4841 N   0  0  0  0  0  0  0  0  0  0  0  0
  147.6182  138.8451  154.4243 C   0  0  2  0  0  0  0  0  0  0  0  0
  146.5213  139.9260  154.3051 C   0  0  1  0  0  0  0  0  0  0  0  0
  146.5822  140.8319  155.5481 C   0  0  0  0  0  0  0  0  0  0  0  0
  147.8653  141.6479  155.3023 C   0  0  0  0  0  0  0  0  0  0  0  0
  148.3808  141.0877  153.9589 C   0  0  2  0  0  0  0  0  0  0  0  0
  147.0690  140.8509  153.2214 C   0  0  0  0  0  0  0  0  0  0  0  0
  148.9094  139.6377  154.0945 C   0  0  1  0  0  0  0  0  0  0  0  0
  150.0556  139.4221  155.1021 C   0  0  0  0  0  0  0  0  0  0  0  0
  151.1766  140.2033  154.7464 O   0  0  0  0  0  0  0  0  0  0  0  0
  144.0613  135.1268  152.5459 N   0  0  0  0  0  0  0  0  0  0  0  0
  143.4520  134.0772  151.8479 O   0  0  0  0  0  0  0  0  0  0  0  0
  144.5531  132.2688  149.2717 H   0  0  0  0  0  0  0  0  0  0  0  0
  142.8839  132.6356  149.7063 H   0  0  0  0  0  0  0  0  0  0  0  0
  143.8264  131.5156  150.6928 H   0  0  0  0  0  0  0  0  0  0  0  0
  146.4270  134.0750  150.4544 H   0  0  0  0  0  0  0  0  0  0  0  0
  147.1649  136.0586  151.9329 H   0  0  0  0  0  0  0  0  0  0  0  0
  148.1230  137.5065  152.8655 H   0  0  0  0  0  0  0  0  0  0  0  0
  147.6370  138.4419  155.4389 H   0  0  0  0  0  0  0  0  0  0  0  0
  145.5237  139.5288  154.1138 H   0  0  0  0  0  0  0  0  0  0  0  0
  145.7132  141.4894  155.5933 H   0  0  0  0  0  0  0  0  0  0  0  0
  146.6192  140.2641  156.4786 H   0  0  0  0  0  0  0  0  0  0  0  0
  147.6222  142.7065  155.2020 H   0  0  0  0  0  0  0  0  0  0  0  0
  148.5850  141.5607  156.1149 H   0  0  0  0  0  0  0  0  0  0  0  0
  149.0730  141.7558  153.4456 H   0  0  0  0  0  0  0  0  0  0  0  0
  147.1958  140.3609  152.2544 H   0  0  0  0  0  0  0  0  0  0  0  0
  146.4767  141.7575  153.0852 H   0  0  0  0  0  0  0  0  0  0  0  0
  149.2766  139.3320  153.1124 H   0  0  0  0  0  0  0  0  0  0  0  0
  149.7544  139.6563  156.1223 H   0  0  0  0  0  0  0  0  0  0  0  0
  150.3573  138.3746  155.1008 H   0  0  0  0  0  0  0  0  0  0  0  0
  151.9591  139.7317  154.9877 H   0  0  0  0  0  0  0  0  0  0  0  0
  1  2  1  0  0  0  0
  1 20  1  0  0  0  0
  1 21  1  0  0  0  0
  1 22  1  0  0  0  0
  2 19  1  0  0  0  0
  2  3  2  0  0  0  0
  3  4  1  0  0  0  0
  3 23  1  0  0  0  0
  4  5  1  0  0  0  0
  4 18  2  0  0  0  0
  5  6  1  0  0  0  0
  5 24  1  0  0  0  0
  6  7  2  0  0  0  0
  6  8  1  0  0  0  0
  8  9  1  0  0  0  0
  8 25  1  0  0  0  0
  9 15  1  0  0  0  0
  9 10  1  0  0  0  0
  9 26  1  0  0  0  0
 10 14  1  0  0  0  0
 10 11  1  0  0  0  0
 10 27  1  0  0  0  0
 11 12  1  0  0  0  0
 11 28  1  0  0  0  0
 11 29  1  0  0  0  0
 12 13  1  0  0  0  0
 12 30  1  0  0  0  0
 12 31  1  0  0  0  0
 13 14  1  0  0  0  0
 13 15  1  0  0  0  0
 13 32  1  0  0  0  0
 14 33  1  0  0  0  0
 14 34  1  0  0  0  0
 15 16  1  0  0  0  0
 15 35  1  0  0  0  0
 16 17  1  0  0  0  0
 16 36  1  0  0  0  0
 16 37  1  0  0  0  0
 17 38  1  0  0  0  0
 18 19  1  0  0  0  0
M  END
> <s_m_source_file>
AV-unprocessed.smi

> <i_m_source_file_index>
781

> <i_lp_mmshare_version>
43012

> <i_f3d_flags>
0

> <s_epik_input>
W0NIM11jMVtjSF1jKG5vMSlbTkhdQyg9TylbTkhdW0NASF0oW0NAQEhdMjMpW0NASF0oW0NIMl1bT0hdKVtDQEBIXShbQ0gyXTMpW0NIMl1bQ0gyXTI=

> <s_epik_cmdline>
J2VwaWtfcHl0aG9uJywgJy1waCcsICc3LjAnLCAnLXRuJywgJzgnLCAnLW1hJywgJzIwMCcsICctbWV0YWxfYmluZGluZycsICctaW1hZScsICc8aW5maWxlLm1hZT4nLCAnLW9tYWUnLCAnPG91dGZpbGUubWFlPic=

> <r_lp_tautomer_probability>
1

> <r_epik_Ionization_Penalty>
2.32222e-05

> <r_epik_Ionization_Penalty_Charging>
0

> <r_epik_Ionization_Penalty_Neutral>
2.32222e-05

> <r_epik_State_Penalty>
-0

> <r_epik_Charging_Adjusted_Penalty>
0

> <i_epik_Tot_Q>
0

> <i_epik_Tot_abs_Q>
0

> <r_epik_Metal_State_Penalty>
-0

> <b_epik_Metal_Only>
0

> <s_lp_Force_Field>
OPLS_2005

> <r_lp_Energy>
47.0606

> <b_lp_Chiralities_Consistent>
1

> <s_lp_Variant>
AV-unprocessed.smi:781-1

> <Gold.Version>
5.8.1

> <Gold.Id.Protein>
6NUR|6NUR_protein|mol2

> <Gold.PLP.Fitness>
36.8566

> <Gold.PLP.PLP>
-28.0414

> <Gold.PLP.part.hbond>
-2.9870

> <Gold.PLP.part.metal>
0.0000

> <Gold.PLP.part.buried>
-3.5010

> <Gold.PLP.part.nonpolar>
-22.1556

> <Gold.PLP.part.repulsive>
0.4489

> <Gold.PLP.ligand.clash>
0.0000

> <Gold.PLP.ligand.torsion>
0.0897

> <Gold.PLP.Chemscore.Hbond>
2.9920

> <Gold.PLP.Chemscore.CHOScore>
0.0000

> <Gold.PLP.Chemscore.Metal>
0.0000

> <Gold.Chemscore.Hbonds>
donor molecule, donor type, donor heavy atom, donor atom, acceptor molecule, acceptor atom, score
      L1  H     5    24       P1  7948  1.00
      L1  H     8    25       P1  7948  0.99
      P1  H  7989  7998       L1    17  0.89

> <Gold.PLP.Chemscore.Internal.Correction>
0.0185

> <Gold.Rescore>
     Score         DG    S(hbond)    S(metal)    S(lipo)     H(rot)  DE(clash)    DE(int)     intcor
     16.56     -18.14       2.89        0.00      66.21       1.86       0.31       1.26       ----

> <Gold.Chemscore.Fitness>
16.5610

> <Gold.Chemscore.DG>
-18.1350

> <Gold.Chemscore.ZeroCoef>
-5.4800

> <Gold.Chemscore.Hbond>
2.8943

> <Gold.Chemscore.Metal>
0.0000

> <Gold.Chemscore.Lipo>
66.2094

> <Gold.Chemscore.Internal_Hbond>
0.0000

> <Gold.Chemscore.DEClash>
0.3106

> <Gold.Chemscore.DEInternal>
1.2635

> <Gold.Chemscore.Rot>
1.8587

> <Gold.Chemscore.Internal.Correction>
   9.000000E+99

> <Gold.Chemscore.Hbonds>
donor molecule, donor type, donor heavy atom, donor atom, acceptor molecule, acceptor atom, score
      L1  H     5    24       P1  7948  0.96
      L1  H     8    25       P1  7948  0.93
      P1  H  7989  7998       L1    17  0.22

> <Gold.Chemscore.Hbond.Weighted>
-9.6668

> <Gold.Chemscore.Metal.Weighted>
-0.0000

> <Gold.Chemscore.Lipo.Weighted>
-7.7465

> <Gold.Chemscore.Internal_Hbond.Weighted>
0.0000

> <Gold.Chemscore.DEClash.Weighted>
0.3106

> <Gold.Chemscore.DEInternal.Weighted>
1.2635

> <Gold.Chemscore.Rot.Weighted>
4.7583

> <Gold.Chemscore.Internal.Correction.Weighted>
   9.000000E+99

> <Gold.Protein.RotatedTorsions>
[ 6907 6896 6895 6894 ] final  141.85 input  -60.11 | X-H torsion
[ 7974 7965 7964 7962 ] final  -37.15 input  175.53 | X-H torsion
[ 8008 7997 7996 7995 ] final  -32.73 input   59.86 | X-H torsion
[ 10167 10162 10161 10158 ] final -162.91 input  -65.29 | X-H torsion
[ 10718 10713 10712 10709 ] final   76.88 input   66.30 | X-H torsion
[ 10763 10752 10751 10750 ] final  106.06 input  -60.55 | X-H torsion
[ 11005 11000 10999 10996 ] final  -24.10 input  -57.11 | X-H torsion

> <Gold.Protein.ActiveResidues>
 VAL166  LYS551  ARG553  GLY616  TRP617  ASP618  TYR619  PRO620  LYS621  CYS622 
 ASP623  PHE694  ASN695  SER759  ASP760  ASP761  ALA762  ILE779  LEU786  VAL792 
 PHE793  MET794  SER795  GLU796  ALA797  LYS798  CYS799  TRP800  GLU811  SER814 

> <Gold.Protein.RotatedAtoms>
  152.2259  133.5020  159.5188 H   0  0  0  0  0  0  0  0  0  0  0  0  # atno 6907 bound_to 6896
  150.7025  134.1280  159.4068 H   0  0  0  0  0  0  0  0  0  0  0  0  # atno 6908 bound_to 6896
  151.9201  135.0301  160.0572 H   0  0  0  0  0  0  0  0  0  0  0  0  # atno 6909 bound_to 6896
  146.0600  140.6363  142.9002 H   0  0  0  0  0  0  0  0  0  0  0  0  # atno 7974 bound_to 7965
  154.4171  140.1729  156.1774 H   0  0  0  0  0  0  0  0  0  0  0  0  # atno 8008 bound_to 7997
  155.9710  140.3385  155.6552 H   0  0  0  0  0  0  0  0  0  0  0  0  # atno 8009 bound_to 7997
  155.6625  140.0702  157.2540 H   0  0  0  0  0  0  0  0  0  0  0  0  # atno 8010 bound_to 7997
  139.6358  144.0352  152.2053 H   0  0  0  0  0  0  0  0  0  0  0  0  # atno 10167 bound_to 10162
  157.6690  130.9795  150.1561 H   0  0  0  0  0  0  0  0  0  0  0  0  # atno 10718 bound_to 10713
  153.3878  135.3889  155.1902 H   0  0  0  0  0  0  0  0  0  0  0  0  # atno 10763 bound_to 10752
  154.8715  135.3741  154.4775 H   0  0  0  0  0  0  0  0  0  0  0  0  # atno 10764 bound_to 10752
  153.5259  135.7086  153.5769 H   0  0  0  0  0  0  0  0  0  0  0  0  # atno 10765 bound_to 10752
  140.8814  133.7651  156.0307 H   0  0  0  0  0  0  0  0  0  0  0  0  # atno 11005 bound_to 11000
  144.7169  140.4241  143.7037 LP  0  0  0  0  0  0  0  0  0  0  0  0  # atno 17320 bound_to 7965
  145.6577  139.1576  143.2826 LP  0  0  0  0  0  0  0  0  0  0  0  0  # atno 17321 bound_to 7965
  140.0029  144.6280  150.7714 LP  0  0  0  0  0  0  0  0  0  0  0  0  # atno 17342 bound_to 10162
  140.7464  143.2891  151.3381 LP  0  0  0  0  0  0  0  0  0  0  0  0  # atno 17343 bound_to 10162
  156.2349  130.3685  149.8403 LP  0  0  0  0  0  0  0  0  0  0  0  0  # atno 17370 bound_to 10713
  156.6219  130.8630  151.3477 LP  0  0  0  0  0  0  0  0  0  0  0  0  # atno 17371 bound_to 10713
  140.8457  134.3014  157.5296 LP  0  0  0  0  0  0  0  0  0  0  0  0  # atno 17394 bound_to 11000
  139.8720  134.9440  156.3869 LP  0  0  0  0  0  0  0  0  0  0  0  0  # atno 17395 bound_to 11000

$$$$
