AV-unprocessed.smi:9|AV-procd|sdf|51|dock8
  -GOLD-   2262015173D 1   1.00000     0.00000
 Structure written by MMmdl.
 35 37  0  0  0  0  0  0  0  0  1 V2000
  148.2927  136.7400  161.4838 O   0  0  0  0  0  0  0  0  0  0  0  0
  148.4244  136.2823  160.3508 C   0  0  0  0  0  0  0  0  0  0  0  0
  147.8148  135.1502  159.9223 N   0  0  0  0  0  0  0  0  0  0  0  0
  147.9721  134.6256  158.6137 C   0  0  0  0  0  0  0  0  0  0  0  0
  147.1657  133.3491  158.4334 C   0  0  0  0  0  0  0  0  0  0  0  0
  147.3442  132.8342  157.2159 F   0  0  0  0  0  0  0  0  0  0  0  0
  147.5357  132.4325  159.3283 F   0  0  0  0  0  0  0  0  0  0  0  0
  145.8648  133.5937  158.5933 F   0  0  0  0  0  0  0  0  0  0  0  0
  148.7047  135.1433  157.6612 N   0  0  0  0  0  0  0  0  0  0  0  0
  149.3309  136.3015  158.0767 C   0  0  0  0  0  0  0  0  0  0  0  0
  149.2677  136.9096  159.3034 C   0  0  0  0  0  0  0  0  0  0  0  0
  150.0478  138.0587  159.3384 N   0  0  0  0  0  0  0  0  0  0  0  0
  150.5544  138.0947  158.1076 C   0  0  0  0  0  0  0  0  0  0  0  0
  150.1674  137.0919  157.2953 N   0  0  0  0  0  0  0  0  0  0  0  0
  150.5613  136.8841  155.9084 C   0  0  0  0  0  0  0  0  0  0  0  0
  150.2640  138.0845  154.9729 C   0  0  1  0  0  0  0  0  0  0  0  0
  150.7014  137.7278  153.6746 O   0  0  0  0  0  0  0  0  0  0  0  0
  148.7582  138.4270  154.9268 C   0  0  0  0  0  0  0  0  0  0  0  0
  148.5002  139.7625  154.2217 C   0  0  0  0  0  0  0  0  0  0  0  0
  149.3793  140.8602  154.8308 C   0  0  0  0  0  0  0  0  0  0  0  0
  150.7444  140.4900  154.6969 O   0  0  0  0  0  0  0  0  0  0  0  0
  151.0969  139.3110  155.4164 C   0  0  0  0  0  0  0  0  0  0  0  0
  147.2198  134.6582  160.5729 H   0  0  0  0  0  0  0  0  0  0  0  0
  151.2233  138.8787  157.7837 H   0  0  0  0  0  0  0  0  0  0  0  0
  151.6296  136.6636  155.8968 H   0  0  0  0  0  0  0  0  0  0  0  0
  150.0666  135.9839  155.5410 H   0  0  0  0  0  0  0  0  0  0  0  0
  149.9530  137.4306  153.1799 H   0  0  0  0  0  0  0  0  0  0  0  0
  148.1900  137.6356  154.4367 H   0  0  0  0  0  0  0  0  0  0  0  0
  148.3753  138.4942  155.9461 H   0  0  0  0  0  0  0  0  0  0  0  0
  148.7149  139.6697  153.1567 H   0  0  0  0  0  0  0  0  0  0  0  0
  147.4472  140.0326  154.3056 H   0  0  0  0  0  0  0  0  0  0  0  0
  149.2171  141.8031  154.3084 H   0  0  0  0  0  0  0  0  0  0  0  0
  149.1319  141.0285  155.8802 H   0  0  0  0  0  0  0  0  0  0  0  0
  150.9474  139.5024  156.4803 H   0  0  0  0  0  0  0  0  0  0  0  0
  152.1632  139.1220  155.2856 H   0  0  0  0  0  0  0  0  0  0  0  0
  1  2  2  0  0  0  0
  2 11  1  0  0  0  0
  2  3  1  0  0  0  0
  3 23  1  0  0  0  0
  3  4  1  0  0  0  0
  4  5  1  0  0  0  0
  4  9  2  0  0  0  0
  5  6  1  0  0  0  0
  5  7  1  0  0  0  0
  5  8  1  0  0  0  0
  9 10  1  0  0  0  0
 10 14  1  0  0  0  0
 10 11  2  0  0  0  0
 11 12  1  0  0  0  0
 12 13  2  0  0  0  0
 13 14  1  0  0  0  0
 13 24  1  0  0  0  0
 14 15  1  0  0  0  0
 15 16  1  0  0  0  0
 15 25  1  0  0  0  0
 15 26  1  0  0  0  0
 16 22  1  0  0  0  0
 16 17  1  0  0  0  0
 16 18  1  0  0  0  0
 17 27  1  0  0  0  0
 18 19  1  0  0  0  0
 18 28  1  0  0  0  0
 18 29  1  0  0  0  0
 19 20  1  0  0  0  0
 19 30  1  0  0  0  0
 19 31  1  0  0  0  0
 20 21  1  0  0  0  0
 20 32  1  0  0  0  0
 20 33  1  0  0  0  0
 21 22  1  0  0  0  0
 22 34  1  0  0  0  0
 22 35  1  0  0  0  0
M  END
> <s_m_source_file>
AV-unprocessed.smi

> <i_m_source_file_index>
9

> <i_lp_mmshare_version>
43012

> <i_f3d_flags>
0

> <s_epik_input>
RkMoRikoRiljKG4xKVtuSF1jKD1PKWMoYzEyKW5bY0hdbjJbQ0gyXVtDQEBdMyhbT0hdKVtDSDJdW0NIMl1bQ0gyXU9bQ0gyXTM=

> <s_epik_cmdline>
J2VwaWtfcHl0aG9uJywgJy1waCcsICc3LjAnLCAnLXRuJywgJzgnLCAnLW1hJywgJzIwMCcsICctbWV0YWxfYmluZGluZycsICctaW1hZScsICc8aW5maWxlLm1hZT4nLCAnLW9tYWUnLCAnPG91dGZpbGUubWFlPic=

> <r_lp_tautomer_probability>
0.85571

> <r_epik_Ionization_Penalty>
0.770127

> <r_epik_Ionization_Penalty_Charging>
0.770101

> <r_epik_Ionization_Penalty_Neutral>
2.64604e-05

> <r_epik_State_Penalty>
2.30539

> <r_epik_Charging_Adjusted_Penalty>
3.07549

> <i_epik_Tot_Q>
0

> <i_epik_Tot_abs_Q>
0

> <r_epik_Metal_State_Penalty>
2.4903

> <b_epik_Metal_Only>
0

> <s_lp_Force_Field>
OPLS_2005

> <r_lp_Energy>
27.1686

> <b_lp_Chiralities_Consistent>
1

> <s_lp_Variant>
AV-unprocessed.smi:9-3

> <Gold.Version>
5.8.1

> <Gold.Id.Protein>
6NUR|6NUR_protein|mol2

> <Gold.PLP.Fitness>
33.8121

> <Gold.PLP.PLP>
-24.8709

> <Gold.PLP.part.hbond>
-4.8414

> <Gold.PLP.part.metal>
0.0000

> <Gold.PLP.part.buried>
-3.9395

> <Gold.PLP.part.nonpolar>
-16.5994

> <Gold.PLP.part.repulsive>
0.1680

> <Gold.PLP.ligand.clash>
0.0000

> <Gold.PLP.ligand.torsion>
0.0329

> <Gold.PLP.Chemscore.Hbond>
3.0000

> <Gold.PLP.Chemscore.CHOScore>
0.0000

> <Gold.PLP.Chemscore.Metal>
0.0000

> <Gold.Chemscore.Hbonds>
donor molecule, donor type, donor heavy atom, donor atom, acceptor molecule, acceptor atom, score
      L1  H    17    27       P1  7948  1.00
      P1  H  6931  6943       L1     1  1.00
      P1  H  7989  7998       L1    21  1.00

> <Gold.PLP.Chemscore.Internal.Correction>
0.0070

> <Gold.Rescore>
     Score         DG    S(hbond)    S(metal)    S(lipo)     H(rot)  DE(clash)    DE(int)     intcor
     12.16     -12.22       2.42        0.00      35.16       2.14       0.00       0.06       ----

> <Gold.Chemscore.Fitness>
12.1625

> <Gold.Chemscore.DG>
-12.2181

> <Gold.Chemscore.ZeroCoef>
-5.4800

> <Gold.Chemscore.Hbond>
2.4237

> <Gold.Chemscore.Metal>
0.0000

> <Gold.Chemscore.Lipo>
35.1639

> <Gold.Chemscore.Internal_Hbond>
0.0000

> <Gold.Chemscore.DEClash>
0.0000

> <Gold.Chemscore.DEInternal>
0.0556

> <Gold.Chemscore.Rot>
2.1373

> <Gold.Chemscore.Internal.Correction>
   9.000000E+99

> <Gold.Chemscore.Hbonds>
donor molecule, donor type, donor heavy atom, donor atom, acceptor molecule, acceptor atom, score
      L1  H    17    27       P1  7948  0.33
      P1  H  6931  6943       L1     1  0.98
      P1  H  7989  7998       L1    21  0.87

> <Gold.Chemscore.Hbond.Weighted>
-8.0953

> <Gold.Chemscore.Metal.Weighted>
-0.0000

> <Gold.Chemscore.Lipo.Weighted>
-4.1142

> <Gold.Chemscore.Internal_Hbond.Weighted>
0.0000

> <Gold.Chemscore.DEClash.Weighted>
0.0000

> <Gold.Chemscore.DEInternal.Weighted>
0.0556

> <Gold.Chemscore.Rot.Weighted>
5.4714

> <Gold.Chemscore.Internal.Correction.Weighted>
   9.000000E+99

> <Gold.Protein.RotatedTorsions>
[ 6907 6896 6895 6894 ] final   79.29 input  -60.11 | X-H torsion
[ 7974 7965 7964 7962 ] final   32.91 input  175.53 | X-H torsion
[ 8008 7997 7996 7995 ] final  -85.67 input   59.86 | X-H torsion
[ 10167 10162 10161 10158 ] final   55.12 input  -65.29 | X-H torsion
[ 10718 10713 10712 10709 ] final  149.30 input   66.30 | X-H torsion
[ 10763 10752 10751 10750 ] final   45.27 input  -60.55 | X-H torsion
[ 11005 11000 10999 10996 ] final  123.00 input  -57.11 | X-H torsion

> <Gold.Protein.ActiveResidues>
 VAL166  LYS551  ARG553  GLY616  TRP617  ASP618  TYR619  PRO620  LYS621  CYS622 
 ASP623  PHE694  ASN695  SER759  ASP760  ASP761  ALA762  ILE779  LEU786  VAL792 
 PHE793  MET794  SER795  GLU796  ALA797  LYS798  CYS799  TRP800  GLU811  SER814 

> <Gold.Protein.RotatedAtoms>
  152.5192  134.3534  159.9258 H   0  0  0  0  0  0  0  0  0  0  0  0  # atno 6907 bound_to 6896
  151.3485  133.3928  159.2685 H   0  0  0  0  0  0  0  0  0  0  0  0  # atno 6908 bound_to 6896
  150.9746  134.9131  159.7866 H   0  0  0  0  0  0  0  0  0  0  0  0  # atno 6909 bound_to 6896
  146.1455  139.6465  142.9134 H   0  0  0  0  0  0  0  0  0  0  0  0  # atno 7974 bound_to 7965
  154.6434  140.0588  156.9872 H   0  0  0  0  0  0  0  0  0  0  0  0  # atno 8008 bound_to 7997
  155.1482  140.3271  155.4418 H   0  0  0  0  0  0  0  0  0  0  0  0  # atno 8009 bound_to 7997
  156.2542  140.1952  156.6595 H   0  0  0  0  0  0  0  0  0  0  0  0  # atno 8010 bound_to 7997
  140.2228  144.3770  150.6444 H   0  0  0  0  0  0  0  0  0  0  0  0  # atno 10167 bound_to 10162
  157.2978  131.0865  151.1413 H   0  0  0  0  0  0  0  0  0  0  0  0  # atno 10718 bound_to 10713
  152.9827  135.6045  154.3410 H   0  0  0  0  0  0  0  0  0  0  0  0  # atno 10763 bound_to 10752
  154.3106  135.2771  155.2569 H   0  0  0  0  0  0  0  0  0  0  0  0  # atno 10764 bound_to 10752
  154.4780  135.5924  153.6425 H   0  0  0  0  0  0  0  0  0  0  0  0  # atno 10765 bound_to 10752
  139.9293  134.9641  156.8194 H   0  0  0  0  0  0  0  0  0  0  0  0  # atno 11005 bound_to 11000
  145.4946  141.0438  143.2574 LP  0  0  0  0  0  0  0  0  0  0  0  0  # atno 17320 bound_to 7965
  144.7842  139.6462  143.7141 LP  0  0  0  0  0  0  0  0  0  0  0  0  # atno 17321 bound_to 7965
  140.6242  143.2179  151.6630 LP  0  0  0  0  0  0  0  0  0  0  0  0  # atno 17342 bound_to 10162
  139.5138  144.3432  152.0721 LP  0  0  0  0  0  0  0  0  0  0  0  0  # atno 17343 bound_to 10162
  157.2784  130.6738  149.6053 LP  0  0  0  0  0  0  0  0  0  0  0  0  # atno 17370 bound_to 10713
  155.9670  130.4457  150.5513 LP  0  0  0  0  0  0  0  0  0  0  0  0  # atno 17371 bound_to 10713
  140.6246  133.9962  155.7634 LP  0  0  0  0  0  0  0  0  0  0  0  0  # atno 17394 bound_to 11000
  141.0872  133.9973  157.3295 LP  0  0  0  0  0  0  0  0  0  0  0  0  # atno 17395 bound_to 11000

$$$$
