AV-unprocessed.smi:618|AV-procd|sdf|3079|dock4
  -GOLD-   22720 0 03D 1   1.00000     0.00000
 Structure written by MMmdl.
 41 43  0  0  0  0  0  0  0  0  2 V2000
  145.4709  138.5497  152.7927 O   0  0  0  0  0  0  0  0  0  0  0  0
  146.4919  137.9069  152.5524 C   0  0  0  0  0  0  0  0  0  0  0  0
  146.4830  136.6988  151.9722 N   0  0  0  0  0  0  0  0  0  0  0  0
  145.2857  135.9699  151.5616 C   0  0  0  0  0  0  0  0  0  0  0  0
  145.4143  134.4421  151.7328 C   0  0  1  0  0  0  0  0  0  0  0  0
  146.4928  133.8026  150.8314 C   0  0  0  0  0  0  0  0  0  0  0  0
  146.6465  132.3534  151.0965 N   0  3  2  0  0  0  0  0  0  0  0  0
  145.6570  131.4558  150.4618 C   0  0  0  0  0  0  0  0  0  0  0  0
  145.5228  130.2387  151.3908 C   0  0  0  0  0  0  0  0  0  0  0  0
  146.5089  130.4863  152.5377 C   0  0  0  0  0  0  0  0  0  0  0  0
  146.7267  132.0002  152.5286 C   0  0  2  0  0  0  0  0  0  0  0  0
  145.6580  132.7493  153.3560 C   0  0  0  0  0  0  0  0  0  0  0  0
  145.7129  134.1437  153.0915 O   0  0  0  0  0  0  0  0  0  0  0  0
  147.7478  138.3065  152.8158 N   0  0  0  0  0  0  0  0  0  0  0  0
  148.1935  139.5061  153.4353 C   0  0  0  0  0  0  0  0  0  0  0  0
  147.4329  140.6979  153.5218 C   0  0  0  0  0  0  0  0  0  0  0  0
  147.9888  141.8129  154.1780 C   0  0  0  0  0  0  0  0  0  0  0  0
  149.2797  141.6959  154.7285 C   0  0  0  0  0  0  0  0  0  0  0  0
  150.0114  140.5639  154.6637 N   0  0  0  0  0  0  0  0  0  0  0  0
  149.4720  139.4990  154.0332 C   0  0  0  0  0  0  0  0  0  0  0  0
  147.3702  136.2489  151.8006 H   0  0  0  0  0  0  0  0  0  0  0  0
  144.4107  136.3390  152.0993 H   0  0  0  0  0  0  0  0  0  0  0  0
  145.1121  136.1991  150.5100 H   0  0  0  0  0  0  0  0  0  0  0  0
  144.4405  134.0120  151.4931 H   0  0  0  0  0  0  0  0  0  0  0  0
  146.2724  133.9686  149.7762 H   0  0  0  0  0  0  0  0  0  0  0  0
  147.4608  134.2655  151.0256 H   0  0  0  0  0  0  0  0  0  0  0  0
  144.6906  131.9498  150.3538 H   0  0  0  0  0  0  0  0  0  0  0  0
  145.9977  131.1730  149.4655 H   0  0  0  0  0  0  0  0  0  0  0  0
  144.5041  130.1783  151.7762 H   0  0  0  0  0  0  0  0  0  0  0  0
  145.7335  129.3016  150.8744 H   0  0  0  0  0  0  0  0  0  0  0  0
  146.1497  130.1088  153.4959 H   0  0  0  0  0  0  0  0  0  0  0  0
  147.4517  129.9830  152.3189 H   0  0  0  0  0  0  0  0  0  0  0  0
  147.7166  132.2566  152.9086 H   0  0  0  0  0  0  0  0  0  0  0  0
  144.6539  132.3774  153.1447 H   0  0  0  0  0  0  0  0  0  0  0  0
  145.8309  132.5875  154.4203 H   0  0  0  0  0  0  0  0  0  0  0  0
  148.4822  137.6925  152.4953 H   0  0  0  0  0  0  0  0  0  0  0  0
  146.4377  140.7800  153.1147 H   0  0  0  0  0  0  0  0  0  0  0  0
  147.4360  142.7370  154.2607 H   0  0  0  0  0  0  0  0  0  0  0  0
  149.7342  142.5319  155.2391 H   0  0  0  0  0  0  0  0  0  0  0  0
  150.0852  138.6100  154.0037 H   0  0  0  0  0  0  0  0  0  0  0  0
  147.5340  132.0803  150.6986 H   0  0  0  0  0  0  0  0  0  0  0  0
  1  2  2  0  0  0  0
  2  3  1  0  0  0  0
  2 14  1  0  0  0  0
  3  4  1  0  0  0  0
  3 21  1  0  0  0  0
  4  5  1  0  0  0  0
  4 22  1  0  0  0  0
  4 23  1  0  0  0  0
  5 13  1  0  0  0  0
  5  6  1  0  0  0  0
  5 24  1  0  0  0  0
  6  7  1  0  0  0  0
  6 25  1  0  0  0  0
  6 26  1  0  0  0  0
  7 11  1  0  0  0  0
  7  8  1  0  0  0  0
  7 41  1  0  0  0  0
  8  9  1  0  0  0  0
  8 27  1  0  0  0  0
  8 28  1  0  0  0  0
  9 10  1  0  0  0  0
  9 29  1  0  0  0  0
  9 30  1  0  0  0  0
 10 11  1  0  0  0  0
 10 31  1  0  0  0  0
 10 32  1  0  0  0  0
 11 12  1  0  0  0  0
 11 33  1  0  0  0  0
 12 13  1  0  0  0  0
 12 34  1  0  0  0  0
 12 35  1  0  0  0  0
 14 15  1  0  0  0  0
 14 36  1  0  0  0  0
 15 20  1  0  0  0  0
 15 16  2  0  0  0  0
 16 17  1  0  0  0  0
 16 37  1  0  0  0  0
 17 18  2  0  0  0  0
 17 38  1  0  0  0  0
 18 19  1  0  0  0  0
 18 39  1  0  0  0  0
 19 20  2  0  0  0  0
 20 40  1  0  0  0  0
M  CHG  1   7   1
M  END
> <s_m_source_file>
AV-unprocessed.smi

> <i_m_source_file_index>
618

> <i_lp_mmshare_version>
43012

> <i_f3d_flags>
0

> <s_epik_input>
W2NIXTFuW2NIXVtjSF1bY0hdYzFbTkhdQyg9TylbTkhdW0NIMl1bQ0BIXShbQ0gyXTIpT1tDSDJdW0NAQEhdKE4yMylbQ0gyXVtDSDJdW0NIMl0z

> <s_epik_cmdline>
J2VwaWtfcHl0aG9uJywgJy1waCcsICc3LjAnLCAnLXRuJywgJzgnLCAnLW1hJywgJzIwMCcsICctbWV0YWxfYmluZGluZycsICctaW1hZScsICc8aW5maWxlLm1hZT4nLCAnLW9tYWUnLCAnPG91dGZpbGUubWFlPic=

> <r_epik_Ionization_Penalty>
0.111044

> <r_epik_Ionization_Penalty_Charging>
0.10673

> <r_epik_Ionization_Penalty_Neutral>
0.00431361

> <r_epik_State_Penalty>
0.0978747

> <r_epik_Charging_Adjusted_Penalty>
0.204605

> <i_epik_Tot_Q>
1

> <i_epik_Tot_abs_Q>
1

> <r_epik_Metal_State_Penalty>
0.0947591

> <b_epik_Metal_Only>
0

> <s_lp_Force_Field>
OPLS_2005

> <r_lp_Energy>
40.8554

> <b_lp_Chiralities_Consistent>
1

> <s_lp_Variant>
AV-unprocessed.smi:618-6

> <Gold.Version>
5.8.1

> <Gold.Id.Protein>
6NUR|6NUR_protein|mol2

> <Gold.PLP.Fitness>
45.6049

> <Gold.PLP.PLP>
-31.5824

> <Gold.PLP.part.hbond>
-4.8633

> <Gold.PLP.part.metal>
0.0000

> <Gold.PLP.part.buried>
1.2925

> <Gold.PLP.part.nonpolar>
-30.7940

> <Gold.PLP.part.repulsive>
3.7594

> <Gold.PLP.ligand.clash>
0.0000

> <Gold.PLP.ligand.torsion>
0.2861

> <Gold.PLP.Chemscore.Hbond>
3.8640

> <Gold.PLP.Chemscore.CHOScore>
1.0000

> <Gold.PLP.Chemscore.Metal>
0.0000

> <Gold.Chemscore.Hbonds>
donor molecule, donor type, donor heavy atom, donor atom, acceptor molecule, acceptor atom, score
      L1  H     3    21       P1  7948  1.00
      L1  H     7    41       P1 10747  1.00
      L1  H    14    36       P1  7948  1.00
      P1  H  7989  7998       L1    19  0.86
      L1  C    18    39       P1  8028  1.00

> <Gold.PLP.Chemscore.Internal.Correction>
0.0027

> <Gold.Rescore>
     Score         DG    S(hbond)    S(metal)    S(lipo)     H(rot)  DE(clash)    DE(int)     intcor
     19.20     -22.07       2.91        0.00      86.55       1.27       1.51       1.37       ----

> <Gold.Chemscore.Fitness>
19.1974

> <Gold.Chemscore.DG>
-22.0739

> <Gold.Chemscore.ZeroCoef>
-5.4800

> <Gold.Chemscore.Hbond>
2.9063

> <Gold.Chemscore.Metal>
0.0000

> <Gold.Chemscore.Lipo>
86.5528

> <Gold.Chemscore.Internal_Hbond>
0.0000

> <Gold.Chemscore.DEClash>
1.5053

> <Gold.Chemscore.DEInternal>
1.3713

> <Gold.Chemscore.Rot>
1.2656

> <Gold.Chemscore.Internal.Correction>
   9.000000E+99

> <Gold.Chemscore.Hbonds>
donor molecule, donor type, donor heavy atom, donor atom, acceptor molecule, acceptor atom, score
      L1  H     3    21       P1  7948  0.92
      L1  H     7    41       P1 10747  0.98
      L1  H    14    36       P1  7948  0.95
      P1  H  7989  7998       L1    19  0.14

> <Gold.Chemscore.Hbond.Weighted>
-9.7071

> <Gold.Chemscore.Metal.Weighted>
-0.0000

> <Gold.Chemscore.Lipo.Weighted>
-10.1267

> <Gold.Chemscore.Internal_Hbond.Weighted>
0.0000

> <Gold.Chemscore.DEClash.Weighted>
1.5053

> <Gold.Chemscore.DEInternal.Weighted>
1.3713

> <Gold.Chemscore.Rot.Weighted>
3.2399

> <Gold.Chemscore.Internal.Correction.Weighted>
   9.000000E+99

> <Gold.Protein.RotatedTorsions>
[ 6907 6896 6895 6894 ] final   77.06 input  -60.11 | X-H torsion
[ 7974 7965 7964 7962 ] final   25.02 input  175.53 | X-H torsion
[ 8008 7997 7996 7995 ] final -105.51 input   59.86 | X-H torsion
[ 10167 10162 10161 10158 ] final -113.20 input  -65.29 | X-H torsion
[ 10718 10713 10712 10709 ] final  109.41 input   66.30 | X-H torsion
[ 10763 10752 10751 10750 ] final   28.76 input  -60.55 | X-H torsion
[ 11005 11000 10999 10996 ] final  150.11 input  -57.11 | X-H torsion

> <Gold.Protein.ActiveResidues>
 VAL166  LYS551  ARG553  GLY616  TRP617  ASP618  TYR619  PRO620  LYS621  CYS622 
 ASP623  PHE694  ASN695  SER759  ASP760  ASP761  ALA762  ILE779  LEU786  VAL792 
 PHE793  MET794  SER795  GLU796  ALA797  LYS798  CYS799  TRP800  GLU811  SER814 

> <Gold.Protein.RotatedAtoms>
  152.5101  134.3874  159.9372 H   0  0  0  0  0  0  0  0  0  0  0  0  # atno 6907 bound_to 6896
  151.3833  133.3807  159.2720 H   0  0  0  0  0  0  0  0  0  0  0  0  # atno 6908 bound_to 6896
  150.9488  134.8910  159.7717 H   0  0  0  0  0  0  0  0  0  0  0  0  # atno 6909 bound_to 6896
  146.1909  139.7524  142.8832 H   0  0  0  0  0  0  0  0  0  0  0  0  # atno 7974 bound_to 7965
  154.9010  140.0413  157.1893 H   0  0  0  0  0  0  0  0  0  0  0  0  # atno 8008 bound_to 7997
  154.8444  140.2919  155.5617 H   0  0  0  0  0  0  0  0  0  0  0  0  # atno 8009 bound_to 7997
  156.2993  140.2476  156.3392 H   0  0  0  0  0  0  0  0  0  0  0  0  # atno 8010 bound_to 7997
  140.1144  143.4499  152.1731 H   0  0  0  0  0  0  0  0  0  0  0  0  # atno 10167 bound_to 10162
  157.6542  131.0913  150.6450 H   0  0  0  0  0  0  0  0  0  0  0  0  # atno 10718 bound_to 10713
  153.0472  135.6505  154.0787 H   0  0  0  0  0  0  0  0  0  0  0  0  # atno 10763 bound_to 10752
  154.0483  135.2898  155.3346 H   0  0  0  0  0  0  0  0  0  0  0  0  # atno 10764 bound_to 10752
  154.6737  135.5346  153.8237 H   0  0  0  0  0  0  0  0  0  0  0  0  # atno 10765 bound_to 10752
  140.1103  134.8928  157.1926 H   0  0  0  0  0  0  0  0  0  0  0  0  # atno 11005 bound_to 11000
  145.3795  141.0356  143.3186 LP  0  0  0  0  0  0  0  0  0  0  0  0  # atno 17320 bound_to 7965
  144.8485  139.5358  143.6867 LP  0  0  0  0  0  0  0  0  0  0  0  0  # atno 17321 bound_to 7965
  139.5602  144.7400  151.4178 LP  0  0  0  0  0  0  0  0  0  0  0  0  # atno 17342 bound_to 10162
  140.6907  143.7867  150.7252 LP  0  0  0  0  0  0  0  0  0  0  0  0  # atno 17343 bound_to 10162
  156.6758  130.4553  149.5643 LP  0  0  0  0  0  0  0  0  0  0  0  0  # atno 17370 bound_to 10713
  156.1965  130.6592  151.1119 LP  0  0  0  0  0  0  0  0  0  0  0  0  # atno 17371 bound_to 10713
  140.3100  134.3034  155.7269 LP  0  0  0  0  0  0  0  0  0  0  0  0  # atno 17394 bound_to 11000
  141.2128  133.7644  156.9763 LP  0  0  0  0  0  0  0  0  0  0  0  0  # atno 17395 bound_to 11000

$$$$
