AV-unprocessed.smi:1978|AV-procd|sdf|7994|dock7
  -GOLD-   2272010173D 1   1.00000     0.00000
 Structure written by MMmdl.
 45 46  0  0  0  0  0  0  0  0  2 V2000
  153.4477  140.8713  160.6064 C   0  0  0  0  0  0  0  0  0  0  0  0
  152.6502  140.5817  159.3816 C   0  0  0  0  0  0  0  0  0  0  0  0
  151.5991  141.2187  158.7841 C   0  0  0  0  0  0  0  0  0  0  0  0
  151.3283  140.3991  157.6566 C   0  0  0  0  0  0  0  0  0  0  0  0
  150.2825  140.7240  156.7554 N   0  0  0  0  0  0  0  0  0  0  0  0
  150.1129  140.2690  155.5026 C   0  0  0  0  0  0  0  0  0  0  0  0
  150.8555  139.4718  154.9290 O   0  0  0  0  0  0  0  0  0  0  0  0
  149.0175  140.7942  154.9349 N   0  0  0  0  0  0  0  0  0  0  0  0
  148.5553  140.4889  153.5848 C   0  0  0  0  0  0  0  0  0  0  0  0
  147.0814  140.9104  153.3516 C   0  0  2  0  0  0  0  0  0  0  0  0
  146.6660  142.1150  154.2213 C   0  0  0  0  0  0  0  0  0  0  0  0
  146.1177  139.7710  153.4899 N   0  3  2  0  0  0  0  0  0  0  0  0
  145.9529  139.2865  154.8919 C   0  0  0  0  0  0  0  0  0  0  0  0
  144.7636  138.3234  155.0159 C   0  0  0  0  0  0  0  0  0  0  0  0
  144.9338  137.1331  154.0699 C   0  0  0  0  0  0  0  0  0  0  0  0
  145.1341  137.6390  152.6377 C   0  0  0  0  0  0  0  0  0  0  0  0
  146.3160  138.6279  152.5366 C   0  0  1  0  0  0  0  0  0  0  0  0
  146.4812  139.0657  151.0672 C   0  0  0  0  0  0  0  0  0  0  0  0
  152.1418  139.3579  157.5713 N   0  0  0  0  0  0  0  0  0  0  0  0
  152.9936  139.4696  158.6765 O   0  0  0  0  0  0  0  0  0  0  0  0
  153.1158  141.7968  161.0772 H   0  0  0  0  0  0  0  0  0  0  0  0
  154.5052  140.9764  160.3637 H   0  0  0  0  0  0  0  0  0  0  0  0
  153.3452  140.0659  161.3338 H   0  0  0  0  0  0  0  0  0  0  0  0
  151.1045  142.1229  159.1066 H   0  0  0  0  0  0  0  0  0  0  0  0
  149.5883  141.3679  157.1045 H   0  0  0  0  0  0  0  0  0  0  0  0
  148.4610  141.4413  155.4748 H   0  0  0  0  0  0  0  0  0  0  0  0
  149.2218  140.9717  152.8693 H   0  0  0  0  0  0  0  0  0  0  0  0
  148.6739  139.4154  153.4393 H   0  0  0  0  0  0  0  0  0  0  0  0
  146.9920  141.2868  152.3347 H   0  0  0  0  0  0  0  0  0  0  0  0
  147.2123  143.0131  153.9321 H   0  0  0  0  0  0  0  0  0  0  0  0
  146.8649  141.9515  155.2801 H   0  0  0  0  0  0  0  0  0  0  0  0
  145.6045  142.3363  154.1065 H   0  0  0  0  0  0  0  0  0  0  0  0
  146.8637  138.7852  155.2214 H   0  0  0  0  0  0  0  0  0  0  0  0
  145.7844  140.1152  155.5768 H   0  0  0  0  0  0  0  0  0  0  0  0
  144.6741  137.9715  156.0441 H   0  0  0  0  0  0  0  0  0  0  0  0
  143.8363  138.8499  154.7859 H   0  0  0  0  0  0  0  0  0  0  0  0
  145.7927  136.5345  154.3762 H   0  0  0  0  0  0  0  0  0  0  0  0
  144.0618  136.4806  154.1223 H   0  0  0  0  0  0  0  0  0  0  0  0
  145.2992  136.7869  151.9770 H   0  0  0  0  0  0  0  0  0  0  0  0
  144.2189  138.1222  152.2924 H   0  0  0  0  0  0  0  0  0  0  0  0
  147.2208  138.0926  152.8273 H   0  0  0  0  0  0  0  0  0  0  0  0
  146.4796  138.2024  150.4012 H   0  0  0  0  0  0  0  0  0  0  0  0
  147.4275  139.5780  150.8949 H   0  0  0  0  0  0  0  0  0  0  0  0
  145.6709  139.7243  150.7525 H   0  0  0  0  0  0  0  0  0  0  0  0
  145.2238  140.1662  153.2357 H   0  0  0  0  0  0  0  0  0  0  0  0
  1  2  1  0  0  0  0
  1 21  1  0  0  0  0
  1 22  1  0  0  0  0
  1 23  1  0  0  0  0
  2 20  1  0  0  0  0
  2  3  2  0  0  0  0
  3  4  1  0  0  0  0
  3 24  1  0  0  0  0
  4  5  1  0  0  0  0
  4 19  2  0  0  0  0
  5  6  1  0  0  0  0
  5 25  1  0  0  0  0
  6  7  2  0  0  0  0
  6  8  1  0  0  0  0
  8  9  1  0  0  0  0
  8 26  1  0  0  0  0
  9 10  1  0  0  0  0
  9 27  1  0  0  0  0
  9 28  1  0  0  0  0
 10 11  1  0  0  0  0
 10 12  1  0  0  0  0
 10 29  1  0  0  0  0
 11 30  1  0  0  0  0
 11 31  1  0  0  0  0
 11 32  1  0  0  0  0
 12 17  1  0  0  0  0
 12 13  1  0  0  0  0
 12 45  1  0  0  0  0
 13 14  1  0  0  0  0
 13 33  1  0  0  0  0
 13 34  1  0  0  0  0
 14 15  1  0  0  0  0
 14 35  1  0  0  0  0
 14 36  1  0  0  0  0
 15 16  1  0  0  0  0
 15 37  1  0  0  0  0
 15 38  1  0  0  0  0
 16 17  1  0  0  0  0
 16 39  1  0  0  0  0
 16 40  1  0  0  0  0
 17 18  1  0  0  0  0
 17 41  1  0  0  0  0
 18 42  1  0  0  0  0
 18 43  1  0  0  0  0
 18 44  1  0  0  0  0
 19 20  1  0  0  0  0
M  CHG  1  12   1
M  END
> <s_m_source_file>
AV-unprocessed.smi

> <i_m_source_file_index>
1978

> <i_lp_mmshare_version>
43012

> <i_f3d_flags>
0

> <s_epik_input>
W0NIM11jMVtjSF1jKG5vMSlbTkhdQyg9TylbTkhdW0NIMl1bQ0BIXShbQ0gzXSlOMltDSDJdW0NIMl1bQ0gyXVtDSDJdW0NASF0yW0NIM10=

> <s_epik_cmdline>
J2VwaWtfcHl0aG9uJywgJy1waCcsICc3LjAnLCAnLXRuJywgJzgnLCAnLW1hJywgJzIwMCcsICctbWV0YWxfYmluZGluZycsICctaW1hZScsICc8aW5maWxlLm1hZT4nLCAnLW9tYWUnLCAnPG91dGZpbGUubWFlPic=

> <r_epik_Ionization_Penalty>
0.00265971

> <r_epik_Ionization_Penalty_Charging>
0.00262393

> <r_epik_Ionization_Penalty_Neutral>
3.57846e-05

> <r_epik_State_Penalty>
0.00182566

> <r_epik_Charging_Adjusted_Penalty>
0.00444959

> <i_epik_Tot_Q>
1

> <i_epik_Tot_abs_Q>
1

> <r_epik_Metal_State_Penalty>
0.0216344

> <b_epik_Metal_Only>
0

> <s_lp_Force_Field>
OPLS_2005

> <r_lp_Energy>
19.2971

> <b_lp_Chiralities_Consistent>
1

> <s_lp_Variant>
AV-unprocessed.smi:1978-3

> <Gold.Version>
5.8.1

> <Gold.Id.Protein>
6NUR|6NUR_protein|mol2

> <Gold.PLP.Fitness>
41.0659

> <Gold.PLP.PLP>
-31.4232

> <Gold.PLP.part.hbond>
-4.0000

> <Gold.PLP.part.metal>
0.0000

> <Gold.PLP.part.buried>
2.4898

> <Gold.PLP.part.nonpolar>
-29.5220

> <Gold.PLP.part.repulsive>
0.2649

> <Gold.PLP.ligand.clash>
0.0000

> <Gold.PLP.ligand.torsion>
0.6931

> <Gold.PLP.Chemscore.Hbond>
3.6384

> <Gold.PLP.Chemscore.CHOScore>
0.0000

> <Gold.PLP.Chemscore.Metal>
0.0000

> <Gold.Chemscore.Hbonds>
donor molecule, donor type, donor heavy atom, donor atom, acceptor molecule, acceptor atom, score
      L1  H    12    45       P1 10175  2.00
      P1  H  7989  7998       L1     7  0.61

> <Gold.PLP.Chemscore.Internal.Correction>
0.1138

> <Gold.Rescore>
     Score         DG    S(hbond)    S(metal)    S(lipo)     H(rot)  DE(clash)    DE(int)     intcor
     10.25     -13.98       1.09        0.00      75.46       1.55       1.84       1.89       ----

> <Gold.Chemscore.Fitness>
10.2528

> <Gold.Chemscore.DG>
-13.9845

> <Gold.Chemscore.ZeroCoef>
-5.4800

> <Gold.Chemscore.Hbond>
1.0890

> <Gold.Chemscore.Metal>
0.0000

> <Gold.Chemscore.Lipo>
75.4554

> <Gold.Chemscore.Internal_Hbond>
0.0000

> <Gold.Chemscore.DEClash>
1.8414

> <Gold.Chemscore.DEInternal>
1.8903

> <Gold.Chemscore.Rot>
1.5474

> <Gold.Chemscore.Internal.Correction>
   9.000000E+99

> <Gold.Chemscore.Hbonds>
donor molecule, donor type, donor heavy atom, donor atom, acceptor molecule, acceptor atom, score
      L1  H    12    45       P1 10175  1.00
      P1  H  7989  7998       L1     7  0.10

> <Gold.Chemscore.Hbond.Weighted>
-3.6374

> <Gold.Chemscore.Metal.Weighted>
-0.0000

> <Gold.Chemscore.Lipo.Weighted>
-8.8283

> <Gold.Chemscore.Internal_Hbond.Weighted>
0.0000

> <Gold.Chemscore.DEClash.Weighted>
1.8414

> <Gold.Chemscore.DEInternal.Weighted>
1.8903

> <Gold.Chemscore.Rot.Weighted>
3.9612

> <Gold.Chemscore.Internal.Correction.Weighted>
   9.000000E+99

> <Gold.Protein.RotatedTorsions>
[ 6907 6896 6895 6894 ] final  109.99 input  -60.11 | X-H torsion
[ 7974 7965 7964 7962 ] final   60.56 input  175.53 | X-H torsion
[ 8008 7997 7996 7995 ] final -117.59 input   59.86 | X-H torsion
[ 10167 10162 10161 10158 ] final  -81.30 input  -65.29 | X-H torsion
[ 10718 10713 10712 10709 ] final   73.55 input   66.30 | X-H torsion
[ 10763 10752 10751 10750 ] final  -15.63 input  -60.55 | X-H torsion
[ 11005 11000 10999 10996 ] final   93.20 input  -57.11 | X-H torsion

> <Gold.Protein.ActiveResidues>
 VAL166  LYS551  ARG553  GLY616  TRP617  ASP618  TYR619  PRO620  LYS621  CYS622 
 ASP623  PHE694  ASN695  SER759  ASP760  ASP761  ALA762  ILE779  LEU786  VAL792 
 PHE793  MET794  SER795  GLU796  ALA797  LYS798  CYS799  TRP800  GLU811  SER814 

> <Gold.Protein.RotatedAtoms>
  152.5041  133.8865  159.7371 H   0  0  0  0  0  0  0  0  0  0  0  0  # atno 6907 bound_to 6896
  150.9314  133.6754  159.2817 H   0  0  0  0  0  0  0  0  0  0  0  0  # atno 6908 bound_to 6896
  151.4097  135.0988  159.9634 H   0  0  0  0  0  0  0  0  0  0  0  0  # atno 6909 bound_to 6896
  145.8946  139.3536  143.0628 H   0  0  0  0  0  0  0  0  0  0  0  0  # atno 7974 bound_to 7965
  155.0861  140.0394  157.2654 H   0  0  0  0  0  0  0  0  0  0  0  0  # atno 8008 bound_to 7997
  154.6868  140.2645  155.6827 H   0  0  0  0  0  0  0  0  0  0  0  0  # atno 8009 bound_to 7997
  156.2715  140.2767  156.1432 H   0  0  0  0  0  0  0  0  0  0  0  0  # atno 8010 bound_to 7997
  140.4424  143.2510  151.8606 H   0  0  0  0  0  0  0  0  0  0  0  0  # atno 10167 bound_to 10162
  157.6553  130.9634  150.1085 H   0  0  0  0  0  0  0  0  0  0  0  0  # atno 10718 bound_to 10713
  153.5462  135.7012  153.5613 H   0  0  0  0  0  0  0  0  0  0  0  0  # atno 10763 bound_to 10752
  153.3557  135.3983  155.1680 H   0  0  0  0  0  0  0  0  0  0  0  0  # atno 10764 bound_to 10752
  154.8667  135.3776  154.4970 H   0  0  0  0  0  0  0  0  0  0  0  0  # atno 10765 bound_to 10752
  139.8813  134.8776  156.3683 H   0  0  0  0  0  0  0  0  0  0  0  0  # atno 11005 bound_to 11000
  145.8866  140.9330  143.0574 LP  0  0  0  0  0  0  0  0  0  0  0  0  # atno 17320 bound_to 7965
  144.6732  140.0850  143.7467 LP  0  0  0  0  0  0  0  0  0  0  0  0  # atno 17321 bound_to 7965
  139.4790  144.5214  151.8796 LP  0  0  0  0  0  0  0  0  0  0  0  0  # atno 17342 bound_to 10162
  140.4303  144.2125  150.5888 LP  0  0  0  0  0  0  0  0  0  0  0  0  # atno 17343 bound_to 10162
  156.1988  130.3659  149.8815 LP  0  0  0  0  0  0  0  0  0  0  0  0  # atno 17370 bound_to 10713
  156.6724  130.8825  151.3564 LP  0  0  0  0  0  0  0  0  0  0  0  0  # atno 17371 bound_to 10713
  140.9482  133.7469  156.0236 LP  0  0  0  0  0  0  0  0  0  0  0  0  # atno 17394 bound_to 11000
  140.8138  134.3369  157.5403 LP  0  0  0  0  0  0  0  0  0  0  0  0  # atno 17395 bound_to 11000

$$$$
