AV-unprocessed.smi:35|AV-procd|sdf|270|dock7
  -GOLD-   2262016 33D 1   1.00000     0.00000
 Structure written by MMmdl.
 28 29  0  0  0  0  0  0  0  0  2 V2000
  152.1412  136.8820  159.6202 O   0  0  0  0  0  0  0  0  0  0  0  0
  151.8262  137.5015  158.6057 C   0  0  0  0  0  0  0  0  0  0  0  0
  152.7382  138.1267  157.8064 N   0  5  0  0  0  0  0  0  0  0  0  0
  152.3831  138.8134  156.6810 C   0  0  0  0  0  0  0  0  0  0  0  0
  153.1962  139.3935  155.9611 O   0  0  0  0  0  0  0  0  0  0  0  0
  151.0096  138.8798  156.3179 N   0  0  0  0  0  0  0  0  0  0  0  0
  150.6229  139.6360  155.0596 C   0  0  1  0  0  0  0  0  0  0  0  0
  149.6776  138.8991  154.3368 O   0  0  0  0  0  0  0  0  0  0  0  0
  148.4012  139.5211  154.4334 C   0  0  2  0  0  0  0  0  0  0  0  0
  147.4690  139.0621  153.2981 C   0  0  0  0  0  0  0  0  0  0  0  0
  148.2048  138.8530  152.1112 O   0  0  0  0  0  0  0  0  0  0  0  0
  148.7411  141.0149  154.4979 C   0  0  2  0  0  0  0  0  0  0  0  0
  149.0086  141.5366  153.2088 O   0  0  0  0  0  0  0  0  0  0  0  0
  150.0057  141.0291  155.3468 C   0  0  1  0  0  0  0  0  0  0  0  0
  149.6623  141.2363  156.7062 O   0  0  0  0  0  0  0  0  0  0  0  0
  150.0607  138.2562  157.1120 C   0  0  0  0  0  0  0  0  0  0  0  0
  150.4190  137.5830  158.2239 C   0  0  0  0  0  0  0  0  0  0  0  0
  148.9573  136.7417  159.2645 Br  0  0  0  0  0  0  0  0  0  0  0  0
  151.5315  139.6823  154.4566 H   0  0  0  0  0  0  0  0  0  0  0  0
  147.9646  139.2241  155.3885 H   0  0  0  0  0  0  0  0  0  0  0  0
  146.9268  138.1537  153.5612 H   0  0  0  0  0  0  0  0  0  0  0  0
  146.7209  139.8305  153.1023 H   0  0  0  0  0  0  0  0  0  0  0  0
  148.4516  137.9419  152.0674 H   0  0  0  0  0  0  0  0  0  0  0  0
  147.9311  141.5993  154.9366 H   0  0  0  0  0  0  0  0  0  0  0  0
  149.1368  140.8120  152.6160 H   0  0  0  0  0  0  0  0  0  0  0  0
  150.7042  141.8116  155.0467 H   0  0  0  0  0  0  0  0  0  0  0  0
  149.1229  140.5126  156.9884 H   0  0  0  0  0  0  0  0  0  0  0  0
  149.0149  138.2999  156.8516 H   0  0  0  0  0  0  0  0  0  0  0  0
  1  2  2  0  0  0  0
  2 17  1  0  0  0  0
  2  3  1  0  0  0  0
  3  4  1  0  0  0  0
  4  5  2  0  0  0  0
  4  6  1  0  0  0  0
  6  7  1  0  0  0  0
  6 16  1  0  0  0  0
  7 14  1  0  0  0  0
  7  8  1  0  0  0  0
  7 19  1  0  0  0  0
  8  9  1  0  0  0  0
  9 10  1  0  0  0  0
  9 12  1  0  0  0  0
  9 20  1  0  0  0  0
 10 11  1  0  0  0  0
 10 21  1  0  0  0  0
 10 22  1  0  0  0  0
 11 23  1  0  0  0  0
 12 13  1  0  0  0  0
 12 14  1  0  0  0  0
 12 24  1  0  0  0  0
 13 25  1  0  0  0  0
 14 15  1  0  0  0  0
 14 26  1  0  0  0  0
 15 27  1  0  0  0  0
 16 17  2  0  0  0  0
 16 28  1  0  0  0  0
 17 18  1  0  0  0  0
M  CHG  1   3  -1
M  END
> <s_m_source_file>
AV-unprocessed.smi

> <i_m_source_file_index>
35

> <i_lp_mmshare_version>
43012

> <i_f3d_flags>
0

> <s_epik_input>
Tz1jMVtuSF1jKD1PKW4oW2NIXWMxQnIpW0NAQEhdMk9bQ0BASF0oW0NIMl1bT0hdKVtDQEBIXShbT0hdKVtDQEhdMltPSF0=

> <s_epik_cmdline>
J2VwaWtfcHl0aG9uJywgJy1waCcsICc3LjAnLCAnLXRuJywgJzgnLCAnLW1hJywgJzIwMCcsICctbWV0YWxfYmluZGluZycsICctaW1hZScsICc8aW5maWxlLm1hZT4nLCAnLW9tYWUnLCAnPG91dGZpbGUubWFlPic=

> <r_epik_Ionization_Penalty>
1.06112

> <r_epik_Ionization_Penalty_Charging>
2.1796e-09

> <r_epik_Ionization_Penalty_Neutral>
1.06112

> <r_epik_State_Penalty>
1.11484

> <r_epik_Charging_Adjusted_Penalty>
1.11484

> <i_epik_Tot_Q>
-1

> <i_epik_Tot_abs_Q>
1

> <r_epik_Metal_State_Penalty>
0.0032876

> <b_epik_Metal_Only>
0

> <s_epik_Chemistry_Notes>
This compound contains an acetal/aminal-like group ( X-CH(R)-Y where X, Y are N, S, or O) that may be acid/base labile, releasing an aldehyde.

> <s_lp_Force_Field>
OPLS_2005

> <r_lp_Energy>
42.6041

> <b_lp_Chiralities_Consistent>
1

> <s_lp_Variant>
AV-unprocessed.smi:35-24

> <Gold.Version>
5.8.1

> <Gold.Id.Protein>
6NUR|6NUR_protein|mol2

> <Gold.PLP.Fitness>
39.0575

> <Gold.PLP.PLP>
-25.7164

> <Gold.PLP.part.hbond>
-5.9826

> <Gold.PLP.part.metal>
0.0000

> <Gold.PLP.part.buried>
-3.1141

> <Gold.PLP.part.nonpolar>
-15.9238

> <Gold.PLP.part.repulsive>
0.1833

> <Gold.PLP.ligand.clash>
0.0000

> <Gold.PLP.ligand.torsion>
0.6940

> <Gold.PLP.Chemscore.Hbond>
4.8960

> <Gold.PLP.Chemscore.CHOScore>
0.0000

> <Gold.PLP.Chemscore.Metal>
0.0000

> <Gold.Chemscore.Hbonds>
donor molecule, donor type, donor heavy atom, donor atom, acceptor molecule, acceptor atom, score
      L1  H    11    23       P1  7948  1.00
      L1  H    13    25       P1  7957  1.00
      P1  H  6896  6907       L1     1  1.00
      P1  H  7997  8010       L1     5  0.76
      P1  H  8011  8017       L1    13  0.42

> <Gold.PLP.Chemscore.Internal.Correction>
0.0411

> <Gold.Rescore>
     Score         DG    S(hbond)    S(metal)    S(lipo)     H(rot)  DE(clash)    DE(int)     intcor
     13.04     -14.69       4.29        0.00      35.62       3.63       0.15       1.50       ----

> <Gold.Chemscore.Fitness>
13.0423

> <Gold.Chemscore.DG>
-14.6872

> <Gold.Chemscore.ZeroCoef>
-5.4800

> <Gold.Chemscore.Hbond>
4.2882

> <Gold.Chemscore.Metal>
0.0000

> <Gold.Chemscore.Lipo>
35.6202

> <Gold.Chemscore.Internal_Hbond>
0.0000

> <Gold.Chemscore.DEClash>
0.1489

> <Gold.Chemscore.DEInternal>
1.4960

> <Gold.Chemscore.Rot>
3.6261

> <Gold.Chemscore.Internal.Correction>
   9.000000E+99

> <Gold.Chemscore.Hbonds>
donor molecule, donor type, donor heavy atom, donor atom, acceptor molecule, acceptor atom, score
      L1  H    11    23       P1  7948  1.00
      L1  H    13    25       P1  7957  0.98
      P1  H  6896  6907       L1     1  0.95
      P1  H  7997  8010       L1     5  0.75
      P1  H  8011  8017       L1    13  0.02

> <Gold.Chemscore.Hbond.Weighted>
-14.3225

> <Gold.Chemscore.Metal.Weighted>
-0.0000

> <Gold.Chemscore.Lipo.Weighted>
-4.1676

> <Gold.Chemscore.Internal_Hbond.Weighted>
0.0000

> <Gold.Chemscore.DEClash.Weighted>
0.1489

> <Gold.Chemscore.DEInternal.Weighted>
1.4960

> <Gold.Chemscore.Rot.Weighted>
9.2828

> <Gold.Chemscore.Internal.Correction.Weighted>
   9.000000E+99

> <Gold.Protein.RotatedTorsions>
[ 6907 6896 6895 6894 ] final   26.99 input  -60.11 | X-H torsion
[ 7974 7965 7964 7962 ] final   76.98 input  175.53 | X-H torsion
[ 8008 7997 7996 7995 ] final   98.34 input   59.86 | X-H torsion
[ 10167 10162 10161 10158 ] final  -91.69 input  -65.29 | X-H torsion
[ 10718 10713 10712 10709 ] final -107.81 input   66.30 | X-H torsion
[ 10763 10752 10751 10750 ] final  134.03 input  -60.55 | X-H torsion
[ 11005 11000 10999 10996 ] final -137.35 input  -57.11 | X-H torsion

> <Gold.Protein.ActiveResidues>
 VAL166  LYS551  ARG553  GLY616  TRP617  ASP618  TYR619  PRO620  LYS621  CYS622 
 ASP623  PHE694  ASN695  SER759  ASP760  ASP761  ALA762  ILE779  LEU786  VAL792 
 PHE793  MET794  SER795  GLU796  ALA797  LYS798  CYS799  TRP800  GLU811  SER814 

> <Gold.Protein.RotatedAtoms>
  151.9956  134.9956  160.0562 H   0  0  0  0  0  0  0  0  0  0  0  0  # atno 6907 bound_to 6896
  152.1567  133.4551  159.4849 H   0  0  0  0  0  0  0  0  0  0  0  0  # atno 6908 bound_to 6896
  150.6882  134.2040  159.4376 H   0  0  0  0  0  0  0  0  0  0  0  0  # atno 6909 bound_to 6896
  145.6959  139.2567  143.1733 H   0  0  0  0  0  0  0  0  0  0  0  0  # atno 7974 bound_to 7965
  156.0994  140.3245  155.7922 H   0  0  0  0  0  0  0  0  0  0  0  0  # atno 8008 bound_to 7997
  155.4862  140.0558  157.2977 H   0  0  0  0  0  0  0  0  0  0  0  0  # atno 8009 bound_to 7997
  154.4687  140.2001  156.0066 H   0  0  0  0  0  0  0  0  0  0  0  0  # atno 8010 bound_to 7997
  140.3424  143.2935  151.9820 H   0  0  0  0  0  0  0  0  0  0  0  0  # atno 10167 bound_to 10162
  156.0455  130.5681  150.7874 H   0  0  0  0  0  0  0  0  0  0  0  0  # atno 10718 bound_to 10713
  153.8168  135.3121  155.3406 H   0  0  0  0  0  0  0  0  0  0  0  0  # atno 10763 bound_to 10752
  154.8029  135.4716  154.0323 H   0  0  0  0  0  0  0  0  0  0  0  0  # atno 10764 bound_to 10752
  153.1719  135.6879  153.8686 H   0  0  0  0  0  0  0  0  0  0  0  0  # atno 10765 bound_to 10752
  140.8719  134.2040  157.4645 H   0  0  0  0  0  0  0  0  0  0  0  0  # atno 11005 bound_to 11000
  146.0841  140.7731  142.9627 LP  0  0  0  0  0  0  0  0  0  0  0  0  # atno 17320 bound_to 7965
  144.6983  140.3535  143.7177 LP  0  0  0  0  0  0  0  0  0  0  0  0  # atno 17321 bound_to 7965
  139.4838  144.6146  151.7371 LP  0  0  0  0  0  0  0  0  0  0  0  0  # atno 17342 bound_to 10162
  140.5297  144.0750  150.6049 LP  0  0  0  0  0  0  0  0  0  0  0  0  # atno 17343 bound_to 10162
  157.5324  131.0937  150.9937 LP  0  0  0  0  0  0  0  0  0  0  0  0  # atno 17370 bound_to 10713
  157.0240  130.5685  149.5335 LP  0  0  0  0  0  0  0  0  0  0  0  0  # atno 17371 bound_to 10713
  139.8713  134.9778  156.4973 LP  0  0  0  0  0  0  0  0  0  0  0  0  # atno 17394 bound_to 11000
  140.8563  133.8094  155.9219 LP  0  0  0  0  0  0  0  0  0  0  0  0  # atno 17395 bound_to 11000

$$$$
