AV-unprocessed.smi:2547|AV-procd|sdf|10002|dock1
  -GOLD-   2272014 53D 1   1.00000     0.00000
 Structure written by MMmdl.
 44 45  0  0  0  0  0  0  0  0  2 V2000
  147.2733  137.0409  154.6762 C   0  0  0  0  0  0  0  0  0  0  0  0
  148.7378  137.0798  154.4764 N   0  3  2  0  0  0  0  0  0  0  0  0
  149.4595  136.1799  155.4101 C   0  0  0  0  0  0  0  0  0  0  0  0
  150.9662  136.1436  155.0941 C   0  0  0  0  0  0  0  0  0  0  0  0
  151.5903  137.5506  155.0892 C   0  0  2  0  0  0  0  0  0  0  0  0
  151.6774  138.0771  156.4512 N   0  0  0  0  0  0  0  0  0  0  0  0
  152.0447  139.3255  156.7762 C   0  0  0  0  0  0  0  0  0  0  0  0
  152.3425  140.1818  155.9429 O   0  0  0  0  0  0  0  0  0  0  0  0
  152.0380  139.5036  158.1093 N   0  0  0  0  0  0  0  0  0  0  0  0
  152.3598  140.6802  158.8370 C   0  0  0  0  0  0  0  0  0  0  0  0
  153.0951  140.4721  160.0224 C   0  0  0  0  0  0  0  0  0  0  0  0
  153.4578  141.5807  160.8079 C   0  0  0  0  0  0  0  0  0  0  0  0
  153.0772  142.8679  160.3888 C   0  0  0  0  0  0  0  0  0  0  0  0
  152.3404  143.0075  159.1881 C   0  0  0  0  0  0  0  0  0  0  0  0
  151.9285  144.2741  158.7148 N   0  0  0  0  0  0  0  0  0  0  0  0
  152.2220  145.4702  159.4985 C   0  0  0  0  0  0  0  0  0  0  0  0
  151.1114  144.3761  157.5122 C   0  0  0  0  0  0  0  0  0  0  0  0
  151.9994  141.9261  158.4457 N   0  0  0  0  0  0  0  0  0  0  0  0
  150.7762  138.4792  154.1650 C   0  0  0  0  0  0  0  0  0  0  0  0
  149.2758  138.4624  154.5074 C   0  0  0  0  0  0  0  0  0  0  0  0
  147.0031  137.4119  155.6659 H   0  0  0  0  0  0  0  0  0  0  0  0
  146.8982  136.0217  154.5782 H   0  0  0  0  0  0  0  0  0  0  0  0
  146.7663  137.6538  153.9301 H   0  0  0  0  0  0  0  0  0  0  0  0
  149.2948  136.5104  156.4367 H   0  0  0  0  0  0  0  0  0  0  0  0
  149.0501  135.1718  155.3340 H   0  0  0  0  0  0  0  0  0  0  0  0
  151.4846  135.5014  155.8072 H   0  0  0  0  0  0  0  0  0  0  0  0
  151.1120  135.6858  154.1146 H   0  0  0  0  0  0  0  0  0  0  0  0
  152.6058  137.4668  154.6972 H   0  0  0  0  0  0  0  0  0  0  0  0
  151.4556  137.4398  157.2020 H   0  0  0  0  0  0  0  0  0  0  0  0
  151.7728  138.7075  158.6695 H   0  0  0  0  0  0  0  0  0  0  0  0
  153.3802  139.4770  160.3313 H   0  0  0  0  0  0  0  0  0  0  0  0
  154.0203  141.4458  161.7200 H   0  0  0  0  0  0  0  0  0  0  0  0
  153.3554  143.7173  160.9940 H   0  0  0  0  0  0  0  0  0  0  0  0
  151.7257  145.4234  160.4682 H   0  0  0  0  0  0  0  0  0  0  0  0
  151.8814  146.3726  158.9909 H   0  0  0  0  0  0  0  0  0  0  0  0
  153.2956  145.5683  159.6635 H   0  0  0  0  0  0  0  0  0  0  0  0
  150.1882  143.8072  157.6260 H   0  0  0  0  0  0  0  0  0  0  0  0
  151.6537  143.9945  156.6467 H   0  0  0  0  0  0  0  0  0  0  0  0
  150.8402  145.4111  157.3036 H   0  0  0  0  0  0  0  0  0  0  0  0
  151.1586  139.4997  154.2082 H   0  0  0  0  0  0  0  0  0  0  0  0
  150.9071  138.1556  153.1315 H   0  0  0  0  0  0  0  0  0  0  0  0
  148.7346  139.0804  153.7900 H   0  0  0  0  0  0  0  0  0  0  0  0
  149.1066  138.9007  155.4924 H   0  0  0  0  0  0  0  0  0  0  0  0
  148.9085  136.7261  153.5457 H   0  0  0  0  0  0  0  0  0  0  0  0
  1  2  1  0  0  0  0
  1 21  1  0  0  0  0
  1 22  1  0  0  0  0
  1 23  1  0  0  0  0
  2 20  1  0  0  0  0
  2  3  1  0  0  0  0
  2 44  1  0  0  0  0
  3  4  1  0  0  0  0
  3 24  1  0  0  0  0
  3 25  1  0  0  0  0
  4  5  1  0  0  0  0
  4 26  1  0  0  0  0
  4 27  1  0  0  0  0
  5  6  1  0  0  0  0
  5 19  1  0  0  0  0
  5 28  1  0  0  0  0
  6  7  1  0  0  0  0
  6 29  1  0  0  0  0
  7  8  2  0  0  0  0
  7  9  1  0  0  0  0
  9 10  1  0  0  0  0
  9 30  1  0  0  0  0
 10 18  1  0  0  0  0
 10 11  2  0  0  0  0
 11 12  1  0  0  0  0
 11 31  1  0  0  0  0
 12 13  2  0  0  0  0
 12 32  1  0  0  0  0
 13 14  1  0  0  0  0
 13 33  1  0  0  0  0
 14 15  1  0  0  0  0
 14 18  2  0  0  0  0
 15 16  1  0  0  0  0
 15 17  1  0  0  0  0
 16 34  1  0  0  0  0
 16 35  1  0  0  0  0
 16 36  1  0  0  0  0
 17 37  1  0  0  0  0
 17 38  1  0  0  0  0
 17 39  1  0  0  0  0
 19 20  1  0  0  0  0
 19 40  1  0  0  0  0
 19 41  1  0  0  0  0
 20 42  1  0  0  0  0
 20 43  1  0  0  0  0
M  CHG  1   2   1
M  END
> <s_m_source_file>
AV-unprocessed.smi

> <i_m_source_file_index>
2547

> <i_lp_mmshare_version>
43012

> <i_f3d_flags>
0

> <s_epik_input>
W0NIM11OMVtDSDJdW0NIMl1bQ0hdKFtDSDJdW0NIMl0xKVtOSF1DKD1PKVtOSF1jMltjSF1bY0hdW2NIXWMobjIpTihbQ0gzXSlbQ0gzXQ==

> <s_epik_cmdline>
J2VwaWtfcHl0aG9uJywgJy1waCcsICc3LjAnLCAnLXRuJywgJzgnLCAnLW1hJywgJzIwMCcsICctbWV0YWxfYmluZGluZycsICctaW1hZScsICc8aW5maWxlLm1hZT4nLCAnLW9tYWUnLCAnPG91dGZpbGUubWFlPic=

> <r_lp_tautomer_probability>
1

> <r_epik_Ionization_Penalty>
0.0212039

> <r_epik_Ionization_Penalty_Charging>
0.00366825

> <r_epik_Ionization_Penalty_Neutral>
0.0175357

> <r_epik_State_Penalty>
0.0137702

> <r_epik_Charging_Adjusted_Penalty>
0.0174385

> <i_epik_Tot_Q>
1

> <i_epik_Tot_abs_Q>
1

> <r_epik_Metal_State_Penalty>
0.0148742

> <b_epik_Metal_Only>
0

> <s_lp_Force_Field>
OPLS_2005

> <r_lp_Energy>
18.1173

> <b_lp_Chiralities_Consistent>
1

> <s_lp_Variant>
AV-unprocessed.smi:2547-2

> <Gold.Version>
5.8.1

> <Gold.Id.Protein>
6NUR|6NUR_protein|mol2

> <Gold.PLP.Fitness>
45.7502

> <Gold.PLP.PLP>
-37.4881

> <Gold.PLP.part.hbond>
-2.0000

> <Gold.PLP.part.metal>
0.0000

> <Gold.PLP.part.buried>
-0.4541

> <Gold.PLP.part.nonpolar>
-34.8379

> <Gold.PLP.part.repulsive>
0.1583

> <Gold.PLP.ligand.clash>
0.0000

> <Gold.PLP.ligand.torsion>
0.3801

> <Gold.PLP.Chemscore.Hbond>
3.0000

> <Gold.PLP.Chemscore.CHOScore>
0.0000

> <Gold.PLP.Chemscore.Metal>
0.0000

> <Gold.Chemscore.Hbonds>
donor molecule, donor type, donor heavy atom, donor atom, acceptor molecule, acceptor atom, score
      L1  H     2    44       P1  7948  2.00
      P1  H  7997  8009       L1     8  1.00

> <Gold.PLP.Chemscore.Internal.Correction>
0.0223

> <Gold.Rescore>
     Score         DG    S(hbond)    S(metal)    S(lipo)     H(rot)  DE(clash)    DE(int)     intcor
     15.93     -19.18       1.89        0.00      85.14       1.00       0.98       2.27       ----

> <Gold.Chemscore.Fitness>
15.9285

> <Gold.Chemscore.DG>
-19.1788

> <Gold.Chemscore.ZeroCoef>
-5.4800

> <Gold.Chemscore.Hbond>
1.8855

> <Gold.Chemscore.Metal>
0.0000

> <Gold.Chemscore.Lipo>
85.1381

> <Gold.Chemscore.Internal_Hbond>
0.0000

> <Gold.Chemscore.DEClash>
0.9795

> <Gold.Chemscore.DEInternal>
2.2708

> <Gold.Chemscore.Rot>
1.0000

> <Gold.Chemscore.Internal.Correction>
   9.000000E+99

> <Gold.Chemscore.Hbonds>
donor molecule, donor type, donor heavy atom, donor atom, acceptor molecule, acceptor atom, score
      L1  H     2    44       P1  7948  1.00
      P1  H  7997  8009       L1     8  0.24

> <Gold.Chemscore.Hbond.Weighted>
-6.2977

> <Gold.Chemscore.Metal.Weighted>
-0.0000

> <Gold.Chemscore.Lipo.Weighted>
-9.9612

> <Gold.Chemscore.Internal_Hbond.Weighted>
0.0000

> <Gold.Chemscore.DEClash.Weighted>
0.9795

> <Gold.Chemscore.DEInternal.Weighted>
2.2708

> <Gold.Chemscore.Rot.Weighted>
2.5600

> <Gold.Chemscore.Internal.Correction.Weighted>
   9.000000E+99

> <Gold.Protein.RotatedTorsions>
[ 6907 6896 6895 6894 ] final   47.14 input  -60.11 | X-H torsion
[ 7974 7965 7964 7962 ] final   37.37 input  175.53 | X-H torsion
[ 8008 7997 7996 7995 ] final -149.86 input   59.86 | X-H torsion
[ 10167 10162 10161 10158 ] final  -98.52 input  -65.29 | X-H torsion
[ 10718 10713 10712 10709 ] final  158.67 input   66.30 | X-H torsion
[ 10763 10752 10751 10750 ] final  130.28 input  -60.55 | X-H torsion
[ 11005 11000 10999 10996 ] final -100.63 input  -57.11 | X-H torsion

> <Gold.Protein.ActiveResidues>
 VAL166  LYS551  ARG553  GLY616  TRP617  ASP618  TYR619  PRO620  LYS621  CYS622 
 ASP623  PHE694  ASN695  SER759  ASP760  ASP761  ALA762  ILE779  LEU786  VAL792 
 PHE793  MET794  SER795  GLU796  ALA797  LYS798  CYS799  TRP800  GLU811  SER814 

> <Gold.Protein.RotatedAtoms>
  152.2645  134.7998  160.0424 H   0  0  0  0  0  0  0  0  0  0  0  0  # atno 6907 bound_to 6896
  151.8633  133.3456  159.3719 H   0  0  0  0  0  0  0  0  0  0  0  0  # atno 6908 bound_to 6896
  150.7129  134.5112  159.5652 H   0  0  0  0  0  0  0  0  0  0  0  0  # atno 6909 bound_to 6896
  146.1142  139.5902  142.9332 H   0  0  0  0  0  0  0  0  0  0  0  0  # atno 7974 bound_to 7965
  155.6143  140.0675  157.2697 H   0  0  0  0  0  0  0  0  0  0  0  0  # atno 8008 bound_to 7997
  154.4245  140.1796  156.1353 H   0  0  0  0  0  0  0  0  0  0  0  0  # atno 8009 bound_to 7997
  156.0060  140.3331  155.6896 H   0  0  0  0  0  0  0  0  0  0  0  0  # atno 8010 bound_to 7997
  140.2721  143.3337  152.0524 H   0  0  0  0  0  0  0  0  0  0  0  0  # atno 10167 bound_to 10162
  157.1748  131.0618  151.2164 H   0  0  0  0  0  0  0  0  0  0  0  0  # atno 10718 bound_to 10713
  153.7554  135.3203  155.3328 H   0  0  0  0  0  0  0  0  0  0  0  0  # atno 10763 bound_to 10752
  154.8249  135.4577  154.0890 H   0  0  0  0  0  0  0  0  0  0  0  0  # atno 10764 bound_to 10752
  153.2105  135.6935  153.8202 H   0  0  0  0  0  0  0  0  0  0  0  0  # atno 10765 bound_to 10752
  141.1263  133.8414  157.1127 H   0  0  0  0  0  0  0  0  0  0  0  0  # atno 11005 bound_to 11000
  145.5601  141.0405  143.2231 LP  0  0  0  0  0  0  0  0  0  0  0  0  # atno 17320 bound_to 7965
  144.7538  139.7125  143.7262 LP  0  0  0  0  0  0  0  0  0  0  0  0  # atno 17321 bound_to 7965
  139.4986  144.6649  151.6379 LP  0  0  0  0  0  0  0  0  0  0  0  0  # atno 17342 bound_to 10162
  140.5881  143.9828  150.6308 LP  0  0  0  0  0  0  0  0  0  0  0  0  # atno 17343 bound_to 10162
  157.4009  130.7333  149.6766 LP  0  0  0  0  0  0  0  0  0  0  0  0  # atno 17370 bound_to 10713
  155.9733  130.4121  150.4014 LP  0  0  0  0  0  0  0  0  0  0  0  0  # atno 17371 bound_to 10713
  140.0265  134.9921  157.0696 LP  0  0  0  0  0  0  0  0  0  0  0  0  # atno 17394 bound_to 11000
  140.4354  134.1736  155.7170 LP  0  0  0  0  0  0  0  0  0  0  0  0  # atno 17395 bound_to 11000

$$$$
