AV-unprocessed.smi:1205|AV-procd|sdf|5041|dock5
  -GOLD-   22720 4 63D 1   1.00000     0.00000
 Structure written by MMmdl.
 49 50  0  0  0  0  0  0  0  0  2 V2000
  137.7379  137.0435  154.3386 C   0  0  0  0  0  0  0  0  0  0  0  0
  139.2305  137.1751  154.2690 C   0  0  0  0  0  0  0  0  0  0  0  0
  140.0087  138.3687  154.3013 C   0  0  0  0  0  0  0  0  0  0  0  0
  141.2891  137.8963  154.2046 C   0  0  0  0  0  0  0  0  0  0  0  0
  142.4575  138.5915  154.1799 N   0  0  0  0  0  0  0  0  0  0  0  0
  143.5238  138.4683  154.9894 C   0  0  0  0  0  0  0  0  0  0  0  0
  143.6291  137.6670  155.9182 O   0  0  0  0  0  0  0  0  0  0  0  0
  144.4861  139.3434  154.6636 N   0  0  0  0  0  0  0  0  0  0  0  0
  145.7679  139.4644  155.3515 C   0  0  0  0  0  0  0  0  0  0  0  0
  146.7790  140.3440  154.5787 C   0  0  2  0  0  0  0  0  0  0  0  0
  147.1179  139.7778  153.1827 C   0  0  0  0  0  0  0  0  0  0  0  0
  147.9894  140.6093  155.4100 N   0  3  2  0  0  0  0  0  0  0  0  0
  147.6762  141.1488  156.7595 C   0  0  0  0  0  0  0  0  0  0  0  0
  148.9246  141.1333  157.6558 C   0  0  0  0  0  0  0  0  0  0  0  0
  150.0847  141.8990  157.0029 C   0  0  0  0  0  0  0  0  0  0  0  0
  150.3636  141.3890  155.5760 C   0  0  1  0  0  0  0  0  0  0  0  0
  151.0662  140.0201  155.5580 C   0  0  0  0  0  0  0  0  0  0  0  0
  149.0673  141.3896  154.7404 C   0  0  0  0  0  0  0  0  0  0  0  0
  141.2510  136.5223  154.1209 N   0  0  0  0  0  0  0  0  0  0  0  0
  142.3430  135.5760  154.0016 C   0  0  0  0  0  0  0  0  0  0  0  0
  139.9753  136.0806  154.1613 N   0  0  0  0  0  0  0  0  0  0  0  0
  137.2594  138.0207  154.4073 H   0  0  0  0  0  0  0  0  0  0  0  0
  137.4348  136.4634  155.2106 H   0  0  0  0  0  0  0  0  0  0  0  0
  137.3458  136.5445  153.4518 H   0  0  0  0  0  0  0  0  0  0  0  0
  139.6634  139.3884  154.3810 H   0  0  0  0  0  0  0  0  0  0  0  0
  142.5260  139.2894  153.4540 H   0  0  0  0  0  0  0  0  0  0  0  0
  144.3231  139.9660  153.8855 H   0  0  0  0  0  0  0  0  0  0  0  0
  145.6061  139.8635  156.3545 H   0  0  0  0  0  0  0  0  0  0  0  0
  146.1565  138.4551  155.4832 H   0  0  0  0  0  0  0  0  0  0  0  0
  146.2925  141.3078  154.4230 H   0  0  0  0  0  0  0  0  0  0  0  0
  146.2306  139.7331  152.5507 H   0  0  0  0  0  0  0  0  0  0  0  0
  147.5219  138.7672  153.2416 H   0  0  0  0  0  0  0  0  0  0  0  0
  147.8450  140.4005  152.6617 H   0  0  0  0  0  0  0  0  0  0  0  0
  147.2892  142.1649  156.6737 H   0  0  0  0  0  0  0  0  0  0  0  0
  146.8961  140.5505  157.2317 H   0  0  0  0  0  0  0  0  0  0  0  0
  148.6903  141.5733  158.6256 H   0  0  0  0  0  0  0  0  0  0  0  0
  149.2224  140.1029  157.8533 H   0  0  0  0  0  0  0  0  0  0  0  0
  149.8305  142.9590  156.9610 H   0  0  0  0  0  0  0  0  0  0  0  0
  150.9819  141.8254  157.6186 H   0  0  0  0  0  0  0  0  0  0  0  0
  151.0536  142.0936  155.1096 H   0  0  0  0  0  0  0  0  0  0  0  0
  150.4415  139.2350  155.9838 H   0  0  0  0  0  0  0  0  0  0  0  0
  151.9955  140.0496  156.1278 H   0  0  0  0  0  0  0  0  0  0  0  0
  151.3176  139.7234  154.5393 H   0  0  0  0  0  0  0  0  0  0  0  0
  149.2765  140.9895  153.7488 H   0  0  0  0  0  0  0  0  0  0  0  0
  148.7353  142.4187  154.5966 H   0  0  0  0  0  0  0  0  0  0  0  0
  143.0651  135.7463  154.8008 H   0  0  0  0  0  0  0  0  0  0  0  0
  142.8373  135.7089  153.0389 H   0  0  0  0  0  0  0  0  0  0  0  0
  141.9737  134.5519  154.0729 H   0  0  0  0  0  0  0  0  0  0  0  0
  148.3838  139.6960  155.5847 H   0  0  0  0  0  0  0  0  0  0  0  0
  1  2  1  0  0  0  0
  1 22  1  0  0  0  0
  1 23  1  0  0  0  0
  1 24  1  0  0  0  0
  2 21  2  0  0  0  0
  2  3  1  0  0  0  0
  3  4  2  0  0  0  0
  3 25  1  0  0  0  0
  4  5  1  0  0  0  0
  4 19  1  0  0  0  0
  5  6  1  0  0  0  0
  5 26  1  0  0  0  0
  6  7  2  0  0  0  0
  6  8  1  0  0  0  0
  8  9  1  0  0  0  0
  8 27  1  0  0  0  0
  9 10  1  0  0  0  0
  9 28  1  0  0  0  0
  9 29  1  0  0  0  0
 10 11  1  0  0  0  0
 10 12  1  0  0  0  0
 10 30  1  0  0  0  0
 11 31  1  0  0  0  0
 11 32  1  0  0  0  0
 11 33  1  0  0  0  0
 12 18  1  0  0  0  0
 12 13  1  0  0  0  0
 12 49  1  0  0  0  0
 13 14  1  0  0  0  0
 13 34  1  0  0  0  0
 13 35  1  0  0  0  0
 14 15  1  0  0  0  0
 14 36  1  0  0  0  0
 14 37  1  0  0  0  0
 15 16  1  0  0  0  0
 15 38  1  0  0  0  0
 15 39  1  0  0  0  0
 16 17  1  0  0  0  0
 16 18  1  0  0  0  0
 16 40  1  0  0  0  0
 17 41  1  0  0  0  0
 17 42  1  0  0  0  0
 17 43  1  0  0  0  0
 18 44  1  0  0  0  0
 18 45  1  0  0  0  0
 19 20  1  0  0  0  0
 19 21  1  0  0  0  0
 20 46  1  0  0  0  0
 20 47  1  0  0  0  0
 20 48  1  0  0  0  0
M  CHG  1  12   1
M  END
> <s_m_source_file>
AV-unprocessed.smi

> <i_m_source_file_index>
1205

> <i_lp_mmshare_version>
43012

> <i_f3d_flags>
0

> <s_epik_input>
W0NIM11jMVtjSF1jKG4objEpW0NIM10pW05IXUMoPU8pW05IXVtDSDJdW0NASF0oW0NIM10pTjJbQ0gyXVtDSDJdW0NIMl1bQ0BASF0oW0NIM10pW0NIMl0y

> <s_epik_cmdline>
J2VwaWtfcHl0aG9uJywgJy1waCcsICc3LjAnLCAnLXRuJywgJzgnLCAnLW1hJywgJzIwMCcsICctbWV0YWxfYmluZGluZycsICctaW1hZScsICc8aW5maWxlLm1hZT4nLCAnLW9tYWUnLCAnPG91dGZpbGUubWFlPic=

> <r_lp_tautomer_probability>
1

> <r_epik_Ionization_Penalty>
0.0020309

> <r_epik_Ionization_Penalty_Charging>
0.00195276

> <r_epik_Ionization_Penalty_Neutral>
7.81448e-05

> <r_epik_State_Penalty>
0.00133177

> <r_epik_Charging_Adjusted_Penalty>
0.00328452

> <i_epik_Tot_Q>
1

> <i_epik_Tot_abs_Q>
1

> <r_epik_Metal_State_Penalty>
-0

> <b_epik_Metal_Only>
0

> <s_lp_Force_Field>
OPLS_2005

> <r_lp_Energy>
24.2768

> <b_lp_Chiralities_Consistent>
1

> <s_lp_Variant>
AV-unprocessed.smi:1205-3

> <Gold.Version>
5.8.1

> <Gold.Id.Protein>
6NUR|6NUR_protein|mol2

> <Gold.PLP.Fitness>
37.4119

> <Gold.PLP.PLP>
-30.9491

> <Gold.PLP.part.hbond>
-2.6770

> <Gold.PLP.part.metal>
0.0000

> <Gold.PLP.part.buried>
-4.2671

> <Gold.PLP.part.nonpolar>
-23.7959

> <Gold.PLP.part.repulsive>
0.1383

> <Gold.PLP.ligand.clash>
0.0000

> <Gold.PLP.ligand.torsion>
0.6481

> <Gold.PLP.Chemscore.Hbond>
2.5445

> <Gold.PLP.Chemscore.CHOScore>
0.0000

> <Gold.PLP.Chemscore.Metal>
0.0000

> <Gold.Chemscore.Hbonds>
donor molecule, donor type, donor heavy atom, donor atom, acceptor molecule, acceptor atom, score
      L1  H     5    26       P1 10175  0.98
      L1  H     8    27       P1 10175  1.00
      P1  H 11000 11005       L1    21  0.44

> <Gold.PLP.Chemscore.Internal.Correction>
0.1256

> <Gold.Rescore>
     Score         DG    S(hbond)    S(metal)    S(lipo)     H(rot)  DE(clash)    DE(int)     intcor
     17.40     -19.08       2.83        0.00      67.58       1.47       0.08       1.59       ----

> <Gold.Chemscore.Fitness>
17.4033

> <Gold.Chemscore.DG>
-19.0750

> <Gold.Chemscore.ZeroCoef>
-5.4800

> <Gold.Chemscore.Hbond>
2.8266

> <Gold.Chemscore.Metal>
0.0000

> <Gold.Chemscore.Lipo>
67.5783

> <Gold.Chemscore.Internal_Hbond>
0.0000

> <Gold.Chemscore.DEClash>
0.0787

> <Gold.Chemscore.DEInternal>
1.5930

> <Gold.Chemscore.Rot>
1.4658

> <Gold.Chemscore.Internal.Correction>
   9.000000E+99

> <Gold.Chemscore.Hbonds>
donor molecule, donor type, donor heavy atom, donor atom, acceptor molecule, acceptor atom, score
      L1  H     5    26       P1 10175  0.93
      L1  H     8    27       P1 10175  0.98
      P1  H 11000 11005       L1    21  0.14

> <Gold.Chemscore.Hbond.Weighted>
-9.4409

> <Gold.Chemscore.Metal.Weighted>
-0.0000

> <Gold.Chemscore.Lipo.Weighted>
-7.9067

> <Gold.Chemscore.Internal_Hbond.Weighted>
0.0000

> <Gold.Chemscore.DEClash.Weighted>
0.0787

> <Gold.Chemscore.DEInternal.Weighted>
1.5930

> <Gold.Chemscore.Rot.Weighted>
3.7526

> <Gold.Chemscore.Internal.Correction.Weighted>
   9.000000E+99

> <Gold.Protein.RotatedTorsions>
[ 6907 6896 6895 6894 ] final   19.71 input  -60.11 | X-H torsion
[ 7974 7965 7964 7962 ] final  -59.89 input  175.53 | X-H torsion
[ 8008 7997 7996 7995 ] final  -67.26 input   59.86 | X-H torsion
[ 10167 10162 10161 10158 ] final -135.52 input  -65.29 | X-H torsion
[ 10718 10713 10712 10709 ] final  150.45 input   66.30 | X-H torsion
[ 10763 10752 10751 10750 ] final   28.33 input  -60.55 | X-H torsion
[ 11005 11000 10999 10996 ] final   59.66 input  -57.11 | X-H torsion

> <Gold.Protein.ActiveResidues>
 VAL166  LYS551  ARG553  GLY616  TRP617  ASP618  TYR619  PRO620  LYS621  CYS622 
 ASP623  PHE694  ASN695  SER759  ASP760  ASP761  ALA762  ILE779  LEU786  VAL792 
 PHE793  MET794  SER795  GLU796  ALA797  LYS798  CYS799  TRP800  GLU811  SER814 

> <Gold.Protein.RotatedAtoms>
  151.8850  135.0439  160.0492 H   0  0  0  0  0  0  0  0  0  0  0  0  # atno 6907 bound_to 6896
  152.2482  133.5188  159.5318 H   0  0  0  0  0  0  0  0  0  0  0  0  # atno 6908 bound_to 6896
  150.7075  134.0913  159.3975 H   0  0  0  0  0  0  0  0  0  0  0  0  # atno 6909 bound_to 6896
  145.8220  140.8534  143.0127 H   0  0  0  0  0  0  0  0  0  0  0  0  # atno 7974 bound_to 7965
  154.4788  140.0896  156.7327 H   0  0  0  0  0  0  0  0  0  0  0  0  # atno 8008 bound_to 7997
  155.4525  140.3458  155.4284 H   0  0  0  0  0  0  0  0  0  0  0  0  # atno 8009 bound_to 7997
  156.1159  140.1460  156.9262 H   0  0  0  0  0  0  0  0  0  0  0  0  # atno 8010 bound_to 7997
  139.8771  143.6885  152.2632 H   0  0  0  0  0  0  0  0  0  0  0  0  # atno 10167 bound_to 10162
  157.2832  131.0839  151.1516 H   0  0  0  0  0  0  0  0  0  0  0  0  # atno 10718 bound_to 10713
  153.0498  135.6516  154.0722 H   0  0  0  0  0  0  0  0  0  0  0  0  # atno 10763 bound_to 10752
  154.0412  135.2903  155.3356 H   0  0  0  0  0  0  0  0  0  0  0  0  # atno 10764 bound_to 10752
  154.6780  135.5331  153.8291 H   0  0  0  0  0  0  0  0  0  0  0  0  # atno 10765 bound_to 10752
  140.0288  134.6043  155.9536 H   0  0  0  0  0  0  0  0  0  0  0  0  # atno 11005 bound_to 11000
  144.6747  140.0547  143.7478 LP  0  0  0  0  0  0  0  0  0  0  0  0  # atno 17320 bound_to 7965
  145.9664  139.2838  143.1125 LP  0  0  0  0  0  0  0  0  0  0  0  0  # atno 17321 bound_to 7965
  139.7230  144.7598  151.0924 LP  0  0  0  0  0  0  0  0  0  0  0  0  # atno 17342 bound_to 10162
  140.7751  143.5183  150.9567 LP  0  0  0  0  0  0  0  0  0  0  0  0  # atno 17343 bound_to 10162
  157.2942  130.6811  149.6130 LP  0  0  0  0  0  0  0  0  0  0  0  0  # atno 17370 bound_to 10713
  155.9665  130.4412  150.5329 LP  0  0  0  0  0  0  0  0  0  0  0  0  # atno 17371 bound_to 10713
  141.1819  133.6548  156.5054 LP  0  0  0  0  0  0  0  0  0  0  0  0  # atno 17394 bound_to 11000
  140.4261  134.7144  157.4916 LP  0  0  0  0  0  0  0  0  0  0  0  0  # atno 17395 bound_to 11000

$$$$
