AV-unprocessed.smi:3250|AV-procd|sdf|12426|dock9
  -GOLD-   2272018313D 1   1.00000     0.00000
 Structure written by MMmdl.
 39 40  0  0  0  0  0  0  0  0  2 V2000
  143.2176  132.9336  148.1506 C   0  0  0  0  0  0  0  0  0  0  0  0
  143.9240  134.0050  148.9932 C   0  0  0  0  0  0  0  0  0  0  0  0
  143.7689  133.7728  150.4541 N   0  3  2  0  0  0  0  0  0  0  0  0
  144.6863  134.5908  151.2843 C   0  0  0  0  0  0  0  0  0  0  0  0
  146.1065  133.9980  151.2919 C   0  0  0  0  0  0  0  0  0  0  0  0
  146.0530  132.6528  151.7494 O   0  0  0  0  0  0  0  0  0  0  0  0
  145.2768  131.8154  150.8977 C   0  0  1  0  0  0  0  0  0  0  0  0
  145.3407  130.3845  151.4487 C   0  0  0  0  0  0  0  0  0  0  0  0
  146.6824  129.8296  151.3511 N   0  0  0  0  0  0  0  0  0  0  0  0
  147.0663  128.6299  151.9191 C   0  0  0  0  0  0  0  0  0  0  0  0
  148.2465  128.1548  151.5160 N   0  0  0  0  0  0  0  0  0  0  0  0
  148.6518  126.9837  152.0536 C   0  0  0  0  0  0  0  0  0  0  0  0
  147.8688  126.2895  152.9972 C   0  0  0  0  0  0  0  0  0  0  0  0
  146.6396  126.8811  153.3518 C   0  0  0  0  0  0  0  0  0  0  0  0
  145.8249  126.2532  154.2710 O   0  0  0  0  0  0  0  0  0  0  0  0
  146.3415  125.1217  154.9622 C   0  0  0  0  0  0  0  0  0  0  0  0
  146.2430  128.0578  152.8051 N   0  0  0  0  0  0  0  0  0  0  0  0
  143.8266  132.3474  150.8703 C   0  0  0  0  0  0  0  0  0  0  0  0
  143.2661  133.1876  147.0915 H   0  0  0  0  0  0  0  0  0  0  0  0
  142.1646  132.8496  148.4210 H   0  0  0  0  0  0  0  0  0  0  0  0
  143.6756  131.9517  148.2669 H   0  0  0  0  0  0  0  0  0  0  0  0
  144.9760  134.0742  148.7168 H   0  0  0  0  0  0  0  0  0  0  0  0
  143.4791  134.9679  148.7392 H   0  0  0  0  0  0  0  0  0  0  0  0
  144.6986  135.6265  150.9430 H   0  0  0  0  0  0  0  0  0  0  0  0
  144.3000  134.6100  152.3041 H   0  0  0  0  0  0  0  0  0  0  0  0
  146.5633  134.0448  150.3023 H   0  0  0  0  0  0  0  0  0  0  0  0
  146.7465  134.5713  151.9628 H   0  0  0  0  0  0  0  0  0  0  0  0
  145.6963  131.8231  149.8906 H   0  0  0  0  0  0  0  0  0  0  0  0
  145.0091  130.3622  152.4875 H   0  0  0  0  0  0  0  0  0  0  0  0
  144.6649  129.7429  150.8821 H   0  0  0  0  0  0  0  0  0  0  0  0
  147.3997  130.3767  150.8976 H   0  0  0  0  0  0  0  0  0  0  0  0
  149.6069  126.5979  151.7292 H   0  0  0  0  0  0  0  0  0  0  0  0
  148.1942  125.3534  153.4262 H   0  0  0  0  0  0  0  0  0  0  0  0
  145.5836  124.7396  155.6457 H   0  0  0  0  0  0  0  0  0  0  0  0
  147.2197  125.3828  155.5542 H   0  0  0  0  0  0  0  0  0  0  0  0
  146.6010  124.3171  154.2727 H   0  0  0  0  0  0  0  0  0  0  0  0
  143.3979  132.2738  151.8708 H   0  0  0  0  0  0  0  0  0  0  0  0
  143.2005  131.7273  150.2300 H   0  0  0  0  0  0  0  0  0  0  0  0
  142.8379  134.0985  150.6724 H   0  0  0  0  0  0  0  0  0  0  0  0
  1  2  1  0  0  0  0
  1 19  1  0  0  0  0
  1 20  1  0  0  0  0
  1 21  1  0  0  0  0
  2  3  1  0  0  0  0
  2 22  1  0  0  0  0
  2 23  1  0  0  0  0
  3 18  1  0  0  0  0
  3  4  1  0  0  0  0
  3 39  1  0  0  0  0
  4  5  1  0  0  0  0
  4 24  1  0  0  0  0
  4 25  1  0  0  0  0
  5  6  1  0  0  0  0
  5 26  1  0  0  0  0
  5 27  1  0  0  0  0
  6  7  1  0  0  0  0
  7  8  1  0  0  0  0
  7 18  1  0  0  0  0
  7 28  1  0  0  0  0
  8  9  1  0  0  0  0
  8 29  1  0  0  0  0
  8 30  1  0  0  0  0
  9 10  1  0  0  0  0
  9 31  1  0  0  0  0
 10 17  1  0  0  0  0
 10 11  2  0  0  0  0
 11 12  1  0  0  0  0
 12 13  2  0  0  0  0
 12 32  1  0  0  0  0
 13 14  1  0  0  0  0
 13 33  1  0  0  0  0
 14 15  1  0  0  0  0
 14 17  2  0  0  0  0
 15 16  1  0  0  0  0
 16 34  1  0  0  0  0
 16 35  1  0  0  0  0
 16 36  1  0  0  0  0
 18 37  1  0  0  0  0
 18 38  1  0  0  0  0
M  CHG  1   3   1
M  END
> <s_m_source_file>
AV-unprocessed.smi

> <i_m_source_file_index>
3250

> <i_lp_mmshare_version>
43012

> <i_f3d_flags>
0

> <s_epik_input>
W0NIM11bQ0gyXU4xW0NIMl1bQ0gyXU9bQ0BIXShbQ0gyXTEpW0NIMl1bTkhdYzJuW2NIXVtjSF1jKG4yKU9bQ0gzXQ==

> <s_epik_cmdline>
J2VwaWtfcHl0aG9uJywgJy1waCcsICc3LjAnLCAnLXRuJywgJzgnLCAnLW1hJywgJzIwMCcsICctbWV0YWxfYmluZGluZycsICctaW1hZScsICc8aW5maWxlLm1hZT4nLCAnLW9tYWUnLCAnPG91dGZpbGUubWFlPic=

> <r_lp_tautomer_probability>
1

> <r_epik_Ionization_Penalty>
0.19684

> <r_epik_Ionization_Penalty_Charging>
0.178504

> <r_epik_Ionization_Penalty_Neutral>
0.0183356

> <r_epik_State_Penalty>
0.162939

> <r_epik_Charging_Adjusted_Penalty>
0.341443

> <i_epik_Tot_Q>
1

> <i_epik_Tot_abs_Q>
1

> <r_epik_Metal_State_Penalty>
0.1608

> <b_epik_Metal_Only>
0

> <s_lp_Force_Field>
OPLS_2005

> <r_lp_Energy>
11.5983

> <b_lp_Chiralities_Consistent>
1

> <s_lp_Variant>
AV-unprocessed.smi:3250-2

> <Gold.Version>
5.8.1

> <Gold.Id.Protein>
6NUR|6NUR_protein|mol2

> <Gold.PLP.Fitness>
38.7803

> <Gold.PLP.PLP>
-27.4288

> <Gold.PLP.part.hbond>
-3.0000

> <Gold.PLP.part.metal>
0.0000

> <Gold.PLP.part.buried>
-0.5016

> <Gold.PLP.part.nonpolar>
-24.7941

> <Gold.PLP.part.repulsive>
0.6273

> <Gold.PLP.ligand.clash>
0.0324

> <Gold.PLP.ligand.torsion>
0.3096

> <Gold.PLP.Chemscore.Hbond>
2.9920

> <Gold.PLP.Chemscore.CHOScore>
1.0000

> <Gold.PLP.Chemscore.Metal>
0.0000

> <Gold.Chemscore.Hbonds>
donor molecule, donor type, donor heavy atom, donor atom, acceptor molecule, acceptor atom, score
      L1  H     3    39       P1 10186  0.96
      L1  H     9    31       P1 10747  1.00
      L1  C    12    32       P1 10737  0.68

> <Gold.PLP.Chemscore.Internal.Correction>
0.0272

> <Gold.Rescore>
     Score         DG    S(hbond)    S(metal)    S(lipo)     H(rot)  DE(clash)    DE(int)     intcor
     14.23     -16.16       1.96        0.00      72.77       1.71       1.56       0.37       ----

> <Gold.Chemscore.Fitness>
14.2259

> <Gold.Chemscore.DG>
-16.1567

> <Gold.Chemscore.ZeroCoef>
-5.4800

> <Gold.Chemscore.Hbond>
1.9601

> <Gold.Chemscore.Metal>
0.0000

> <Gold.Chemscore.Lipo>
72.7742

> <Gold.Chemscore.Internal_Hbond>
0.0000

> <Gold.Chemscore.DEClash>
1.5643

> <Gold.Chemscore.DEInternal>
0.3665

> <Gold.Chemscore.Rot>
1.7127

> <Gold.Chemscore.Internal.Correction>
   9.000000E+99

> <Gold.Chemscore.Hbonds>
donor molecule, donor type, donor heavy atom, donor atom, acceptor molecule, acceptor atom, score
      L1  H     3    39       P1 10186  0.36
      L1  H     9    31       P1 10747  0.99

> <Gold.Chemscore.Hbond.Weighted>
-6.5467

> <Gold.Chemscore.Metal.Weighted>
-0.0000

> <Gold.Chemscore.Lipo.Weighted>
-8.5146

> <Gold.Chemscore.Internal_Hbond.Weighted>
0.0000

> <Gold.Chemscore.DEClash.Weighted>
1.5643

> <Gold.Chemscore.DEInternal.Weighted>
0.3665

> <Gold.Chemscore.Rot.Weighted>
4.3846

> <Gold.Chemscore.Internal.Correction.Weighted>
   9.000000E+99

> <Gold.Protein.RotatedTorsions>
[ 6907 6896 6895 6894 ] final   31.96 input  -60.11 | X-H torsion
[ 7974 7965 7964 7962 ] final   63.38 input  175.53 | X-H torsion
[ 8008 7997 7996 7995 ] final   63.96 input   59.86 | X-H torsion
[ 10167 10162 10161 10158 ] final    7.92 input  -65.29 | X-H torsion
[ 10718 10713 10712 10709 ] final  -87.45 input   66.30 | X-H torsion
[ 10763 10752 10751 10750 ] final  -79.15 input  -60.55 | X-H torsion
[ 11005 11000 10999 10996 ] final -118.97 input  -57.11 | X-H torsion

> <Gold.Protein.ActiveResidues>
 VAL166  LYS551  ARG553  GLY616  TRP617  ASP618  TYR619  PRO620  LYS621  CYS622 
 ASP623  PHE694  ASN695  SER759  ASP760  ASP761  ALA762  ILE779  LEU786  VAL792 
 PHE793  MET794  SER795  GLU796  ALA797  LYS798  CYS799  TRP800  GLU811  SER814 

> <Gold.Protein.RotatedAtoms>
  152.0676  134.9554  160.0574 H   0  0  0  0  0  0  0  0  0  0  0  0  # atno 6907 bound_to 6896
  152.0892  133.4187  159.4544 H   0  0  0  0  0  0  0  0  0  0  0  0  # atno 6908 bound_to 6896
  150.6836  134.2811  159.4671 H   0  0  0  0  0  0  0  0  0  0  0  0  # atno 6909 bound_to 6896
  145.8625  139.3324  143.0810 H   0  0  0  0  0  0  0  0  0  0  0  0  # atno 7974 bound_to 7965
  155.6385  140.3496  155.4707 H   0  0  0  0  0  0  0  0  0  0  0  0  # atno 8008 bound_to 7997
  155.9945  140.1200  157.0630 H   0  0  0  0  0  0  0  0  0  0  0  0  # atno 8009 bound_to 7997
  154.4229  140.1113  156.5597 H   0  0  0  0  0  0  0  0  0  0  0  0  # atno 8010 bound_to 7997
  140.6344  143.7920  150.7339 H   0  0  0  0  0  0  0  0  0  0  0  0  # atno 10167 bound_to 10162
  155.9985  130.4800  150.4868 H   0  0  0  0  0  0  0  0  0  0  0  0  # atno 10718 bound_to 10713
  154.5350  135.5705  153.6791 H   0  0  0  0  0  0  0  0  0  0  0  0  # atno 10763 bound_to 10752
  152.9949  135.6214  154.2578 H   0  0  0  0  0  0  0  0  0  0  0  0  # atno 10764 bound_to 10752
  154.2506  135.2859  155.2797 H   0  0  0  0  0  0  0  0  0  0  0  0  # atno 10765 bound_to 10752
  141.0249  134.0069  157.3229 H   0  0  0  0  0  0  0  0  0  0  0  0  # atno 11005 bound_to 11000
  145.9232  140.9101  143.0394 LP  0  0  0  0  0  0  0  0  0  0  0  0  # atno 17320 bound_to 7965
  144.6726  140.1317  143.7443 LP  0  0  0  0  0  0  0  0  0  0  0  0  # atno 17321 bound_to 7965
  140.1538  143.4334  152.2113 LP  0  0  0  0  0  0  0  0  0  0  0  0  # atno 17342 bound_to 10162
  139.5555  144.7370  151.4306 LP  0  0  0  0  0  0  0  0  0  0  0  0  # atno 17343 bound_to 10162
  157.2868  131.0618  151.2161 LP  0  0  0  0  0  0  0  0  0  0  0  0  # atno 17370 bound_to 10713
  157.3188  130.6926  149.6257 LP  0  0  0  0  0  0  0  0  0  0  0  0  # atno 17371 bound_to 10713
  139.9169  135.0197  156.7916 LP  0  0  0  0  0  0  0  0  0  0  0  0  # atno 17394 bound_to 11000
  140.6509  133.9732  155.7755 LP  0  0  0  0  0  0  0  0  0  0  0  0  # atno 17395 bound_to 11000

$$$$
