AV-unprocessed.smi:166|AV-procd|sdf|1390|dock9
  -GOLD-   2262019133D 1   1.00000     0.00000
 Structure written by MMmdl.
 54 58  0  0  0  0  0  0  0  0  1 V2000
  147.3625  134.9020  163.2036 O   0  0  0  0  0  0  0  0  0  0  0  0
  146.5402  134.5559  162.1043 C   0  0  1  0  0  0  0  0  0  0  0  0
  147.4403  134.1997  160.8954 C   0  0  0  0  0  0  0  0  0  0  0  0
  148.0144  135.3574  160.2251 N   0  0  0  0  0  0  0  0  0  0  0  0
  148.2007  136.6121  160.7614 C   0  0  0  0  0  0  0  0  0  0  0  0
  148.7338  137.4895  159.9559 N   0  0  0  0  0  0  0  0  0  0  0  0
  148.9119  136.7932  158.7667 C   0  0  0  0  0  0  0  0  0  0  0  0
  149.4287  137.1286  157.4834 C   0  0  0  0  0  0  0  0  0  0  0  0
  149.9031  138.3435  157.1377 N   0  0  0  0  0  0  0  0  0  0  0  0
  151.0540  138.2732  156.2428 C   0  0  0  0  0  0  0  0  0  0  0  0
  151.3939  139.6661  155.6875 C   0  0  0  0  0  0  0  0  0  0  0  0
  151.5799  140.6809  156.8267 C   0  0  0  0  0  0  0  0  0  0  0  0
  150.3430  140.7009  157.7419 C   0  0  2  0  0  0  0  0  0  0  0  0
  150.6234  141.5837  158.8204 O   0  0  0  0  0  0  0  0  0  0  0  0
  150.6064  142.9601  158.4737 C   0  0  0  0  0  0  0  0  0  0  0  0
  151.8298  143.6261  159.0655 C   0  0  0  0  0  0  0  0  0  0  0  0
  151.7985  145.0939  159.4271 C   0  0  0  0  0  0  0  0  0  0  0  0
  152.6326  144.6245  158.2624 C   0  0  0  0  0  0  0  0  0  0  0  0
  150.0417  139.2768  158.2532 C   0  0  0  0  0  0  0  0  0  0  0  0
  149.4597  136.1602  156.5356 N   0  0  0  0  0  0  0  0  0  0  0  0
  149.0012  134.9366  156.8169 C   0  0  0  0  0  0  0  0  0  0  0  0
  148.4860  134.4801  157.9608 N   0  0  0  0  0  0  0  0  0  0  0  0
  148.4641  135.4508  158.9191 C   0  0  0  0  0  0  0  0  0  0  0  0
  145.6331  133.3939  162.5121 C   0  0  0  0  0  0  0  0  0  0  0  0
  144.2595  133.8241  162.0142 C   0  0  0  0  0  0  0  0  0  0  0  0
  144.2760  135.2212  162.2430 O   0  0  0  0  0  0  0  0  0  0  0  0
  145.5452  135.7014  161.8222 C   0  0  0  0  0  0  0  0  0  0  0  0
  146.8787  134.7499  164.0011 H   0  0  0  0  0  0  0  0  0  0  0  0
  148.2561  133.5474  161.2102 H   0  0  0  0  0  0  0  0  0  0  0  0
  146.8668  133.6344  160.1597 H   0  0  0  0  0  0  0  0  0  0  0  0
  147.9289  136.8595  161.7773 H   0  0  0  0  0  0  0  0  0  0  0  0
  151.9104  137.8688  156.7844 H   0  0  0  0  0  0  0  0  0  0  0  0
  150.8433  137.5890  155.4194 H   0  0  0  0  0  0  0  0  0  0  0  0
  152.2967  139.6151  155.0784 H   0  0  0  0  0  0  0  0  0  0  0  0
  150.5925  140.0019  155.0282 H   0  0  0  0  0  0  0  0  0  0  0  0
  152.4639  140.4163  157.4086 H   0  0  0  0  0  0  0  0  0  0  0  0
  151.7611  141.6752  156.4175 H   0  0  0  0  0  0  0  0  0  0  0  0
  149.4941  141.0763  157.1671 H   0  0  0  0  0  0  0  0  0  0  0  0
  150.6051  143.0853  157.3897 H   0  0  0  0  0  0  0  0  0  0  0  0
  149.7187  143.4528  158.8696 H   0  0  0  0  0  0  0  0  0  0  0  0
  152.3917  142.9873  159.7445 H   0  0  0  0  0  0  0  0  0  0  0  0
  150.8922  145.6530  159.2025 H   0  0  0  0  0  0  0  0  0  0  0  0
  152.3225  145.3994  160.3304 H   0  0  0  0  0  0  0  0  0  0  0  0
  153.7134  144.6154  158.3878 H   0  0  0  0  0  0  0  0  0  0  0  0
  152.2823  144.8694  157.2617 H   0  0  0  0  0  0  0  0  0  0  0  0
  149.1251  139.2659  158.8435 H   0  0  0  0  0  0  0  0  0  0  0  0
  150.8499  138.9508  158.9081 H   0  0  0  0  0  0  0  0  0  0  0  0
  149.0541  134.2209  156.0098 H   0  0  0  0  0  0  0  0  0  0  0  0
  145.9437  132.4322  162.1026 H   0  0  0  0  0  0  0  0  0  0  0  0
  145.5959  133.2899  163.5979 H   0  0  0  0  0  0  0  0  0  0  0  0
  144.1463  133.6239  160.9473 H   0  0  0  0  0  0  0  0  0  0  0  0
  143.4441  133.3357  162.5479 H   0  0  0  0  0  0  0  0  0  0  0  0
  145.8000  136.6354  162.3246 H   0  0  0  0  0  0  0  0  0  0  0  0
  145.4748  135.9113  160.7549 H   0  0  0  0  0  0  0  0  0  0  0  0
  1  2  1  0  0  0  0
  1 28  1  0  0  0  0
  2 27  1  0  0  0  0
  2  3  1  0  0  0  0
  2 24  1  0  0  0  0
  3  4  1  0  0  0  0
  3 29  1  0  0  0  0
  3 30  1  0  0  0  0
  4 23  1  0  0  0  0
  4  5  1  0  0  0  0
  5  6  2  0  0  0  0
  5 31  1  0  0  0  0
  6  7  1  0  0  0  0
  7 23  2  0  0  0  0
  7  8  1  0  0  0  0
  8  9  1  0  0  0  0
  8 20  2  0  0  0  0
  9 19  1  0  0  0  0
  9 10  1  0  0  0  0
 10 11  1  0  0  0  0
 10 32  1  0  0  0  0
 10 33  1  0  0  0  0
 11 12  1  0  0  0  0
 11 34  1  0  0  0  0
 11 35  1  0  0  0  0
 12 13  1  0  0  0  0
 12 36  1  0  0  0  0
 12 37  1  0  0  0  0
 13 14  1  0  0  0  0
 13 19  1  0  0  0  0
 13 38  1  0  0  0  0
 14 15  1  0  0  0  0
 15 16  1  0  0  0  0
 15 39  1  0  0  0  0
 15 40  1  0  0  0  0
 16 18  1  0  0  0  0
 16 17  1  0  0  0  0
 16 41  1  0  0  0  0
 17 18  1  0  0  0  0
 17 42  1  0  0  0  0
 17 43  1  0  0  0  0
 18 44  1  0  0  0  0
 18 45  1  0  0  0  0
 19 46  1  0  0  0  0
 19 47  1  0  0  0  0
 20 21  1  0  0  0  0
 21 22  2  0  0  0  0
 21 48  1  0  0  0  0
 22 23  1  0  0  0  0
 24 25  1  0  0  0  0
 24 49  1  0  0  0  0
 24 50  1  0  0  0  0
 25 26  1  0  0  0  0
 25 51  1  0  0  0  0
 25 52  1  0  0  0  0
 26 27  1  0  0  0  0
 27 53  1  0  0  0  0
 27 54  1  0  0  0  0
M  END
> <s_m_source_file>
AV-unprocessed.smi

> <i_m_source_file_index>
166

> <i_lp_mmshare_version>
43012

> <i_f3d_flags>
0

> <s_epik_input>
W0NIMl0xT1tDSDJdW0NIMl1bQ0BAXTEoW09IXSlbQ0gyXW4oW2NIXW4yKWMoYzIzKW5bY0hdbmMzTjRbQ0gyXVtDSDJdW0NIMl1bQ0BIXShbQ0gyXTQpT1tDSDJdW0NIXTVbQ0gyXVtDSDJdNQ==

> <s_epik_cmdline>
J2VwaWtfcHl0aG9uJywgJy1waCcsICc3LjAnLCAnLXRuJywgJzgnLCAnLW1hJywgJzIwMCcsICctbWV0YWxfYmluZGluZycsICctaW1hZScsICc8aW5maWxlLm1hZT4nLCAnLW9tYWUnLCAnPG91dGZpbGUubWFlPic=

> <r_lp_tautomer_probability>
1

> <r_epik_Ionization_Penalty>
0.00342552

> <r_epik_Ionization_Penalty_Charging>
0

> <r_epik_Ionization_Penalty_Neutral>
0.00342552

> <r_epik_State_Penalty>
0.0022204

> <r_epik_Charging_Adjusted_Penalty>
0.0022204

> <i_epik_Tot_Q>
0

> <i_epik_Tot_abs_Q>
0

> <r_epik_Metal_State_Penalty>
-0

> <b_epik_Metal_Only>
0

> <s_lp_Force_Field>
OPLS_2005

> <r_lp_Energy>
47.3104

> <b_lp_Chiralities_Consistent>
1

> <s_lp_Variant>
AV-unprocessed.smi:166-3

> <Gold.Version>
5.8.1

> <Gold.Id.Protein>
6NUR|6NUR_protein|mol2

> <Gold.PLP.Fitness>
42.4575

> <Gold.PLP.PLP>
-45.2537

> <Gold.PLP.part.hbond>
-2.3344

> <Gold.PLP.part.metal>
0.0000

> <Gold.PLP.part.buried>
-5.2033

> <Gold.PLP.part.nonpolar>
-37.0110

> <Gold.PLP.part.repulsive>
0.0404

> <Gold.PLP.ligand.clash>
0.0000

> <Gold.PLP.ligand.torsion>
1.8149

> <Gold.PLP.Chemscore.Hbond>
0.0120

> <Gold.PLP.Chemscore.CHOScore>
0.0000

> <Gold.PLP.Chemscore.Metal>
0.0000

> <Gold.Chemscore.Hbonds>
donor molecule, donor type, donor heavy atom, donor atom, acceptor molecule, acceptor atom, score
      P1  H  6934  6947       L1     6  0.02

> <Gold.PLP.Chemscore.Internal.Correction>
0.7976

> <Gold.Rescore>
     Score         DG    S(hbond)    S(metal)    S(lipo)     H(rot)  DE(clash)    DE(int)     intcor
      7.16     -11.54       0.00        0.00     110.46       2.68       0.07       4.30       ----

> <Gold.Chemscore.Fitness>
7.1608

> <Gold.Chemscore.DG>
-11.5388

> <Gold.Chemscore.ZeroCoef>
-5.4800

> <Gold.Chemscore.Hbond>
0.0000

> <Gold.Chemscore.Metal>
0.0000

> <Gold.Chemscore.Lipo>
110.4606

> <Gold.Chemscore.Internal_Hbond>
0.0000

> <Gold.Chemscore.DEClash>
0.0733

> <Gold.Chemscore.DEInternal>
4.3047

> <Gold.Chemscore.Rot>
2.6817

> <Gold.Chemscore.Internal.Correction>
   9.000000E+99

> <Gold.Chemscore.Hbond.Weighted>
-0.0000

> <Gold.Chemscore.Metal.Weighted>
-0.0000

> <Gold.Chemscore.Lipo.Weighted>
-12.9239

> <Gold.Chemscore.Internal_Hbond.Weighted>
0.0000

> <Gold.Chemscore.DEClash.Weighted>
0.0733

> <Gold.Chemscore.DEInternal.Weighted>
4.3047

> <Gold.Chemscore.Rot.Weighted>
6.8651

> <Gold.Chemscore.Internal.Correction.Weighted>
   9.000000E+99

> <Gold.Protein.RotatedTorsions>
[ 6907 6896 6895 6894 ] final   88.08 input  -60.11 | X-H torsion
[ 7974 7965 7964 7962 ] final -119.97 input  175.53 | X-H torsion
[ 8008 7997 7996 7995 ] final  -15.22 input   59.86 | X-H torsion
[ 10167 10162 10161 10158 ] final  121.00 input  -65.29 | X-H torsion
[ 10718 10713 10712 10709 ] final   61.80 input   66.30 | X-H torsion
[ 10763 10752 10751 10750 ] final -135.64 input  -60.55 | X-H torsion
[ 11005 11000 10999 10996 ] final  125.18 input  -57.11 | X-H torsion

> <Gold.Protein.ActiveResidues>
 VAL166  LYS551  ARG553  GLY616  TRP617  ASP618  TYR619  PRO620  LYS621  CYS622 
 ASP623  PHE694  ASN695  SER759  ASP760  ASP761  ALA762  ILE779  LEU786  VAL792 
 PHE793  MET794  SER795  GLU796  ALA797  LYS798  CYS799  TRP800  GLU811  SER814 

> <Gold.Protein.RotatedAtoms>
  152.5420  134.2177  159.8774 H   0  0  0  0  0  0  0  0  0  0  0  0  # atno 6907 bound_to 6896
  151.2156  133.4524  159.2607 H   0  0  0  0  0  0  0  0  0  0  0  0  # atno 6908 bound_to 6896
  151.0855  134.9897  159.8433 H   0  0  0  0  0  0  0  0  0  0  0  0  # atno 6909 bound_to 6896
  145.0566  140.8258  143.4177 H   0  0  0  0  0  0  0  0  0  0  0  0  # atno 7974 bound_to 7965
  154.5147  140.2202  155.9088 H   0  0  0  0  0  0  0  0  0  0  0  0  # atno 8008 bound_to 7997
  156.1594  140.3145  155.8747 H   0  0  0  0  0  0  0  0  0  0  0  0  # atno 8009 bound_to 7997
  155.3781  140.0470  157.3035 H   0  0  0  0  0  0  0  0  0  0  0  0  # atno 8010 bound_to 7997
  139.5947  144.7037  151.3205 H   0  0  0  0  0  0  0  0  0  0  0  0  # atno 10167 bound_to 10162
  157.5854  130.9015  149.9507 H   0  0  0  0  0  0  0  0  0  0  0  0  # atno 10718 bound_to 10713
  154.8699  135.3697  154.4932 H   0  0  0  0  0  0  0  0  0  0  0  0  # atno 10763 bound_to 10752
  153.5577  135.7023  153.5566 H   0  0  0  0  0  0  0  0  0  0  0  0  # atno 10764 bound_to 10752
  153.3656  135.4035  155.1715 H   0  0  0  0  0  0  0  0  0  0  0  0  # atno 10765 bound_to 10752
  139.9394  134.9637  156.8520 H   0  0  0  0  0  0  0  0  0  0  0  0  # atno 11005 bound_to 11000
  145.1461  139.2542  143.5465 LP  0  0  0  0  0  0  0  0  0  0  0  0  # atno 17320 bound_to 7965
  146.3521  140.1151  142.8602 LP  0  0  0  0  0  0  0  0  0  0  0  0  # atno 17321 bound_to 7965
  140.7202  143.7156  150.7735 LP  0  0  0  0  0  0  0  0  0  0  0  0  # atno 17342 bound_to 10162
  140.0720  143.5052  152.2575 LP  0  0  0  0  0  0  0  0  0  0  0  0  # atno 17343 bound_to 10162
  156.0903  130.3664  150.0408 LP  0  0  0  0  0  0  0  0  0  0  0  0  # atno 17370 bound_to 10713
  156.8540  130.9468  151.3623 LP  0  0  0  0  0  0  0  0  0  0  0  0  # atno 17371 bound_to 10713
  140.5991  134.0189  155.7530 LP  0  0  0  0  0  0  0  0  0  0  0  0  # atno 17394 bound_to 11000
  141.1022  133.9750  157.3059 LP  0  0  0  0  0  0  0  0  0  0  0  0  # atno 17395 bound_to 11000

$$$$
