AV-unprocessed.smi:1|AV-procd|sdf|7|dock2
  -GOLD-   2262015 93D 1   1.00000     0.00000
 Structure written by MMmdl.
 57 62  0  0  0  0  0  0  0  0  1 V2000
  153.6557  139.9433  159.0673 O   0  0  0  0  0  0  0  0  0  0  0  0
  152.7951  140.7398  158.6909 C   0  0  0  0  0  0  0  0  0  0  0  0
  152.0394  140.5399  157.4672 N   0  0  0  0  0  0  0  0  0  0  0  0
  152.0716  139.4765  156.6307 C   0  0  0  0  0  0  0  0  0  0  0  0
  152.6721  139.5256  155.4120 N   0  0  0  0  0  0  0  0  0  0  0  0
  152.6813  138.4477  154.6224 C   0  0  0  0  0  0  0  0  0  0  0  0
  152.1579  137.2423  154.8533 N   0  0  0  0  0  0  0  0  0  0  0  0
  151.5610  137.1822  156.0782 C   0  0  0  0  0  0  0  0  0  0  0  0
  151.4785  138.2468  157.0178 C   0  0  0  0  0  0  0  0  0  0  0  0
  150.8016  137.8197  158.1536 N   0  0  0  0  0  0  0  0  0  0  0  0
  150.5040  136.5743  157.8950 C   0  0  0  0  0  0  0  0  0  0  0  0
  150.9201  136.1120  156.6665 N   0  0  0  0  0  0  0  0  0  0  0  0
  150.7299  134.7504  156.0906 C   0  0  2  0  0  0  0  0  0  0  0  0
  150.0035  134.8532  154.9083 O   0  0  0  0  0  0  0  0  0  0  0  0
  149.1150  133.7433  154.7623 C   0  0  2  0  0  0  0  0  0  0  0  0
  147.6883  134.2912  154.6262 C   0  0  0  0  0  0  0  0  0  0  0  0
  147.2673  134.1607  153.2770 O   0  0  0  0  0  0  0  0  0  0  0  0
  147.1044  132.9412  152.7240 C   0  0  0  0  0  0  0  0  0  0  0  0
  147.7526  131.9459  153.0546 O   0  0  0  0  0  0  0  0  0  0  0  0
  146.0541  132.9220  151.6657 C   0  0  0  0  0  0  0  0  0  0  0  0
  145.6030  131.6807  151.1594 C   0  0  0  0  0  0  0  0  0  0  0  0
  144.6118  131.6310  150.1599 C   0  0  0  0  0  0  0  0  0  0  0  0
  144.0586  132.8222  149.6553 C   0  0  0  0  0  0  0  0  0  0  0  0
  144.4980  134.0635  150.1512 C   0  0  0  0  0  0  0  0  0  0  0  0
  145.4894  134.1151  151.1505 C   0  0  0  0  0  0  0  0  0  0  0  0
  149.2864  132.8962  156.0299 C   0  0  1  0  0  0  0  0  0  0  0  0
  150.1936  131.8321  155.7967 O   0  0  0  0  0  0  0  0  0  0  0  0
  151.1917  131.6918  157.1300 S   0  0  0  0  0  0  0  0  0  0  0  0
  150.7066  130.5752  157.9551 O   0  0  0  0  0  0  0  0  0  0  0  0
  152.5863  131.7947  156.6738 O   0  0  0  0  0  0  0  0  0  0  0  0
  150.7813  133.1213  157.8925 O   0  0  0  0  0  0  0  0  0  0  0  0
  149.9287  133.8559  157.0326 C   0  0  1  0  0  0  0  0  0  0  0  0
  152.5330  142.0233  159.4235 C   0  0  0  0  0  0  0  0  0  0  0  0
  152.2016  143.1933  158.7037 C   0  0  0  0  0  0  0  0  0  0  0  0
  151.9702  144.4060  159.3818 C   0  0  0  0  0  0  0  0  0  0  0  0
  152.0769  144.4609  160.7843 C   0  0  0  0  0  0  0  0  0  0  0  0
  152.4177  143.3027  161.5083 C   0  0  0  0  0  0  0  0  0  0  0  0
  152.6483  142.0893  160.8315 C   0  0  0  0  0  0  0  0  0  0  0  0
  151.4088  141.2859  157.2113 H   0  0  0  0  0  0  0  0  0  0  0  0
  153.1783  138.5675  153.6708 H   0  0  0  0  0  0  0  0  0  0  0  0
  149.9656  135.9548  158.5977 H   0  0  0  0  0  0  0  0  0  0  0  0
  151.7326  134.3778  155.8761 H   0  0  0  0  0  0  0  0  0  0  0  0
  149.3773  133.1663  153.8746 H   0  0  0  0  0  0  0  0  0  0  0  0
  147.0036  133.7275  155.2604 H   0  0  0  0  0  0  0  0  0  0  0  0
  147.6593  135.3274  154.9637 H   0  0  0  0  0  0  0  0  0  0  0  0
  146.0134  130.7528  151.5313 H   0  0  0  0  0  0  0  0  0  0  0  0
  144.2765  130.6773  149.7800 H   0  0  0  0  0  0  0  0  0  0  0  0
  143.2982  132.7838  148.8893 H   0  0  0  0  0  0  0  0  0  0  0  0
  144.0746  134.9787  149.7646 H   0  0  0  0  0  0  0  0  0  0  0  0
  145.8028  135.0844  151.5095 H   0  0  0  0  0  0  0  0  0  0  0  0
  148.3479  132.4795  156.3976 H   0  0  0  0  0  0  0  0  0  0  0  0
  149.1764  134.4317  157.5733 H   0  0  0  0  0  0  0  0  0  0  0  0
  152.1170  143.1676  157.6267 H   0  0  0  0  0  0  0  0  0  0  0  0
  151.7126  145.2947  158.8248 H   0  0  0  0  0  0  0  0  0  0  0  0
  151.9011  145.3914  161.3039 H   0  0  0  0  0  0  0  0  0  0  0  0
  152.5057  143.3456  162.5838 H   0  0  0  0  0  0  0  0  0  0  0  0
  152.9187  141.2148  161.4055 H   0  0  0  0  0  0  0  0  0  0  0  0
  1  2  2  0  0  0  0
  2  3  1  0  0  0  0
  2 33  1  0  0  0  0
  3  4  1  0  0  0  0
  3 39  1  0  0  0  0
  4  9  1  0  0  0  0
  4  5  2  0  0  0  0
  5  6  1  0  0  0  0
  6  7  2  0  0  0  0
  6 40  1  0  0  0  0
  7  8  1  0  0  0  0
  8 12  1  0  0  0  0
  8  9  2  0  0  0  0
  9 10  1  0  0  0  0
 10 11  2  0  0  0  0
 11 12  1  0  0  0  0
 11 41  1  0  0  0  0
 12 13  1  0  0  0  0
 13 32  1  0  0  0  0
 13 14  1  0  0  0  0
 13 42  1  0  0  0  0
 14 15  1  0  0  0  0
 15 16  1  0  0  0  0
 15 26  1  0  0  0  0
 15 43  1  0  0  0  0
 16 17  1  0  0  0  0
 16 44  1  0  0  0  0
 16 45  1  0  0  0  0
 17 18  1  0  0  0  0
 18 19  2  0  0  0  0
 18 20  1  0  0  0  0
 20 25  1  0  0  0  0
 20 21  2  0  0  0  0
 21 22  1  0  0  0  0
 21 46  1  0  0  0  0
 22 23  2  0  0  0  0
 22 47  1  0  0  0  0
 23 24  1  0  0  0  0
 23 48  1  0  0  0  0
 24 25  2  0  0  0  0
 24 49  1  0  0  0  0
 25 50  1  0  0  0  0
 26 32  1  0  0  0  0
 26 27  1  0  0  0  0
 26 51  1  0  0  0  0
 27 28  1  0  0  0  0
 28 29  2  0  0  0  0
 28 30  2  0  0  0  0
 28 31  1  0  0  0  0
 31 32  1  0  0  0  0
 32 52  1  0  0  0  0
 33 38  1  0  0  0  0
 33 34  2  0  0  0  0
 34 35  1  0  0  0  0
 34 53  1  0  0  0  0
 35 36  2  0  0  0  0
 35 54  1  0  0  0  0
 36 37  1  0  0  0  0
 36 55  1  0  0  0  0
 37 38  2  0  0  0  0
 37 56  1  0  0  0  0
 38 57  1  0  0  0  0
M  END
> <s_m_source_file>
AV-unprocessed.smi

> <i_m_source_file_index>
1

> <i_lp_mmshare_version>
43012

> <i_f3d_flags>
0

> <s_epik_input>
W2NIXTFbY0hdW2NIXVtjSF1bY0hdYzFDKD1PKVtOSF1jKG5bY0hdbjIpYyhjMjMpbltjSF1uM1tDQEBIXShbQ0BIXShbQ0BIXTQ1KU9TKE81KSg9Tyk9TylPW0NASF00W0NIMl1PQyg9TyljNltjSF1bY0hdW2NIXVtjSF1bY0hdNg==

> <s_epik_cmdline>
J2VwaWtfcHl0aG9uJywgJy1waCcsICc3LjAnLCAnLXRuJywgJzgnLCAnLW1hJywgJzIwMCcsICctbWV0YWxfYmluZGluZycsICctaW1hZScsICc8aW5maWxlLm1hZT4nLCAnLW9tYWUnLCAnPG91dGZpbGUubWFlPic=

> <r_lp_tautomer_probability>
1

> <r_epik_Ionization_Penalty>
0.00195722

> <r_epik_Ionization_Penalty_Charging>
0

> <r_epik_Ionization_Penalty_Neutral>
0.00195722

> <r_epik_State_Penalty>
0.00633741

> <r_epik_Charging_Adjusted_Penalty>
0.00633741

> <i_epik_Tot_Q>
0

> <i_epik_Tot_abs_Q>
0

> <r_epik_Metal_State_Penalty>
0.341185

> <b_epik_Metal_Only>
0

> <s_epik_Chemistry_Notes>
This compound has an ester and may undergo hydrolysis at high or low pH. This compound contains an acetal/aminal-like group ( X-CH(R)-Y where X, Y are N, S, or O) that may be acid/base labile, releasing an aldehyde.

> <s_lp_Force_Field>
OPLS_2005

> <r_lp_Energy>
42.4074

> <b_lp_Chiralities_Consistent>
1

> <s_lp_Variant>
AV-unprocessed.smi:1-7

> <Gold.Version>
5.8.1

> <Gold.Id.Protein>
6NUR|6NUR_protein|mol2

> <Gold.PLP.Fitness>
65.7757

> <Gold.PLP.PLP>
-61.9210

> <Gold.PLP.part.hbond>
-4.6509

> <Gold.PLP.part.metal>
0.0000

> <Gold.PLP.part.buried>
-6.6950

> <Gold.PLP.part.nonpolar>
-50.9059

> <Gold.PLP.part.repulsive>
2.3954

> <Gold.PLP.ligand.clash>
0.0000

> <Gold.PLP.ligand.torsion>
2.2195

> <Gold.PLP.Chemscore.Hbond>
2.5573

> <Gold.PLP.Chemscore.CHOScore>
0.0000

> <Gold.PLP.Chemscore.Metal>
0.0000

> <Gold.Chemscore.Hbonds>
donor molecule, donor type, donor heavy atom, donor atom, acceptor molecule, acceptor atom, score
      P1  H  7997  8008       L1     5  0.86
      P1  H  7997  8010       L1     1  0.34
      P1  H 10752 10763       L1     7  0.78

> <Gold.PLP.Chemscore.Internal.Correction>
0.6219

> <Gold.Rescore>
     Score         DG    S(hbond)    S(metal)    S(lipo)     H(rot)  DE(clash)    DE(int)     intcor
     14.38     -19.76       1.13        0.00     136.47       2.13       2.12       3.26       ----

> <Gold.Chemscore.Fitness>
14.3840

> <Gold.Chemscore.DG>
-19.7632

> <Gold.Chemscore.ZeroCoef>
-5.4800

> <Gold.Chemscore.Hbond>
1.1309

> <Gold.Chemscore.Metal>
0.0000

> <Gold.Chemscore.Lipo>
136.4737

> <Gold.Chemscore.Internal_Hbond>
0.0000

> <Gold.Chemscore.DEClash>
2.1198

> <Gold.Chemscore.DEInternal>
3.2595

> <Gold.Chemscore.Rot>
2.1333

> <Gold.Chemscore.Internal.Correction>
   9.000000E+99

> <Gold.Chemscore.Hbonds>
donor molecule, donor type, donor heavy atom, donor atom, acceptor molecule, acceptor atom, score
      P1  H  7997  8008       L1     5  0.38
      P1  H  7997  8010       L1     1  0.10
      P1  H 10752 10763       L1     7  0.68

> <Gold.Chemscore.Hbond.Weighted>
-3.7772

> <Gold.Chemscore.Metal.Weighted>
-0.0000

> <Gold.Chemscore.Lipo.Weighted>
-15.9674

> <Gold.Chemscore.Internal_Hbond.Weighted>
0.0000

> <Gold.Chemscore.DEClash.Weighted>
2.1198

> <Gold.Chemscore.DEInternal.Weighted>
3.2595

> <Gold.Chemscore.Rot.Weighted>
5.4614

> <Gold.Chemscore.Internal.Correction.Weighted>
   9.000000E+99

> <Gold.Protein.RotatedTorsions>
[ 6907 6896 6895 6894 ] final   81.62 input  -60.11 | X-H torsion
[ 7974 7965 7964 7962 ] final   60.26 input  175.53 | X-H torsion
[ 8008 7997 7996 7995 ] final   -1.82 input   59.86 | X-H torsion
[ 10167 10162 10161 10158 ] final  166.88 input  -65.29 | X-H torsion
[ 10718 10713 10712 10709 ] final -145.01 input   66.30 | X-H torsion
[ 10763 10752 10751 10750 ] final   42.72 input  -60.55 | X-H torsion
[ 11005 11000 10999 10996 ] final -109.34 input  -57.11 | X-H torsion

> <Gold.Protein.ActiveResidues>
 VAL166  LYS551  ARG553  GLY616  TRP617  ASP618  TYR619  PRO620  LYS621  CYS622 
 ASP623  PHE694  ASN695  SER759  ASP760  ASP761  ALA762  ILE779  LEU786  VAL792 
 PHE793  MET794  SER795  GLU796  ALA797  LYS798  CYS799  TRP800  GLU811  SER814 

> <Gold.Protein.RotatedAtoms>
  152.5274  134.3176  159.9136 H   0  0  0  0  0  0  0  0  0  0  0  0  # atno 6907 bound_to 6896
  151.3125  133.4068  159.2655 H   0  0  0  0  0  0  0  0  0  0  0  0  # atno 6908 bound_to 6896
  151.0026  134.9351  159.8020 H   0  0  0  0  0  0  0  0  0  0  0  0  # atno 6909 bound_to 6896
  145.8980  139.3560  143.0610 H   0  0  0  0  0  0  0  0  0  0  0  0  # atno 7974 bound_to 7965
  154.6425  140.2550  155.7305 H   0  0  0  0  0  0  0  0  0  0  0  0  # atno 8008 bound_to 7997
  156.2536  140.2884  156.0745 H   0  0  0  0  0  0  0  0  0  0  0  0  # atno 8009 bound_to 7997
  155.1574  140.0383  157.2825 H   0  0  0  0  0  0  0  0  0  0  0  0  # atno 8010 bound_to 7997
  139.4933  144.3981  151.9441 H   0  0  0  0  0  0  0  0  0  0  0  0  # atno 10167 bound_to 10162
  156.3772  130.7818  151.2006 H   0  0  0  0  0  0  0  0  0  0  0  0  # atno 10718 bound_to 10713
  152.9876  135.6123  154.2995 H   0  0  0  0  0  0  0  0  0  0  0  0  # atno 10763 bound_to 10752
  154.2716  135.2779  155.2737 H   0  0  0  0  0  0  0  0  0  0  0  0  # atno 10764 bound_to 10752
  154.5117  135.5839  153.6667 H   0  0  0  0  0  0  0  0  0  0  0  0  # atno 10765 bound_to 10752
  141.0853  133.9150  157.2199 H   0  0  0  0  0  0  0  0  0  0  0  0  # atno 11005 bound_to 11000
  145.8827  140.9353  143.0593 LP  0  0  0  0  0  0  0  0  0  0  0  0  # atno 17320 bound_to 7965
  144.6734  140.0801  143.7469 LP  0  0  0  0  0  0  0  0  0  0  0  0  # atno 17321 bound_to 7965
  140.3420  144.3192  150.5965 LP  0  0  0  0  0  0  0  0  0  0  0  0  # atno 17342 bound_to 10162
  140.5558  143.2199  151.7850 LP  0  0  0  0  0  0  0  0  0  0  0  0  # atno 17343 bound_to 10162
  157.7489  131.0355  150.4365 LP  0  0  0  0  0  0  0  0  0  0  0  0  # atno 17370 bound_to 10713
  156.4602  130.4030  149.6581 LP  0  0  0  0  0  0  0  0  0  0  0  0  # atno 17371 bound_to 10713
  139.9670  135.0139  156.9414 LP  0  0  0  0  0  0  0  0  0  0  0  0  # atno 17394 bound_to 11000
  140.5377  134.0751  155.7333 LP  0  0  0  0  0  0  0  0  0  0  0  0  # atno 17395 bound_to 11000

$$$$
