AV-unprocessed.smi:2747|AV-procd|sdf|10577|dock7
  -GOLD-   2272015 33D 1   1.00000     0.00000
 Structure written by MMmdl.
 24 25  0  0  0  0  0  0  0  0  1 V2000
  148.0583  142.2633  156.7320 O   0  0  0  0  0  0  0  0  0  0  0  0
  148.4100  141.2434  155.8153 C   0  0  2  0  0  0  0  0  0  0  0  0
  149.8411  141.4865  155.2951 C   0  0  0  0  0  0  0  0  0  0  0  0
  150.8537  141.1576  156.2826 N   0  0  0  0  0  0  0  0  0  0  0  0
  151.6422  140.0625  156.0917 N   0  0  0  0  0  0  0  0  0  0  0  0
  152.4631  139.9610  157.0940 N   0  0  0  0  0  0  0  0  0  0  0  0
  152.2103  141.0094  157.9629 C   0  0  0  0  0  0  0  0  0  0  0  0
  152.7993  141.3764  159.1934 C   0  0  0  0  0  0  0  0  0  0  0  0
  152.3410  142.5141  159.8934 C   0  0  0  0  0  0  0  0  0  0  0  0
  153.0855  142.9293  161.3963 Cl  0  0  0  0  0  0  0  0  0  0  0  0
  151.2861  143.2990  159.3683 C   0  0  0  0  0  0  0  0  0  0  0  0
  150.7111  144.6922  160.2129 Cl  0  0  0  0  0  0  0  0  0  0  0  0
  150.6904  142.9457  158.1410 C   0  0  0  0  0  0  0  0  0  0  0  0
  151.1618  141.8102  157.4605 C   0  0  0  0  0  0  0  0  0  0  0  0
  147.3637  141.1926  154.6858 C   0  0  0  0  0  0  0  0  0  0  0  0
  147.2904  142.3749  154.0739 F   0  0  0  0  0  0  0  0  0  0  0  0
  147.6655  140.2464  153.7958 F   0  0  0  0  0  0  0  0  0  0  0  0
  146.1657  140.9232  155.2044 F   0  0  0  0  0  0  0  0  0  0  0  0
  148.2346  143.1011  156.3320 H   0  0  0  0  0  0  0  0  0  0  0  0
  148.3843  140.2959  156.3553 H   0  0  0  0  0  0  0  0  0  0  0  0
  150.0266  140.8908  154.4003 H   0  0  0  0  0  0  0  0  0  0  0  0
  149.9688  142.5297  155.0036 H   0  0  0  0  0  0  0  0  0  0  0  0
  153.6039  140.7813  159.5999 H   0  0  0  0  0  0  0  0  0  0  0  0
  149.8843  143.5354  157.7301 H   0  0  0  0  0  0  0  0  0  0  0  0
  1  2  1  0  0  0  0
  1 19  1  0  0  0  0
  2  3  1  0  0  0  0
  2 15  1  0  0  0  0
  2 20  1  0  0  0  0
  3  4  1  0  0  0  0
  3 21  1  0  0  0  0
  3 22  1  0  0  0  0
  4 14  1  0  0  0  0
  4  5  1  0  0  0  0
  5  6  2  0  0  0  0
  6  7  1  0  0  0  0
  7 14  2  0  0  0  0
  7  8  1  0  0  0  0
  8  9  2  0  0  0  0
  8 23  1  0  0  0  0
  9 10  1  0  0  0  0
  9 11  1  0  0  0  0
 11 12  1  0  0  0  0
 11 13  2  0  0  0  0
 13 14  1  0  0  0  0
 13 24  1  0  0  0  0
 15 16  1  0  0  0  0
 15 17  1  0  0  0  0
 15 18  1  0  0  0  0
M  END
> <s_m_source_file>
AV-unprocessed.smi

> <i_m_source_file_index>
2747

> <i_lp_mmshare_version>
43012

> <i_f3d_flags>
0

> <s_epik_input>
RkMoRikoRilbQ0BIXShbT0hdKVtDSDJdbihubjEpYyhjMTIpW2NIXWMoQ2wpYyhDbClbY0hdMg==

> <s_epik_cmdline>
J2VwaWtfcHl0aG9uJywgJy1waCcsICc3LjAnLCAnLXRuJywgJzgnLCAnLW1hJywgJzIwMCcsICctbWV0YWxfYmluZGluZycsICctaW1hZScsICc8aW5maWxlLm1hZT4nLCAnLW9tYWUnLCAnPG91dGZpbGUubWFlPic=

> <r_lp_tautomer_probability>
1

> <r_epik_Ionization_Penalty>
0.0735676

> <r_epik_Ionization_Penalty_Charging>
0

> <r_epik_Ionization_Penalty_Neutral>
0.0735676

> <r_epik_State_Penalty>
0.0647209

> <r_epik_Charging_Adjusted_Penalty>
0.0647209

> <i_epik_Tot_Q>
0

> <i_epik_Tot_abs_Q>
0

> <r_epik_Metal_State_Penalty>
0.0647209

> <b_epik_Metal_Only>
0

> <s_lp_Force_Field>
OPLS_2005

> <r_lp_Energy>
9.1287

> <b_lp_Chiralities_Consistent>
1

> <s_lp_Variant>
AV-unprocessed.smi:2747-1

> <Gold.Version>
5.8.1

> <Gold.Id.Protein>
6NUR|6NUR_protein|mol2

> <Gold.PLP.Fitness>
42.5783

> <Gold.PLP.PLP>
-37.0171

> <Gold.PLP.part.hbond>
-2.0000

> <Gold.PLP.part.metal>
0.0000

> <Gold.PLP.part.buried>
-5.2125

> <Gold.PLP.part.nonpolar>
-29.7796

> <Gold.PLP.part.repulsive>
0.0000

> <Gold.PLP.ligand.clash>
0.0000

> <Gold.PLP.ligand.torsion>
0.2237

> <Gold.PLP.Chemscore.Hbond>
2.0000

> <Gold.PLP.Chemscore.CHOScore>
0.0000

> <Gold.PLP.Chemscore.Metal>
0.0000

> <Gold.Chemscore.Hbonds>
donor molecule, donor type, donor heavy atom, donor atom, acceptor molecule, acceptor atom, score
      L1  H     1    19       P1  8028  1.00
      P1  H  7997  8008       L1     6  1.00

> <Gold.PLP.Chemscore.Internal.Correction>
0.0086

> <Gold.Rescore>
     Score         DG    S(hbond)    S(metal)    S(lipo)     H(rot)  DE(clash)    DE(int)     intcor
     15.58     -15.87       1.46        0.00      89.26       1.92       0.01       0.28       ----

> <Gold.Chemscore.Fitness>
15.5796

> <Gold.Chemscore.DG>
-15.8723

> <Gold.Chemscore.ZeroCoef>
-5.4800

> <Gold.Chemscore.Hbond>
1.4590

> <Gold.Chemscore.Metal>
0.0000

> <Gold.Chemscore.Lipo>
89.2598

> <Gold.Chemscore.Internal_Hbond>
0.0000

> <Gold.Chemscore.DEClash>
0.0097

> <Gold.Chemscore.DEInternal>
0.2830

> <Gold.Chemscore.Rot>
1.9235

> <Gold.Chemscore.Internal.Correction>
   9.000000E+99

> <Gold.Chemscore.Hbonds>
donor molecule, donor type, donor heavy atom, donor atom, acceptor molecule, acceptor atom, score
      L1  H     1    19       P1  8028  0.60
      P1  H  7997  8008       L1     6  0.48

> <Gold.Chemscore.Hbond.Weighted>
-4.8731

> <Gold.Chemscore.Metal.Weighted>
-0.0000

> <Gold.Chemscore.Lipo.Weighted>
-10.4434

> <Gold.Chemscore.Internal_Hbond.Weighted>
0.0000

> <Gold.Chemscore.DEClash.Weighted>
0.0097

> <Gold.Chemscore.DEInternal.Weighted>
0.2830

> <Gold.Chemscore.Rot.Weighted>
4.9242

> <Gold.Chemscore.Internal.Correction.Weighted>
   9.000000E+99

> <Gold.Protein.RotatedTorsions>
[ 6907 6896 6895 6894 ] final -122.01 input  -60.11 | X-H torsion
[ 7974 7965 7964 7962 ] final  -76.61 input  175.53 | X-H torsion
[ 8008 7997 7996 7995 ] final  -57.24 input   59.86 | X-H torsion
[ 10167 10162 10161 10158 ] final -164.64 input  -65.29 | X-H torsion
[ 10718 10713 10712 10709 ] final   80.38 input   66.30 | X-H torsion
[ 10763 10752 10751 10750 ] final -176.23 input  -60.55 | X-H torsion
[ 11005 11000 10999 10996 ] final   23.90 input  -57.11 | X-H torsion

> <Gold.Protein.ActiveResidues>
 VAL166  LYS551  ARG553  GLY616  TRP617  ASP618  TYR619  PRO620  LYS621  CYS622 
 ASP623  PHE694  ASN695  SER759  ASP760  ASP761  ALA762  ILE779  LEU786  VAL792 
 PHE793  MET794  SER795  GLU796  ALA797  LYS798  CYS799  TRP800  GLU811  SER814 

> <Gold.Protein.RotatedAtoms>
  150.8536  133.7749  159.3016 H   0  0  0  0  0  0  0  0  0  0  0  0  # atno 6907 bound_to 6896
  151.5413  135.1067  159.9936 H   0  0  0  0  0  0  0  0  0  0  0  0  # atno 6908 bound_to 6896
  152.4572  133.7704  159.6852 H   0  0  0  0  0  0  0  0  0  0  0  0  # atno 6909 bound_to 6896
  145.6106  140.9387  143.1191 H   0  0  0  0  0  0  0  0  0  0  0  0  # atno 7974 bound_to 7965
  154.4260  140.1111  156.5765 H   0  0  0  0  0  0  0  0  0  0  0  0  # atno 8008 bound_to 7997
  155.6157  140.3494  155.4617 H   0  0  0  0  0  0  0  0  0  0  0  0  # atno 8009 bound_to 7997
  156.0064  140.1210  157.0486 H   0  0  0  0  0  0  0  0  0  0  0  0  # atno 8010 bound_to 7997
  139.6236  144.0575  152.1955 H   0  0  0  0  0  0  0  0  0  0  0  0  # atno 10167 bound_to 10162
  157.6804  130.9957  150.2071 H   0  0  0  0  0  0  0  0  0  0  0  0  # atno 10718 bound_to 10713
  154.5749  135.2831  155.0791 H   0  0  0  0  0  0  0  0  0  0  0  0  # atno 10763 bound_to 10752
  154.2149  135.6401  153.5130 H   0  0  0  0  0  0  0  0  0  0  0  0  # atno 10764 bound_to 10752
  153.0069  135.5500  154.6384 H   0  0  0  0  0  0  0  0  0  0  0  0  # atno 10765 bound_to 10752
  140.3646  134.2088  155.7670 H   0  0  0  0  0  0  0  0  0  0  0  0  # atno 11005 bound_to 11000
  144.7271  139.7840  143.7361 LP  0  0  0  0  0  0  0  0  0  0  0  0  # atno 17320 bound_to 7965
  146.1507  139.4590  143.0050 LP  0  0  0  0  0  0  0  0  0  0  0  0  # atno 17321 bound_to 7965
  140.0223  144.6143  150.7556 LP  0  0  0  0  0  0  0  0  0  0  0  0  # atno 17342 bound_to 10162
  140.7397  143.2795  151.3640 LP  0  0  0  0  0  0  0  0  0  0  0  0  # atno 17343 bound_to 10162
  156.2749  130.3726  149.7993 LP  0  0  0  0  0  0  0  0  0  0  0  0  # atno 17370 bound_to 10713
  156.5699  130.8420  151.3353 LP  0  0  0  0  0  0  0  0  0  0  0  0  # atno 17371 bound_to 10713
  141.1973  133.8061  157.0631 LP  0  0  0  0  0  0  0  0  0  0  0  0  # atno 17394 bound_to 11000
  140.0599  134.9760  157.1287 LP  0  0  0  0  0  0  0  0  0  0  0  0  # atno 17395 bound_to 11000

$$$$
