#       Name:                AV-unprocessed.smi:1007
#       Creating user name   scv26
#       Creation time:       Fri Mar 27 02:33:32 2020


#       File generated by GOLD software.
#

@<TRIPOS>MOLECULE
AV-unprocessed.smi:1007
    62    64     1
SMALL
NO_CHARGES


@<TRIPOS>ATOM
      1 ****        -2.7978   3.7134  -5.6003 C.3            1 S1                 0.0000
      2 ****        -2.7986   3.1054  -4.3202 O.3            1 S1                 0.0000
      3 ****        -1.9456   3.7688  -3.4032 C.3            1 S1                 0.0000
      4 ****        -2.0313   3.0496  -2.0487 C.3            1 S1                 0.0000
      5 ****        -1.2892   3.6914  -0.9586 N.3            1 S1                 0.0000
      6 ****        -1.5999   3.1190   0.3508 C.3            1 S1                 0.0000
      7 ****        -1.0172   1.7053   0.5512 C.3            1 S1                 0.0000
      8 ****         0.4552   1.7153   0.3516 N.4            1 S1                 1.0000
      9 ****         1.0620   0.3831   0.5998 C.3            1 S1                 0.0000
     10 ****         2.5719   0.4531   0.9196 C.3            1 S1                 0.0000
     11 ****         2.7450   1.1661   2.1291 O.3            1 S1                 0.0000
     12 ****         3.2342  -0.9367   1.0508 C.3            1 S1                 0.0000
     13 ****         2.6163  -1.7862   2.0567 N.pl3          1 S1                 0.0000
     14 ****         2.9065  -1.8307   3.3718 C.2            1 S1                 0.0000
     15 ****         2.2083  -2.6780   4.1217 N.2            1 S1                 0.0000
     16 ****         1.3717  -3.2573   3.1836 C.ar           1 S1                 0.0000
     17 ****         0.3722  -4.2436   3.3310 C.ar           1 S1                 0.0000
     18 ****        -0.3743  -4.6915   2.2180 C.ar           1 S1                 0.0000
     19 ****        -1.4411  -5.7527   2.4228 C.3            1 S1                 0.0000
     20 ****        -0.1243  -4.1512   0.9312 C.ar           1 S1                 0.0000
     21 ****        -0.9146  -4.6152  -0.2792 C.3            1 S1                 0.0000
     22 ****         0.8725  -3.1673   0.7655 C.ar           1 S1                 0.0000
     23 ****         1.6059  -2.7264   1.8814 C.ar           1 S1                 0.0000
     24 ****         0.8009   2.2949  -0.9743 C.3            1 S1                 0.0000
     25 ****         0.1657   3.6918  -1.1306 C.3            1 S1                 0.0000
     26 ****        -3.4642   3.1656  -6.2666 H              1 S1                 0.0000
     27 ****        -1.8000   3.7049  -6.0411 H              1 S1                 0.0000
     28 ****        -3.1484   4.7449  -5.5471 H              1 S1                 0.0000
     29 ****        -0.9251   3.7586  -3.7869 H              1 S1                 0.0000
     30 ****        -2.2520   4.8106  -3.2951 H              1 S1                 0.0000
     31 ****        -3.0852   3.0051  -1.7709 H              1 S1                 0.0000
     32 ****        -1.7159   2.0142  -2.1732 H              1 S1                 0.0000
     33 ****        -1.2061   3.7757   1.1279 H              1 S1                 0.0000
     34 ****        -2.6801   3.0992   0.5002 H              1 S1                 0.0000
     35 ****        -1.2457   1.3653   1.5619 H              1 S1                 0.0000
     36 ****        -1.4801   0.9912  -0.1311 H              1 S1                 0.0000
     37 ****         0.5463  -0.0879   1.4379 H              1 S1                 0.0000
     38 ****         0.8848  -0.2556  -0.2666 H              1 S1                 0.0000
     39 ****         3.1008   0.9951   0.1369 H              1 S1                 0.0000
     40 ****         3.6703   1.2256   2.3151 H              1 S1                 0.0000
     41 ****         3.1940  -1.4570   0.0931 H              1 S1                 0.0000
     42 ****         4.2925  -0.8292   1.2933 H              1 S1                 0.0000
     43 ****         3.6686  -1.1991   3.8043 H              1 S1                 0.0000
     44 ****         0.1823  -4.6553   4.3115 H              1 S1                 0.0000
     45 ****        -1.2453  -6.6204   1.7926 H              1 S1                 0.0000
     46 ****        -2.4256  -5.3571   2.1725 H              1 S1                 0.0000
     47 ****        -1.4701  -6.0928   3.4582 H              1 S1                 0.0000
     48 ****        -0.6253  -4.0684  -1.1772 H              1 S1                 0.0000
     49 ****        -1.9820  -4.4581  -0.1228 H              1 S1                 0.0000
     50 ****        -0.7431  -5.6761  -0.4629 H              1 S1                 0.0000
     51 ****         1.0728  -2.7504  -0.2101 H              1 S1                 0.0000
     52 ****         1.8811   2.3912  -1.0732 H              1 S1                 0.0000
     53 ****         0.4740   1.6276  -1.7725 H              1 S1                 0.0000
     54 ****         0.4372   4.1193  -2.0949 H              1 S1                 0.0000
     55 ****         0.6061   4.3584  -0.3878 H              1 S1                 0.0000
     56 ****         0.8301   2.3366   1.0546 H              1 S1                 0.0000
     57 ****        -2.4926   2.1581  -4.4150 LP             1 S1                 0.0000
     58 ****        -3.7310   3.1199  -3.9590 LP             1 S1                 0.0000
     59 ****        -1.6035   4.6399  -0.9983 LP             1 S1                 0.0000
     60 ****         2.2822   0.6843   2.8732 LP             1 S1                 0.0000
     61 ****         2.3603   2.0845   2.0366 LP             1 S1                 0.0000
     62 ****         2.2711  -2.8511   5.1046 LP             1 S1                 0.0000
@<TRIPOS>BOND
    1    1    2 1     
    2    1   26 1     
    3    1   27 1     
    4    1   28 1     
    5    2    3 1     
    6    3    4 1     
    7    3   29 1     
    8    3   30 1     
    9    4    5 1     
   10    4   31 1     
   11    4   32 1     
   12    5   25 1     
   13    5    6 1     
   14    6    7 1     
   15    6   33 1     
   16    6   34 1     
   17    7    8 1     
   18    7   35 1     
   19    7   36 1     
   20    8    9 1     
   21    8   24 1     
   22    8   56 1     
   23    9   10 1     
   24    9   37 1     
   25    9   38 1     
   26   10   11 1     
   27   10   12 1     
   28   10   39 1     
   29   11   40 1     
   30   12   13 1     
   31   12   41 1     
   32   12   42 1     
   33   13   23 1     
   34   13   14 1     
   35   14   15 2     
   36   14   43 1     
   37   15   16 1     
   38   16   23 ar    
   39   16   17 ar    
   40   17   18 ar    
   41   17   44 1     
   42   18   19 1     
   43   18   20 ar    
   44   19   45 1     
   45   19   46 1     
   46   19   47 1     
   47   20   21 1     
   48   20   22 ar    
   49   21   48 1     
   50   21   49 1     
   51   21   50 1     
   52   22   23 ar    
   53   22   51 1     
   54   24   25 1     
   55   24   52 1     
   56   24   53 1     
   57   25   54 1     
   58   25   55 1     
   59    2   57 1     
   60    2   58 1     
   61    5   59 1     
   62   11   60 1     
   63   11   61 1     
   64   15   62 1     
@<TRIPOS>SUBSTRUCTURE
      1 S1             1
@<TRIPOS>SET
LONE_PAIRS      STATIC     ATOMS    <user>   **** ""
6 57 58 59 60 61 62
DONOR_HYDROGENS      STATIC     ATOMS    <user>   **** ""
2 56 40
ATOM$BLUE        STATIC     ATOMS    COLORGROUP SYSTEM
6 57 58 59 60 61 62
ATOM$RED        STATIC     ATOMS    COLORGROUP SYSTEM
2 56 40
