AV-unprocessed.smi:3094|AV-procd|sdf|11791|dock5
  -GOLD-   2272017173D 1   1.00000     0.00000
 Structure written by MMmdl.
 29 30  0  0  0  0  0  0  0  0  1 V2000
  148.4802  141.2343  156.8806 C   0  0  0  0  0  0  0  0  0  0  0  0
  149.9709  141.5222  157.1036 C   0  0  1  0  0  0  0  0  0  0  0  0
  150.7863  141.2896  155.8141 C   0  0  0  0  0  0  0  0  0  0  0  0
  150.8885  139.8850  155.4630 N   0  0  0  0  0  0  0  0  0  0  0  0
  150.3577  139.2617  154.3412 C   0  0  0  0  0  0  0  0  0  0  0  0
  150.6953  137.9306  154.4349 C   0  0  0  0  0  0  0  0  0  0  0  0
  151.4360  137.7148  155.5947 N   0  0  0  0  0  0  0  0  0  0  0  0
  151.5120  138.9175  156.1496 C   0  0  0  0  0  0  0  0  0  0  0  0
  150.1236  142.8981  157.5766 N   0  0  0  0  0  0  0  0  0  0  0  0
  150.9864  143.3149  158.5171 C   0  0  0  0  0  0  0  0  0  0  0  0
  151.7574  142.5573  159.1076 O   0  0  0  0  0  0  0  0  0  0  0  0
  150.9395  144.7857  158.7703 C   0  0  0  0  0  0  0  0  0  0  0  0
  151.9852  145.3657  159.7005 C   0  0  0  0  0  0  0  0  0  0  0  0
  150.5528  145.2524  160.1592 C   0  0  0  0  0  0  0  0  0  0  0  0
  148.3251  140.2074  156.5486 H   0  0  0  0  0  0  0  0  0  0  0  0
  148.0552  141.8961  156.1250 H   0  0  0  0  0  0  0  0  0  0  0  0
  147.9116  141.3700  157.8012 H   0  0  0  0  0  0  0  0  0  0  0  0
  150.3193  140.8261  157.8688 H   0  0  0  0  0  0  0  0  0  0  0  0
  150.3170  141.8060  154.9758 H   0  0  0  0  0  0  0  0  0  0  0  0
  151.7905  141.7050  155.9130 H   0  0  0  0  0  0  0  0  0  0  0  0
  149.7924  139.8004  153.5950 H   0  0  0  0  0  0  0  0  0  0  0  0
  150.4639  137.1183  153.7617 H   0  0  0  0  0  0  0  0  0  0  0  0
  152.0263  139.0970  157.0825 H   0  0  0  0  0  0  0  0  0  0  0  0
  149.5319  143.5926  157.1438 H   0  0  0  0  0  0  0  0  0  0  0  0
  150.6284  145.4136  157.9366 H   0  0  0  0  0  0  0  0  0  0  0  0
  152.7110  144.6905  160.1511 H   0  0  0  0  0  0  0  0  0  0  0  0
  152.3679  146.3546  159.4566 H   0  0  0  0  0  0  0  0  0  0  0  0
  149.9645  146.1652  160.2273 H   0  0  0  0  0  0  0  0  0  0  0  0
  150.3293  144.5045  160.9182 H   0  0  0  0  0  0  0  0  0  0  0  0
  1  2  1  0  0  0  0
  1 15  1  0  0  0  0
  1 16  1  0  0  0  0
  1 17  1  0  0  0  0
  2  3  1  0  0  0  0
  2  9  1  0  0  0  0
  2 18  1  0  0  0  0
  3  4  1  0  0  0  0
  3 19  1  0  0  0  0
  3 20  1  0  0  0  0
  4  8  1  0  0  0  0
  4  5  1  0  0  0  0
  5  6  2  0  0  0  0
  5 21  1  0  0  0  0
  6  7  1  0  0  0  0
  6 22  1  0  0  0  0
  7  8  2  0  0  0  0
  8 23  1  0  0  0  0
  9 10  1  0  0  0  0
  9 24  1  0  0  0  0
 10 11  2  0  0  0  0
 10 12  1  0  0  0  0
 12 14  1  0  0  0  0
 12 13  1  0  0  0  0
 12 25  1  0  0  0  0
 13 14  1  0  0  0  0
 13 26  1  0  0  0  0
 13 27  1  0  0  0  0
 14 28  1  0  0  0  0
 14 29  1  0  0  0  0
M  END
> <s_m_source_file>
AV-unprocessed.smi

> <i_m_source_file_index>
3094

> <i_lp_mmshare_version>
43012

> <i_f3d_flags>
0

> <s_epik_input>
W0NIMl0xW0NIMl1bQ0hdMUMoPU8pW05IXVtDQEhdKFtDSDNdKVtDSDJdbjJbY0hdW2NIXW5bY0hdMg==

> <s_epik_cmdline>
J2VwaWtfcHl0aG9uJywgJy1waCcsICc3LjAnLCAnLXRuJywgJzgnLCAnLW1hJywgJzIwMCcsICctbWV0YWxfYmluZGluZycsICctaW1hZScsICc8aW5maWxlLm1hZT4nLCAnLW9tYWUnLCAnPG91dGZpbGUubWFlPic=

> <r_lp_tautomer_probability>
1

> <r_epik_Ionization_Penalty>
0.642614

> <r_epik_Ionization_Penalty_Charging>
0.642614

> <r_epik_Ionization_Penalty_Neutral>
4.09963e-08

> <r_epik_State_Penalty>
0.660429

> <r_epik_Charging_Adjusted_Penalty>
1.30304

> <i_epik_Tot_Q>
0

> <i_epik_Tot_abs_Q>
0

> <r_epik_Metal_State_Penalty>
0.31224

> <b_epik_Metal_Only>
0

> <s_lp_Force_Field>
OPLS_2005

> <r_lp_Energy>
7.79034

> <b_lp_Chiralities_Consistent>
1

> <s_lp_Variant>
AV-unprocessed.smi:3094-4

> <Gold.Version>
5.8.1

> <Gold.Id.Protein>
6NUR|6NUR_protein|mol2

> <Gold.PLP.Fitness>
38.8036

> <Gold.PLP.PLP>
-30.3415

> <Gold.PLP.part.hbond>
-1.0000

> <Gold.PLP.part.metal>
0.0000

> <Gold.PLP.part.buried>
-4.2707

> <Gold.PLP.part.nonpolar>
-25.5546

> <Gold.PLP.part.repulsive>
0.0674

> <Gold.PLP.ligand.clash>
0.0000

> <Gold.PLP.ligand.torsion>
0.4485

> <Gold.PLP.Chemscore.Hbond>
1.0000

> <Gold.PLP.Chemscore.CHOScore>
2.0877

> <Gold.PLP.Chemscore.Metal>
0.0000

> <Gold.Chemscore.Hbonds>
donor molecule, donor type, donor heavy atom, donor atom, acceptor molecule, acceptor atom, score
      L1  H     9    24       P1  8028  1.00
      L1  C     5    21       P1  7957  1.00
      L1  C     6    22       P1  7948  0.72
      L1  C     6    22       P1  7949  0.38

> <Gold.PLP.Chemscore.Internal.Correction>
0.0959

> <Gold.Rescore>
     Score         DG    S(hbond)    S(metal)    S(lipo)     H(rot)  DE(clash)    DE(int)     intcor
     11.66     -11.95       0.99        0.00      67.07       1.83       0.02       0.27       ----

> <Gold.Chemscore.Fitness>
11.6627

> <Gold.Chemscore.DG>
-11.9528

> <Gold.Chemscore.ZeroCoef>
-5.4800

> <Gold.Chemscore.Hbond>
0.9947

> <Gold.Chemscore.Metal>
0.0000

> <Gold.Chemscore.Lipo>
67.0725

> <Gold.Chemscore.Internal_Hbond>
0.0000

> <Gold.Chemscore.DEClash>
0.0249

> <Gold.Chemscore.DEInternal>
0.2652

> <Gold.Chemscore.Rot>
1.8347

> <Gold.Chemscore.Internal.Correction>
   9.000000E+99

> <Gold.Chemscore.Hbonds>
donor molecule, donor type, donor heavy atom, donor atom, acceptor molecule, acceptor atom, score
      L1  H     9    24       P1  8028  0.83

> <Gold.Chemscore.Hbond.Weighted>
-3.3222

> <Gold.Chemscore.Metal.Weighted>
-0.0000

> <Gold.Chemscore.Lipo.Weighted>
-7.8475

> <Gold.Chemscore.Internal_Hbond.Weighted>
0.0000

> <Gold.Chemscore.DEClash.Weighted>
0.0249

> <Gold.Chemscore.DEInternal.Weighted>
0.2652

> <Gold.Chemscore.Rot.Weighted>
4.6969

> <Gold.Chemscore.Internal.Correction.Weighted>
   9.000000E+99

> <Gold.Protein.RotatedTorsions>
[ 6907 6896 6895 6894 ] final  163.90 input  -60.11 | X-H torsion
[ 7974 7965 7964 7962 ] final  -30.39 input  175.53 | X-H torsion
[ 8008 7997 7996 7995 ] final  -49.47 input   59.86 | X-H torsion
[ 10167 10162 10161 10158 ] final  -97.23 input  -65.29 | X-H torsion
[ 10718 10713 10712 10709 ] final   87.41 input   66.30 | X-H torsion
[ 10763 10752 10751 10750 ] final  166.99 input  -60.55 | X-H torsion
[ 11005 11000 10999 10996 ] final -150.18 input  -57.11 | X-H torsion

> <Gold.Protein.ActiveResidues>
 VAL166  LYS551  ARG553  GLY616  TRP617  ASP618  TYR619  PRO620  LYS621  CYS622 
 ASP623  PHE694  ASN695  SER759  ASP760  ASP761  ALA762  ILE779  LEU786  VAL792 
 PHE793  MET794  SER795  GLU796  ALA797  LYS798  CYS799  TRP800  GLU811  SER814 

> <Gold.Protein.RotatedAtoms>
  151.9180  133.3578  159.3886 H   0  0  0  0  0  0  0  0  0  0  0  0  # atno 6907 bound_to 6896
  150.7043  134.4664  159.5414 H   0  0  0  0  0  0  0  0  0  0  0  0  # atno 6908 bound_to 6896
  152.2282  134.8347  160.0528 H   0  0  0  0  0  0  0  0  0  0  0  0  # atno 6909 bound_to 6896
  146.1146  140.5534  142.8762 H   0  0  0  0  0  0  0  0  0  0  0  0  # atno 7974 bound_to 7965
  154.4045  140.1296  156.4508 H   0  0  0  0  0  0  0  0  0  0  0  0  # atno 8008 bound_to 7997
  155.7367  140.3490  155.5065 H   0  0  0  0  0  0  0  0  0  0  0  0  # atno 8009 bound_to 7997
  155.9077  140.1030  157.1293 H   0  0  0  0  0  0  0  0  0  0  0  0  # atno 8010 bound_to 7997
  140.2856  143.3254  152.0397 H   0  0  0  0  0  0  0  0  0  0  0  0  # atno 10167 bound_to 10162
  157.6940  131.0254  150.3118 H   0  0  0  0  0  0  0  0  0  0  0  0  # atno 10718 bound_to 10713
  154.3472  135.2753  155.2391 H   0  0  0  0  0  0  0  0  0  0  0  0  # atno 10763 bound_to 10752
  154.4636  135.5901  153.6276 H   0  0  0  0  0  0  0  0  0  0  0  0  # atno 10764 bound_to 10752
  152.9853  135.6071  154.3679 H   0  0  0  0  0  0  0  0  0  0  0  0  # atno 10765 bound_to 10752
  140.7429  134.3493  157.5143 H   0  0  0  0  0  0  0  0  0  0  0  0  # atno 11005 bound_to 11000
  144.7542  140.5265  143.6781 LP  0  0  0  0  0  0  0  0  0  0  0  0  # atno 17320 bound_to 7965
  145.5593  139.1479  143.3350 LP  0  0  0  0  0  0  0  0  0  0  0  0  # atno 17321 bound_to 7965
  139.4951  144.6561  151.6569 LP  0  0  0  0  0  0  0  0  0  0  0  0  # atno 17342 bound_to 10162
  140.5775  144.0003  150.6250 LP  0  0  0  0  0  0  0  0  0  0  0  0  # atno 17343 bound_to 10162
  156.3619  130.3848  149.7245 LP  0  0  0  0  0  0  0  0  0  0  0  0  # atno 17370 bound_to 10713
  156.4688  130.7987  151.3005 LP  0  0  0  0  0  0  0  0  0  0  0  0  # atno 17371 bound_to 10713
  139.8802  134.9092  156.2986 LP  0  0  0  0  0  0  0  0  0  0  0  0  # atno 17394 bound_to 11000
  140.9820  133.7261  156.0686 LP  0  0  0  0  0  0  0  0  0  0  0  0  # atno 17395 bound_to 11000

$$$$
