AV-unprocessed.smi:3322|AV-procd|sdf|12775|dock10
  -GOLD-   2272019123D 1   1.00000     0.00000
 Structure written by MMmdl.
 38 39  0  0  0  0  0  0  0  0  1 V2000
  147.2711  141.6563  155.1821 C   0  0  0  0  0  0  0  0  0  0  0  0
  148.6025  141.1369  155.7556 C   0  0  2  0  0  0  0  0  0  0  0  0
  149.3871  142.2486  156.3254 N   0  0  0  0  0  0  0  0  0  0  0  0
  150.8122  141.9555  156.4402 C   0  0  0  0  0  0  0  0  0  0  0  0
  151.2416  141.7796  157.9120 C   0  0  0  0  0  0  0  0  0  0  0  0
  151.6329  143.0250  158.5487 N   0  0  0  0  0  0  0  0  0  0  0  0
  151.5259  144.3089  158.0572 C   0  0  0  0  0  0  0  0  0  0  0  0
  151.9934  145.1538  159.0230 C   0  0  0  0  0  0  0  0  0  0  0  0
  152.3740  144.2814  160.0805 C   0  0  0  0  0  0  0  0  0  0  0  0
  152.1611  143.0078  159.7923 N   0  0  0  0  0  0  0  0  0  0  0  0
  149.4044  140.3984  154.6630 C   0  0  0  0  0  0  0  0  0  0  0  0
  149.6188  140.9851  153.6001 O   0  0  0  0  0  0  0  0  0  0  0  0
  149.8661  139.1416  154.8881 N   0  0  0  0  0  0  0  0  0  0  0  0
  149.5861  138.4051  156.1260 C   0  0  0  0  0  0  0  0  0  0  0  0
  150.9135  138.1428  156.8569 C   0  0  0  0  0  0  0  0  0  0  0  0
  151.7861  137.4065  156.0050 O   0  0  0  0  0  0  0  0  0  0  0  0
  152.0657  138.0819  154.7824 C   0  0  0  0  0  0  0  0  0  0  0  0
  150.7553  138.3564  154.0218 C   0  0  0  0  0  0  0  0  0  0  0  0
  146.6788  140.8497  154.7498 H   0  0  0  0  0  0  0  0  0  0  0  0
  147.4385  142.3975  154.3992 H   0  0  0  0  0  0  0  0  0  0  0  0
  146.6591  142.1249  155.9525 H   0  0  0  0  0  0  0  0  0  0  0  0
  148.3974  140.4348  156.5583 H   0  0  0  0  0  0  0  0  0  0  0  0
  149.2766  143.0940  155.7829 H   0  0  0  0  0  0  0  0  0  0  0  0
  150.9827  141.0104  155.9244 H   0  0  0  0  0  0  0  0  0  0  0  0
  151.4290  142.6946  155.9277 H   0  0  0  0  0  0  0  0  0  0  0  0
  150.4407  141.3165  158.4910 H   0  0  0  0  0  0  0  0  0  0  0  0
  152.0912  141.0978  157.9646 H   0  0  0  0  0  0  0  0  0  0  0  0
  151.1223  144.5118  157.0761 H   0  0  0  0  0  0  0  0  0  0  0  0
  152.0526  146.2313  158.9815 H   0  0  0  0  0  0  0  0  0  0  0  0
  152.7945  144.5338  161.0426 H   0  0  0  0  0  0  0  0  0  0  0  0
  148.8987  138.9281  156.7919 H   0  0  0  0  0  0  0  0  0  0  0  0
  149.1007  137.4596  155.8794 H   0  0  0  0  0  0  0  0  0  0  0  0
  151.3848  139.0800  157.1579 H   0  0  0  0  0  0  0  0  0  0  0  0
  150.7378  137.5663  157.7650 H   0  0  0  0  0  0  0  0  0  0  0  0
  152.5986  139.0123  154.9851 H   0  0  0  0  0  0  0  0  0  0  0  0
  152.7280  137.4601  154.1803 H   0  0  0  0  0  0  0  0  0  0  0  0
  150.2654  137.4166  153.7631 H   0  0  0  0  0  0  0  0  0  0  0  0
  151.0047  138.8328  153.0774 H   0  0  0  0  0  0  0  0  0  0  0  0
  1  2  1  0  0  0  0
  1 19  1  0  0  0  0
  1 20  1  0  0  0  0
  1 21  1  0  0  0  0
  2  3  1  0  0  0  0
  2 11  1  0  0  0  0
  2 22  1  0  0  0  0
  3  4  1  0  0  0  0
  3 23  1  0  0  0  0
  4  5  1  0  0  0  0
  4 24  1  0  0  0  0
  4 25  1  0  0  0  0
  5  6  1  0  0  0  0
  5 26  1  0  0  0  0
  5 27  1  0  0  0  0
  6 10  1  0  0  0  0
  6  7  1  0  0  0  0
  7  8  2  0  0  0  0
  7 28  1  0  0  0  0
  8  9  1  0  0  0  0
  8 29  1  0  0  0  0
  9 10  2  0  0  0  0
  9 30  1  0  0  0  0
 11 12  2  0  0  0  0
 11 13  1  0  0  0  0
 13 18  1  0  0  0  0
 13 14  1  0  0  0  0
 14 15  1  0  0  0  0
 14 31  1  0  0  0  0
 14 32  1  0  0  0  0
 15 16  1  0  0  0  0
 15 33  1  0  0  0  0
 15 34  1  0  0  0  0
 16 17  1  0  0  0  0
 17 18  1  0  0  0  0
 17 35  1  0  0  0  0
 17 36  1  0  0  0  0
 18 37  1  0  0  0  0
 18 38  1  0  0  0  0
M  END
> <s_m_source_file>
AV-unprocessed.smi

> <i_m_source_file_index>
3322

> <i_lp_mmshare_version>
43012

> <i_f3d_flags>
0

> <s_epik_input>
W0NIMl0xW0NIMl1PW0NIMl1bQ0gyXU4xQyg9TylbQ0BIXShbQ0gzXSlbTkhdW0NIMl1bQ0gyXW4yW2NIXVtjSF1bY0hdbjI=

> <s_epik_cmdline>
J2VwaWtfcHl0aG9uJywgJy1waCcsICc3LjAnLCAnLXRuJywgJzgnLCAnLW1hJywgJzIwMCcsICctbWV0YWxfYmluZGluZycsICctaW1hZScsICc8aW5maWxlLm1hZT4nLCAnLW9tYWUnLCAnPG91dGZpbGUubWFlPic=

> <r_lp_tautomer_probability>
1

> <r_epik_Ionization_Penalty>
0.511228

> <r_epik_Ionization_Penalty_Charging>
0

> <r_epik_Ionization_Penalty_Neutral>
0.511228

> <r_epik_State_Penalty>
0.51753

> <r_epik_Charging_Adjusted_Penalty>
0.51753

> <i_epik_Tot_Q>
0

> <i_epik_Tot_abs_Q>
0

> <r_epik_Metal_State_Penalty>
0.517012

> <b_epik_Metal_Only>
0

> <s_lp_Force_Field>
OPLS_2005

> <r_lp_Energy>
29.3693

> <b_lp_Chiralities_Consistent>
1

> <s_lp_Variant>
AV-unprocessed.smi:3322-3

> <Gold.Version>
5.8.1

> <Gold.Id.Protein>
6NUR|6NUR_protein|mol2

> <Gold.PLP.Fitness>
43.3953

> <Gold.PLP.PLP>
-35.2802

> <Gold.PLP.part.hbond>
-3.0000

> <Gold.PLP.part.metal>
0.0000

> <Gold.PLP.part.buried>
-7.0201

> <Gold.PLP.part.nonpolar>
-29.5294

> <Gold.PLP.part.repulsive>
3.4617

> <Gold.PLP.ligand.clash>
0.0000

> <Gold.PLP.ligand.torsion>
0.9548

> <Gold.PLP.Chemscore.Hbond>
2.3200

> <Gold.PLP.Chemscore.CHOScore>
1.0000

> <Gold.PLP.Chemscore.Metal>
0.0000

> <Gold.Chemscore.Hbonds>
donor molecule, donor type, donor heavy atom, donor atom, acceptor molecule, acceptor atom, score
      L1  H     3    23       P1  8028  1.00
      P1  H  7989  7998       L1    12  0.30
      P1  H  8011  8017       L1    12  1.00
      L1  C     7    28       P1  8028  0.78

> <Gold.PLP.Chemscore.Internal.Correction>
0.0646

> <Gold.Rescore>
     Score         DG    S(hbond)    S(metal)    S(lipo)     H(rot)  DE(clash)    DE(int)     intcor
     15.45     -17.74       2.12        0.00      84.75       1.84       1.39       0.90       ----

> <Gold.Chemscore.Fitness>
15.4473

> <Gold.Chemscore.DG>
-17.7408

> <Gold.Chemscore.ZeroCoef>
-5.4800

> <Gold.Chemscore.Hbond>
2.1157

> <Gold.Chemscore.Metal>
0.0000

> <Gold.Chemscore.Lipo>
84.7478

> <Gold.Chemscore.Internal_Hbond>
0.0000

> <Gold.Chemscore.DEClash>
1.3910

> <Gold.Chemscore.DEInternal>
0.9025

> <Gold.Chemscore.Rot>
1.8442

> <Gold.Chemscore.Internal.Correction>
   9.000000E+99

> <Gold.Chemscore.Hbonds>
donor molecule, donor type, donor heavy atom, donor atom, acceptor molecule, acceptor atom, score
      L1  H     3    23       P1  8028  0.96
      P1  H  7989  7998       L1    12  0.12
      P1  H  8011  8017       L1    12  0.95

> <Gold.Chemscore.Hbond.Weighted>
-7.0665

> <Gold.Chemscore.Metal.Weighted>
-0.0000

> <Gold.Chemscore.Lipo.Weighted>
-9.9155

> <Gold.Chemscore.Internal_Hbond.Weighted>
0.0000

> <Gold.Chemscore.DEClash.Weighted>
1.3910

> <Gold.Chemscore.DEInternal.Weighted>
0.9025

> <Gold.Chemscore.Rot.Weighted>
4.7212

> <Gold.Chemscore.Internal.Correction.Weighted>
   9.000000E+99

> <Gold.Protein.RotatedTorsions>
[ 6907 6896 6895 6894 ] final   89.42 input  -60.11 | X-H torsion
[ 7974 7965 7964 7962 ] final   15.00 input  175.53 | X-H torsion
[ 8008 7997 7996 7995 ] final  -93.04 input   59.86 | X-H torsion
[ 10167 10162 10161 10158 ] final  -36.92 input  -65.29 | X-H torsion
[ 10718 10713 10712 10709 ] final -179.84 input   66.30 | X-H torsion
[ 10763 10752 10751 10750 ] final  174.44 input  -60.55 | X-H torsion
[ 11005 11000 10999 10996 ] final   62.81 input  -57.11 | X-H torsion

> <Gold.Protein.ActiveResidues>
 VAL166  LYS551  ARG553  GLY616  TRP617  ASP618  TYR619  PRO620  LYS621  CYS622 
 ASP623  PHE694  ASN695  SER759  ASP760  ASP761  ALA762  ILE779  LEU786  VAL792 
 PHE793  MET794  SER795  GLU796  ALA797  LYS798  CYS799  TRP800  GLU811  SER814 

> <Gold.Protein.RotatedAtoms>
  152.5436  134.1969  159.8696 H   0  0  0  0  0  0  0  0  0  0  0  0  # atno 6907 bound_to 6896
  151.1961  133.4631  159.2603 H   0  0  0  0  0  0  0  0  0  0  0  0  # atno 6908 bound_to 6896
  151.1035  134.9998  159.8516 H   0  0  0  0  0  0  0  0  0  0  0  0  # atno 6909 bound_to 6896
  146.2290  139.8958  142.8547 H   0  0  0  0  0  0  0  0  0  0  0  0  # atno 7974 bound_to 7965
  154.7306  140.0503  157.0723 H   0  0  0  0  0  0  0  0  0  0  0  0  # atno 8008 bound_to 7997
  155.0306  140.3157  155.4740 H   0  0  0  0  0  0  0  0  0  0  0  0  # atno 8009 bound_to 7997
  156.2840  140.2150  156.5427 H   0  0  0  0  0  0  0  0  0  0  0  0  # atno 8010 bound_to 7997
  140.7131  143.3376  151.2428 H   0  0  0  0  0  0  0  0  0  0  0  0  # atno 10167 bound_to 10162
  156.8651  130.9765  151.3079 H   0  0  0  0  0  0  0  0  0  0  0  0  # atno 10718 bound_to 10713
  154.4539  135.2765  155.1761 H   0  0  0  0  0  0  0  0  0  0  0  0  # atno 10763 bound_to 10752
  154.3577  135.6136  153.5678 H   0  0  0  0  0  0  0  0  0  0  0  0  # atno 10764 bound_to 10752
  152.9849  135.5826  154.4889 H   0  0  0  0  0  0  0  0  0  0  0  0  # atno 10765 bound_to 10752
  140.0067  134.6359  155.9844 H   0  0  0  0  0  0  0  0  0  0  0  0  # atno 11005 bound_to 11000
  145.2372  140.9996  143.3956 LP  0  0  0  0  0  0  0  0  0  0  0  0  # atno 17320 bound_to 7965
  144.9481  139.4113  143.6416 LP  0  0  0  0  0  0  0  0  0  0  0  0  # atno 17321 bound_to 7965
  139.6875  143.9748  152.2842 LP  0  0  0  0  0  0  0  0  0  0  0  0  # atno 17342 bound_to 10162
  139.9398  144.6688  150.8277 LP  0  0  0  0  0  0  0  0  0  0  0  0  # atno 17343 bound_to 10162
  157.6228  130.8668  149.9137 LP  0  0  0  0  0  0  0  0  0  0  0  0  # atno 17370 bound_to 10713
  156.0756  130.3679  150.0685 LP  0  0  0  0  0  0  0  0  0  0  0  0  # atno 17371 bound_to 10713
  141.1682  133.6537  156.4554 LP  0  0  0  0  0  0  0  0  0  0  0  0  # atno 17394 bound_to 11000
  140.4629  134.6825  157.5093 LP  0  0  0  0  0  0  0  0  0  0  0  0  # atno 17395 bound_to 11000

$$$$
