AV-unprocessed.smi:2049|AV-procd|sdf|8322|dock1
  -GOLD-   2272010583D 1   1.00000     0.00000
 Structure written by MMmdl.
 51 53  0  0  0  0  0  0  0  0  2 V2000
  145.6656  135.3623  154.7812 O   0  0  0  0  0  0  0  0  0  0  0  0
  146.5078  135.5129  153.8968 C   0  0  0  0  0  0  0  0  0  0  0  0
  146.9584  134.3191  153.0491 C   0  0  0  0  0  0  0  0  0  0  0  0
  145.9244  133.9355  152.0756 N   0  0  0  0  0  0  0  0  0  0  0  0
  145.3647  134.9513  151.2825 C   0  0  0  0  0  0  0  0  0  0  0  0
  144.4044  134.6753  150.3885 C   0  0  0  0  0  0  0  0  0  0  0  0
  143.9837  133.2711  150.2939 C   0  0  0  0  0  0  0  0  0  0  0  0
  144.4912  132.3429  151.0162 N   0  0  0  0  0  0  0  0  0  0  0  0
  145.4984  132.6350  151.9544 C   0  0  0  0  0  0  0  0  0  0  0  0
  145.9864  131.7480  152.6562 O   0  0  0  0  0  0  0  0  0  0  0  0
  147.0959  136.6859  153.6228 N   0  0  0  0  0  0  0  0  0  0  0  0
  146.9366  137.9206  154.3883 C   0  0  0  0  0  0  0  0  0  0  0  0
  148.2284  138.8080  154.4080 C   0  0  0  0  0  0  0  0  0  0  0  0
  149.4374  137.8951  154.3928 N   0  3  0  0  0  0  0  0  0  0  0  0
  150.7530  138.5928  154.3096 C   0  0  0  0  0  0  0  0  0  0  0  0
  151.8908  137.5877  154.0813 C   0  0  0  0  0  0  0  0  0  0  0  0
  151.9126  136.6629  155.1573 O   0  0  0  0  0  0  0  0  0  0  0  0
  150.7139  135.9049  155.2124 C   0  0  0  0  0  0  0  0  0  0  0  0
  149.5023  136.8292  155.4349 C   0  0  0  0  0  0  0  0  0  0  0  0
  148.2206  139.7592  153.1741 C   0  0  0  0  0  0  0  0  0  0  0  0
  147.0826  140.7990  153.2022 C   0  0  0  0  0  0  0  0  0  0  0  0
  147.1032  141.6357  154.4885 C   0  0  0  0  0  0  0  0  0  0  0  0
  147.0854  140.7428  155.7361 C   0  0  0  0  0  0  0  0  0  0  0  0
  148.2303  139.7144  155.6840 C   0  0  0  0  0  0  0  0  0  0  0  0
  147.8899  134.5859  152.5476 H   0  0  0  0  0  0  0  0  0  0  0  0
  147.2058  133.4677  153.6865 H   0  0  0  0  0  0  0  0  0  0  0  0
  145.7540  135.9449  151.4506 H   0  0  0  0  0  0  0  0  0  0  0  0
  143.9299  135.4069  149.7511 H   0  0  0  0  0  0  0  0  0  0  0  0
  143.2003  133.0665  149.5595 H   0  0  0  0  0  0  0  0  0  0  0  0
  147.7501  136.7111  152.8542 H   0  0  0  0  0  0  0  0  0  0  0  0
  146.1127  138.4670  153.9311 H   0  0  0  0  0  0  0  0  0  0  0  0
  146.5704  137.6920  155.3877 H   0  0  0  0  0  0  0  0  0  0  0  0
  150.7707  139.3169  153.4973 H   0  0  0  0  0  0  0  0  0  0  0  0
  150.9492  139.1400  155.2322 H   0  0  0  0  0  0  0  0  0  0  0  0
  151.7718  137.0678  153.1291 H   0  0  0  0  0  0  0  0  0  0  0  0
  152.8487  138.1071  154.0446 H   0  0  0  0  0  0  0  0  0  0  0  0
  150.5978  135.3260  154.2951 H   0  0  0  0  0  0  0  0  0  0  0  0
  150.7901  135.1863  156.0287 H   0  0  0  0  0  0  0  0  0  0  0  0
  149.5511  137.2774  156.4276 H   0  0  0  0  0  0  0  0  0  0  0  0
  148.6266  136.1844  155.4042 H   0  0  0  0  0  0  0  0  0  0  0  0
  149.1698  140.2920  153.1116 H   0  0  0  0  0  0  0  0  0  0  0  0
  148.1315  139.1925  152.2473 H   0  0  0  0  0  0  0  0  0  0  0  0
  147.1700  141.4589  152.3385 H   0  0  0  0  0  0  0  0  0  0  0  0
  146.1173  140.3027  153.1020 H   0  0  0  0  0  0  0  0  0  0  0  0
  147.9991  142.2580  154.5008 H   0  0  0  0  0  0  0  0  0  0  0  0
  146.2533  142.3185  154.5047 H   0  0  0  0  0  0  0  0  0  0  0  0
  147.1964  141.3639  156.6254 H   0  0  0  0  0  0  0  0  0  0  0  0
  146.1175  140.2550  155.8401 H   0  0  0  0  0  0  0  0  0  0  0  0
  148.2375  139.1129  156.5927 H   0  0  0  0  0  0  0  0  0  0  0  0
  149.1352  140.3188  155.7181 H   0  0  0  0  0  0  0  0  0  0  0  0
  149.3504  137.3872  153.5237 H   0  0  0  0  0  0  0  0  0  0  0  0
  1  2  2  0  0  0  0
  2  3  1  0  0  0  0
  2 11  1  0  0  0  0
  3  4  1  0  0  0  0
  3 25  1  0  0  0  0
  3 26  1  0  0  0  0
  4  9  1  0  0  0  0
  4  5  1  0  0  0  0
  5  6  2  0  0  0  0
  5 27  1  0  0  0  0
  6  7  1  0  0  0  0
  6 28  1  0  0  0  0
  7  8  2  0  0  0  0
  7 29  1  0  0  0  0
  8  9  1  0  0  0  0
  9 10  2  0  0  0  0
 11 12  1  0  0  0  0
 11 30  1  0  0  0  0
 12 13  1  0  0  0  0
 12 31  1  0  0  0  0
 12 32  1  0  0  0  0
 13 24  1  0  0  0  0
 13 14  1  0  0  0  0
 13 20  1  0  0  0  0
 14 19  1  0  0  0  0
 14 15  1  0  0  0  0
 14 51  1  0  0  0  0
 15 16  1  0  0  0  0
 15 33  1  0  0  0  0
 15 34  1  0  0  0  0
 16 17  1  0  0  0  0
 16 35  1  0  0  0  0
 16 36  1  0  0  0  0
 17 18  1  0  0  0  0
 18 19  1  0  0  0  0
 18 37  1  0  0  0  0
 18 38  1  0  0  0  0
 19 39  1  0  0  0  0
 19 40  1  0  0  0  0
 20 21  1  0  0  0  0
 20 41  1  0  0  0  0
 20 42  1  0  0  0  0
 21 22  1  0  0  0  0
 21 43  1  0  0  0  0
 21 44  1  0  0  0  0
 22 23  1  0  0  0  0
 22 45  1  0  0  0  0
 22 46  1  0  0  0  0
 23 24  1  0  0  0  0
 23 47  1  0  0  0  0
 23 48  1  0  0  0  0
 24 49  1  0  0  0  0
 24 50  1  0  0  0  0
M  CHG  1  14   1
M  END
> <s_m_source_file>
AV-unprocessed.smi

> <i_m_source_file_index>
2049

> <i_lp_mmshare_version>
43012

> <i_f3d_flags>
0

> <s_epik_input>
Tz1jMW5bY0hdW2NIXVtjSF1uMVtDSDJdQyg9TylbTkhdW0NIMl1DMihbQ0gyXVtDSDJdW0NIMl1bQ0gyXVtDSDJdMilOM1tDSDJdW0NIMl1PW0NIMl1bQ0gyXTM=

> <s_epik_cmdline>
J2VwaWtfcHl0aG9uJywgJy1waCcsICc3LjAnLCAnLXRuJywgJzgnLCAnLW1hJywgJzIwMCcsICctbWV0YWxfYmluZGluZycsICctaW1hZScsICc8aW5maWxlLm1hZT4nLCAnLW9tYWUnLCAnPG91dGZpbGUubWFlPic=

> <r_lp_tautomer_probability>
1

> <r_epik_Ionization_Penalty>
0.40042

> <r_epik_Ionization_Penalty_Charging>
0.400415

> <r_epik_Ionization_Penalty_Neutral>
5.09538e-06

> <r_epik_State_Penalty>
0.399732

> <r_epik_Charging_Adjusted_Penalty>
0.800147

> <i_epik_Tot_Q>
1

> <i_epik_Tot_abs_Q>
1

> <r_epik_Metal_State_Penalty>
0.399734

> <b_epik_Metal_Only>
0

> <s_lp_Force_Field>
OPLS_2005

> <r_lp_Energy>
43.1449

> <b_lp_Chiralities_Consistent>
1

> <s_lp_Variant>
AV-unprocessed.smi:2049-1

> <Gold.Version>
5.8.1

> <Gold.Id.Protein>
6NUR|6NUR_protein|mol2

> <Gold.PLP.Fitness>
41.4340

> <Gold.PLP.PLP>
-28.7020

> <Gold.PLP.part.hbond>
-2.9820

> <Gold.PLP.part.metal>
0.0000

> <Gold.PLP.part.buried>
3.6883

> <Gold.PLP.part.nonpolar>
-28.9872

> <Gold.PLP.part.repulsive>
0.4473

> <Gold.PLP.ligand.clash>
0.0000

> <Gold.PLP.ligand.torsion>
0.9502

> <Gold.PLP.Chemscore.Hbond>
4.0000

> <Gold.PLP.Chemscore.CHOScore>
0.8062

> <Gold.PLP.Chemscore.Metal>
0.0000

> <Gold.Chemscore.Hbonds>
donor molecule, donor type, donor heavy atom, donor atom, acceptor molecule, acceptor atom, score
      L1  H    11    30       P1  7948  1.00
      L1  H    14    51       P1  7948  1.98
      P1  H 10752 10765       L1    17  1.00
      L1  C     7    29       P1 10186  0.73

> <Gold.PLP.Chemscore.Internal.Correction>
0.2140

> <Gold.Rescore>
     Score         DG    S(hbond)    S(metal)    S(lipo)     H(rot)  DE(clash)    DE(int)     intcor
     14.14     -17.34       2.23        0.00      81.94       2.02       2.32       0.88       ----

> <Gold.Chemscore.Fitness>
14.1427

> <Gold.Chemscore.DG>
-17.3438

> <Gold.Chemscore.ZeroCoef>
-5.4800

> <Gold.Chemscore.Hbond>
2.2269

> <Gold.Chemscore.Metal>
0.0000

> <Gold.Chemscore.Lipo>
81.9444

> <Gold.Chemscore.Internal_Hbond>
0.0000

> <Gold.Chemscore.DEClash>
2.3226

> <Gold.Chemscore.DEInternal>
0.8786

> <Gold.Chemscore.Rot>
2.0162

> <Gold.Chemscore.Internal.Correction>
   9.000000E+99

> <Gold.Chemscore.Hbonds>
donor molecule, donor type, donor heavy atom, donor atom, acceptor molecule, acceptor atom, score
      L1  H    11    30       P1  7948  0.99
      L1  H    14    51       P1  7948  0.90
      P1  H 10752 10765       L1    17  0.26

> <Gold.Chemscore.Hbond.Weighted>
-7.4377

> <Gold.Chemscore.Metal.Weighted>
-0.0000

> <Gold.Chemscore.Lipo.Weighted>
-9.5875

> <Gold.Chemscore.Internal_Hbond.Weighted>
0.0000

> <Gold.Chemscore.DEClash.Weighted>
2.3226

> <Gold.Chemscore.DEInternal.Weighted>
0.8786

> <Gold.Chemscore.Rot.Weighted>
5.1614

> <Gold.Chemscore.Internal.Correction.Weighted>
   9.000000E+99

> <Gold.Protein.RotatedTorsions>
[ 6907 6896 6895 6894 ] final  -23.53 input  -60.11 | X-H torsion
[ 7974 7965 7964 7962 ] final  -60.82 input  175.53 | X-H torsion
[ 8008 7997 7996 7995 ] final  -81.86 input   59.86 | X-H torsion
[ 10167 10162 10161 10158 ] final  -69.54 input  -65.29 | X-H torsion
[ 10718 10713 10712 10709 ] final  154.47 input   66.30 | X-H torsion
[ 10763 10752 10751 10750 ] final -160.99 input  -60.55 | X-H torsion
[ 11005 11000 10999 10996 ] final   60.47 input  -57.11 | X-H torsion

> <Gold.Protein.ActiveResidues>
 VAL166  LYS551  ARG553  GLY616  TRP617  ASP618  TYR619  PRO620  LYS621  CYS622 
 ASP623  PHE694  ASN695  SER759  ASP760  ASP761  ALA762  ILE779  LEU786  VAL792 
 PHE793  MET794  SER795  GLU796  ALA797  LYS798  CYS799  TRP800  GLU811  SER814 

> <Gold.Protein.RotatedAtoms>
  151.2026  135.0449  159.8878 H   0  0  0  0  0  0  0  0  0  0  0  0  # atno 6907 bound_to 6896
  152.5431  134.0833  159.8255 H   0  0  0  0  0  0  0  0  0  0  0  0  # atno 6908 bound_to 6896
  151.0976  133.5221  159.2643 H   0  0  0  0  0  0  0  0  0  0  0  0  # atno 6909 bound_to 6896
  145.8109  140.8599  143.0182 H   0  0  0  0  0  0  0  0  0  0  0  0  # atno 7974 bound_to 7965
  154.6026  140.0641  156.9389 H   0  0  0  0  0  0  0  0  0  0  0  0  # atno 8008 bound_to 7997
  155.2106  140.3322  155.4311 H   0  0  0  0  0  0  0  0  0  0  0  0  # atno 8009 bound_to 7997
  156.2328  140.1849  156.7182 H   0  0  0  0  0  0  0  0  0  0  0  0  # atno 8010 bound_to 7997
  140.5422  143.2314  151.7067 H   0  0  0  0  0  0  0  0  0  0  0  0  # atno 10167 bound_to 10162
  157.2311  131.0739  151.1852 H   0  0  0  0  0  0  0  0  0  0  0  0  # atno 10718 bound_to 10713
  154.7343  135.3053  154.8838 H   0  0  0  0  0  0  0  0  0  0  0  0  # atno 10763 bound_to 10752
  153.9672  135.6746  153.4750 H   0  0  0  0  0  0  0  0  0  0  0  0  # atno 10764 bound_to 10752
  153.0947  135.4941  154.8679 H   0  0  0  0  0  0  0  0  0  0  0  0  # atno 10765 bound_to 10752
  140.0229  134.6125  155.9613 H   0  0  0  0  0  0  0  0  0  0  0  0  # atno 11005 bound_to 11000
  144.6757  140.0394  143.7481 LP  0  0  0  0  0  0  0  0  0  0  0  0  # atno 17320 bound_to 7965
  145.9778  139.2918  143.1060 LP  0  0  0  0  0  0  0  0  0  0  0  0  # atno 17321 bound_to 7965
  139.4993  144.3950  152.0240 LP  0  0  0  0  0  0  0  0  0  0  0  0  # atno 17342 bound_to 10162
  140.3060  144.3592  150.6047 LP  0  0  0  0  0  0  0  0  0  0  0  0  # atno 17343 bound_to 10162
  157.3477  130.7066  149.6421 LP  0  0  0  0  0  0  0  0  0  0  0  0  # atno 17370 bound_to 10713
  155.9675  130.4261  150.4686 LP  0  0  0  0  0  0  0  0  0  0  0  0  # atno 17371 bound_to 10713
  141.1785  133.6543  156.4924 LP  0  0  0  0  0  0  0  0  0  0  0  0  # atno 17394 bound_to 11000
  140.4355  134.7062  157.4965 LP  0  0  0  0  0  0  0  0  0  0  0  0  # atno 17395 bound_to 11000

$$$$
