AV-unprocessed.smi:2334|AV-procd|sdf|9321|dock5
  -GOLD-   2272012543D 1   1.00000     0.00000
 Structure written by MMmdl.
 49 51  0  0  0  0  0  0  0  0  1 V2000
  155.2019  140.6717  162.7969 C   0  0  0  0  0  0  0  0  0  0  0  0
  154.2198  140.4271  161.6645 C   0  0  0  0  0  0  0  0  0  0  0  0
  153.7634  141.5371  161.0443 N   0  0  0  0  0  0  0  0  0  0  0  0
  152.8896  141.4095  160.0182 C   0  0  0  0  0  0  0  0  0  0  0  0
  152.4361  142.5925  159.4020 N   0  0  0  0  0  0  0  0  0  0  0  0
  153.3207  143.7242  159.1709 C   0  0  0  0  0  0  0  0  0  0  0  0
  152.4817  144.7107  158.3603 C   0  0  0  0  0  0  0  0  0  0  0  0
  151.5746  143.7975  157.5356 C   0  0  0  0  0  0  0  0  0  0  0  0
  151.3395  142.5846  158.4434 C   0  0  0  0  0  0  0  0  0  0  0  0
  152.4379  140.1428  159.5817 C   0  0  0  0  0  0  0  0  0  0  0  0
  152.9118  138.9860  160.2278 C   0  0  0  0  0  0  0  0  0  0  0  0
  153.8188  139.1189  161.3052 C   0  0  0  0  0  0  0  0  0  0  0  0
  154.3703  138.0080  162.0031 N   0  0  0  0  0  0  0  0  0  0  0  0
  154.3129  136.7053  161.6779 C   0  0  0  0  0  0  0  0  0  0  0  0
  153.7290  136.2468  160.6967 O   0  0  0  0  0  0  0  0  0  0  0  0
  154.9629  135.9574  162.5852 N   0  0  0  0  0  0  0  0  0  0  0  0
  155.1224  134.4956  162.6232 C   0  0  0  0  0  0  0  0  0  0  0  0
  155.1484  133.9314  161.1861 C   0  0  0  0  0  0  0  0  0  0  0  0
  156.4673  134.1851  163.3157 C   0  0  0  0  0  0  0  0  0  0  0  0
  156.4414  134.5337  164.8163 C   0  0  0  0  0  0  0  0  0  0  0  0
  155.3788  133.8417  165.4609 O   0  0  0  0  0  0  0  0  0  0  0  0
  154.0981  134.1928  164.9495 C   0  0  0  0  0  0  0  0  0  0  0  0
  154.0088  133.8183  163.4591 C   0  0  0  0  0  0  0  0  0  0  0  0
  154.8192  140.2527  163.7282 H   0  0  0  0  0  0  0  0  0  0  0  0
  155.3761  141.7371  162.9543 H   0  0  0  0  0  0  0  0  0  0  0  0
  156.1611  140.2029  162.5747 H   0  0  0  0  0  0  0  0  0  0  0  0
  153.6671  144.1629  160.1075 H   0  0  0  0  0  0  0  0  0  0  0  0
  154.1900  143.3968  158.5987 H   0  0  0  0  0  0  0  0  0  0  0  0
  151.8766  145.3211  159.0322 H   0  0  0  0  0  0  0  0  0  0  0  0
  153.0870  145.3799  157.7484 H   0  0  0  0  0  0  0  0  0  0  0  0
  150.6473  144.2818  157.2285 H   0  0  0  0  0  0  0  0  0  0  0  0
  152.1010  143.4808  156.6343 H   0  0  0  0  0  0  0  0  0  0  0  0
  151.3063  141.6634  157.8605 H   0  0  0  0  0  0  0  0  0  0  0  0
  150.3982  142.6827  158.9851 H   0  0  0  0  0  0  0  0  0  0  0  0
  151.7370  140.0421  158.7665 H   0  0  0  0  0  0  0  0  0  0  0  0
  152.5809  138.0217  159.8749 H   0  0  0  0  0  0  0  0  0  0  0  0
  154.8030  138.2260  162.8887 H   0  0  0  0  0  0  0  0  0  0  0  0
  155.3973  136.4558  163.3482 H   0  0  0  0  0  0  0  0  0  0  0  0
  155.3615  132.8619  161.1854 H   0  0  0  0  0  0  0  0  0  0  0  0
  155.9161  134.4174  160.5831 H   0  0  0  0  0  0  0  0  0  0  0  0
  154.1944  134.0643  160.6762 H   0  0  0  0  0  0  0  0  0  0  0  0
  156.6956  133.1232  163.2136 H   0  0  0  0  0  0  0  0  0  0  0  0
  157.2825  134.7181  162.8245 H   0  0  0  0  0  0  0  0  0  0  0  0
  157.3820  134.2405  165.2827 H   0  0  0  0  0  0  0  0  0  0  0  0
  156.3357  135.6084  164.9715 H   0  0  0  0  0  0  0  0  0  0  0  0
  153.3372  133.6547  165.5148 H   0  0  0  0  0  0  0  0  0  0  0  0
  153.9100  135.2567  165.1014 H   0  0  0  0  0  0  0  0  0  0  0  0
  153.0183  134.0583  163.0736 H   0  0  0  0  0  0  0  0  0  0  0  0
  154.1028  132.7349  163.3718 H   0  0  0  0  0  0  0  0  0  0  0  0
  1  2  1  0  0  0  0
  1 24  1  0  0  0  0
  1 25  1  0  0  0  0
  1 26  1  0  0  0  0
  2 12  1  0  0  0  0
  2  3  2  0  0  0  0
  3  4  1  0  0  0  0
  4  5  1  0  0  0  0
  4 10  2  0  0  0  0
  5  9  1  0  0  0  0
  5  6  1  0  0  0  0
  6  7  1  0  0  0  0
  6 27  1  0  0  0  0
  6 28  1  0  0  0  0
  7  8  1  0  0  0  0
  7 29  1  0  0  0  0
  7 30  1  0  0  0  0
  8  9  1  0  0  0  0
  8 31  1  0  0  0  0
  8 32  1  0  0  0  0
  9 33  1  0  0  0  0
  9 34  1  0  0  0  0
 10 11  1  0  0  0  0
 10 35  1  0  0  0  0
 11 12  2  0  0  0  0
 11 36  1  0  0  0  0
 12 13  1  0  0  0  0
 13 14  1  0  0  0  0
 13 37  1  0  0  0  0
 14 15  2  0  0  0  0
 14 16  1  0  0  0  0
 16 17  1  0  0  0  0
 16 38  1  0  0  0  0
 17 23  1  0  0  0  0
 17 18  1  0  0  0  0
 17 19  1  0  0  0  0
 18 39  1  0  0  0  0
 18 40  1  0  0  0  0
 18 41  1  0  0  0  0
 19 20  1  0  0  0  0
 19 42  1  0  0  0  0
 19 43  1  0  0  0  0
 20 21  1  0  0  0  0
 20 44  1  0  0  0  0
 20 45  1  0  0  0  0
 21 22  1  0  0  0  0
 22 23  1  0  0  0  0
 22 46  1  0  0  0  0
 22 47  1  0  0  0  0
 23 48  1  0  0  0  0
 23 49  1  0  0  0  0
M  END
> <s_m_source_file>
AV-unprocessed.smi

> <i_m_source_file_index>
2334

> <i_lp_mmshare_version>
43012

> <i_f3d_flags>
0

> <s_epik_input>
W0NIMl0xW0NIMl1bQ0gyXVtDSDJdTjFjKG5jMltDSDNdKVtjSF1bY0hdYzJbTkhdQyg9TylbTkhdQzMoW0NIM10pW0NIMl1bQ0gyXU9bQ0gyXVtDSDJdMw==

> <s_epik_cmdline>
J2VwaWtfcHl0aG9uJywgJy1waCcsICc3LjAnLCAnLXRuJywgJzgnLCAnLW1hJywgJzIwMCcsICctbWV0YWxfYmluZGluZycsICctaW1hZScsICc8aW5maWxlLm1hZT4nLCAnLW9tYWUnLCAnPG91dGZpbGUubWFlPic=

> <r_lp_tautomer_probability>
1

> <r_epik_Ionization_Penalty>
0.314437

> <r_epik_Ionization_Penalty_Charging>
0

> <r_epik_Ionization_Penalty_Neutral>
0.314437

> <r_epik_State_Penalty>
0.308039

> <r_epik_Charging_Adjusted_Penalty>
0.308039

> <i_epik_Tot_Q>
0

> <i_epik_Tot_abs_Q>
0

> <r_epik_Metal_State_Penalty>
0.200041

> <b_epik_Metal_Only>
0

> <s_lp_Force_Field>
OPLS_2005

> <r_lp_Energy>
36.0775

> <b_lp_Chiralities_Consistent>
1

> <s_lp_Variant>
AV-unprocessed.smi:2334-1

> <Gold.Version>
5.8.1

> <Gold.Id.Protein>
6NUR|6NUR_protein|mol2

> <Gold.PLP.Fitness>
40.5424

> <Gold.PLP.PLP>
-39.1581

> <Gold.PLP.part.hbond>
-1.0000

> <Gold.PLP.part.metal>
0.0000

> <Gold.PLP.part.buried>
-4.0692

> <Gold.PLP.part.nonpolar>
-33.8202

> <Gold.PLP.part.repulsive>
0.0905

> <Gold.PLP.ligand.clash>
0.0000

> <Gold.PLP.ligand.torsion>
0.9041

> <Gold.PLP.Chemscore.Hbond>
1.0000

> <Gold.PLP.Chemscore.CHOScore>
0.0000

> <Gold.PLP.Chemscore.Metal>
0.0000

> <Gold.Chemscore.Hbonds>
donor molecule, donor type, donor heavy atom, donor atom, acceptor molecule, acceptor atom, score
      P1  H  6896  6907       L1    15  0.78

> <Gold.PLP.Chemscore.Internal.Correction>
0.1924

> <Gold.Rescore>
     Score         DG    S(hbond)    S(metal)    S(lipo)     H(rot)  DE(clash)    DE(int)     intcor
     15.30     -18.93       1.00        0.00     108.33       1.00       0.03       3.60       ----

> <Gold.Chemscore.Fitness>
15.3041

> <Gold.Chemscore.DG>
-18.9329

> <Gold.Chemscore.ZeroCoef>
-5.4800

> <Gold.Chemscore.Hbond>
0.9994

> <Gold.Chemscore.Metal>
0.0000

> <Gold.Chemscore.Lipo>
108.3315

> <Gold.Chemscore.Internal_Hbond>
0.0000

> <Gold.Chemscore.DEClash>
0.0336

> <Gold.Chemscore.DEInternal>
3.5952

> <Gold.Chemscore.Rot>
1.0000

> <Gold.Chemscore.Internal.Correction>
   9.000000E+99

> <Gold.Chemscore.Hbonds>
donor molecule, donor type, donor heavy atom, donor atom, acceptor molecule, acceptor atom, score
      P1  H  6896  6907       L1    15  0.76

> <Gold.Chemscore.Hbond.Weighted>
-3.3381

> <Gold.Chemscore.Metal.Weighted>
-0.0000

> <Gold.Chemscore.Lipo.Weighted>
-12.6748

> <Gold.Chemscore.Internal_Hbond.Weighted>
0.0000

> <Gold.Chemscore.DEClash.Weighted>
0.0336

> <Gold.Chemscore.DEInternal.Weighted>
3.5952

> <Gold.Chemscore.Rot.Weighted>
2.5600

> <Gold.Chemscore.Internal.Correction.Weighted>
   9.000000E+99

> <Gold.Protein.RotatedTorsions>
[ 6907 6896 6895 6894 ] final   57.98 input  -60.11 | X-H torsion
[ 7974 7965 7964 7962 ] final   19.81 input  175.53 | X-H torsion
[ 8008 7997 7996 7995 ] final -159.24 input   59.86 | X-H torsion
[ 10167 10162 10161 10158 ] final -139.16 input  -65.29 | X-H torsion
[ 10718 10713 10712 10709 ] final  -90.84 input   66.30 | X-H torsion
[ 10763 10752 10751 10750 ] final -103.65 input  -60.55 | X-H torsion
[ 11005 11000 10999 10996 ] final  -48.67 input  -57.11 | X-H torsion

> <Gold.Protein.ActiveResidues>
 VAL166  LYS551  ARG553  GLY616  TRP617  ASP618  TYR619  PRO620  LYS621  CYS622 
 ASP623  PHE694  ASN695  SER759  ASP760  ASP761  ALA762  ILE779  LEU786  VAL792 
 PHE793  MET794  SER795  GLU796  ALA797  LYS798  CYS799  TRP800  GLU811  SER814 

> <Gold.Protein.RotatedAtoms>
  152.3782  134.6632  160.0152 H   0  0  0  0  0  0  0  0  0  0  0  0  # atno 6907 bound_to 6896
  151.6903  133.3305  159.3249 H   0  0  0  0  0  0  0  0  0  0  0  0  # atno 6908 bound_to 6896
  150.7726  134.6640  159.6400 H   0  0  0  0  0  0  0  0  0  0  0  0  # atno 6909 bound_to 6896
  146.2135  139.8259  142.8670 H   0  0  0  0  0  0  0  0  0  0  0  0  # atno 7974 bound_to 7965
  155.7595  140.0837  157.2162 H   0  0  0  0  0  0  0  0  0  0  0  0  # atno 8008 bound_to 7997
  154.4005  140.1545  156.2873 H   0  0  0  0  0  0  0  0  0  0  0  0  # atno 8009 bound_to 7997
  155.8853  140.3418  155.5919 H   0  0  0  0  0  0  0  0  0  0  0  0  # atno 8010 bound_to 7997
  139.8406  143.7326  152.2663 H   0  0  0  0  0  0  0  0  0  0  0  0  # atno 10167 bound_to 10162
  155.9990  130.4925  150.5384 H   0  0  0  0  0  0  0  0  0  0  0  0  # atno 10718 bound_to 10713
  154.7822  135.4815  153.9869 H   0  0  0  0  0  0  0  0  0  0  0  0  # atno 10763 bound_to 10752
  153.1510  135.6791  153.8890 H   0  0  0  0  0  0  0  0  0  0  0  0  # atno 10764 bound_to 10752
  153.8534  135.3164  155.3412 H   0  0  0  0  0  0  0  0  0  0  0  0  # atno 10765 bound_to 10752
  141.0714  133.6678  156.3474 H   0  0  0  0  0  0  0  0  0  0  0  0  # atno 11005 bound_to 11000
  145.3047  141.0204  143.3588 LP  0  0  0  0  0  0  0  0  0  0  0  0  # atno 17320 bound_to 7965
  144.8980  139.4687  143.6646 LP  0  0  0  0  0  0  0  0  0  0  0  0  # atno 17321 bound_to 7965
  139.7562  144.7520  151.0431 LP  0  0  0  0  0  0  0  0  0  0  0  0  # atno 17342 bound_to 10162
  140.7798  143.4802  151.0028 LP  0  0  0  0  0  0  0  0  0  0  0  0  # atno 17343 bound_to 10162
  157.3323  131.0702  151.1851 LP  0  0  0  0  0  0  0  0  0  0  0  0  # atno 17370 bound_to 10713
  157.2727  130.6712  149.6027 LP  0  0  0  0  0  0  0  0  0  0  0  0  # atno 17371 bound_to 10713
  140.5665  134.5882  157.5447 LP  0  0  0  0  0  0  0  0  0  0  0  0  # atno 17394 bound_to 11000
  139.9527  134.7588  156.0411 LP  0  0  0  0  0  0  0  0  0  0  0  0  # atno 17395 bound_to 11000

$$$$
