#       Name:                AV-unprocessed.smi:203
#       Creating user name   scv26
#       Creation time:       Thu Mar 26 19:50:04 2020


#       File generated by GOLD software.
#

@<TRIPOS>MOLECULE
AV-unprocessed.smi:203
    67    71     1
SMALL
NO_CHARGES


@<TRIPOS>ATOM
      1 ****        -4.5276   0.5951   5.3920 O.2            1 S1                 0.0000
      2 ****        -3.9722   0.8900   4.3365 C.2            1 S1                 0.0000
      3 ****        -2.8900   0.0403   3.6924 C.3            1 S1                 0.0000
      4 ****        -2.7003   0.6836   2.3043 C.3            1 S1                 0.0000
      5 ****        -3.1939  -0.2073   1.1201 C.3            1 S1                 0.0000
      6 ****        -4.6998  -0.5676   1.2275 C.3            1 S1                 0.0000
      7 ****        -5.1622  -1.4407   0.0536 C.3            1 S1                 0.0000
      8 ****        -4.8436  -0.7429  -1.2725 C.3            1 S1                 0.0000
      9 ****        -3.3485  -0.4091  -1.3534 C.3            1 S1                 0.0000
     10 ****        -2.9167   0.3831  -0.2021 N.3            1 S1                 0.0000
     11 ****        -1.6688   0.8613  -0.4056 C.ar           1 S1                 0.0000
     12 ****        -1.5581   2.1615  -0.7725 N.ar           1 S1                 0.0000
     13 ****        -0.3511   2.6931  -0.9884 C.ar           1 S1                 0.0000
     14 ****         0.8467   2.1106  -0.8981 N.ar           1 S1                 0.0000
     15 ****         0.7358   0.8005  -0.5353 C.ar           1 S1                 0.0000
     16 ****        -0.4740   0.0988  -0.2732 C.ar           1 S1                 0.0000
     17 ****        -0.1943  -1.2201   0.0635 N.2            1 S1                 0.0000
     18 ****         1.1077  -1.2933   0.0070 C.2            1 S1                 0.0000
     19 ****         1.7456  -0.1266  -0.3484 N.pl3          1 S1                 0.0000
     20 ****         3.1784   0.0696  -0.4894 C.3            1 S1                 0.0000
     21 ****         3.7301  -0.5253  -1.8030 C.3            1 S1                 0.0000
     22 ****         3.0515   0.0857  -2.8837 O.3            1 S1                 0.0000
     23 ****         5.2397  -0.2751  -1.9963 C.3            1 S1                 0.0000
     24 ****         6.1168  -0.6730  -0.8083 C.3            1 S1                 0.0000
     25 ****         7.4844  -0.8680  -1.4377 C.3            1 S1                 0.0000
     26 ****         7.1697  -1.1491  -2.9092 C.3            1 S1                 0.0000
     27 ****         5.7505  -1.1375  -3.0027 O.3            1 S1                 0.0000
     28 ****        -3.4137   2.0511   2.3999 C.3            1 S1                 0.0000
     29 ****        -4.2168   1.9749   3.6048 N.am           1 S1                 0.0000
     30 ****        -1.9796   0.1179   4.2879 H              1 S1                 0.0000
     31 ****        -3.1732  -1.0115   3.6491 H              1 S1                 0.0000
     32 ****        -1.6309   0.8626   2.1902 H              1 S1                 0.0000
     33 ****        -2.6415  -1.1460   1.1698 H              1 S1                 0.0000
     34 ****        -4.9087  -1.0948   2.1577 H              1 S1                 0.0000
     35 ****        -5.3058   0.3385   1.2490 H              1 S1                 0.0000
     36 ****        -4.6615  -2.4089   0.0930 H              1 S1                 0.0000
     37 ****        -6.2322  -1.6368   0.1287 H              1 S1                 0.0000
     38 ****        -5.1309  -1.3780  -2.1108 H              1 S1                 0.0000
     39 ****        -5.4301   0.1728  -1.3583 H              1 S1                 0.0000
     40 ****        -2.7676  -1.3316  -1.3955 H              1 S1                 0.0000
     41 ****        -3.1481   0.1348  -2.2780 H              1 S1                 0.0000
     42 ****        -0.3438   3.7344  -1.2754 H              1 S1                 0.0000
     43 ****         1.6429  -2.2071   0.2208 H              1 S1                 0.0000
     44 ****         3.3960   1.1370  -0.4335 H              1 S1                 0.0000
     45 ****         3.6601  -0.3909   0.3734 H              1 S1                 0.0000
     46 ****         3.5303  -1.5974  -1.8234 H              1 S1                 0.0000
     47 ****         2.1248  -0.0696  -2.7827 H              1 S1                 0.0000
     48 ****         5.4353   0.7653  -2.2646 H              1 S1                 0.0000
     49 ****         6.1219   0.0733  -0.0134 H              1 S1                 0.0000
     50 ****         5.7711  -1.6175  -0.3855 H              1 S1                 0.0000
     51 ****         8.0845   0.0384  -1.3481 H              1 S1                 0.0000
     52 ****         8.0327  -1.6842  -0.9664 H              1 S1                 0.0000
     53 ****         7.5850  -0.3687  -3.5486 H              1 S1                 0.0000
     54 ****         7.5655  -2.1089  -3.2428 H              1 S1                 0.0000
     55 ****        -2.6890   2.8591   2.5080 H              1 S1                 0.0000
     56 ****        -4.0321   2.2778   1.5310 H              1 S1                 0.0000
     57 ****        -4.8998   2.6781   3.8476 H              1 S1                 0.0000
     58 ****        -5.2320   1.1952   5.7710 LP             1 S1                 0.0000
     59 ****        -4.2753  -0.2451   5.8720 LP             1 S1                 0.0000
     60 ****        -3.5147   1.1827  -0.1466 LP             1 S1                 0.0000
     61 ****        -2.3788   2.7224  -0.8815 LP             1 S1                 0.0000
     62 ****         1.7144   2.5754  -1.0740 LP             1 S1                 0.0000
     63 ****        -0.8416  -1.9461   0.2957 LP             1 S1                 0.0000
     64 ****         3.3674  -0.3088  -3.7466 LP             1 S1                 0.0000
     65 ****         3.2307   1.0695  -2.8815 LP             1 S1                 0.0000
     66 ****         5.4745  -0.8044  -3.9043 LP             1 S1                 0.0000
     67 ****         5.3958  -2.0625  -2.8662 LP             1 S1                 0.0000
@<TRIPOS>BOND
    1    1    2 2     
    2    2   29 am    
    3    2    3 1     
    4    3    4 1     
    5    3   30 1     
    6    3   31 1     
    7    4    5 1     
    8    4   28 1     
    9    4   32 1     
   10    5   10 1     
   11    5    6 1     
   12    5   33 1     
   13    6    7 1     
   14    6   34 1     
   15    6   35 1     
   16    7    8 1     
   17    7   36 1     
   18    7   37 1     
   19    8    9 1     
   20    8   38 1     
   21    8   39 1     
   22    9   10 1     
   23    9   40 1     
   24    9   41 1     
   25   10   11 1     
   26   11   16 ar    
   27   11   12 ar    
   28   12   13 ar    
   29   13   14 ar    
   30   13   42 1     
   31   14   15 ar    
   32   15   19 1     
   33   15   16 ar    
   34   16   17 1     
   35   17   18 2     
   36   18   19 1     
   37   18   43 1     
   38   19   20 1     
   39   20   21 1     
   40   20   44 1     
   41   20   45 1     
   42   21   22 1     
   43   21   23 1     
   44   21   46 1     
   45   22   47 1     
   46   23   27 1     
   47   23   24 1     
   48   23   48 1     
   49   24   25 1     
   50   24   49 1     
   51   24   50 1     
   52   25   26 1     
   53   25   51 1     
   54   25   52 1     
   55   26   27 1     
   56   26   53 1     
   57   26   54 1     
   58   28   29 1     
   59   28   55 1     
   60   28   56 1     
   61   29   57 1     
   62    1   58 1     
   63    1   59 1     
   64   10   60 1     
   65   12   61 1     
   66   14   62 1     
   67   17   63 1     
   68   22   64 1     
   69   22   65 1     
   70   27   66 1     
   71   27   67 1     
@<TRIPOS>SUBSTRUCTURE
      1 S1             1
@<TRIPOS>SET
LONE_PAIRS      STATIC     ATOMS    <user>   **** ""
10 58 59 60 61 62 63 64 65 66 67
DONOR_HYDROGENS      STATIC     ATOMS    <user>   **** ""
2 47 57
ATOM$BLUE        STATIC     ATOMS    COLORGROUP SYSTEM
10 58 59 60 61 62 63 64 65 66 67
ATOM$RED        STATIC     ATOMS    COLORGROUP SYSTEM
2 47 57
