AV-unprocessed.smi:1713|AV-procd|sdf|6906|dock1
  -GOLD-   22720 8113D 1   1.00000     0.00000
 Structure written by MMmdl.
 38 39  0  0  0  0  0  0  0  0  1 V2000
  145.9452  143.0156  153.7942 C   0  0  0  0  0  0  0  0  0  0  0  0
  147.1263  142.1000  154.1402 C   0  0  0  0  0  0  0  0  0  0  0  0
  146.7667  140.6970  154.0611 N   0  0  0  0  0  0  0  0  0  0  0  0
  147.2616  139.7356  153.2023 C   0  0  0  0  0  0  0  0  0  0  0  0
  146.6074  138.5829  153.5176 C   0  0  0  0  0  0  0  0  0  0  0  0
  146.8077  137.3362  152.8740 N   0  0  0  0  0  0  0  0  0  0  0  0
  145.9249  136.3312  152.7582 C   0  0  0  0  0  0  0  0  0  0  0  0
  144.7860  136.3330  153.2251 O   0  0  0  0  0  0  0  0  0  0  0  0
  146.4428  135.3053  152.0675 N   0  0  0  0  0  0  0  0  0  0  0  0
  145.7521  134.0533  151.7727 C   0  0  2  0  0  0  0  0  0  0  0  0
  146.5713  133.2056  150.7792 C   0  0  0  0  0  0  0  0  0  0  0  0
  145.8344  131.9085  150.4020 C   0  0  0  0  0  0  0  0  0  0  0  0
  144.4136  132.1752  149.8702 C   0  0  2  0  0  0  0  0  0  0  0  0
  144.4786  132.7831  148.5953 O   0  0  0  0  0  0  0  0  0  0  0  0
  143.6039  133.0609  150.8362 C   0  0  0  0  0  0  0  0  0  0  0  0
  144.3522  134.3537  151.2069 C   0  0  0  0  0  0  0  0  0  0  0  0
  145.7204  138.9175  154.5794 C   0  0  0  0  0  0  0  0  0  0  0  0
  145.8234  140.1990  154.8985 N   0  0  0  0  0  0  0  0  0  0  0  0
  146.2289  144.0640  153.8863 H   0  0  0  0  0  0  0  0  0  0  0  0
  145.1012  142.8392  154.4616 H   0  0  0  0  0  0  0  0  0  0  0  0
  145.6040  142.8538  152.7712 H   0  0  0  0  0  0  0  0  0  0  0  0
  147.9621  142.2852  153.4642 H   0  0  0  0  0  0  0  0  0  0  0  0
  147.4814  142.3130  155.1491 H   0  0  0  0  0  0  0  0  0  0  0  0
  148.0177  139.9517  152.4617 H   0  0  0  0  0  0  0  0  0  0  0  0
  147.7166  137.1956  152.4581 H   0  0  0  0  0  0  0  0  0  0  0  0
  147.3882  135.3926  151.7246 H   0  0  0  0  0  0  0  0  0  0  0  0
  145.6266  133.4874  152.6980 H   0  0  0  0  0  0  0  0  0  0  0  0
  146.7731  133.7849  149.8770 H   0  0  0  0  0  0  0  0  0  0  0  0
  147.5433  132.9587  151.2081 H   0  0  0  0  0  0  0  0  0  0  0  0
  146.4143  131.3477  149.6681 H   0  0  0  0  0  0  0  0  0  0  0  0
  145.7687  131.2731  151.2860 H   0  0  0  0  0  0  0  0  0  0  0  0
  143.8981  131.2230  149.7412 H   0  0  0  0  0  0  0  0  0  0  0  0
  145.1948  133.3997  148.5926 H   0  0  0  0  0  0  0  0  0  0  0  0
  142.6311  133.3006  150.4055 H   0  0  0  0  0  0  0  0  0  0  0  0
  143.4006  132.4976  151.7478 H   0  0  0  0  0  0  0  0  0  0  0  0
  143.7680  134.9160  151.9361 H   0  0  0  0  0  0  0  0  0  0  0  0
  144.4374  134.9906  150.3251 H   0  0  0  0  0  0  0  0  0  0  0  0
  145.0180  138.3000  155.1190 H   0  0  0  0  0  0  0  0  0  0  0  0
  1  2  1  0  0  0  0
  1 19  1  0  0  0  0
  1 20  1  0  0  0  0
  1 21  1  0  0  0  0
  2  3  1  0  0  0  0
  2 22  1  0  0  0  0
  2 23  1  0  0  0  0
  3 18  1  0  0  0  0
  3  4  1  0  0  0  0
  4  5  2  0  0  0  0
  4 24  1  0  0  0  0
  5  6  1  0  0  0  0
  5 17  1  0  0  0  0
  6  7  1  0  0  0  0
  6 25  1  0  0  0  0
  7  8  2  0  0  0  0
  7  9  1  0  0  0  0
  9 10  1  0  0  0  0
  9 26  1  0  0  0  0
 10 16  1  0  0  0  0
 10 11  1  0  0  0  0
 10 27  1  0  0  0  0
 11 12  1  0  0  0  0
 11 28  1  0  0  0  0
 11 29  1  0  0  0  0
 12 13  1  0  0  0  0
 12 30  1  0  0  0  0
 12 31  1  0  0  0  0
 13 14  1  0  0  0  0
 13 15  1  0  0  0  0
 13 32  1  0  0  0  0
 14 33  1  0  0  0  0
 15 16  1  0  0  0  0
 15 34  1  0  0  0  0
 15 35  1  0  0  0  0
 16 36  1  0  0  0  0
 16 37  1  0  0  0  0
 17 18  2  0  0  0  0
 17 38  1  0  0  0  0
M  END
> <s_m_source_file>
AV-unprocessed.smi

> <i_m_source_file_index>
1713

> <i_lp_mmshare_version>
43012

> <i_f3d_flags>
0

> <s_epik_input>
W0NIM11bQ0gyXW4xW2NIXWMoW2NIXW4xKVtOSF1DKD1PKVtOSF1bQ0BASF0yW0NIMl1bQ0gyXVtDQEBIXShbT0hdKVtDSDJdW0NIMl0y

> <s_epik_cmdline>
J2VwaWtfcHl0aG9uJywgJy1waCcsICc3LjAnLCAnLXRuJywgJzgnLCAnLW1hJywgJzIwMCcsICctbWV0YWxfYmluZGluZycsICctaW1hZScsICc8aW5maWxlLm1hZT4nLCAnLW9tYWUnLCAnPG91dGZpbGUubWFlPic=

> <r_lp_tautomer_probability>
1

> <r_epik_Ionization_Penalty>
0.000190859

> <r_epik_Ionization_Penalty_Charging>
0

> <r_epik_Ionization_Penalty_Neutral>
0.000190859

> <r_epik_State_Penalty>
-0

> <r_epik_Charging_Adjusted_Penalty>
0

> <i_epik_Tot_Q>
0

> <i_epik_Tot_abs_Q>
0

> <r_epik_Metal_State_Penalty>
-0

> <b_epik_Metal_Only>
0

> <s_lp_Force_Field>
OPLS_2005

> <r_lp_Energy>
14.03

> <b_lp_Chiralities_Consistent>
1

> <s_lp_Variant>
AV-unprocessed.smi:1713-2

> <Gold.Version>
5.8.1

> <Gold.Id.Protein>
6NUR|6NUR_protein|mol2

> <Gold.PLP.Fitness>
45.0856

> <Gold.PLP.PLP>
-33.7373

> <Gold.PLP.part.hbond>
-3.4501

> <Gold.PLP.part.metal>
0.0000

> <Gold.PLP.part.buried>
-4.2638

> <Gold.PLP.part.nonpolar>
-27.0513

> <Gold.PLP.part.repulsive>
0.2778

> <Gold.PLP.ligand.clash>
0.0000

> <Gold.PLP.ligand.torsion>
0.2580

> <Gold.PLP.Chemscore.Hbond>
2.9520

> <Gold.PLP.Chemscore.CHOScore>
1.0000

> <Gold.PLP.Chemscore.Metal>
0.0000

> <Gold.Chemscore.Hbonds>
donor molecule, donor type, donor heavy atom, donor atom, acceptor molecule, acceptor atom, score
      L1  H     6    25       P1  7948  1.00
      L1  H     9    26       P1  7948  0.98
      L1  H    14    33       P1  7921  0.93
      L1  C     4    24       P1  7957  1.00

> <Gold.PLP.Chemscore.Internal.Correction>
0.0083

> <Gold.Rescore>
     Score         DG    S(hbond)    S(metal)    S(lipo)     H(rot)  DE(clash)    DE(int)     intcor
     16.41     -18.79       2.69        0.00      73.75       1.69       0.04       2.33       ----

> <Gold.Chemscore.Fitness>
16.4130

> <Gold.Chemscore.DG>
-18.7894

> <Gold.Chemscore.ZeroCoef>
-5.4800

> <Gold.Chemscore.Hbond>
2.6930

> <Gold.Chemscore.Metal>
0.0000

> <Gold.Chemscore.Lipo>
73.7519

> <Gold.Chemscore.Internal_Hbond>
0.0000

> <Gold.Chemscore.DEClash>
0.0431

> <Gold.Chemscore.DEInternal>
2.3332

> <Gold.Chemscore.Rot>
1.6853

> <Gold.Chemscore.Internal.Correction>
   9.000000E+99

> <Gold.Chemscore.Hbonds>
donor molecule, donor type, donor heavy atom, donor atom, acceptor molecule, acceptor atom, score
      L1  H     6    25       P1  7948  0.97
      L1  H     9    26       P1  7948  0.91
      L1  H    14    33       P1  7921  0.44

> <Gold.Chemscore.Hbond.Weighted>
-8.9948

> <Gold.Chemscore.Metal.Weighted>
-0.0000

> <Gold.Chemscore.Lipo.Weighted>
-8.6290

> <Gold.Chemscore.Internal_Hbond.Weighted>
0.0000

> <Gold.Chemscore.DEClash.Weighted>
0.0431

> <Gold.Chemscore.DEInternal.Weighted>
2.3332

> <Gold.Chemscore.Rot.Weighted>
4.3144

> <Gold.Chemscore.Internal.Correction.Weighted>
   9.000000E+99

> <Gold.Protein.RotatedTorsions>
[ 6907 6896 6895 6894 ] final   55.63 input  -60.11 | X-H torsion
[ 7974 7965 7964 7962 ] final  -42.66 input  175.53 | X-H torsion
[ 8008 7997 7996 7995 ] final   92.19 input   59.86 | X-H torsion
[ 10167 10162 10161 10158 ] final  164.86 input  -65.29 | X-H torsion
[ 10718 10713 10712 10709 ] final   16.25 input   66.30 | X-H torsion
[ 10763 10752 10751 10750 ] final   94.90 input  -60.55 | X-H torsion
[ 11005 11000 10999 10996 ] final   71.51 input  -57.11 | X-H torsion

> <Gold.Protein.ActiveResidues>
 VAL166  LYS551  ARG553  GLY616  TRP617  ASP618  TYR619  PRO620  LYS621  CYS622 
 ASP623  PHE694  ASN695  SER759  ASP760  ASP761  ALA762  ILE779  LEU786  VAL792 
 PHE793  MET794  SER795  GLU796  ALA797  LYS798  CYS799  TRP800  GLU811  SER814 

> <Gold.Protein.RotatedAtoms>
  152.3557  134.6943  160.0222 H   0  0  0  0  0  0  0  0  0  0  0  0  # atno 6907 bound_to 6896
  151.7282  133.3311  159.3341 H   0  0  0  0  0  0  0  0  0  0  0  0  # atno 6908 bound_to 6896
  150.7570  134.6321  159.6236 H   0  0  0  0  0  0  0  0  0  0  0  0  # atno 6909 bound_to 6896
  146.0094  140.6981  142.9231 H   0  0  0  0  0  0  0  0  0  0  0  0  # atno 7974 bound_to 7965
  156.0325  140.3328  155.7155 H   0  0  0  0  0  0  0  0  0  0  0  0  # atno 8008 bound_to 7997
  155.5864  140.0642  157.2788 H   0  0  0  0  0  0  0  0  0  0  0  0  # atno 8009 bound_to 7997
  154.4359  140.1835  156.1017 H   0  0  0  0  0  0  0  0  0  0  0  0  # atno 8010 bound_to 7997
  139.4896  144.4192  151.9207 H   0  0  0  0  0  0  0  0  0  0  0  0  # atno 10167 bound_to 10162
  157.0651  130.6325  149.5794 H   0  0  0  0  0  0  0  0  0  0  0  0  # atno 10718 bound_to 10713
  153.2470  135.4273  155.0758 H   0  0  0  0  0  0  0  0  0  0  0  0  # atno 10763 bound_to 10752
  154.8365  135.3416  154.6567 H   0  0  0  0  0  0  0  0  0  0  0  0  # atno 10764 bound_to 10752
  153.6989  135.7029  153.5125 H   0  0  0  0  0  0  0  0  0  0  0  0  # atno 10765 bound_to 10752
  139.9539  134.7177  156.0797 H   0  0  0  0  0  0  0  0  0  0  0  0  # atno 11005 bound_to 11000
  144.6947  140.3373  143.7205 LP  0  0  0  0  0  0  0  0  0  0  0  0  # atno 17320 bound_to 7965
  145.7365  139.1751  143.2400 LP  0  0  0  0  0  0  0  0  0  0  0  0  # atno 17321 bound_to 7965
  140.3635  144.2943  150.5930 LP  0  0  0  0  0  0  0  0  0  0  0  0  # atno 17342 bound_to 10162
  140.5382  143.2229  151.8129 LP  0  0  0  0  0  0  0  0  0  0  0  0  # atno 17343 bound_to 10162
  155.9967  130.5036  150.7506 LP  0  0  0  0  0  0  0  0  0  0  0  0  # atno 17370 bound_to 10713
  157.4923  131.0912  151.0412 LP  0  0  0  0  0  0  0  0  0  0  0  0  # atno 17371 bound_to 10713
  141.1208  133.6613  156.3209 LP  0  0  0  0  0  0  0  0  0  0  0  0  # atno 17394 bound_to 11000
  140.5653  134.5893  157.5444 LP  0  0  0  0  0  0  0  0  0  0  0  0  # atno 17395 bound_to 11000

$$$$
