AV-unprocessed.smi:193|AV-procd|sdf|1519|dock4
  -GOLD-   2262019353D 1   1.00000     0.00000
 Structure written by MMmdl.
 61 65  0  0  0  0  0  0  0  0  1 V2000
  152.0335  138.1418  154.9990 C   0  0  0  0  0  0  0  0  0  0  0  0
  151.2632  139.4680  154.9198 C   0  0  1  0  0  0  0  0  0  0  0  0
  149.8028  139.2465  154.4679 C   0  0  0  0  0  0  0  0  0  0  0  0
  148.8437  139.0724  155.5577 N   0  0  0  0  0  0  0  0  0  0  0  0
  147.9150  138.1209  155.2842 C   0  0  0  0  0  0  0  0  0  0  0  0
  147.6510  137.1404  156.1899 N   0  0  0  0  0  0  0  0  0  0  0  0
  146.7171  136.2196  155.9343 C   0  0  0  0  0  0  0  0  0  0  0  0
  145.9409  136.0954  154.8561 N   0  0  0  0  0  0  0  0  0  0  0  0
  146.2011  137.0749  153.9437 C   0  0  0  0  0  0  0  0  0  0  0  0
  147.1585  138.1198  154.0795 C   0  0  0  0  0  0  0  0  0  0  0  0
  147.1349  138.9323  152.9534 N   0  0  0  0  0  0  0  0  0  0  0  0
  146.2153  138.4007  152.1957 C   0  0  0  0  0  0  0  0  0  0  0  0
  145.6105  137.2749  152.7079 N   0  0  0  0  0  0  0  0  0  0  0  0
  144.5641  136.4859  152.0752 C   0  0  0  0  0  0  0  0  0  0  0  0
  145.0911  135.3415  151.1728 C   0  0  0  0  0  0  0  0  0  0  0  0
  145.7264  135.9308  150.0518 O   0  0  0  0  0  0  0  0  0  0  0  0
  146.1343  134.4968  151.9321 C   0  0  0  0  0  0  0  0  0  0  0  0
  146.5630  133.2506  151.1372 C   0  0  0  0  0  0  0  0  0  0  0  0
  145.4204  132.4755  150.7952 O   0  0  0  0  0  0  0  0  0  0  0  0
  144.5187  133.1721  149.9438 C   0  0  0  0  0  0  0  0  0  0  0  0
  143.9651  134.4159  150.6620 C   0  0  0  0  0  0  0  0  0  0  0  0
  148.3485  140.3201  156.1425 C   0  0  0  0  0  0  0  0  0  0  0  0
  149.3663  141.0151  157.0577 C   0  0  0  0  0  0  0  0  0  0  0  0
  150.5810  141.4305  156.3544 N   0  0  0  0  0  0  0  0  0  0  0  0
  151.2483  142.4193  157.1884 C   0  0  1  0  0  0  0  0  0  0  0  0
  150.3795  143.2693  158.0880 C   0  0  0  0  0  0  0  0  0  0  0  0
  151.2488  142.1877  158.6842 C   0  0  2  0  0  0  0  0  0  0  0  0
  152.4572  142.5484  159.5201 C   0  0  0  0  0  0  0  0  0  0  0  0
  151.4747  140.2790  156.2169 C   0  0  0  0  0  0  0  0  0  0  0  0
  151.6597  137.5157  155.8088 H   0  0  0  0  0  0  0  0  0  0  0  0
  153.0944  138.3154  155.1808 H   0  0  0  0  0  0  0  0  0  0  0  0
  151.9491  137.5757  154.0709 H   0  0  0  0  0  0  0  0  0  0  0  0
  151.7304  140.0380  154.1154 H   0  0  0  0  0  0  0  0  0  0  0  0
  149.4873  140.1175  153.8917 H   0  0  0  0  0  0  0  0  0  0  0  0
  149.7601  138.4165  153.7607 H   0  0  0  0  0  0  0  0  0  0  0  0
  146.5685  135.4776  156.7048 H   0  0  0  0  0  0  0  0  0  0  0  0
  145.9564  138.8136  151.2315 H   0  0  0  0  0  0  0  0  0  0  0  0
  143.9148  136.0871  152.8559 H   0  0  0  0  0  0  0  0  0  0  0  0
  143.9457  137.1657  151.4875 H   0  0  0  0  0  0  0  0  0  0  0  0
  145.7954  135.2816  149.3688 H   0  0  0  0  0  0  0  0  0  0  0  0
  147.0077  135.1006  152.1821 H   0  0  0  0  0  0  0  0  0  0  0  0
  145.7100  134.1681  152.8816 H   0  0  0  0  0  0  0  0  0  0  0  0
  147.1134  133.5265  150.2365 H   0  0  0  0  0  0  0  0  0  0  0  0
  147.2333  132.6377  151.7399 H   0  0  0  0  0  0  0  0  0  0  0  0
  145.0178  133.4455  149.0130 H   0  0  0  0  0  0  0  0  0  0  0  0
  143.7012  132.5024  149.6768 H   0  0  0  0  0  0  0  0  0  0  0  0
  143.3599  134.0872  151.5079 H   0  0  0  0  0  0  0  0  0  0  0  0
  143.2917  134.9529  149.9927 H   0  0  0  0  0  0  0  0  0  0  0  0
  148.0358  140.9997  155.3485 H   0  0  0  0  0  0  0  0  0  0  0  0
  147.4594  140.1190  156.7417 H   0  0  0  0  0  0  0  0  0  0  0  0
  148.8736  141.9053  157.4516 H   0  0  0  0  0  0  0  0  0  0  0  0
  149.5987  140.3969  157.9263 H   0  0  0  0  0  0  0  0  0  0  0  0
  152.1320  142.9183  156.7931 H   0  0  0  0  0  0  0  0  0  0  0  0
  150.6801  144.3039  158.2399 H   0  0  0  0  0  0  0  0  0  0  0  0
  149.3053  143.0956  158.0737 H   0  0  0  0  0  0  0  0  0  0  0  0
  150.7271  141.2990  159.0354 H   0  0  0  0  0  0  0  0  0  0  0  0
  152.9402  143.4470  159.1351 H   0  0  0  0  0  0  0  0  0  0  0  0
  153.1789  141.7316  159.5047 H   0  0  0  0  0  0  0  0  0  0  0  0
  152.1571  142.7291  160.5521 H   0  0  0  0  0  0  0  0  0  0  0  0
  151.4020  139.6323  157.0928 H   0  0  0  0  0  0  0  0  0  0  0  0
  152.5097  140.6248  156.2025 H   0  0  0  0  0  0  0  0  0  0  0  0
  1  2  1  0  0  0  0
  1 30  1  0  0  0  0
  1 31  1  0  0  0  0
  1 32  1  0  0  0  0
  2 29  1  0  0  0  0
  2  3  1  0  0  0  0
  2 33  1  0  0  0  0
  3  4  1  0  0  0  0
  3 34  1  0  0  0  0
  3 35  1  0  0  0  0
  4  5  1  0  0  0  0
  4 22  1  0  0  0  0
  5 10  1  0  0  0  0
  5  6  2  0  0  0  0
  6  7  1  0  0  0  0
  7  8  2  0  0  0  0
  7 36  1  0  0  0  0
  8  9  1  0  0  0  0
  9 13  1  0  0  0  0
  9 10  2  0  0  0  0
 10 11  1  0  0  0  0
 11 12  2  0  0  0  0
 12 13  1  0  0  0  0
 12 37  1  0  0  0  0
 13 14  1  0  0  0  0
 14 15  1  0  0  0  0
 14 38  1  0  0  0  0
 14 39  1  0  0  0  0
 15 21  1  0  0  0  0
 15 16  1  0  0  0  0
 15 17  1  0  0  0  0
 16 40  1  0  0  0  0
 17 18  1  0  0  0  0
 17 41  1  0  0  0  0
 17 42  1  0  0  0  0
 18 19  1  0  0  0  0
 18 43  1  0  0  0  0
 18 44  1  0  0  0  0
 19 20  1  0  0  0  0
 20 21  1  0  0  0  0
 20 45  1  0  0  0  0
 20 46  1  0  0  0  0
 21 47  1  0  0  0  0
 21 48  1  0  0  0  0
 22 23  1  0  0  0  0
 22 49  1  0  0  0  0
 22 50  1  0  0  0  0
 23 24  1  0  0  0  0
 23 51  1  0  0  0  0
 23 52  1  0  0  0  0
 24 25  1  0  0  0  0
 24 29  1  0  0  0  0
 25 27  1  0  0  0  0
 25 26  1  0  0  0  0
 25 53  1  0  0  0  0
 26 27  1  0  0  0  0
 26 54  1  0  0  0  0
 26 55  1  0  0  0  0
 27 28  1  0  0  0  0
 27 56  1  0  0  0  0
 28 57  1  0  0  0  0
 28 58  1  0  0  0  0
 28 59  1  0  0  0  0
 29 60  1  0  0  0  0
 29 61  1  0  0  0  0
M  END
> <s_m_source_file>
AV-unprocessed.smi

> <i_m_source_file_index>
193

> <i_lp_mmshare_version>
43012

> <i_f3d_flags>
0

> <s_epik_input>
W0NIM11bQ0BASF0xW0NIMl1bQ0BIXTFOKFtDSDJdMilbQ0gyXVtDSDJdTihbQ0gyXVtDQEhdMltDSDNdKWMobltjSF1uMyljKGMzNCluW2NIXW40W0NIMl1DNShbT0hdKVtDSDJdW0NIMl1PW0NIMl1bQ0gyXTU=

> <s_epik_cmdline>
J2VwaWtfcHl0aG9uJywgJy1waCcsICc3LjAnLCAnLXRuJywgJzgnLCAnLW1hJywgJzIwMCcsICctbWV0YWxfYmluZGluZycsICctaW1hZScsICc8aW5maWxlLm1hZT4nLCAnLW9tYWUnLCAnPG91dGZpbGUubWFlPic=

> <r_lp_tautomer_probability>
1

> <r_epik_Ionization_Penalty>
1.45227

> <r_epik_Ionization_Penalty_Charging>
0

> <r_epik_Ionization_Penalty_Neutral>
1.45227

> <r_epik_State_Penalty>
2.02377

> <r_epik_Charging_Adjusted_Penalty>
2.02377

> <i_epik_Tot_Q>
0

> <i_epik_Tot_abs_Q>
0

> <r_epik_Metal_State_Penalty>
2.01937

> <b_epik_Metal_Only>
0

> <s_lp_Force_Field>
OPLS_2005

> <r_lp_Energy>
55.8214

> <b_lp_Chiralities_Consistent>
1

> <s_lp_Variant>
AV-unprocessed.smi:193-24

> <Gold.Version>
5.8.1

> <Gold.Id.Protein>
6NUR|6NUR_protein|mol2

> <Gold.PLP.Fitness>
44.1415

> <Gold.PLP.PLP>
-41.9378

> <Gold.PLP.part.hbond>
-1.8036

> <Gold.PLP.part.metal>
0.0000

> <Gold.PLP.part.buried>
-3.2605

> <Gold.PLP.part.nonpolar>
-37.3239

> <Gold.PLP.part.repulsive>
0.5469

> <Gold.PLP.ligand.clash>
2.5977

> <Gold.PLP.ligand.torsion>
1.4542

> <Gold.PLP.Chemscore.Hbond>
1.0000

> <Gold.PLP.Chemscore.CHOScore>
1.0981

> <Gold.PLP.Chemscore.Metal>
0.0000

> <Gold.Chemscore.Hbonds>
donor molecule, donor type, donor heavy atom, donor atom, acceptor molecule, acceptor atom, score
      L1  H    16    40       P1  7921  1.00
      L1  C    12    37       P1 10171  1.00

> <Gold.PLP.Chemscore.Internal.Correction>
1.4154

> <Gold.Rescore>
     Score         DG    S(hbond)    S(metal)    S(lipo)     H(rot)  DE(clash)    DE(int)     intcor
     14.35     -15.98       1.00        0.00     108.75       2.17       0.30       1.34       ----

> <Gold.Chemscore.Fitness>
14.3521

> <Gold.Chemscore.DG>
-15.9835

> <Gold.Chemscore.ZeroCoef>
-5.4800

> <Gold.Chemscore.Hbond>
0.9957

> <Gold.Chemscore.Metal>
0.0000

> <Gold.Chemscore.Lipo>
108.7516

> <Gold.Chemscore.Internal_Hbond>
0.0000

> <Gold.Chemscore.DEClash>
0.2956

> <Gold.Chemscore.DEInternal>
1.3357

> <Gold.Chemscore.Rot>
2.1664

> <Gold.Chemscore.Internal.Correction>
   9.000000E+99

> <Gold.Chemscore.Hbonds>
donor molecule, donor type, donor heavy atom, donor atom, acceptor molecule, acceptor atom, score
      L1  H    16    40       P1  7921  0.93

> <Gold.Chemscore.Hbond.Weighted>
-3.3255

> <Gold.Chemscore.Metal.Weighted>
-0.0000

> <Gold.Chemscore.Lipo.Weighted>
-12.7239

> <Gold.Chemscore.Internal_Hbond.Weighted>
0.0000

> <Gold.Chemscore.DEClash.Weighted>
0.2956

> <Gold.Chemscore.DEInternal.Weighted>
1.3357

> <Gold.Chemscore.Rot.Weighted>
5.5459

> <Gold.Chemscore.Internal.Correction.Weighted>
   9.000000E+99

> <Gold.Protein.RotatedTorsions>
[ 6907 6896 6895 6894 ] final  -10.82 input  -60.11 | X-H torsion
[ 7974 7965 7964 7962 ] final   -6.70 input  175.53 | X-H torsion
[ 8008 7997 7996 7995 ] final  -37.28 input   59.86 | X-H torsion
[ 10167 10162 10161 10158 ] final  105.78 input  -65.29 | X-H torsion
[ 10718 10713 10712 10709 ] final   69.32 input   66.30 | X-H torsion
[ 10763 10752 10751 10750 ] final -114.60 input  -60.55 | X-H torsion
[ 11005 11000 10999 10996 ] final  119.11 input  -57.11 | X-H torsion

> <Gold.Protein.ActiveResidues>
 VAL166  LYS551  ARG553  GLY616  TRP617  ASP618  TYR619  PRO620  LYS621  CYS622 
 ASP623  PHE694  ASN695  SER759  ASP760  ASP761  ALA762  ILE779  LEU786  VAL792 
 PHE793  MET794  SER795  GLU796  ALA797  LYS798  CYS799  TRP800  GLU811  SER814 

> <Gold.Protein.RotatedAtoms>
  151.3959  135.0963  159.9540 H   0  0  0  0  0  0  0  0  0  0  0  0  # atno 6907 bound_to 6896
  152.5065  133.8935  159.7416 H   0  0  0  0  0  0  0  0  0  0  0  0  # atno 6908 bound_to 6896
  150.9398  133.6613  159.2821 H   0  0  0  0  0  0  0  0  0  0  0  0  # atno 6909 bound_to 6896
  146.2325  140.2210  142.8337 H   0  0  0  0  0  0  0  0  0  0  0  0  # atno 7974 bound_to 7965
  154.4056  140.1608  156.2510 H   0  0  0  0  0  0  0  0  0  0  0  0  # atno 8008 bound_to 7997
  155.9119  140.3427  155.6082 H   0  0  0  0  0  0  0  0  0  0  0  0  # atno 8009 bound_to 7997
  155.7326  140.0782  157.2272 H   0  0  0  0  0  0  0  0  0  0  0  0  # atno 8010 bound_to 7997
  139.7064  144.7085  151.1099 H   0  0  0  0  0  0  0  0  0  0  0  0  # atno 10167 bound_to 10162
  157.6339  130.9419  150.0497 H   0  0  0  0  0  0  0  0  0  0  0  0  # atno 10718 bound_to 10713
  154.8447  135.4412  154.1531 H   0  0  0  0  0  0  0  0  0  0  0  0  # atno 10763 bound_to 10752
  153.2687  135.6943  153.7509 H   0  0  0  0  0  0  0  0  0  0  0  0  # atno 10764 bound_to 10752
  153.6758  135.3411  155.3140 H   0  0  0  0  0  0  0  0  0  0  0  0  # atno 10765 bound_to 10752
  139.9134  134.9626  156.7605 H   0  0  0  0  0  0  0  0  0  0  0  0  # atno 11005 bound_to 11000
  144.9632  140.8296  143.5500 LP  0  0  0  0  0  0  0  0  0  0  0  0  # atno 17320 bound_to 7965
  145.2183  139.2171  143.5107 LP  0  0  0  0  0  0  0  0  0  0  0  0  # atno 17321 bound_to 7965
  140.7722  143.5353  150.9376 LP  0  0  0  0  0  0  0  0  0  0  0  0  # atno 17342 bound_to 10162
  139.9036  143.6805  152.3127 LP  0  0  0  0  0  0  0  0  0  0  0  0  # atno 17343 bound_to 10162
  156.1563  130.3643  149.9365 LP  0  0  0  0  0  0  0  0  0  0  0  0  # atno 17370 bound_to 10713
  156.7373  130.9066  151.3630 LP  0  0  0  0  0  0  0  0  0  0  0  0  # atno 17371 bound_to 10713
  140.6701  133.9567  155.7852 LP  0  0  0  0  0  0  0  0  0  0  0  0  # atno 17394 bound_to 11000
  141.0583  134.0383  157.3692 LP  0  0  0  0  0  0  0  0  0  0  0  0  # atno 17395 bound_to 11000

$$$$
