AV-unprocessed.smi:1235|AV-procd|sdf|5177|dock2
  -GOLD-   22720 4253D 1   1.00000     0.00000
 Structure written by MMmdl.
 50 51  0  0  0  0  0  0  0  0  2 V2000
  151.4085  137.5199  158.7929 C   0  0  0  0  0  0  0  0  0  0  0  0
  152.7787  137.8600  158.9140 O   0  0  0  0  0  0  0  0  0  0  0  0
  153.1764  138.8533  157.9846 C   0  0  0  0  0  0  0  0  0  0  0  0
  153.3192  138.2066  156.5984 C   0  0  0  0  0  0  0  0  0  0  0  0
  152.0167  138.0401  155.9460 N   0  0  0  0  0  0  0  0  0  0  0  0
  151.5108  136.7528  156.0176 N   0  0  0  0  0  0  0  0  0  0  0  0
  150.3748  136.4694  155.4668 C   0  0  0  0  0  0  0  0  0  0  0  0
  149.7986  135.0966  155.5173 C   0  0  0  0  0  0  0  0  0  0  0  0
  150.0324  134.3258  156.4496 O   0  0  0  0  0  0  0  0  0  0  0  0
  149.0098  134.7627  154.4798 N   0  0  0  0  0  0  0  0  0  0  0  0
  148.3211  133.4871  154.3239 C   0  0  0  0  0  0  0  0  0  0  0  0
  148.8629  132.6889  153.1207 C   0  0  0  0  0  0  0  0  0  0  0  0
  147.8029  131.9644  152.3685 N   0  3  2  0  0  0  0  0  0  0  0  0
  146.7129  132.8754  151.9246 C   0  0  0  0  0  0  0  0  0  0  0  0
  145.7425  132.1663  150.9665 C   0  0  0  0  0  0  0  0  0  0  0  0
  145.1674  130.8968  151.6034 C   0  0  0  0  0  0  0  0  0  0  0  0
  146.3101  129.9841  152.0683 C   0  0  0  0  0  0  0  0  0  0  0  0
  147.2927  130.7117  153.0109 C   0  0  2  0  0  0  0  0  0  0  0  0
  146.6936  130.9358  154.4161 C   0  0  0  0  0  0  0  0  0  0  0  0
  149.6102  137.4896  154.7698 C   0  0  0  0  0  0  0  0  0  0  0  0
  150.1172  138.7404  154.7075 C   0  0  0  0  0  0  0  0  0  0  0  0
  151.4026  139.0868  155.3163 C   0  0  0  0  0  0  0  0  0  0  0  0
  151.8902  140.2154  155.2635 O   0  0  0  0  0  0  0  0  0  0  0  0
  151.1536  136.7599  159.5314 H   0  0  0  0  0  0  0  0  0  0  0  0
  151.1889  137.1150  157.8042 H   0  0  0  0  0  0  0  0  0  0  0  0
  150.7691  138.3863  158.9667 H   0  0  0  0  0  0  0  0  0  0  0  0
  152.4362  139.6544  157.9558 H   0  0  0  0  0  0  0  0  0  0  0  0
  154.1262  139.2925  158.2943 H   0  0  0  0  0  0  0  0  0  0  0  0
  153.9690  138.8246  155.9760 H   0  0  0  0  0  0  0  0  0  0  0  0
  153.8298  137.2458  156.6843 H   0  0  0  0  0  0  0  0  0  0  0  0
  148.8672  135.4525  153.7556 H   0  0  0  0  0  0  0  0  0  0  0  0
  148.4049  132.9047  155.2431 H   0  0  0  0  0  0  0  0  0  0  0  0
  147.2647  133.7180  154.1920 H   0  0  0  0  0  0  0  0  0  0  0  0
  149.4324  133.3351  152.4526 H   0  0  0  0  0  0  0  0  0  0  0  0
  149.5733  131.9496  153.4930 H   0  0  0  0  0  0  0  0  0  0  0  0
  146.1764  133.2677  152.7892 H   0  0  0  0  0  0  0  0  0  0  0  0
  147.1419  133.7366  151.4109 H   0  0  0  0  0  0  0  0  0  0  0  0
  144.9339  132.8424  150.6872 H   0  0  0  0  0  0  0  0  0  0  0  0
  146.2632  131.9092  150.0431 H   0  0  0  0  0  0  0  0  0  0  0  0
  144.5273  131.1594  152.4460 H   0  0  0  0  0  0  0  0  0  0  0  0
  144.5354  130.3709  150.8869 H   0  0  0  0  0  0  0  0  0  0  0  0
  145.9043  129.0962  152.5546 H   0  0  0  0  0  0  0  0  0  0  0  0
  146.8538  129.6251  151.1932 H   0  0  0  0  0  0  0  0  0  0  0  0
  148.1357  130.0324  153.1322 H   0  0  0  0  0  0  0  0  0  0  0  0
  146.3123  129.9996  154.8246 H   0  0  0  0  0  0  0  0  0  0  0  0
  145.8664  131.6450  154.4078 H   0  0  0  0  0  0  0  0  0  0  0  0
  147.4395  131.3018  155.1210 H   0  0  0  0  0  0  0  0  0  0  0  0
  148.6591  137.2623  154.3106 H   0  0  0  0  0  0  0  0  0  0  0  0
  149.5591  139.5087  154.1926 H   0  0  0  0  0  0  0  0  0  0  0  0
  148.2487  131.6610  151.5142 H   0  0  0  0  0  0  0  0  0  0  0  0
  1  2  1  0  0  0  0
  1 24  1  0  0  0  0
  1 25  1  0  0  0  0
  1 26  1  0  0  0  0
  2  3  1  0  0  0  0
  3  4  1  0  0  0  0
  3 27  1  0  0  0  0
  3 28  1  0  0  0  0
  4  5  1  0  0  0  0
  4 29  1  0  0  0  0
  4 30  1  0  0  0  0
  5 22  1  0  0  0  0
  5  6  1  0  0  0  0
  6  7  2  0  0  0  0
  7  8  1  0  0  0  0
  7 20  1  0  0  0  0
  8  9  2  0  0  0  0
  8 10  1  0  0  0  0
 10 11  1  0  0  0  0
 10 31  1  0  0  0  0
 11 12  1  0  0  0  0
 11 32  1  0  0  0  0
 11 33  1  0  0  0  0
 12 13  1  0  0  0  0
 12 34  1  0  0  0  0
 12 35  1  0  0  0  0
 13 18  1  0  0  0  0
 13 14  1  0  0  0  0
 13 50  1  0  0  0  0
 14 15  1  0  0  0  0
 14 36  1  0  0  0  0
 14 37  1  0  0  0  0
 15 16  1  0  0  0  0
 15 38  1  0  0  0  0
 15 39  1  0  0  0  0
 16 17  1  0  0  0  0
 16 40  1  0  0  0  0
 16 41  1  0  0  0  0
 17 18  1  0  0  0  0
 17 42  1  0  0  0  0
 17 43  1  0  0  0  0
 18 19  1  0  0  0  0
 18 44  1  0  0  0  0
 19 45  1  0  0  0  0
 19 46  1  0  0  0  0
 19 47  1  0  0  0  0
 20 21  2  0  0  0  0
 20 48  1  0  0  0  0
 21 22  1  0  0  0  0
 21 49  1  0  0  0  0
 22 23  2  0  0  0  0
M  CHG  1  13   1
M  END
> <s_m_source_file>
AV-unprocessed.smi

> <i_m_source_file_index>
1235

> <i_lp_mmshare_version>
43012

> <i_f3d_flags>
0

> <s_epik_input>
W0NIM11PW0NIMl1bQ0gyXW4xbmMoW2NIXVtjSF1jMT1PKUMoPU8pW05IXVtDSDJdW0NIMl1OMltDSDJdW0NIMl1bQ0gyXVtDSDJdW0NASF0yW0NIM10=

> <s_epik_cmdline>
J2VwaWtfcHl0aG9uJywgJy1waCcsICc3LjAnLCAnLXRuJywgJzgnLCAnLW1hJywgJzIwMCcsICctbWV0YWxfYmluZGluZycsICctaW1hZScsICc8aW5maWxlLm1hZT4nLCAnLW9tYWUnLCAnPG91dGZpbGUubWFlPic=

> <r_lp_tautomer_probability>
1

> <r_epik_Ionization_Penalty>
0.00271975

> <r_epik_Ionization_Penalty_Charging>
0.00271407

> <r_epik_Ionization_Penalty_Neutral>
5.6803e-06

> <r_epik_State_Penalty>
0.00189271

> <r_epik_Charging_Adjusted_Penalty>
0.00460678

> <i_epik_Tot_Q>
1

> <i_epik_Tot_abs_Q>
1

> <r_epik_Metal_State_Penalty>
-0

> <b_epik_Metal_Only>
0

> <s_lp_Force_Field>
OPLS_2005

> <r_lp_Energy>
40.192

> <b_lp_Chiralities_Consistent>
1

> <s_lp_Variant>
AV-unprocessed.smi:1235-3

> <Gold.Version>
5.8.1

> <Gold.Id.Protein>
6NUR|6NUR_protein|mol2

> <Gold.PLP.Fitness>
47.8896

> <Gold.PLP.PLP>
-37.1413

> <Gold.PLP.part.hbond>
-5.0000

> <Gold.PLP.part.metal>
0.0000

> <Gold.PLP.part.buried>
-2.1014

> <Gold.PLP.part.nonpolar>
-29.8596

> <Gold.PLP.part.repulsive>
0.0501

> <Gold.PLP.ligand.clash>
0.0000

> <Gold.PLP.ligand.torsion>
1.1371

> <Gold.PLP.Chemscore.Hbond>
4.2685

> <Gold.PLP.Chemscore.CHOScore>
0.0000

> <Gold.PLP.Chemscore.Metal>
0.0000

> <Gold.Chemscore.Hbonds>
donor molecule, donor type, donor heavy atom, donor atom, acceptor molecule, acceptor atom, score
      L1  H    10    31       P1  7948  1.00
      L1  H    13    50       P1 10747  1.00
      P1  H  7989  7998       L1    23  0.82
      P1  H 10752 10765       L1     6  0.44

> <Gold.PLP.Chemscore.Internal.Correction>
0.2168

> <Gold.Rescore>
     Score         DG    S(hbond)    S(metal)    S(lipo)     H(rot)  DE(clash)    DE(int)     intcor
     18.77     -20.03       2.88        0.00      86.00       2.00       0.10       1.17       ----

> <Gold.Chemscore.Fitness>
18.7661

> <Gold.Chemscore.DG>
-20.0274

> <Gold.Chemscore.ZeroCoef>
-5.4800

> <Gold.Chemscore.Hbond>
2.8773

> <Gold.Chemscore.Metal>
0.0000

> <Gold.Chemscore.Lipo>
86.0019

> <Gold.Chemscore.Internal_Hbond>
0.0000

> <Gold.Chemscore.DEClash>
0.0961

> <Gold.Chemscore.DEInternal>
1.1652

> <Gold.Chemscore.Rot>
2.0020

> <Gold.Chemscore.Internal.Correction>
   9.000000E+99

> <Gold.Chemscore.Hbonds>
donor molecule, donor type, donor heavy atom, donor atom, acceptor molecule, acceptor atom, score
      L1  H    10    31       P1  7948  0.78
      L1  H    13    50       P1 10747  1.00
      P1  H  7989  7998       L1    23  0.53
      P1  H 10752 10765       L1     6  0.09

> <Gold.Chemscore.Hbond.Weighted>
-9.6103

> <Gold.Chemscore.Metal.Weighted>
-0.0000

> <Gold.Chemscore.Lipo.Weighted>
-10.0622

> <Gold.Chemscore.Internal_Hbond.Weighted>
0.0000

> <Gold.Chemscore.DEClash.Weighted>
0.0961

> <Gold.Chemscore.DEInternal.Weighted>
1.1652

> <Gold.Chemscore.Rot.Weighted>
5.1252

> <Gold.Chemscore.Internal.Correction.Weighted>
   9.000000E+99

> <Gold.Protein.RotatedTorsions>
[ 6907 6896 6895 6894 ] final  -10.04 input  -60.11 | X-H torsion
[ 7974 7965 7964 7962 ] final   39.54 input  175.53 | X-H torsion
[ 8008 7997 7996 7995 ] final -138.19 input   59.86 | X-H torsion
[ 10167 10162 10161 10158 ] final   96.73 input  -65.29 | X-H torsion
[ 10718 10713 10712 10709 ] final   77.28 input   66.30 | X-H torsion
[ 10763 10752 10751 10750 ] final -162.44 input  -60.55 | X-H torsion
[ 11005 11000 10999 10996 ] final  129.09 input  -57.11 | X-H torsion

> <Gold.Protein.ActiveResidues>
 VAL166  LYS551  ARG553  GLY616  TRP617  ASP618  TYR619  PRO620  LYS621  CYS622 
 ASP623  PHE694  ASN695  SER759  ASP760  ASP761  ALA762  ILE779  LEU786  VAL792 
 PHE793  MET794  SER795  GLU796  ALA797  LYS798  CYS799  TRP800  GLU811  SER814 

> <Gold.Protein.RotatedAtoms>
  151.4083  135.0981  159.9576 H   0  0  0  0  0  0  0  0  0  0  0  0  # atno 6907 bound_to 6896
  152.5028  133.8822  159.7362 H   0  0  0  0  0  0  0  0  0  0  0  0  # atno 6908 bound_to 6896
  150.9311  133.6709  159.2839 H   0  0  0  0  0  0  0  0  0  0  0  0  # atno 6909 bound_to 6896
  146.0976  139.5639  142.9435 H   0  0  0  0  0  0  0  0  0  0  0  0  # atno 7974 bound_to 7965
  155.4243  140.0520  157.3023 H   0  0  0  0  0  0  0  0  0  0  0  0  # atno 8008 bound_to 7997
  154.4888  140.2112  155.9553 H   0  0  0  0  0  0  0  0  0  0  0  0  # atno 8009 bound_to 7997
  156.1313  140.3171  155.8358 H   0  0  0  0  0  0  0  0  0  0  0  0  # atno 8010 bound_to 7997
  139.7867  144.6868  150.9948 H   0  0  0  0  0  0  0  0  0  0  0  0  # atno 10167 bound_to 10162
  157.6705  130.9814  150.1619 H   0  0  0  0  0  0  0  0  0  0  0  0  # atno 10718 bound_to 10713
  154.7214  135.3026  154.9041 H   0  0  0  0  0  0  0  0  0  0  0  0  # atno 10763 bound_to 10752
  153.9912  135.6718  153.4758 H   0  0  0  0  0  0  0  0  0  0  0  0  # atno 10764 bound_to 10752
  153.0837  135.4995  154.8472 H   0  0  0  0  0  0  0  0  0  0  0  0  # atno 10765 bound_to 10752
  139.9596  134.9605  156.9097 H   0  0  0  0  0  0  0  0  0  0  0  0  # atno 11005 bound_to 11000
  145.5918  141.0368  143.2066 LP  0  0  0  0  0  0  0  0  0  0  0  0  # atno 17320 bound_to 7965
  144.7407  139.7456  143.7312 LP  0  0  0  0  0  0  0  0  0  0  0  0  # atno 17321 bound_to 7965
  140.7820  143.4424  151.0532 LP  0  0  0  0  0  0  0  0  0  0  0  0  # atno 17342 bound_to 10162
  139.8103  143.7961  152.3170 LP  0  0  0  0  0  0  0  0  0  0  0  0  # atno 17343 bound_to 10162
  156.2393  130.3689  149.8355 LP  0  0  0  0  0  0  0  0  0  0  0  0  # atno 17370 bound_to 10713
  156.6159  130.8606  151.3465 LP  0  0  0  0  0  0  0  0  0  0  0  0  # atno 17371 bound_to 10713
  140.5530  134.0608  155.7375 LP  0  0  0  0  0  0  0  0  0  0  0  0  # atno 17394 bound_to 11000
  141.1272  133.9363  157.2611 LP  0  0  0  0  0  0  0  0  0  0  0  0  # atno 17395 bound_to 11000

$$$$
