AV-unprocessed.smi:2449|AV-procd|sdf|9663|dock5
  -GOLD-   2272013303D 1   1.00000     0.00000
 Structure written by MMmdl.
 37 37  0  0  0  0  0  0  0  0  1 V2000
  152.6459  142.7393  162.2118 C   0  0  0  0  0  0  0  0  0  0  0  0
  152.1800  143.7546  161.1631 C   0  0  0  0  0  0  0  0  0  0  0  0
  151.8558  143.0908  159.8088 C   0  0  0  0  0  0  0  0  0  0  0  0
  151.5004  144.0593  158.6454 C   0  0  0  0  0  0  0  0  0  0  0  0
  150.4749  145.1081  159.1190 C   0  0  0  0  0  0  0  0  0  0  0  0
  152.7693  144.8083  158.1829 C   0  0  0  0  0  0  0  0  0  0  0  0
  150.8936  143.3471  157.5131 N   0  0  0  0  0  0  0  0  0  0  0  0
  151.0456  142.0585  157.1590 C   0  0  0  0  0  0  0  0  0  0  0  0
  151.7848  141.2686  157.7472 O   0  0  0  0  0  0  0  0  0  0  0  0
  150.2382  141.5987  155.9373 C   0  0  0  0  0  0  0  0  0  0  0  0
  150.5102  140.2001  155.5744 N   0  0  0  0  0  0  0  0  0  0  0  0
  151.8160  139.7498  155.4410 C   0  0  0  0  0  0  0  0  0  0  0  0
  152.1351  138.4728  155.1228 C   0  0  0  0  0  0  0  0  0  0  0  0
  151.0870  137.4826  154.9001 C   0  0  0  0  0  0  0  0  0  0  0  0
  151.2752  136.3041  154.6070 O   0  0  0  0  0  0  0  0  0  0  0  0
  149.7868  137.9736  155.0456 N   0  0  0  0  0  0  0  0  0  0  0  0
  149.4508  139.2879  155.3735 C   0  0  0  0  0  0  0  0  0  0  0  0
  148.2695  139.6162  155.4794 O   0  0  0  0  0  0  0  0  0  0  0  0
  149.0277  137.3230  154.9040 H   0  0  0  0  0  0  0  0  0  0  0  0
  152.8721  143.2345  163.1564 H   0  0  0  0  0  0  0  0  0  0  0  0
  153.5463  142.2191  161.8839 H   0  0  0  0  0  0  0  0  0  0  0  0
  151.8763  141.9913  162.4044 H   0  0  0  0  0  0  0  0  0  0  0  0
  151.3043  144.2757  161.5499 H   0  0  0  0  0  0  0  0  0  0  0  0
  152.9569  144.5078  161.0367 H   0  0  0  0  0  0  0  0  0  0  0  0
  152.7043  142.4741  159.5091 H   0  0  0  0  0  0  0  0  0  0  0  0
  151.0355  142.3885  159.9596 H   0  0  0  0  0  0  0  0  0  0  0  0
  150.8390  145.6555  159.9891 H   0  0  0  0  0  0  0  0  0  0  0  0
  149.5215  144.6548  159.3905 H   0  0  0  0  0  0  0  0  0  0  0  0
  150.2687  145.8398  158.3368 H   0  0  0  0  0  0  0  0  0  0  0  0
  153.1777  145.4211  158.9873 H   0  0  0  0  0  0  0  0  0  0  0  0
  152.5568  145.4714  157.3434 H   0  0  0  0  0  0  0  0  0  0  0  0
  153.5600  144.1262  157.8704 H   0  0  0  0  0  0  0  0  0  0  0  0
  150.2646  143.8963  156.9454 H   0  0  0  0  0  0  0  0  0  0  0  0
  149.1696  141.7337  156.1176 H   0  0  0  0  0  0  0  0  0  0  0  0
  150.4774  142.2634  155.1062 H   0  0  0  0  0  0  0  0  0  0  0  0
  152.6259  140.4472  155.6014 H   0  0  0  0  0  0  0  0  0  0  0  0
  153.1719  138.1820  155.0338 H   0  0  0  0  0  0  0  0  0  0  0  0
  1  2  1  0  0  0  0
  1 20  1  0  0  0  0
  1 21  1  0  0  0  0
  1 22  1  0  0  0  0
  2  3  1  0  0  0  0
  2 23  1  0  0  0  0
  2 24  1  0  0  0  0
  3  4  1  0  0  0  0
  3 25  1  0  0  0  0
  3 26  1  0  0  0  0
  4  5  1  0  0  0  0
  4  6  1  0  0  0  0
  4  7  1  0  0  0  0
  5 27  1  0  0  0  0
  5 28  1  0  0  0  0
  5 29  1  0  0  0  0
  6 30  1  0  0  0  0
  6 31  1  0  0  0  0
  6 32  1  0  0  0  0
  7  8  1  0  0  0  0
  7 33  1  0  0  0  0
  8  9  2  0  0  0  0
  8 10  1  0  0  0  0
 10 11  1  0  0  0  0
 10 34  1  0  0  0  0
 10 35  1  0  0  0  0
 11 17  1  0  0  0  0
 11 12  1  0  0  0  0
 12 13  2  0  0  0  0
 12 36  1  0  0  0  0
 13 14  1  0  0  0  0
 13 37  1  0  0  0  0
 14 15  2  0  0  0  0
 14 16  1  0  0  0  0
 16 19  1  0  0  0  0
 16 17  1  0  0  0  0
 17 18  2  0  0  0  0
M  END
> <s_m_source_file>
AV-unprocessed.smi

> <i_m_source_file_index>
2449

> <i_lp_mmshare_version>
43012

> <i_f3d_flags>
0

> <s_epik_input>
W0NIM11bQ0gyXVtDSDJdQyhbQ0gzXSkoW0NIM10pW05IXUMoPU8pW0NIMl1uMVtjSF1bY0hdYyg9TylbbkhdYzE9Tw==

> <s_epik_cmdline>
J2VwaWtfcHl0aG9uJywgJy1waCcsICc3LjAnLCAnLXRuJywgJzgnLCAnLW1hJywgJzIwMCcsICctbWV0YWxfYmluZGluZycsICctaW1hZScsICc8aW5maWxlLm1hZT4nLCAnLW9tYWUnLCAnPG91dGZpbGUubWFlPic=

> <r_lp_tautomer_probability>
0.999537

> <r_epik_Ionization_Penalty>
0.00292856

> <r_epik_Ionization_Penalty_Charging>
0.00292854

> <r_epik_Ionization_Penalty_Neutral>
1.95902e-08

> <r_epik_State_Penalty>
0.00205284

> <r_epik_Charging_Adjusted_Penalty>
0.00498138

> <i_epik_Tot_Q>
0

> <i_epik_Tot_abs_Q>
0

> <r_epik_Metal_State_Penalty>
0.360056

> <b_epik_Metal_Only>
0

> <s_lp_Force_Field>
OPLS_2005

> <r_lp_Energy>
5.67084

> <b_lp_Chiralities_Consistent>
1

> <s_lp_Variant>
AV-unprocessed.smi:2449-1

> <Gold.Version>
5.8.1

> <Gold.Id.Protein>
6NUR|6NUR_protein|mol2

> <Gold.PLP.Fitness>
46.5081

> <Gold.PLP.PLP>
-42.0169

> <Gold.PLP.part.hbond>
-1.9736

> <Gold.PLP.part.metal>
0.0000

> <Gold.PLP.part.buried>
-4.7259

> <Gold.PLP.part.nonpolar>
-37.0580

> <Gold.PLP.part.repulsive>
0.9892

> <Gold.PLP.ligand.clash>
0.0000

> <Gold.PLP.ligand.torsion>
0.7598

> <Gold.PLP.Chemscore.Hbond>
1.9913

> <Gold.PLP.Chemscore.CHOScore>
0.0000

> <Gold.PLP.Chemscore.Metal>
0.0000

> <Gold.Chemscore.Hbonds>
donor molecule, donor type, donor heavy atom, donor atom, acceptor molecule, acceptor atom, score
      L1  H     7    33       P1  8028  0.98
      P1  H 10752 10765       L1    15  1.00

> <Gold.PLP.Chemscore.Internal.Correction>
0.0370

> <Gold.Rescore>
     Score         DG    S(hbond)    S(metal)    S(lipo)     H(rot)  DE(clash)    DE(int)     intcor
     14.49     -17.77       1.95        0.00      96.15       2.14       0.04       3.24       ----

> <Gold.Chemscore.Fitness>
14.4934

> <Gold.Chemscore.DG>
-17.7722

> <Gold.Chemscore.ZeroCoef>
-5.4800

> <Gold.Chemscore.Hbond>
1.9523

> <Gold.Chemscore.Metal>
0.0000

> <Gold.Chemscore.Lipo>
96.1487

> <Gold.Chemscore.Internal_Hbond>
0.0000

> <Gold.Chemscore.DEClash>
0.0415

> <Gold.Chemscore.DEInternal>
3.2374

> <Gold.Chemscore.Rot>
2.1397

> <Gold.Chemscore.Internal.Correction>
   9.000000E+99

> <Gold.Chemscore.Hbonds>
donor molecule, donor type, donor heavy atom, donor atom, acceptor molecule, acceptor atom, score
      L1  H     7    33       P1  8028  0.91
      P1  H 10752 10765       L1    15  0.99

> <Gold.Chemscore.Hbond.Weighted>
-6.5205

> <Gold.Chemscore.Metal.Weighted>
-0.0000

> <Gold.Chemscore.Lipo.Weighted>
-11.2494

> <Gold.Chemscore.Internal_Hbond.Weighted>
0.0000

> <Gold.Chemscore.DEClash.Weighted>
0.0415

> <Gold.Chemscore.DEInternal.Weighted>
3.2374

> <Gold.Chemscore.Rot.Weighted>
5.4777

> <Gold.Chemscore.Internal.Correction.Weighted>
   9.000000E+99

> <Gold.Protein.RotatedTorsions>
[ 6907 6896 6895 6894 ] final  125.81 input  -60.11 | X-H torsion
[ 7974 7965 7964 7962 ] final   75.06 input  175.53 | X-H torsion
[ 8008 7997 7996 7995 ] final -112.98 input   59.86 | X-H torsion
[ 10167 10162 10161 10158 ] final  -56.30 input  -65.29 | X-H torsion
[ 10718 10713 10712 10709 ] final   82.21 input   66.30 | X-H torsion
[ 10763 10752 10751 10750 ] final  168.97 input  -60.55 | X-H torsion
[ 11005 11000 10999 10996 ] final   36.92 input  -57.11 | X-H torsion

> <Gold.Protein.ActiveResidues>
 VAL166  LYS551  ARG553  GLY616  TRP617  ASP618  TYR619  PRO620  LYS621  CYS622 
 ASP623  PHE694  ASN695  SER759  ASP760  ASP761  ALA762  ILE779  LEU786  VAL792 
 PHE793  MET794  SER795  GLU796  ALA797  LYS798  CYS799  TRP800  GLU811  SER814 

> <Gold.Protein.RotatedAtoms>
  152.3959  133.6746  159.6275 H   0  0  0  0  0  0  0  0  0  0  0  0  # atno 6907 bound_to 6896
  150.7858  133.8875  159.3312 H   0  0  0  0  0  0  0  0  0  0  0  0  # atno 6908 bound_to 6896
  151.6652  135.0985  160.0238 H   0  0  0  0  0  0  0  0  0  0  0  0  # atno 6909 bound_to 6896
  145.7204  139.2646  143.1599 H   0  0  0  0  0  0  0  0  0  0  0  0  # atno 7974 bound_to 7965
  155.0136  140.0393  157.2409 H   0  0  0  0  0  0  0  0  0  0  0  0  # atno 8008 bound_to 7997
  154.7439  140.2754  155.6327 H   0  0  0  0  0  0  0  0  0  0  0  0  # atno 8009 bound_to 7997
  156.2870  140.2660  156.2174 H   0  0  0  0  0  0  0  0  0  0  0  0  # atno 8010 bound_to 7997
  140.6325  143.2466  151.5204 H   0  0  0  0  0  0  0  0  0  0  0  0  # atno 10167 bound_to 10162
  157.6852  131.0038  150.2341 H   0  0  0  0  0  0  0  0  0  0  0  0  # atno 10718 bound_to 10713
  154.3763  135.2753  155.2237 H   0  0  0  0  0  0  0  0  0  0  0  0  # atno 10763 bound_to 10752
  154.4363  135.5965  153.6104 H   0  0  0  0  0  0  0  0  0  0  0  0  # atno 10764 bound_to 10752
  152.9836  135.6008  154.4000 H   0  0  0  0  0  0  0  0  0  0  0  0  # atno 10765 bound_to 10752
  140.2278  134.3564  155.7977 H   0  0  0  0  0  0  0  0  0  0  0  0  # atno 11005 bound_to 11000
  146.0631  140.7949  142.9725 LP  0  0  0  0  0  0  0  0  0  0  0  0  # atno 17320 bound_to 7965
  144.6918  140.3227  143.7229 LP  0  0  0  0  0  0  0  0  0  0  0  0  # atno 17321 bound_to 7965
  139.5538  144.2328  152.1577 LP  0  0  0  0  0  0  0  0  0  0  0  0  # atno 17342 bound_to 10162
  140.1575  144.5057  150.6651 LP  0  0  0  0  0  0  0  0  0  0  0  0  # atno 17343 bound_to 10162
  156.2968  130.3753  149.7788 LP  0  0  0  0  0  0  0  0  0  0  0  0  # atno 17370 bound_to 10713
  156.5431  130.8308  151.3275 LP  0  0  0  0  0  0  0  0  0  0  0  0  # atno 17371 bound_to 10713
  141.2219  133.7228  156.8681 LP  0  0  0  0  0  0  0  0  0  0  0  0  # atno 17394 bound_to 11000
  140.1782  134.9052  157.2917 LP  0  0  0  0  0  0  0  0  0  0  0  0  # atno 17395 bound_to 11000

$$$$
