AV-unprocessed.smi:2739|AV-procd|sdf|10552|dock4
  -GOLD-   2272015 03D 1   1.00000     0.00000
 Structure written by MMmdl.
 35 35  0  0  0  0  0  0  0  0  1 V2000
  152.7975  143.1435  161.3488 C   0  0  0  0  0  0  0  0  0  0  0  0
  151.8949  142.8530  160.1410 C   0  0  0  0  0  0  0  0  0  0  0  0
  152.2130  143.7114  158.9006 C   0  0  2  0  0  0  0  0  0  0  0  0
  152.0854  145.2108  159.2030 C   0  0  0  0  0  0  0  0  0  0  0  0
  151.3226  143.3717  157.7923 N   0  0  0  0  0  0  0  0  0  0  0  0
  151.0752  142.1366  157.3269 C   0  0  0  0  0  0  0  0  0  0  0  0
  151.5691  141.1145  157.8022 O   0  0  0  0  0  0  0  0  0  0  0  0
  150.1165  142.0391  156.1401 C   0  0  0  0  0  0  0  0  0  0  0  0
  150.0637  140.6840  155.6223 N   0  0  0  0  0  0  0  0  0  0  0  0
  148.9796  139.8358  155.5511 C   0  0  0  0  0  0  0  0  0  0  0  0
  149.4146  138.6676  154.9945 C   0  0  0  0  0  0  0  0  0  0  0  0
  150.8005  138.8927  154.7548 C   0  0  0  0  0  0  0  0  0  0  0  0
  151.7952  137.9401  154.1431 C   0  0  1  0  0  0  0  0  0  0  0  0
  153.2063  138.1575  154.7064 C   0  0  0  0  0  0  0  0  0  0  0  0
  151.4359  136.5873  154.3405 O   0  0  0  0  0  0  0  0  0  0  0  0
  151.1817  140.1060  155.1330 N   0  0  0  0  0  0  0  0  0  0  0  0
  152.4880  142.5552  162.2127 H   0  0  0  0  0  0  0  0  0  0  0  0
  152.7516  144.1960  161.6297 H   0  0  0  0  0  0  0  0  0  0  0  0
  153.8387  142.8969  161.1409 H   0  0  0  0  0  0  0  0  0  0  0  0
  151.9635  141.7946  159.8862 H   0  0  0  0  0  0  0  0  0  0  0  0
  150.8593  143.0253  160.4364 H   0  0  0  0  0  0  0  0  0  0  0  0
  153.2507  143.5268  158.6175 H   0  0  0  0  0  0  0  0  0  0  0  0
  152.7595  145.5078  160.0067 H   0  0  0  0  0  0  0  0  0  0  0  0
  151.0707  145.4708  159.5068 H   0  0  0  0  0  0  0  0  0  0  0  0
  152.3350  145.8103  158.3269 H   0  0  0  0  0  0  0  0  0  0  0  0
  150.8651  144.1440  157.3292 H   0  0  0  0  0  0  0  0  0  0  0  0
  149.1125  142.3362  156.4461 H   0  0  0  0  0  0  0  0  0  0  0  0
  150.4266  142.7237  155.3487 H   0  0  0  0  0  0  0  0  0  0  0  0
  148.0008  140.1313  155.8999 H   0  0  0  0  0  0  0  0  0  0  0  0
  148.8302  137.7831  154.7890 H   0  0  0  0  0  0  0  0  0  0  0  0
  151.8278  138.1032  153.0654 H   0  0  0  0  0  0  0  0  0  0  0  0
  153.5434  139.1796  154.5307 H   0  0  0  0  0  0  0  0  0  0  0  0
  153.9263  137.4878  154.2351 H   0  0  0  0  0  0  0  0  0  0  0  0
  153.2380  137.9772  155.7816 H   0  0  0  0  0  0  0  0  0  0  0  0
  151.0016  136.2777  153.5605 H   0  0  0  0  0  0  0  0  0  0  0  0
  1  2  1  0  0  0  0
  1 17  1  0  0  0  0
  1 18  1  0  0  0  0
  1 19  1  0  0  0  0
  2  3  1  0  0  0  0
  2 20  1  0  0  0  0
  2 21  1  0  0  0  0
  3  4  1  0  0  0  0
  3  5  1  0  0  0  0
  3 22  1  0  0  0  0
  4 23  1  0  0  0  0
  4 24  1  0  0  0  0
  4 25  1  0  0  0  0
  5  6  1  0  0  0  0
  5 26  1  0  0  0  0
  6  7  2  0  0  0  0
  6  8  1  0  0  0  0
  8  9  1  0  0  0  0
  8 27  1  0  0  0  0
  8 28  1  0  0  0  0
  9 16  1  0  0  0  0
  9 10  1  0  0  0  0
 10 11  2  0  0  0  0
 10 29  1  0  0  0  0
 11 12  1  0  0  0  0
 11 30  1  0  0  0  0
 12 13  1  0  0  0  0
 12 16  2  0  0  0  0
 13 14  1  0  0  0  0
 13 15  1  0  0  0  0
 13 31  1  0  0  0  0
 14 32  1  0  0  0  0
 14 33  1  0  0  0  0
 14 34  1  0  0  0  0
 15 35  1  0  0  0  0
M  END
> <s_m_source_file>
AV-unprocessed.smi

> <i_m_source_file_index>
2739

> <i_lp_mmshare_version>
43012

> <i_f3d_flags>
0

> <s_epik_input>
W0NIM11bQ0gyXVtDQEhdKFtDSDNdKVtOSF1DKD1PKVtDSDJdbjFbY0hdW2NIXWMobjEpW0NASF0oW0NIM10pW09IXQ==

> <s_epik_cmdline>
J2VwaWtfcHl0aG9uJywgJy1waCcsICc3LjAnLCAnLXRuJywgJzgnLCAnLW1hJywgJzIwMCcsICctbWV0YWxfYmluZGluZycsICctaW1hZScsICc8aW5maWxlLm1hZT4nLCAnLW9tYWUnLCAnPG91dGZpbGUubWFlPic=

> <r_lp_tautomer_probability>
1

> <r_epik_Ionization_Penalty>
5.22246e-06

> <r_epik_Ionization_Penalty_Charging>
0

> <r_epik_Ionization_Penalty_Neutral>
5.22246e-06

> <r_epik_State_Penalty>
-0

> <r_epik_Charging_Adjusted_Penalty>
0

> <i_epik_Tot_Q>
0

> <i_epik_Tot_abs_Q>
0

> <r_epik_Metal_State_Penalty>
-0

> <b_epik_Metal_Only>
0

> <s_lp_Force_Field>
OPLS_2005

> <r_lp_Energy>
1.64389

> <b_lp_Chiralities_Consistent>
1

> <s_lp_Variant>
AV-unprocessed.smi:2739-3

> <Gold.Version>
5.8.1

> <Gold.Id.Protein>
6NUR|6NUR_protein|mol2

> <Gold.PLP.Fitness>
43.3155

> <Gold.PLP.PLP>
-35.9903

> <Gold.PLP.part.hbond>
-3.0000

> <Gold.PLP.part.metal>
0.0000

> <Gold.PLP.part.buried>
-3.0857

> <Gold.PLP.part.nonpolar>
-31.1354

> <Gold.PLP.part.repulsive>
0.0445

> <Gold.PLP.ligand.clash>
0.0000

> <Gold.PLP.ligand.torsion>
0.8540

> <Gold.PLP.Chemscore.Hbond>
3.0000

> <Gold.PLP.Chemscore.CHOScore>
0.0000

> <Gold.PLP.Chemscore.Metal>
0.0000

> <Gold.Chemscore.Hbonds>
donor molecule, donor type, donor heavy atom, donor atom, acceptor molecule, acceptor atom, score
      L1  H    15    35       P1  7949  0.73
      P1  H  7989  7998       L1    16  1.00
      P1  H 10752 10764       L1    15  1.00

> <Gold.PLP.Chemscore.Internal.Correction>
0.0331

> <Gold.Rescore>
     Score         DG    S(hbond)    S(metal)    S(lipo)     H(rot)  DE(clash)    DE(int)     intcor
     15.43     -20.31       3.06        0.00      90.57       2.34       1.64       3.23       ----

> <Gold.Chemscore.Fitness>
15.4320

> <Gold.Chemscore.DG>
-20.3067

> <Gold.Chemscore.ZeroCoef>
-5.4800

> <Gold.Chemscore.Hbond>
3.0638

> <Gold.Chemscore.Metal>
0.0000

> <Gold.Chemscore.Lipo>
90.5683

> <Gold.Chemscore.Internal_Hbond>
0.0000

> <Gold.Chemscore.DEClash>
1.6400

> <Gold.Chemscore.DEInternal>
3.2347

> <Gold.Chemscore.Rot>
2.3448

> <Gold.Chemscore.Internal.Correction>
   9.000000E+99

> <Gold.Chemscore.Hbonds>
donor molecule, donor type, donor heavy atom, donor atom, acceptor molecule, acceptor atom, score
      L1  H    15    35       P1  7949  0.16
      P1  H  7989  7998       L1    16  0.26
      P1  H 10752 10764       L1    15  0.14

> <Gold.Chemscore.Hbond.Weighted>
-10.2330

> <Gold.Chemscore.Metal.Weighted>
-0.0000

> <Gold.Chemscore.Lipo.Weighted>
-10.5965

> <Gold.Chemscore.Internal_Hbond.Weighted>
0.0000

> <Gold.Chemscore.DEClash.Weighted>
1.6400

> <Gold.Chemscore.DEInternal.Weighted>
3.2347

> <Gold.Chemscore.Rot.Weighted>
6.0027

> <Gold.Chemscore.Internal.Correction.Weighted>
   9.000000E+99

> <Gold.Protein.RotatedTorsions>
[ 6907 6896 6895 6894 ] final   49.57 input  -60.11 | X-H torsion
[ 7974 7965 7964 7962 ] final  -75.32 input  175.53 | X-H torsion
[ 8008 7997 7996 7995 ] final -163.67 input   59.86 | X-H torsion
[ 10167 10162 10161 10158 ] final   15.07 input  -65.29 | X-H torsion
[ 10718 10713 10712 10709 ] final   56.52 input   66.30 | X-H torsion
[ 10763 10752 10751 10750 ] final  -79.25 input  -60.55 | X-H torsion
[ 11005 11000 10999 10996 ] final   -9.10 input  -57.11 | X-H torsion

> <Gold.Protein.ActiveResidues>
 VAL166  LYS551  ARG553  GLY616  TRP617  ASP618  TYR619  PRO620  LYS621  CYS622 
 ASP623  PHE694  ASN695  SER759  ASP760  ASP761  ALA762  ILE779  LEU786  VAL792 
 PHE793  MET794  SER795  GLU796  ALA797  LYS798  CYS799  TRP800  GLU811  SER814 

> <Gold.Protein.RotatedAtoms>
  152.2922  134.7708  160.0375 H   0  0  0  0  0  0  0  0  0  0  0  0  # atno 6907 bound_to 6896
  151.8250  133.3395  159.3604 H   0  0  0  0  0  0  0  0  0  0  0  0  # atno 6908 bound_to 6896
  150.7235  134.5466  159.5818 H   0  0  0  0  0  0  0  0  0  0  0  0  # atno 6909 bound_to 6896
  145.6276  140.9346  143.1104 H   0  0  0  0  0  0  0  0  0  0  0  0  # atno 7974 bound_to 7965
  155.8246  140.0924  157.1829 H   0  0  0  0  0  0  0  0  0  0  0  0  # atno 8008 bound_to 7997
  154.3979  140.1430  156.3601 H   0  0  0  0  0  0  0  0  0  0  0  0  # atno 8009 bound_to 7997
  155.8230  140.3445  155.5528 H   0  0  0  0  0  0  0  0  0  0  0  0  # atno 8010 bound_to 7997
  140.5892  143.8829  150.6858 H   0  0  0  0  0  0  0  0  0  0  0  0  # atno 10167 bound_to 10162
  157.5437  130.8716  149.8860 H   0  0  0  0  0  0  0  0  0  0  0  0  # atno 10718 bound_to 10713
  154.5362  135.5702  153.6801 H   0  0  0  0  0  0  0  0  0  0  0  0  # atno 10763 bound_to 10752
  152.9952  135.6217  154.2563 H   0  0  0  0  0  0  0  0  0  0  0  0  # atno 10764 bound_to 10752
  154.2491  135.2859  155.2803 H   0  0  0  0  0  0  0  0  0  0  0  0  # atno 10765 bound_to 10752
  140.7306  133.8752  155.8890 H   0  0  0  0  0  0  0  0  0  0  0  0  # atno 11005 bound_to 11000
  144.7206  139.8043  143.7383 LP  0  0  0  0  0  0  0  0  0  0  0  0  # atno 17320 bound_to 7965
  146.1382  139.4432  143.0125 LP  0  0  0  0  0  0  0  0  0  0  0  0  # atno 17321 bound_to 7965
  140.2347  143.3709  152.1536 LP  0  0  0  0  0  0  0  0  0  0  0  0  # atno 17342 bound_to 10162
  139.5217  144.7049  151.5384 LP  0  0  0  0  0  0  0  0  0  0  0  0  # atno 17343 bound_to 10162
  156.0518  130.3716  150.1183 LP  0  0  0  0  0  0  0  0  0  0  0  0  # atno 17370 bound_to 10713
  156.9361  130.9729  151.3524 LP  0  0  0  0  0  0  0  0  0  0  0  0  # atno 17371 bound_to 10713
  140.9924  134.1260  157.4395 LP  0  0  0  0  0  0  0  0  0  0  0  0  # atno 17394 bound_to 11000
  139.8827  135.0044  156.6249 LP  0  0  0  0  0  0  0  0  0  0  0  0  # atno 17395 bound_to 11000

$$$$
