AV-unprocessed.smi:2307|AV-procd|sdf|9250|dock6
  -GOLD-   2272012473D 1   1.00000     0.00000
 Structure written by MMmdl.
 38 39  0  0  0  0  0  0  0  0  1 V2000
  152.2698  143.6250  161.5464 C   0  0  0  0  0  0  0  0  0  0  0  0
  152.1004  143.0652  160.1451 C   0  0  0  0  0  0  0  0  0  0  0  0
  151.3982  143.8783  159.2511 N   0  0  0  0  0  0  0  0  0  0  0  0
  151.2018  143.4815  158.0366 C   0  0  0  0  0  0  0  0  0  0  0  0
  151.6744  142.2385  157.5795 N   0  0  0  0  0  0  0  0  0  0  0  0
  151.3696  141.8829  156.1808 C   0  0  0  0  0  0  0  0  0  0  0  0
  150.4019  140.6815  156.0587 C   0  0  2  0  0  0  0  0  0  0  0  0
  150.8193  139.8837  154.9702 O   0  0  0  0  0  0  0  0  0  0  0  0
  148.9432  141.1026  155.9389 C   0  0  0  0  0  0  0  0  0  0  0  0
  148.0432  140.8869  157.0031 C   0  0  0  0  0  0  0  0  0  0  0  0
  146.6911  141.2560  156.8735 C   0  0  0  0  0  0  0  0  0  0  0  0
  146.2110  141.8418  155.6844 C   0  0  0  0  0  0  0  0  0  0  0  0
  144.8698  142.1657  155.6471 O   0  0  0  0  0  0  0  0  0  0  0  0
  144.4599  143.4596  155.5495 C   0  0  0  0  0  0  0  0  0  0  0  0
  143.1088  143.5119  155.6365 F   0  0  0  0  0  0  0  0  0  0  0  0
  144.9500  144.2235  156.5580 F   0  0  0  0  0  0  0  0  0  0  0  0
  144.7994  144.0098  154.3566 F   0  0  0  0  0  0  0  0  0  0  0  0
  147.1197  142.0569  154.6177 C   0  0  0  0  0  0  0  0  0  0  0  0
  148.4731  141.6901  154.7465 C   0  0  0  0  0  0  0  0  0  0  0  0
  152.3772  141.3900  158.3839 C   0  0  0  0  0  0  0  0  0  0  0  0
  152.7936  140.3057  157.9721 O   0  0  0  0  0  0  0  0  0  0  0  0
  152.5924  141.8552  159.7635 C   0  0  0  0  0  0  0  0  0  0  0  0
  153.3658  140.9281  160.6926 C   0  0  0  0  0  0  0  0  0  0  0  0
  153.3272  143.7474  161.7824 H   0  0  0  0  0  0  0  0  0  0  0  0
  151.8223  142.9563  162.2823 H   0  0  0  0  0  0  0  0  0  0  0  0
  151.7908  144.5997  161.6462 H   0  0  0  0  0  0  0  0  0  0  0  0
  150.6561  144.0778  157.3036 H   0  0  0  0  0  0  0  0  0  0  0  0
  150.9485  142.7370  155.6462 H   0  0  0  0  0  0  0  0  0  0  0  0
  152.2992  141.6610  155.6531 H   0  0  0  0  0  0  0  0  0  0  0  0
  150.5011  140.0559  156.9465 H   0  0  0  0  0  0  0  0  0  0  0  0
  150.4310  139.0269  155.0619 H   0  0  0  0  0  0  0  0  0  0  0  0
  148.3852  140.4305  157.9206 H   0  0  0  0  0  0  0  0  0  0  0  0
  146.0129  141.0837  157.6965 H   0  0  0  0  0  0  0  0  0  0  0  0
  146.8023  142.5000  153.6866 H   0  0  0  0  0  0  0  0  0  0  0  0
  149.1484  141.8534  153.9194 H   0  0  0  0  0  0  0  0  0  0  0  0
  152.8413  139.9778  160.7958 H   0  0  0  0  0  0  0  0  0  0  0  0
  153.5032  141.3379  161.6918 H   0  0  0  0  0  0  0  0  0  0  0  0
  154.3561  140.7262  160.2834 H   0  0  0  0  0  0  0  0  0  0  0  0
  1  2  1  0  0  0  0
  1 24  1  0  0  0  0
  1 25  1  0  0  0  0
  1 26  1  0  0  0  0
  2 22  2  0  0  0  0
  2  3  1  0  0  0  0
  3  4  2  0  0  0  0
  4  5  1  0  0  0  0
  4 27  1  0  0  0  0
  5  6  1  0  0  0  0
  5 20  1  0  0  0  0
  6  7  1  0  0  0  0
  6 28  1  0  0  0  0
  6 29  1  0  0  0  0
  7  8  1  0  0  0  0
  7  9  1  0  0  0  0
  7 30  1  0  0  0  0
  8 31  1  0  0  0  0
  9 19  1  0  0  0  0
  9 10  2  0  0  0  0
 10 11  1  0  0  0  0
 10 32  1  0  0  0  0
 11 12  2  0  0  0  0
 11 33  1  0  0  0  0
 12 13  1  0  0  0  0
 12 18  1  0  0  0  0
 13 14  1  0  0  0  0
 14 15  1  0  0  0  0
 14 16  1  0  0  0  0
 14 17  1  0  0  0  0
 18 19  2  0  0  0  0
 18 34  1  0  0  0  0
 19 35  1  0  0  0  0
 20 21  2  0  0  0  0
 20 22  1  0  0  0  0
 22 23  1  0  0  0  0
 23 36  1  0  0  0  0
 23 37  1  0  0  0  0
 23 38  1  0  0  0  0
M  END
> <s_m_source_file>
AV-unprocessed.smi

> <i_m_source_file_index>
2307

> <i_lp_mmshare_version>
43012

> <i_f3d_flags>
0

> <s_epik_input>
W0NIM11jMW5bY0hdbihjKD1PKWMxW0NIM10pW0NIMl1bQ0BIXShbT0hdKWMyW2NIXVtjSF1jKE9DKEYpKEYpRilbY0hdW2NIXTI=

> <s_epik_cmdline>
J2VwaWtfcHl0aG9uJywgJy1waCcsICc3LjAnLCAnLXRuJywgJzgnLCAnLW1hJywgJzIwMCcsICctbWV0YWxfYmluZGluZycsICctaW1hZScsICc8aW5maWxlLm1hZT4nLCAnLW9tYWUnLCAnPG91dGZpbGUubWFlPic=

> <r_lp_tautomer_probability>
1

> <r_epik_Ionization_Penalty>
5.07003e-05

> <r_epik_Ionization_Penalty_Charging>
7.56727e-08

> <r_epik_Ionization_Penalty_Neutral>
5.06246e-05

> <r_epik_State_Penalty>
-0

> <r_epik_Charging_Adjusted_Penalty>
7.56727e-08

> <i_epik_Tot_Q>
0

> <i_epik_Tot_abs_Q>
0

> <r_epik_Metal_State_Penalty>
-0

> <b_epik_Metal_Only>
0

> <s_lp_Force_Field>
OPLS_2005

> <r_lp_Energy>
16.6377

> <b_lp_Chiralities_Consistent>
1

> <s_lp_Variant>
AV-unprocessed.smi:2307-1

> <Gold.Version>
5.8.1

> <Gold.Id.Protein>
6NUR|6NUR_protein|mol2

> <Gold.PLP.Fitness>
46.6519

> <Gold.PLP.PLP>
-39.3171

> <Gold.PLP.part.hbond>
-2.0000

> <Gold.PLP.part.metal>
0.0000

> <Gold.PLP.part.buried>
-7.0732

> <Gold.PLP.part.nonpolar>
-30.3143

> <Gold.PLP.part.repulsive>
0.1732

> <Gold.PLP.ligand.clash>
0.0000

> <Gold.PLP.ligand.torsion>
0.7677

> <Gold.PLP.Chemscore.Hbond>
1.9280

> <Gold.PLP.Chemscore.CHOScore>
1.0000

> <Gold.PLP.Chemscore.Metal>
0.0000

> <Gold.Chemscore.Hbonds>
donor molecule, donor type, donor heavy atom, donor atom, acceptor molecule, acceptor atom, score
      P1  H  7989  7998       L1     8  1.00
      P1  H  7997  8010       L1    21  0.93
      L1  C     4    27       P1  8028  1.00

> <Gold.PLP.Chemscore.Internal.Correction>
0.0862

> <Gold.Rescore>
     Score         DG    S(hbond)    S(metal)    S(lipo)     H(rot)  DE(clash)    DE(int)     intcor
     13.17     -14.52       1.83        0.00      83.74       2.69       0.43       0.92       ----

> <Gold.Chemscore.Fitness>
13.1690

> <Gold.Chemscore.DG>
-14.5185

> <Gold.Chemscore.ZeroCoef>
-5.4800

> <Gold.Chemscore.Hbond>
1.8310

> <Gold.Chemscore.Metal>
0.0000

> <Gold.Chemscore.Lipo>
83.7431

> <Gold.Chemscore.Internal_Hbond>
0.0000

> <Gold.Chemscore.DEClash>
0.4281

> <Gold.Chemscore.DEInternal>
0.9213

> <Gold.Chemscore.Rot>
2.6856

> <Gold.Chemscore.Internal.Correction>
   9.000000E+99

> <Gold.Chemscore.Hbonds>
donor molecule, donor type, donor heavy atom, donor atom, acceptor molecule, acceptor atom, score
      P1  H  7989  7998       L1     8  0.90
      P1  H  7997  8010       L1    21  0.83

> <Gold.Chemscore.Hbond.Weighted>
-6.1156

> <Gold.Chemscore.Metal.Weighted>
-0.0000

> <Gold.Chemscore.Lipo.Weighted>
-9.7979

> <Gold.Chemscore.Internal_Hbond.Weighted>
0.0000

> <Gold.Chemscore.DEClash.Weighted>
0.4281

> <Gold.Chemscore.DEInternal.Weighted>
0.9213

> <Gold.Chemscore.Rot.Weighted>
6.8751

> <Gold.Chemscore.Internal.Correction.Weighted>
   9.000000E+99

> <Gold.Protein.RotatedTorsions>
[ 6907 6896 6895 6894 ] final -136.17 input  -60.11 | X-H torsion
[ 7974 7965 7964 7962 ] final  -72.71 input  175.53 | X-H torsion
[ 8008 7997 7996 7995 ] final   47.88 input   59.86 | X-H torsion
[ 10167 10162 10161 10158 ] final  -82.57 input  -65.29 | X-H torsion
[ 10718 10713 10712 10709 ] final -156.86 input   66.30 | X-H torsion
[ 10763 10752 10751 10750 ] final   18.29 input  -60.55 | X-H torsion
[ 11005 11000 10999 10996 ] final  -31.28 input  -57.11 | X-H torsion

> <Gold.Protein.ActiveResidues>
 VAL166  LYS551  ARG553  GLY616  TRP617  ASP618  TYR619  PRO620  LYS621  CYS622 
 ASP623  PHE694  ASN695  SER759  ASP760  ASP761  ALA762  ILE779  LEU786  VAL792 
 PHE793  MET794  SER795  GLU796  ALA797  LYS798  CYS799  TRP800  GLU811  SER814 

> <Gold.Protein.RotatedAtoms>
  151.0068  133.6003  159.2687 H   0  0  0  0  0  0  0  0  0  0  0  0  # atno 6907 bound_to 6896
  151.3170  135.0808  159.9302 H   0  0  0  0  0  0  0  0  0  0  0  0  # atno 6908 bound_to 6896
  152.5289  133.9722  159.7821 H   0  0  0  0  0  0  0  0  0  0  0  0  # atno 6909 bound_to 6896
  145.6615  140.9251  143.0931 H   0  0  0  0  0  0  0  0  0  0  0  0  # atno 7974 bound_to 7965
  155.3764  140.3426  155.4245 H   0  0  0  0  0  0  0  0  0  0  0  0  # atno 8008 bound_to 7997
  156.1634  140.1608  156.8606 H   0  0  0  0  0  0  0  0  0  0  0  0  # atno 8009 bound_to 7997
  154.5162  140.0778  156.8067 H   0  0  0  0  0  0  0  0  0  0  0  0  # atno 8010 bound_to 7997
  140.4308  143.2549  151.8762 H   0  0  0  0  0  0  0  0  0  0  0  0  # atno 10167 bound_to 10162
  156.5324  130.8526  151.2720 H   0  0  0  0  0  0  0  0  0  0  0  0  # atno 10718 bound_to 10713
  153.1262  135.6730  153.9253 H   0  0  0  0  0  0  0  0  0  0  0  0  # atno 10763 bound_to 10752
  153.8753  135.3064  155.3445 H   0  0  0  0  0  0  0  0  0  0  0  0  # atno 10764 bound_to 10752
  154.7667  135.4960  153.9648 H   0  0  0  0  0  0  0  0  0  0  0  0  # atno 10765 bound_to 10752
  140.9454  133.7253  156.1139 H   0  0  0  0  0  0  0  0  0  0  0  0  # atno 11005 bound_to 11000
  144.7087  139.8456  143.7421 LP  0  0  0  0  0  0  0  0  0  0  0  0  # atno 17320 bound_to 7965
  146.1121  139.4127  143.0281 LP  0  0  0  0  0  0  0  0  0  0  0  0  # atno 17321 bound_to 7965
  139.4785  144.5337  151.8630 LP  0  0  0  0  0  0  0  0  0  0  0  0  # atno 17342 bound_to 10162
  140.4429  144.1961  150.5892 LP  0  0  0  0  0  0  0  0  0  0  0  0  # atno 17343 bound_to 10162
  157.7419  130.9880  150.2481 LP  0  0  0  0  0  0  0  0  0  0  0  0  # atno 17370 bound_to 10713
  156.3048  130.3763  149.7717 LP  0  0  0  0  0  0  0  0  0  0  0  0  # atno 17371 bound_to 10713
  140.7676  134.3869  157.5514 LP  0  0  0  0  0  0  0  0  0  0  0  0  # atno 17394 bound_to 11000
  139.8832  134.9001  156.2782 LP  0  0  0  0  0  0  0  0  0  0  0  0  # atno 17395 bound_to 11000

$$$$
