AV-unprocessed.smi:1284|AV-procd|sdf|5363|dock9
  -GOLD-   22720 4503D 1   1.00000     0.00000
 Structure written by MMmdl.
 39 41  0  0  0  0  0  0  0  0  1 V2000
  151.1656  137.8196  157.5011 N   0  0  0  0  0  0  0  0  0  0  0  0
  151.9195  137.6489  156.4113 C   0  0  0  0  0  0  0  0  0  0  0  0
  152.4081  136.5604  156.1164 O   0  0  0  0  0  0  0  0  0  0  0  0
  152.1465  138.8709  155.5161 C   0  0  0  0  0  0  0  0  0  0  0  0
  150.8155  139.3603  155.0163 C   0  0  0  0  0  0  0  0  0  0  0  0
  150.0089  138.5784  154.2949 N   0  0  0  0  0  0  0  0  0  0  0  0
  148.9304  139.4024  154.0406 C   0  0  0  0  0  0  0  0  0  0  0  0
  147.7377  139.1588  153.3229 C   0  0  0  0  0  0  0  0  0  0  0  0
  146.7653  140.1715  153.1899 C   0  0  0  0  0  0  0  0  0  0  0  0
  146.9708  141.4394  153.7715 C   0  0  0  0  0  0  0  0  0  0  0  0
  148.1516  141.7020  154.4926 C   0  0  0  0  0  0  0  0  0  0  0  0
  149.1187  140.6873  154.6226 C   0  0  0  0  0  0  0  0  0  0  0  0
  150.3590  140.6191  155.2483 N   0  0  0  0  0  0  0  0  0  0  0  0
  150.9971  141.7002  155.9883 C   0  0  0  0  0  0  0  0  0  0  0  0
  151.4041  141.2845  157.4161 C   0  0  2  0  0  0  0  0  0  0  0  0
  150.4024  140.4679  157.9911 O   0  0  0  0  0  0  0  0  0  0  0  0
  151.7141  142.4998  158.2755 C   0  0  0  0  0  0  0  0  0  0  0  0
  151.5097  143.7992  157.7632 C   0  0  0  0  0  0  0  0  0  0  0  0
  151.7888  144.9277  158.5586 C   0  0  0  0  0  0  0  0  0  0  0  0
  152.2719  144.7634  159.8710 C   0  0  0  0  0  0  0  0  0  0  0  0
  152.4731  143.4697  160.3890 C   0  0  0  0  0  0  0  0  0  0  0  0
  152.1940  142.3411  159.5943 C   0  0  0  0  0  0  0  0  0  0  0  0
  150.9992  137.0418  158.1229 H   0  0  0  0  0  0  0  0  0  0  0  0
  150.7728  138.7276  157.7043 H   0  0  0  0  0  0  0  0  0  0  0  0
  152.6707  139.6564  156.0600 H   0  0  0  0  0  0  0  0  0  0  0  0
  152.7782  138.5995  154.6691 H   0  0  0  0  0  0  0  0  0  0  0  0
  147.5714  138.1913  152.8728 H   0  0  0  0  0  0  0  0  0  0  0  0
  145.8580  139.9748  152.6380 H   0  0  0  0  0  0  0  0  0  0  0  0
  146.2217  142.2101  153.6637 H   0  0  0  0  0  0  0  0  0  0  0  0
  148.3128  142.6718  154.9394 H   0  0  0  0  0  0  0  0  0  0  0  0
  151.8808  142.0114  155.4301 H   0  0  0  0  0  0  0  0  0  0  0  0
  150.3405  142.5686  156.0120 H   0  0  0  0  0  0  0  0  0  0  0  0
  152.3037  140.6706  157.3569 H   0  0  0  0  0  0  0  0  0  0  0  0
  149.9082  140.9893  158.6051 H   0  0  0  0  0  0  0  0  0  0  0  0
  151.1368  143.9361  156.7589 H   0  0  0  0  0  0  0  0  0  0  0  0
  151.6312  145.9199  158.1620 H   0  0  0  0  0  0  0  0  0  0  0  0
  152.4858  145.6292  160.4805 H   0  0  0  0  0  0  0  0  0  0  0  0
  152.8405  143.3422  161.3966 H   0  0  0  0  0  0  0  0  0  0  0  0
  152.3466  141.3519  160.0010 H   0  0  0  0  0  0  0  0  0  0  0  0
  1  2  1  0  0  0  0
  1 23  1  0  0  0  0
  1 24  1  0  0  0  0
  2  3  2  0  0  0  0
  2  4  1  0  0  0  0
  4  5  1  0  0  0  0
  4 25  1  0  0  0  0
  4 26  1  0  0  0  0
  5 13  1  0  0  0  0
  5  6  2  0  0  0  0
  6  7  1  0  0  0  0
  7 12  2  0  0  0  0
  7  8  1  0  0  0  0
  8  9  2  0  0  0  0
  8 27  1  0  0  0  0
  9 10  1  0  0  0  0
  9 28  1  0  0  0  0
 10 11  2  0  0  0  0
 10 29  1  0  0  0  0
 11 12  1  0  0  0  0
 11 30  1  0  0  0  0
 12 13  1  0  0  0  0
 13 14  1  0  0  0  0
 14 15  1  0  0  0  0
 14 31  1  0  0  0  0
 14 32  1  0  0  0  0
 15 16  1  0  0  0  0
 15 17  1  0  0  0  0
 15 33  1  0  0  0  0
 16 34  1  0  0  0  0
 17 22  1  0  0  0  0
 17 18  2  0  0  0  0
 18 19  1  0  0  0  0
 18 35  1  0  0  0  0
 19 20  2  0  0  0  0
 19 36  1  0  0  0  0
 20 21  1  0  0  0  0
 20 37  1  0  0  0  0
 21 22  2  0  0  0  0
 21 38  1  0  0  0  0
 22 39  1  0  0  0  0
M  END
> <s_m_source_file>
AV-unprocessed.smi

> <i_m_source_file_index>
1284

> <i_lp_mmshare_version>
43012

> <i_f3d_flags>
0

> <s_epik_input>
W2NIXTFbY0hdW2NIXVtjSF1jKGMxMiluKGMobjIpW0NIMl1DKD1PKVtOSDJdKVtDSDJdW0NASF0oW09IXSljM1tjSF1bY0hdW2NIXVtjSF1bY0hdMw==

> <s_epik_cmdline>
J2VwaWtfcHl0aG9uJywgJy1waCcsICc3LjAnLCAnLXRuJywgJzgnLCAnLW1hJywgJzIwMCcsICctbWV0YWxfYmluZGluZycsICctaW1hZScsICc8aW5maWxlLm1hZT4nLCAnLW9tYWUnLCAnPG91dGZpbGUubWFlPic=

> <r_epik_Ionization_Penalty>
0.0366899

> <r_epik_Ionization_Penalty_Charging>
0

> <r_epik_Ionization_Penalty_Neutral>
0.0366899

> <r_epik_State_Penalty>
0.0306642

> <r_epik_Charging_Adjusted_Penalty>
0.0306642

> <i_epik_Tot_Q>
0

> <i_epik_Tot_abs_Q>
0

> <r_epik_Metal_State_Penalty>
0.028853

> <b_epik_Metal_Only>
0

> <s_lp_Force_Field>
OPLS_2005

> <r_lp_Energy>
12.351

> <b_lp_Chiralities_Consistent>
1

> <s_lp_Variant>
AV-unprocessed.smi:1284-1

> <Gold.Version>
5.8.1

> <Gold.Id.Protein>
6NUR|6NUR_protein|mol2

> <Gold.PLP.Fitness>
50.3441

> <Gold.PLP.PLP>
-47.7143

> <Gold.PLP.part.hbond>
-1.0000

> <Gold.PLP.part.metal>
0.0000

> <Gold.PLP.part.buried>
-2.4835

> <Gold.PLP.part.nonpolar>
-44.5555

> <Gold.PLP.part.repulsive>
0.2427

> <Gold.PLP.ligand.clash>
0.0000

> <Gold.PLP.ligand.torsion>
0.2096

> <Gold.PLP.Chemscore.Hbond>
1.0000

> <Gold.PLP.Chemscore.CHOScore>
0.0000

> <Gold.PLP.Chemscore.Metal>
0.0000

> <Gold.Chemscore.Hbonds>
donor molecule, donor type, donor heavy atom, donor atom, acceptor molecule, acceptor atom, score
      P1  H 10752 10764       L1     3  1.00

> <Gold.PLP.Chemscore.Internal.Correction>
0.0489

> <Gold.Rescore>
     Score         DG    S(hbond)    S(metal)    S(lipo)     H(rot)  DE(clash)    DE(int)     intcor
     16.69     -17.00       1.00        0.00     132.62       2.86       0.07       0.23       ----

> <Gold.Chemscore.Fitness>
16.6932

> <Gold.Chemscore.DG>
-16.9985

> <Gold.Chemscore.ZeroCoef>
-5.4800

> <Gold.Chemscore.Hbond>
0.9954

> <Gold.Chemscore.Metal>
0.0000

> <Gold.Chemscore.Lipo>
132.6231

> <Gold.Chemscore.Internal_Hbond>
0.0000

> <Gold.Chemscore.DEClash>
0.0729

> <Gold.Chemscore.DEInternal>
0.2324

> <Gold.Chemscore.Rot>
2.8606

> <Gold.Chemscore.Internal.Correction>
   9.000000E+99

> <Gold.Chemscore.Hbonds>
donor molecule, donor type, donor heavy atom, donor atom, acceptor molecule, acceptor atom, score
      P1  H 10752 10764       L1     3  0.95

> <Gold.Chemscore.Hbond.Weighted>
-3.3247

> <Gold.Chemscore.Metal.Weighted>
-0.0000

> <Gold.Chemscore.Lipo.Weighted>
-15.5169

> <Gold.Chemscore.Internal_Hbond.Weighted>
0.0000

> <Gold.Chemscore.DEClash.Weighted>
0.0729

> <Gold.Chemscore.DEInternal.Weighted>
0.2324

> <Gold.Chemscore.Rot.Weighted>
7.3231

> <Gold.Chemscore.Internal.Correction.Weighted>
   9.000000E+99

> <Gold.Protein.RotatedTorsions>
[ 6907 6896 6895 6894 ] final -108.97 input  -60.11 | X-H torsion
[ 7974 7965 7964 7962 ] final -139.33 input  175.53 | X-H torsion
[ 8008 7997 7996 7995 ] final   36.83 input   59.86 | X-H torsion
[ 10167 10162 10161 10158 ] final  167.07 input  -65.29 | X-H torsion
[ 10718 10713 10712 10709 ] final  -10.63 input   66.30 | X-H torsion
[ 10763 10752 10751 10750 ] final  -37.74 input  -60.55 | X-H torsion
[ 11005 11000 10999 10996 ] final  -25.09 input  -57.11 | X-H torsion

> <Gold.Protein.ActiveResidues>
 VAL166  LYS551  ARG553  GLY616  TRP617  ASP618  TYR619  PRO620  LYS621  CYS622 
 ASP623  PHE694  ASN695  SER759  ASP760  ASP761  ALA762  ILE779  LEU786  VAL792 
 PHE793  MET794  SER795  GLU796  ALA797  LYS798  CYS799  TRP800  GLU811  SER814 

> <Gold.Protein.RotatedAtoms>
  150.7533  133.9599  159.3511 H   0  0  0  0  0  0  0  0  0  0  0  0  # atno 6907 bound_to 6896
  151.7524  135.0827  160.0342 H   0  0  0  0  0  0  0  0  0  0  0  0  # atno 6908 bound_to 6896
  152.3458  133.6083  159.5945 H   0  0  0  0  0  0  0  0  0  0  0  0  # atno 6909 bound_to 6896
  144.8686  140.6331  143.5282 H   0  0  0  0  0  0  0  0  0  0  0  0  # atno 7974 bound_to 7965
  155.1938  140.3310  155.4354 H   0  0  0  0  0  0  0  0  0  0  0  0  # atno 8008 bound_to 7997
  156.2432  140.1905  156.6979 H   0  0  0  0  0  0  0  0  0  0  0  0  # atno 8009 bound_to 7997
  154.6188  140.0598  156.9574 H   0  0  0  0  0  0  0  0  0  0  0  0  # atno 8010 bound_to 7997
  139.4937  144.3961  151.9463 H   0  0  0  0  0  0  0  0  0  0  0  0  # atno 10167 bound_to 10162
  156.6707  130.5008  149.6001 H   0  0  0  0  0  0  0  0  0  0  0  0  # atno 10718 bound_to 10713
  153.9012  135.6802  153.4755 H   0  0  0  0  0  0  0  0  0  0  0  0  # atno 10763 bound_to 10752
  153.1128  135.4775  154.9062 H   0  0  0  0  0  0  0  0  0  0  0  0  # atno 10764 bound_to 10752
  154.7574  135.3201  154.8398 H   0  0  0  0  0  0  0  0  0  0  0  0  # atno 10765 bound_to 10752
  140.8905  133.7591  156.0415 H   0  0  0  0  0  0  0  0  0  0  0  0  # atno 11005 bound_to 11000
  145.4174  139.1569  143.4092 LP  0  0  0  0  0  0  0  0  0  0  0  0  # atno 17320 bound_to 7965
  146.2914  140.4282  142.8738 LP  0  0  0  0  0  0  0  0  0  0  0  0  # atno 17321 bound_to 7965
  140.3399  144.3216  150.5969 LP  0  0  0  0  0  0  0  0  0  0  0  0  # atno 17342 bound_to 10162
  140.5575  143.2197  151.7823 LP  0  0  0  0  0  0  0  0  0  0  0  0  # atno 17343 bound_to 10162
  156.1941  130.6578  151.1094 LP  0  0  0  0  0  0  0  0  0  0  0  0  # atno 17370 bound_to 10713
  157.7078  131.0748  150.6607 LP  0  0  0  0  0  0  0  0  0  0  0  0  # atno 17371 bound_to 10713
  140.8352  134.3131  157.5334 LP  0  0  0  0  0  0  0  0  0  0  0  0  # atno 17394 bound_to 11000
  139.8729  134.9385  156.3717 LP  0  0  0  0  0  0  0  0  0  0  0  0  # atno 17395 bound_to 11000

$$$$
