#       Name:                AV-unprocessed.smi:382
#       Creating user name   scv26
#       Creation time:       Thu Mar 26 22:40:40 2020


#       File generated by GOLD software.
#

@<TRIPOS>MOLECULE
AV-unprocessed.smi:382
    43    44     1
SMALL
NO_CHARGES


@<TRIPOS>ATOM
      1 ****        -3.7660  -2.0655  -1.1798 C.3            1 S1                 0.0000
      2 ****        -4.1616  -0.5889  -1.0391 C.3            1 S1                 0.0000
      3 ****        -3.6319   0.3062  -2.1751 C.3            1 S1                 0.0000
      4 ****        -2.1765   0.2773  -2.2782 N.am           1 S1                 0.0000
      5 ****        -1.3299   0.9106  -1.4528 C.2            1 S1                 0.0000
      6 ****        -1.7041   1.6193  -0.5171 O.2            1 S1                 0.0000
      7 ****         0.1653   0.7128  -1.7437 C.3            1 S1                 0.0000
      8 ****         1.0243   0.9391  -0.5608 N.am           1 S1                 0.0000
      9 ****         1.5695   2.2309  -0.3464 C.2            1 S1                 0.0000
     10 ****         1.3578   3.1500  -1.1393 O.2            1 S1                 0.0000
     11 ****         2.3688   2.3823   0.8675 C.2            1 S1                 0.0000
     12 ****         2.9068   3.6747   1.1363 C.1            1 S1                 0.0000
     13 ****         3.3569   4.7141   1.3744 N.1            1 S1                 0.0000
     14 ****         2.5782   1.3389   1.6965 C.2            1 S1                 0.0000
     15 ****         2.0719   0.0817   1.4488 N.am           1 S1                 0.0000
     16 ****         2.1777  -0.9721   2.4183 C.3            1 S1                 0.0000
     17 ****         3.5489  -1.3780   2.9130 C.3            1 S1                 0.0000
     18 ****         2.7630  -2.3159   2.0295 C.3            1 S1                 0.0000
     19 ****         1.2320  -0.1377   0.3352 C.2            1 S1                 0.0000
     20 ****         0.6869  -1.2294   0.1514 O.2            1 S1                 0.0000
     21 ****        -4.2074  -2.6611  -0.3805 H              1 S1                 0.0000
     22 ****        -2.6849  -2.1970  -1.1278 H              1 S1                 0.0000
     23 ****        -4.1101  -2.4765  -2.1293 H              1 S1                 0.0000
     24 ****        -5.2491  -0.5154  -1.0124 H              1 S1                 0.0000
     25 ****        -3.8125  -0.2124  -0.0768 H              1 S1                 0.0000
     26 ****        -4.0453  -0.0252  -3.1281 H              1 S1                 0.0000
     27 ****        -3.9718   1.3336  -2.0347 H              1 S1                 0.0000
     28 ****        -1.7841  -0.2784  -3.0245 H              1 S1                 0.0000
     29 ****         0.3232  -0.2920  -2.1400 H              1 S1                 0.0000
     30 ****         0.4406   1.3683  -2.5708 H              1 S1                 0.0000
     31 ****         3.1702   1.4905   2.5875 H              1 S1                 0.0000
     32 ****         1.3808  -1.0011   3.1594 H              1 S1                 0.0000
     33 ****         4.4177  -0.8915   2.4734 H              1 S1                 0.0000
     34 ****         3.6453  -1.6408   3.9644 H              1 S1                 0.0000
     35 ****         2.3320  -3.2015   2.4917 H              1 S1                 0.0000
     36 ****         3.1170  -2.4492   1.0090 H              1 S1                 0.0000
     37 ****        -2.6810   1.7441  -0.3439 LP             1 S1                 0.0000
     38 ****        -1.0308   2.0697   0.0693 LP             1 S1                 0.0000
     39 ****         0.7935   2.9913  -1.9495 LP             1 S1                 0.0000
     40 ****         1.7501   4.0546  -0.9726 LP             1 S1                 0.0000
     41 ****         3.7458   5.6121   1.5801 LP             1 S1                 0.0000
     42 ****         0.0891  -1.3630  -0.6389 LP             1 S1                 0.0000
     43 ****         0.8432  -1.9805   0.7928 LP             1 S1                 0.0000
@<TRIPOS>BOND
    1    1    2 1     
    2    1   21 1     
    3    1   22 1     
    4    1   23 1     
    5    2    3 1     
    6    2   24 1     
    7    2   25 1     
    8    3    4 1     
    9    3   26 1     
   10    3   27 1     
   11    4    5 am    
   12    4   28 1     
   13    5    6 2     
   14    5    7 1     
   15    7    8 1     
   16    7   29 1     
   17    7   30 1     
   18    8   19 am    
   19    8    9 am    
   20    9   10 2     
   21    9   11 1     
   22   11   12 1     
   23   11   14 2     
   24   12   13 3     
   25   14   15 1     
   26   14   31 1     
   27   15   16 1     
   28   15   19 am    
   29   16   18 1     
   30   16   17 1     
   31   16   32 1     
   32   17   18 1     
   33   17   33 1     
   34   17   34 1     
   35   18   35 1     
   36   18   36 1     
   37   19   20 2     
   38    6   37 1     
   39    6   38 1     
   40   10   39 1     
   41   10   40 1     
   42   13   41 1     
   43   20   42 1     
   44   20   43 1     
@<TRIPOS>SUBSTRUCTURE
      1 S1             1
@<TRIPOS>SET
LONE_PAIRS      STATIC     ATOMS    <user>   **** ""
7 37 38 39 40 41 42 43
DONOR_HYDROGENS      STATIC     ATOMS    <user>   **** ""
1 28
ATOM$BLUE        STATIC     ATOMS    COLORGROUP SYSTEM
7 37 38 39 40 41 42 43
ATOM$RED        STATIC     ATOMS    COLORGROUP SYSTEM
1 28
