AV-unprocessed.smi:1194|AV-procd|sdf|4992|dock4
  -GOLD-   22720 3593D 1   1.00000     0.00000
 Structure written by MMmdl.
 48 49  0  0  0  0  0  0  0  0  2 V2000
  147.4101  135.0403  162.5739 C   0  0  0  0  0  0  0  0  0  0  0  0
  147.4135  135.8556  161.2761 C   0  0  0  0  0  0  0  0  0  0  0  0
  147.9306  135.0428  160.0735 C   0  0  0  0  0  0  0  0  0  0  0  0
  147.9499  135.8272  158.7480 C   0  0  0  0  0  0  0  0  0  0  0  0
  147.5619  136.9972  158.7574 O   0  0  0  0  0  0  0  0  0  0  0  0
  148.3706  135.2126  157.6082 N   0  0  0  0  0  0  0  0  0  0  0  0
  148.7652  133.7843  157.5571 C   0  0  0  0  0  0  0  0  0  0  0  0
  150.0377  133.5611  156.7260 C   0  0  0  0  0  0  0  0  0  0  0  0
  149.9070  134.1817  155.3347 C   0  0  0  0  0  0  0  0  0  0  0  0
  149.5727  135.6689  155.4780 C   0  0  0  0  0  0  0  0  0  0  0  0
  148.2867  135.9243  156.3021 C   0  0  1  0  0  0  0  0  0  0  0  0
  147.0175  135.5813  155.4858 C   0  0  0  0  0  0  0  0  0  0  0  0
  145.9418  135.4352  156.0660 O   0  0  0  0  0  0  0  0  0  0  0  0
  147.1483  135.3939  154.1622 N   0  0  0  0  0  0  0  0  0  0  0  0
  146.1033  134.9184  153.2632 C   0  0  0  0  0  0  0  0  0  0  0  0
  146.4817  133.5849  152.5872 C   0  0  0  0  0  0  0  0  0  0  0  0
  145.5533  133.2028  151.4451 C   0  0  0  0  0  0  0  0  0  0  0  0
  145.9309  132.2140  150.5101 C   0  0  0  0  0  0  0  0  0  0  0  0
  145.0348  131.8574  149.4807 C   0  0  0  0  0  0  0  0  0  0  0  0
  143.7816  132.4994  149.4082 C   0  0  0  0  0  0  0  0  0  0  0  0
  143.4562  133.4429  150.3184 N   0  3  0  0  0  0  0  0  0  0  0  0
  144.2856  133.8124  151.3183 C   0  0  0  0  0  0  0  0  0  0  0  0
  147.0396  135.6377  163.4072 H   0  0  0  0  0  0  0  0  0  0  0  0
  148.4146  134.7012  162.8286 H   0  0  0  0  0  0  0  0  0  0  0  0
  146.7714  134.1611  162.4850 H   0  0  0  0  0  0  0  0  0  0  0  0
  146.4002  136.2073  161.0785 H   0  0  0  0  0  0  0  0  0  0  0  0
  148.0298  136.7443  161.4182 H   0  0  0  0  0  0  0  0  0  0  0  0
  148.9407  134.6912  160.2875 H   0  0  0  0  0  0  0  0  0  0  0  0
  147.2954  134.1644  159.9531 H   0  0  0  0  0  0  0  0  0  0  0  0
  148.9532  133.3479  158.5357 H   0  0  0  0  0  0  0  0  0  0  0  0
  147.9472  133.2033  157.1317 H   0  0  0  0  0  0  0  0  0  0  0  0
  150.8921  133.9996  157.2437 H   0  0  0  0  0  0  0  0  0  0  0  0
  150.2437  132.4939  156.6393 H   0  0  0  0  0  0  0  0  0  0  0  0
  150.8372  134.0576  154.7797 H   0  0  0  0  0  0  0  0  0  0  0  0
  149.1311  133.6693  154.7645 H   0  0  0  0  0  0  0  0  0  0  0  0
  150.4081  136.1715  155.9674 H   0  0  0  0  0  0  0  0  0  0  0  0
  149.4994  136.1264  154.4905 H   0  0  0  0  0  0  0  0  0  0  0  0
  148.2491  137.0047  156.4486 H   0  0  0  0  0  0  0  0  0  0  0  0
  148.0624  135.5375  153.7579 H   0  0  0  0  0  0  0  0  0  0  0  0
  145.1494  134.8312  153.7858 H   0  0  0  0  0  0  0  0  0  0  0  0
  145.9675  135.6844  152.4993 H   0  0  0  0  0  0  0  0  0  0  0  0
  147.5011  133.6497  152.2039 H   0  0  0  0  0  0  0  0  0  0  0  0
  146.4887  132.7835  153.3268 H   0  0  0  0  0  0  0  0  0  0  0  0
  146.8927  131.7276  150.5851 H   0  0  0  0  0  0  0  0  0  0  0  0
  145.3038  131.1004  148.7586 H   0  0  0  0  0  0  0  0  0  0  0  0
  143.0344  132.2862  148.6578 H   0  0  0  0  0  0  0  0  0  0  0  0
  143.9060  134.5682  151.9907 H   0  0  0  0  0  0  0  0  0  0  0  0
  142.5418  133.8913  150.2522 H   0  0  0  0  0  0  0  0  0  0  0  0
  1  2  1  0  0  0  0
  1 23  1  0  0  0  0
  1 24  1  0  0  0  0
  1 25  1  0  0  0  0
  2  3  1  0  0  0  0
  2 26  1  0  0  0  0
  2 27  1  0  0  0  0
  3  4  1  0  0  0  0
  3 28  1  0  0  0  0
  3 29  1  0  0  0  0
  4  5  2  0  0  0  0
  4  6  1  0  0  0  0
  6 11  1  0  0  0  0
  6  7  1  0  0  0  0
  7  8  1  0  0  0  0
  7 30  1  0  0  0  0
  7 31  1  0  0  0  0
  8  9  1  0  0  0  0
  8 32  1  0  0  0  0
  8 33  1  0  0  0  0
  9 10  1  0  0  0  0
  9 34  1  0  0  0  0
  9 35  1  0  0  0  0
 10 11  1  0  0  0  0
 10 36  1  0  0  0  0
 10 37  1  0  0  0  0
 11 12  1  0  0  0  0
 11 38  1  0  0  0  0
 12 13  2  0  0  0  0
 12 14  1  0  0  0  0
 14 15  1  0  0  0  0
 14 39  1  0  0  0  0
 15 16  1  0  0  0  0
 15 40  1  0  0  0  0
 15 41  1  0  0  0  0
 16 17  1  0  0  0  0
 16 42  1  0  0  0  0
 16 43  1  0  0  0  0
 17 22  1  0  0  0  0
 17 18  2  0  0  0  0
 18 19  1  0  0  0  0
 18 44  1  0  0  0  0
 19 20  2  0  0  0  0
 19 45  1  0  0  0  0
 20 21  1  0  0  0  0
 20 46  1  0  0  0  0
 21 22  2  0  0  0  0
 21 48  1  0  0  0  0
 22 47  1  0  0  0  0
M  CHG  1  21   1
M  END
> <s_m_source_file>
AV-unprocessed.smi

> <i_m_source_file_index>
1194

> <i_lp_mmshare_version>
43012

> <i_f3d_flags>
0

> <s_epik_input>
W0NIM11bQ0gyXVtDSDJdQyg9TylOMVtDSDJdW0NIMl1bQ0gyXVtDSDJdW0NASF0xQyg9TylbTkhdW0NIMl1bQ0gyXWMyW2NIXVtjSF1bY0hdbltjSF0y

> <s_epik_cmdline>
J2VwaWtfcHl0aG9uJywgJy1waCcsICc3LjAnLCAnLXRuJywgJzgnLCAnLW1hJywgJzIwMCcsICctbWV0YWxfYmluZGluZycsICctaW1hZScsICc8aW5maWxlLm1hZT4nLCAnLW9tYWUnLCAnPG91dGZpbGUubWFlPic=

> <r_epik_Ionization_Penalty>
2.26523

> <r_epik_Ionization_Penalty_Charging>
2.26523

> <r_epik_Ionization_Penalty_Neutral>
5.33649e-08

> <r_epik_State_Penalty>
2.41338

> <r_epik_Charging_Adjusted_Penalty>
4.67861

> <i_epik_Tot_Q>
1

> <i_epik_Tot_abs_Q>
1

> <r_epik_Metal_State_Penalty>
2.42628

> <b_epik_Metal_Only>
0

> <s_lp_Force_Field>
OPLS_2005

> <r_lp_Energy>
32.0414

> <b_lp_Chiralities_Consistent>
1

> <s_lp_Variant>
AV-unprocessed.smi:1194-3

> <Gold.Version>
5.8.1

> <Gold.Id.Protein>
6NUR|6NUR_protein|mol2

> <Gold.PLP.Fitness>
41.6273

> <Gold.PLP.PLP>
-34.6666

> <Gold.PLP.part.hbond>
-2.0000

> <Gold.PLP.part.metal>
0.0000

> <Gold.PLP.part.buried>
-4.3598

> <Gold.PLP.part.nonpolar>
-28.1248

> <Gold.PLP.part.repulsive>
0.0301

> <Gold.PLP.ligand.clash>
0.0000

> <Gold.PLP.ligand.torsion>
0.7247

> <Gold.PLP.Chemscore.Hbond>
2.7680

> <Gold.PLP.Chemscore.CHOScore>
0.0000

> <Gold.PLP.Chemscore.Metal>
0.0000

> <Gold.Chemscore.Hbonds>
donor molecule, donor type, donor heavy atom, donor atom, acceptor molecule, acceptor atom, score
      L1  H    14    39       P1  7948  0.46
      L1  H    21    48       P1 10186  2.00

> <Gold.PLP.Chemscore.Internal.Correction>
0.1061

> <Gold.Rescore>
     Score         DG    S(hbond)    S(metal)    S(lipo)     H(rot)  DE(clash)    DE(int)     intcor
     17.81     -18.72       1.97        0.00      96.27       1.80       0.16       0.74       ----

> <Gold.Chemscore.Fitness>
17.8142

> <Gold.Chemscore.DG>
-18.7163

> <Gold.Chemscore.ZeroCoef>
-5.4800

> <Gold.Chemscore.Hbond>
1.9693

> <Gold.Chemscore.Metal>
0.0000

> <Gold.Chemscore.Lipo>
96.2658

> <Gold.Chemscore.Internal_Hbond>
0.0000

> <Gold.Chemscore.DEClash>
0.1573

> <Gold.Chemscore.DEInternal>
0.7448

> <Gold.Chemscore.Rot>
1.7985

> <Gold.Chemscore.Internal.Correction>
   9.000000E+99

> <Gold.Chemscore.Hbonds>
donor molecule, donor type, donor heavy atom, donor atom, acceptor molecule, acceptor atom, score
      L1  H    14    39       P1  7948  0.45
      L1  H    21    48       P1 10186  0.98

> <Gold.Chemscore.Hbond.Weighted>
-6.5773

> <Gold.Chemscore.Metal.Weighted>
-0.0000

> <Gold.Chemscore.Lipo.Weighted>
-11.2631

> <Gold.Chemscore.Internal_Hbond.Weighted>
0.0000

> <Gold.Chemscore.DEClash.Weighted>
0.1573

> <Gold.Chemscore.DEInternal.Weighted>
0.7448

> <Gold.Chemscore.Rot.Weighted>
4.6041

> <Gold.Chemscore.Internal.Correction.Weighted>
   9.000000E+99

> <Gold.Protein.RotatedTorsions>
[ 6907 6896 6895 6894 ] final -178.42 input  -60.11 | X-H torsion
[ 7974 7965 7964 7962 ] final  -48.23 input  175.53 | X-H torsion
[ 8008 7997 7996 7995 ] final   11.01 input   59.86 | X-H torsion
[ 10167 10162 10161 10158 ] final -134.15 input  -65.29 | X-H torsion
[ 10718 10713 10712 10709 ] final   91.33 input   66.30 | X-H torsion
[ 10763 10752 10751 10750 ] final  -69.65 input  -60.55 | X-H torsion
[ 11005 11000 10999 10996 ] final  -36.88 input  -57.11 | X-H torsion

> <Gold.Protein.ActiveResidues>
 VAL166  LYS551  ARG553  GLY616  TRP617  ASP618  TYR619  PRO620  LYS621  CYS622 
 ASP623  PHE694  ASN695  SER759  ASP760  ASP761  ALA762  ILE779  LEU786  VAL792 
 PHE793  MET794  SER795  GLU796  ALA797  LYS798  CYS799  TRP800  GLU811  SER814 

> <Gold.Protein.RotatedAtoms>
  151.6370  133.3328  159.3121 H   0  0  0  0  0  0  0  0  0  0  0  0  # atno 6907 bound_to 6896
  150.8027  134.7136  159.6627 H   0  0  0  0  0  0  0  0  0  0  0  0  # atno 6908 bound_to 6896
  152.4121  134.6111  160.0077 H   0  0  0  0  0  0  0  0  0  0  0  0  # atno 6909 bound_to 6896
  145.9533  140.7551  142.9494 H   0  0  0  0  0  0  0  0  0  0  0  0  # atno 7974 bound_to 7965
  154.8012  140.2852  155.5920 H   0  0  0  0  0  0  0  0  0  0  0  0  # atno 8008 bound_to 7997
  156.2977  140.2586  156.2810 H   0  0  0  0  0  0  0  0  0  0  0  0  # atno 8009 bound_to 7997
  154.9556  140.0378  157.2155 H   0  0  0  0  0  0  0  0  0  0  0  0  # atno 8010 bound_to 7997
  139.8910  143.6722  152.2612 H   0  0  0  0  0  0  0  0  0  0  0  0  # atno 10167 bound_to 10162
  157.6960  131.0403  150.3712 H   0  0  0  0  0  0  0  0  0  0  0  0  # atno 10718 bound_to 10713
  154.4064  135.6019  153.5927 H   0  0  0  0  0  0  0  0  0  0  0  0  # atno 10763 bound_to 10752
  152.9789  135.5919  154.4122 H   0  0  0  0  0  0  0  0  0  0  0  0  # atno 10764 bound_to 10752
  154.3928  135.2842  155.2122 H   0  0  0  0  0  0  0  0  0  0  0  0  # atno 10765 bound_to 10752
  140.9909  133.7006  156.1847 H   0  0  0  0  0  0  0  0  0  0  0  0  # atno 11005 bound_to 11000
  144.6800  140.2470  143.7336 LP  0  0  0  0  0  0  0  0  0  0  0  0  # atno 17320 bound_to 7965
  145.8141  139.2015  143.1976 LP  0  0  0  0  0  0  0  0  0  0  0  0  # atno 17321 bound_to 7965
  139.7110  144.7620  151.1113 LP  0  0  0  0  0  0  0  0  0  0  0  0  # atno 17342 bound_to 10162
  140.7726  143.5331  150.9400 LP  0  0  0  0  0  0  0  0  0  0  0  0  # atno 17343 bound_to 10162
  156.4137  130.3939  149.6873 LP  0  0  0  0  0  0  0  0  0  0  0  0  # atno 17370 bound_to 10713
  156.4149  130.7740  151.2755 LP  0  0  0  0  0  0  0  0  0  0  0  0  # atno 17371 bound_to 10713
  140.7042  134.4531  157.5585 LP  0  0  0  0  0  0  0  0  0  0  0  0  # atno 17394 bound_to 11000
  139.8992  134.8597  156.1971 LP  0  0  0  0  0  0  0  0  0  0  0  0  # atno 17395 bound_to 11000

$$$$
