#       Name:                AV-unprocessed.smi:1459
#       Creating user name   scv26
#       Creation time:       Fri Mar 27 06:00:54 2020


#       File generated by GOLD software.
#

@<TRIPOS>MOLECULE
AV-unprocessed.smi:1459
    41    42     1
SMALL
NO_CHARGES


@<TRIPOS>ATOM
      1 ****        -6.1923   2.4058   0.6885 C.3            1 S1                 0.0000
      2 ****        -4.7393   2.0773   0.6604 C.2            1 S1                 0.0000
      3 ****        -4.0428   0.9205   0.8707 C.2            1 S1                 0.0000
      4 ****        -2.6933   1.3222   0.6862 C.2            1 S1                 0.0000
      5 ****        -1.6324   0.3914   0.8242 N.am           1 S1                 0.0000
      6 ****        -0.3186   0.6155   0.6532 C.2            1 S1                 0.0000
      7 ****         0.1797   1.6948   0.3320 O.2            1 S1                 0.0000
      8 ****         0.3953  -0.4987   0.8728 N.am           1 S1                 0.0000
      9 ****         1.8462  -0.6180   0.7469 C.3            1 S1                 0.0000
     10 ****         2.3755  -1.4305   1.9387 C.3            1 S1                 0.0000
     11 ****         2.2017  -1.2624  -0.6092 C.3            1 S1                 0.0000
     12 ****         3.7027  -1.3865  -0.8793 C.3            1 S1                 0.0000
     13 ****         3.7442  -1.4212  -2.3891 C.3            1 S1                 0.0000
     14 ****         2.6593  -0.4123  -2.7482 C.3            1 S1                 0.0000
     15 ****         1.7066  -0.4729  -1.6906 O.3            1 S1                 0.0000
     16 ****        -2.5762   2.6078   0.3906 N.2            1 S1                 0.0000
     17 ****        -3.8871   3.0982   0.3724 O.3            1 S1                 0.0000
     18 ****        -6.7851   1.5281   0.9465 H              1 S1                 0.0000
     19 ****        -6.5260   2.7660  -0.2848 H              1 S1                 0.0000
     20 ****        -6.3984   3.1817   1.4259 H              1 S1                 0.0000
     21 ****        -4.4381  -0.0541   1.1160 H              1 S1                 0.0000
     22 ****        -1.9029  -0.5470   1.0777 H              1 S1                 0.0000
     23 ****        -0.1044  -1.3370   1.1299 H              1 S1                 0.0000
     24 ****         2.3041   0.3717   0.7941 H              1 S1                 0.0000
     25 ****         3.4634  -1.4964   1.9239 H              1 S1                 0.0000
     26 ****         1.9798  -2.4466   1.9348 H              1 S1                 0.0000
     27 ****         2.0933  -0.9666   2.8845 H              1 S1                 0.0000
     28 ****         1.7439  -2.2500  -0.6891 H              1 S1                 0.0000
     29 ****         4.2345  -0.5069  -0.5133 H              1 S1                 0.0000
     30 ****         4.1468  -2.2706  -0.4213 H              1 S1                 0.0000
     31 ****         4.7206  -1.1636  -2.8002 H              1 S1                 0.0000
     32 ****         3.4701  -2.4140  -2.7484 H              1 S1                 0.0000
     33 ****         3.0726   0.5965  -2.7824 H              1 S1                 0.0000
     34 ****         2.1982  -0.6229  -3.7134 H              1 S1                 0.0000
     35 ****        -0.4067   2.4900   0.1775 LP             1 S1                 0.0000
     36 ****         1.1707   1.7761   0.2256 LP             1 S1                 0.0000
     37 ****         1.5210   0.4534  -1.3626 LP             1 S1                 0.0000
     38 ****         0.8605  -0.8806  -2.0341 LP             1 S1                 0.0000
     39 ****        -1.7336   3.1179   0.2178 LP             1 S1                 0.0000
     40 ****        -3.9853   3.8214   1.0560 LP             1 S1                 0.0000
     41 ****        -4.0964   3.4656  -0.5339 LP             1 S1                 0.0000
@<TRIPOS>BOND
    1    1    2 1     
    2    1   18 1     
    3    1   19 1     
    4    1   20 1     
    5    2   17 1     
    6    2    3 2     
    7    3    4 1     
    8    3   21 1     
    9    4    5 1     
   10    4   16 2     
   11    5    6 am    
   12    5   22 1     
   13    6    7 2     
   14    6    8 am    
   15    8    9 1     
   16    8   23 1     
   17    9   10 1     
   18    9   11 1     
   19    9   24 1     
   20   10   25 1     
   21   10   26 1     
   22   10   27 1     
   23   11   15 1     
   24   11   12 1     
   25   11   28 1     
   26   12   13 1     
   27   12   29 1     
   28   12   30 1     
   29   13   14 1     
   30   13   31 1     
   31   13   32 1     
   32   14   15 1     
   33   14   33 1     
   34   14   34 1     
   35   16   17 1     
   36    7   35 1     
   37    7   36 1     
   38   15   37 1     
   39   15   38 1     
   40   16   39 1     
   41   17   40 1     
   42   17   41 1     
@<TRIPOS>SUBSTRUCTURE
      1 S1             1
@<TRIPOS>SET
LONE_PAIRS      STATIC     ATOMS    <user>   **** ""
7 35 36 37 38 39 40 41
DONOR_HYDROGENS      STATIC     ATOMS    <user>   **** ""
2 22 23
ATOM$BLUE        STATIC     ATOMS    COLORGROUP SYSTEM
7 35 36 37 38 39 40 41
ATOM$RED        STATIC     ATOMS    COLORGROUP SYSTEM
2 22 23
