AV-unprocessed.smi:670|AV-procd|sdf|3270|dock4
  -GOLD-   22720 0223D 1   1.00000     0.00000
 Structure written by MMmdl.
 45 46  0  0  0  0  0  0  0  0  1 V2000
  152.1812  145.2145  159.7470 C   0  0  0  0  0  0  0  0  0  0  0  0
  151.4474  144.1599  158.9039 C   0  0  1  0  0  0  0  0  0  0  0  0
  151.8621  144.2233  157.4196 C   0  0  0  0  0  0  0  0  0  0  0  0
  151.0986  143.1908  156.5752 C   0  0  0  0  0  0  0  0  0  0  0  0
  151.2692  141.7727  157.1388 C   0  0  0  0  0  0  0  0  0  0  0  0
  150.8519  141.7076  158.6166 C   0  0  0  0  0  0  0  0  0  0  0  0
  151.6269  142.7339  159.4723 C   0  0  1  0  0  0  0  0  0  0  0  0
  153.0161  142.4254  159.4783 O   0  0  0  0  0  0  0  0  0  0  0  0
  153.3420  141.1545  160.0212 C   0  0  0  0  0  0  0  0  0  0  0  0
  154.8530  141.1107  160.2889 C   0  0  0  0  0  0  0  0  0  0  0  0
  155.2556  139.8332  160.8669 N   0  0  0  0  0  0  0  0  0  0  0  0
  155.9548  138.8818  160.2307 C   0  0  0  0  0  0  0  0  0  0  0  0
  156.3074  138.9789  159.0542 O   0  0  0  0  0  0  0  0  0  0  0  0
  156.2890  137.6315  161.0575 C   0  0  0  0  0  0  0  0  0  0  0  0
  155.4446  137.4734  162.2507 N   0  0  0  0  0  0  0  0  0  0  0  0
  156.1393  137.5467  163.4486 N   0  0  0  0  0  0  0  0  0  0  0  0
  155.5074  137.4383  164.5682 C   0  0  0  0  0  0  0  0  0  0  0  0
  156.2331  137.5209  165.7312 O   0  0  0  0  0  0  0  0  0  0  0  0
  154.0755  137.2349  164.6031 C   0  0  0  0  0  0  0  0  0  0  0  0
  153.4086  137.1595  163.4307 C   0  0  0  0  0  0  0  0  0  0  0  0
  154.0940  137.2805  162.1427 C   0  0  0  0  0  0  0  0  0  0  0  0
  153.5105  137.2167  161.0611 O   0  0  0  0  0  0  0  0  0  0  0  0
  155.5977  137.6678  166.4146 H   0  0  0  0  0  0  0  0  0  0  0  0
  153.2604  145.0599  159.7289 H   0  0  0  0  0  0  0  0  0  0  0  0
  151.8569  145.1804  160.7873 H   0  0  0  0  0  0  0  0  0  0  0  0
  151.9848  146.2200  159.3736 H   0  0  0  0  0  0  0  0  0  0  0  0
  150.3842  144.3989  158.9553 H   0  0  0  0  0  0  0  0  0  0  0  0
  151.6785  145.2225  157.0234 H   0  0  0  0  0  0  0  0  0  0  0  0
  152.9346  144.0483  157.3257 H   0  0  0  0  0  0  0  0  0  0  0  0
  150.0392  143.4491  156.5529 H   0  0  0  0  0  0  0  0  0  0  0  0
  151.4467  143.2245  155.5426 H   0  0  0  0  0  0  0  0  0  0  0  0
  150.6779  141.0671  156.5548 H   0  0  0  0  0  0  0  0  0  0  0  0
  152.3097  141.4612  157.0379 H   0  0  0  0  0  0  0  0  0  0  0  0
  149.7833  141.9110  158.6954 H   0  0  0  0  0  0  0  0  0  0  0  0
  150.9890  140.6951  158.9942 H   0  0  0  0  0  0  0  0  0  0  0  0
  151.2448  142.7183  160.4947 H   0  0  0  0  0  0  0  0  0  0  0  0
  152.7944  141.0050  160.9524 H   0  0  0  0  0  0  0  0  0  0  0  0
  153.0581  140.3459  159.3481 H   0  0  0  0  0  0  0  0  0  0  0  0
  155.3995  141.2550  159.3567 H   0  0  0  0  0  0  0  0  0  0  0  0
  155.1442  141.9278  160.9508 H   0  0  0  0  0  0  0  0  0  0  0  0
  155.0051  139.6726  161.8319 H   0  0  0  0  0  0  0  0  0  0  0  0
  156.2077  136.7471  160.4227 H   0  0  0  0  0  0  0  0  0  0  0  0
  157.3400  137.6877  161.3464 H   0  0  0  0  0  0  0  0  0  0  0  0
  153.5601  137.1450  165.5480 H   0  0  0  0  0  0  0  0  0  0  0  0
  152.3394  137.0065  163.4419 H   0  0  0  0  0  0  0  0  0  0  0  0
  1  2  1  0  0  0  0
  1 24  1  0  0  0  0
  1 25  1  0  0  0  0
  1 26  1  0  0  0  0
  2  7  1  0  0  0  0
  2  3  1  0  0  0  0
  2 27  1  0  0  0  0
  3  4  1  0  0  0  0
  3 28  1  0  0  0  0
  3 29  1  0  0  0  0
  4  5  1  0  0  0  0
  4 30  1  0  0  0  0
  4 31  1  0  0  0  0
  5  6  1  0  0  0  0
  5 32  1  0  0  0  0
  5 33  1  0  0  0  0
  6  7  1  0  0  0  0
  6 34  1  0  0  0  0
  6 35  1  0  0  0  0
  7  8  1  0  0  0  0
  7 36  1  0  0  0  0
  8  9  1  0  0  0  0
  9 10  1  0  0  0  0
  9 37  1  0  0  0  0
  9 38  1  0  0  0  0
 10 11  1  0  0  0  0
 10 39  1  0  0  0  0
 10 40  1  0  0  0  0
 11 12  1  0  0  0  0
 11 41  1  0  0  0  0
 12 13  2  0  0  0  0
 12 14  1  0  0  0  0
 14 42  1  0  0  0  0
 14 43  1  0  0  0  0
 14 15  1  0  0  0  0
 15 16  1  0  0  0  0
 15 21  1  0  0  0  0
 16 17  2  0  0  0  0
 17 18  1  0  0  0  0
 17 19  1  0  0  0  0
 18 23  1  0  0  0  0
 19 44  1  0  0  0  0
 19 20  2  0  0  0  0
 20 45  1  0  0  0  0
 20 21  1  0  0  0  0
 21 22  2  0  0  0  0
M  END
> <s_m_source_file>
AV-unprocessed.smi

> <i_m_source_file_index>
670

> <i_lp_mmshare_version>
43012

> <i_f3d_flags>
0

> <s_epik_input>
W0NIM11bQ0BASF0xW0NIMl1bQ0gyXVtDSDJdW0NIMl1bQ0BIXTFPW0NIMl1bQ0gyXVtOSF1DKD1PKVtDSDJdbjJbbkhdYyg9TylbY0hdW2NIXWMyPU8=

> <s_epik_cmdline>
J2VwaWtfcHl0aG9uJywgJy1waCcsICc3LjAnLCAnLXRuJywgJzgnLCAnLW1hJywgJzIwMCcsICctbWV0YWxfYmluZGluZycsICctaW1hZScsICc8aW5maWxlLm1hZT4nLCAnLW9tYWUnLCAnPG91dGZpbGUubWFlPic=

> <r_lp_tautomer_probability>
0.9996

> <r_epik_Ionization_Penalty>
2.12726

> <r_epik_Ionization_Penalty_Charging>
3.83395e-08

> <r_epik_Ionization_Penalty_Neutral>
2.12726

> <r_epik_State_Penalty>
1.70432

> <r_epik_Charging_Adjusted_Penalty>
1.70432

> <i_epik_Tot_Q>
0

> <i_epik_Tot_abs_Q>
0

> <r_epik_Metal_State_Penalty>
1.70432

> <b_epik_Metal_Only>
0

> <s_lp_Force_Field>
OPLS_2005

> <r_lp_Energy>
19.8416

> <b_lp_Chiralities_Consistent>
1

> <s_lp_Variant>
AV-unprocessed.smi:670-6

> <Gold.Version>
5.8.1

> <Gold.Id.Protein>
6NUR|6NUR_protein|mol2

> <Gold.PLP.Fitness>
42.8868

> <Gold.PLP.PLP>
-40.6000

> <Gold.PLP.part.hbond>
-1.6283

> <Gold.PLP.part.metal>
0.0000

> <Gold.PLP.part.buried>
-3.7105

> <Gold.PLP.part.nonpolar>
-34.5875

> <Gold.PLP.part.repulsive>
0.0789

> <Gold.PLP.ligand.clash>
0.0000

> <Gold.PLP.ligand.torsion>
0.3877

> <Gold.PLP.Chemscore.Hbond>
1.0000

> <Gold.PLP.Chemscore.CHOScore>
0.0000

> <Gold.PLP.Chemscore.Metal>
0.0000

> <Gold.Chemscore.Hbonds>
donor molecule, donor type, donor heavy atom, donor atom, acceptor molecule, acceptor atom, score
      P1  H  7997  8009       L1    13  0.75

> <Gold.PLP.Chemscore.Internal.Correction>
0.0621

> <Gold.Rescore>
     Score         DG    S(hbond)    S(metal)    S(lipo)     H(rot)  DE(clash)    DE(int)     intcor
     13.00     -15.66       1.52        0.00     111.25       3.09       2.00       0.66       ----

> <Gold.Chemscore.Fitness>
13.0014

> <Gold.Chemscore.DG>
-15.6551

> <Gold.Chemscore.ZeroCoef>
-5.4800

> <Gold.Chemscore.Hbond>
1.5177

> <Gold.Chemscore.Metal>
0.0000

> <Gold.Chemscore.Lipo>
111.2544

> <Gold.Chemscore.Internal_Hbond>
0.0000

> <Gold.Chemscore.DEClash>
1.9973

> <Gold.Chemscore.DEInternal>
0.6564

> <Gold.Chemscore.Rot>
3.0901

> <Gold.Chemscore.Internal.Correction>
   9.000000E+99

> <Gold.Chemscore.Hbonds>
donor molecule, donor type, donor heavy atom, donor atom, acceptor molecule, acceptor atom, score
      P1  H  7997  8009       L1    13  0.75

> <Gold.Chemscore.Hbond.Weighted>
-5.0690

> <Gold.Chemscore.Metal.Weighted>
-0.0000

> <Gold.Chemscore.Lipo.Weighted>
-13.0168

> <Gold.Chemscore.Internal_Hbond.Weighted>
0.0000

> <Gold.Chemscore.DEClash.Weighted>
1.9973

> <Gold.Chemscore.DEInternal.Weighted>
0.6564

> <Gold.Chemscore.Rot.Weighted>
7.9106

> <Gold.Chemscore.Internal.Correction.Weighted>
   9.000000E+99

> <Gold.Protein.RotatedTorsions>
[ 6907 6896 6895 6894 ] final   17.36 input  -60.11 | X-H torsion
[ 7974 7965 7964 7962 ] final   80.96 input  175.53 | X-H torsion
[ 8008 7997 7996 7995 ] final   85.18 input   59.86 | X-H torsion
[ 10167 10162 10161 10158 ] final   41.31 input  -65.29 | X-H torsion
[ 10718 10713 10712 10709 ] final -101.86 input   66.30 | X-H torsion
[ 10763 10752 10751 10750 ] final  166.99 input  -60.55 | X-H torsion
[ 11005 11000 10999 10996 ] final -103.53 input  -57.11 | X-H torsion

> <Gold.Protein.ActiveResidues>
 VAL166  LYS551  ARG553  GLY616  TRP617  ASP618  TYR619  PRO620  LYS621  CYS622 
 ASP623  PHE694  ASN695  SER759  ASP760  ASP761  ALA762  ILE779  LEU786  VAL792 
 PHE793  MET794  SER795  GLU796  ALA797  LYS798  CYS799  TRP800  GLU811  SER814 

> <Gold.Protein.RotatedAtoms>
  151.8483  135.0566  160.0455 H   0  0  0  0  0  0  0  0  0  0  0  0  # atno 6907 bound_to 6896
  152.2756  133.5418  159.5474 H   0  0  0  0  0  0  0  0  0  0  0  0  # atno 6908 bound_to 6896
  150.7169  134.0553  159.3854 H   0  0  0  0  0  0  0  0  0  0  0  0  # atno 6909 bound_to 6896
  145.6444  139.2433  143.2012 H   0  0  0  0  0  0  0  0  0  0  0  0  # atno 7974 bound_to 7965
  155.9467  140.3404  155.6373 H   0  0  0  0  0  0  0  0  0  0  0  0  # atno 8008 bound_to 7997
  155.6971  140.0756  157.2443 H   0  0  0  0  0  0  0  0  0  0  0  0  # atno 8009 bound_to 7997
  154.4113  140.1646  156.2137 H   0  0  0  0  0  0  0  0  0  0  0  0  # atno 8010 bound_to 7997
  140.3656  144.2172  150.6135 H   0  0  0  0  0  0  0  0  0  0  0  0  # atno 10167 bound_to 10162
  156.0209  130.5393  150.7025 H   0  0  0  0  0  0  0  0  0  0  0  0  # atno 10718 bound_to 10713
  154.3473  135.2753  155.2391 H   0  0  0  0  0  0  0  0  0  0  0  0  # atno 10763 bound_to 10752
  154.4635  135.5901  153.6276 H   0  0  0  0  0  0  0  0  0  0  0  0  # atno 10764 bound_to 10752
  152.9852  135.6071  154.3680 H   0  0  0  0  0  0  0  0  0  0  0  0  # atno 10765 bound_to 10752
  141.1142  133.8648  157.1497 H   0  0  0  0  0  0  0  0  0  0  0  0  # atno 11005 bound_to 11000
  146.1254  140.7254  142.9437 LP  0  0  0  0  0  0  0  0  0  0  0  0  # atno 17320 bound_to 7965
  144.7145  140.4161  143.7055 LP  0  0  0  0  0  0  0  0  0  0  0  0  # atno 17321 bound_to 7965
  140.5084  143.2297  151.8573 LP  0  0  0  0  0  0  0  0  0  0  0  0  # atno 17342 bound_to 10162
  139.4809  144.4978  151.9100 LP  0  0  0  0  0  0  0  0  0  0  0  0  # atno 17343 bound_to 10162
  157.4682  131.0890  151.0672 LP  0  0  0  0  0  0  0  0  0  0  0  0  # atno 17370 bound_to 10713
  157.1140  130.6033  149.5489 LP  0  0  0  0  0  0  0  0  0  0  0  0  # atno 17371 bound_to 10713
  140.0053  135.0011  157.0279 LP  0  0  0  0  0  0  0  0  0  0  0  0  # atno 17394 bound_to 11000
  140.4693  134.1403  155.7201 LP  0  0  0  0  0  0  0  0  0  0  0  0  # atno 17395 bound_to 11000

$$$$
