AV-unprocessed.smi:2276|AV-procd|sdf|9175|dock7
  -GOLD-   2272012393D 1   1.00000     0.00000
 Structure written by MMmdl.
 53 54  0  0  0  0  0  0  0  0  2 V2000
  152.1710  145.6723  160.4041 C   0  0  0  0  0  0  0  0  0  0  0  0
  152.0941  144.2865  159.7983 C   0  0  0  0  0  0  0  0  0  0  0  0
  152.8434  143.2210  160.3328 C   0  0  0  0  0  0  0  0  0  0  0  0
  152.7290  141.9562  159.7233 C   0  0  0  0  0  0  0  0  0  0  0  0
  153.5028  140.7649  160.2477 C   0  0  0  0  0  0  0  0  0  0  0  0
  151.9385  141.7226  158.6538 N   0  0  0  0  0  0  0  0  0  0  0  0
  151.2119  142.7412  158.1309 C   0  0  0  0  0  0  0  0  0  0  0  0
  150.3512  142.6004  157.0102 N   0  0  0  0  0  0  0  0  0  0  0  0
  150.2138  141.5385  156.1966 C   0  0  0  0  0  0  0  0  0  0  0  0
  150.8308  140.4778  156.2975 O   0  0  0  0  0  0  0  0  0  0  0  0
  149.3116  141.7774  155.2336 N   0  0  0  0  0  0  0  0  0  0  0  0
  148.9307  140.8338  154.1859 C   0  0  0  0  0  0  0  0  0  0  0  0
  147.4249  140.4841  154.2023 C   0  0  1  0  0  0  0  0  0  0  0  0
  146.5905  141.7434  153.9132 C   0  0  0  0  0  0  0  0  0  0  0  0
  147.0825  139.3462  153.2120 C   0  0  0  0  0  0  0  0  0  0  0  0
  145.7128  138.8063  153.4057 N   0  3  0  0  0  0  0  0  0  0  0  0
  145.3904  138.5009  154.8225 C   0  0  0  0  0  0  0  0  0  0  0  0
  143.9288  138.0239  154.9549 C   0  0  0  0  0  0  0  0  0  0  0  0
  143.6481  136.8586  154.1144 N   0  0  0  0  0  0  0  0  0  0  0  0
  144.2736  135.6349  154.6037 C   0  0  0  0  0  0  0  0  0  0  0  0
  143.9809  137.1565  152.7204 C   0  0  0  0  0  0  0  0  0  0  0  0
  145.4438  137.6206  152.5574 C   0  0  0  0  0  0  0  0  0  0  0  0
  151.2692  144.0408  158.6821 C   0  0  0  0  0  0  0  0  0  0  0  0
  152.6839  145.6559  161.3663 H   0  0  0  0  0  0  0  0  0  0  0  0
  151.1698  146.0748  160.5598 H   0  0  0  0  0  0  0  0  0  0  0  0
  152.7127  146.3445  159.7385 H   0  0  0  0  0  0  0  0  0  0  0  0
  153.4876  143.3689  161.1873 H   0  0  0  0  0  0  0  0  0  0  0  0
  154.1372  141.0440  161.0893 H   0  0  0  0  0  0  0  0  0  0  0  0
  154.1390  140.3509  159.4649 H   0  0  0  0  0  0  0  0  0  0  0  0
  152.8172  139.9857  160.5818 H   0  0  0  0  0  0  0  0  0  0  0  0
  149.7751  143.4029  156.8044 H   0  0  0  0  0  0  0  0  0  0  0  0
  148.8460  142.6732  155.2302 H   0  0  0  0  0  0  0  0  0  0  0  0
  149.2134  141.2473  153.2163 H   0  0  0  0  0  0  0  0  0  0  0  0
  149.5247  139.9287  154.3169 H   0  0  0  0  0  0  0  0  0  0  0  0
  147.1791  140.1629  155.2138 H   0  0  0  0  0  0  0  0  0  0  0  0
  146.7768  142.1215  152.9074 H   0  0  0  0  0  0  0  0  0  0  0  0
  146.8296  142.5418  154.6165 H   0  0  0  0  0  0  0  0  0  0  0  0
  145.5222  141.5452  154.0019 H   0  0  0  0  0  0  0  0  0  0  0  0
  147.1838  139.7361  152.1980 H   0  0  0  0  0  0  0  0  0  0  0  0
  147.7929  138.5223  153.2884 H   0  0  0  0  0  0  0  0  0  0  0  0
  146.0822  137.7535  155.2126 H   0  0  0  0  0  0  0  0  0  0  0  0
  145.5222  139.3906  155.4370 H   0  0  0  0  0  0  0  0  0  0  0  0
  143.6972  137.7900  155.9947 H   0  0  0  0  0  0  0  0  0  0  0  0
  143.2555  138.8313  154.6637 H   0  0  0  0  0  0  0  0  0  0  0  0
  143.9778  134.7875  153.9845 H   0  0  0  0  0  0  0  0  0  0  0  0
  143.9483  135.4270  155.6235 H   0  0  0  0  0  0  0  0  0  0  0  0
  145.3615  135.6897  154.6022 H   0  0  0  0  0  0  0  0  0  0  0  0
  143.7883  136.2789  152.1019 H   0  0  0  0  0  0  0  0  0  0  0  0
  143.3093  137.9386  152.3631 H   0  0  0  0  0  0  0  0  0  0  0  0
  145.6170  137.8774  151.5117 H   0  0  0  0  0  0  0  0  0  0  0  0
  146.1427  136.8194  152.8005 H   0  0  0  0  0  0  0  0  0  0  0  0
  150.6860  144.8448  158.2562 H   0  0  0  0  0  0  0  0  0  0  0  0
  145.0704  139.5236  153.1008 H   0  0  0  0  0  0  0  0  0  0  0  0
  1  2  1  0  0  0  0
  1 24  1  0  0  0  0
  1 25  1  0  0  0  0
  1 26  1  0  0  0  0
  2 23  1  0  0  0  0
  2  3  2  0  0  0  0
  3  4  1  0  0  0  0
  3 27  1  0  0  0  0
  4  5  1  0  0  0  0
  4  6  2  0  0  0  0
  5 28  1  0  0  0  0
  5 29  1  0  0  0  0
  5 30  1  0  0  0  0
  6  7  1  0  0  0  0
  7  8  1  0  0  0  0
  7 23  2  0  0  0  0
  8  9  1  0  0  0  0
  8 31  1  0  0  0  0
  9 10  2  0  0  0  0
  9 11  1  0  0  0  0
 11 12  1  0  0  0  0
 11 32  1  0  0  0  0
 12 13  1  0  0  0  0
 12 33  1  0  0  0  0
 12 34  1  0  0  0  0
 13 14  1  0  0  0  0
 13 15  1  0  0  0  0
 13 35  1  0  0  0  0
 14 36  1  0  0  0  0
 14 37  1  0  0  0  0
 14 38  1  0  0  0  0
 15 16  1  0  0  0  0
 15 39  1  0  0  0  0
 15 40  1  0  0  0  0
 16 22  1  0  0  0  0
 16 17  1  0  0  0  0
 16 53  1  0  0  0  0
 17 18  1  0  0  0  0
 17 41  1  0  0  0  0
 17 42  1  0  0  0  0
 18 19  1  0  0  0  0
 18 43  1  0  0  0  0
 18 44  1  0  0  0  0
 19 20  1  0  0  0  0
 19 21  1  0  0  0  0
 20 45  1  0  0  0  0
 20 46  1  0  0  0  0
 20 47  1  0  0  0  0
 21 22  1  0  0  0  0
 21 48  1  0  0  0  0
 21 49  1  0  0  0  0
 22 50  1  0  0  0  0
 22 51  1  0  0  0  0
 23 52  1  0  0  0  0
M  CHG  1  16   1
M  END
> <s_m_source_file>
AV-unprocessed.smi

> <i_m_source_file_index>
2276

> <i_lp_mmshare_version>
43012

> <i_f3d_flags>
0

> <s_epik_input>
W0NIM11jMVtjSF1jKFtDSDNdKW5jKFtjSF0xKVtOSF1DKD1PKVtOSF1bQ0gyXVtDQEhdKFtDSDNdKVtDSDJdTjJbQ0gyXVtDSDJdTihbQ0gzXSlbQ0gyXVtDSDJdMg==

> <s_epik_cmdline>
J2VwaWtfcHl0aG9uJywgJy1waCcsICc3LjAnLCAnLXRuJywgJzgnLCAnLW1hJywgJzIwMCcsICctbWV0YWxfYmluZGluZycsICctaW1hZScsICc8aW5maWxlLm1hZT4nLCAnLW9tYWUnLCAnPG91dGZpbGUubWFlPic=

> <r_epik_Ionization_Penalty>
0.0485334

> <r_epik_Ionization_Penalty_Charging>
0.0462531

> <r_epik_Ionization_Penalty_Neutral>
0.00228028

> <r_epik_State_Penalty>
0.692588

> <r_epik_Charging_Adjusted_Penalty>
0.738841

> <i_epik_Tot_Q>
1

> <i_epik_Tot_abs_Q>
1

> <r_epik_Metal_State_Penalty>
0.692605

> <b_epik_Metal_Only>
0

> <s_lp_Force_Field>
OPLS_2005

> <r_lp_Energy>
21.6891

> <b_lp_Chiralities_Consistent>
1

> <s_lp_Variant>
AV-unprocessed.smi:2276-4

> <Gold.Version>
5.8.1

> <Gold.Id.Protein>
6NUR|6NUR_protein|mol2

> <Gold.PLP.Fitness>
56.5578

> <Gold.PLP.PLP>
-44.8984

> <Gold.PLP.part.hbond>
-3.0000

> <Gold.PLP.part.metal>
0.0000

> <Gold.PLP.part.buried>
-4.7174

> <Gold.PLP.part.nonpolar>
-38.1222

> <Gold.PLP.part.repulsive>
0.3229

> <Gold.PLP.ligand.clash>
0.0000

> <Gold.PLP.ligand.torsion>
0.1322

> <Gold.PLP.Chemscore.Hbond>
3.9440

> <Gold.PLP.Chemscore.CHOScore>
0.0000

> <Gold.PLP.Chemscore.Metal>
0.0000

> <Gold.Chemscore.Hbonds>
donor molecule, donor type, donor heavy atom, donor atom, acceptor molecule, acceptor atom, score
      L1  H     8    31       P1  8028  1.00
      L1  H    11    32       P1  8028  0.88
      L1  H    16    53       P1 10175  2.00

> <Gold.PLP.Chemscore.Internal.Correction>
0.0917

> <Gold.Rescore>
     Score         DG    S(hbond)    S(metal)    S(lipo)     H(rot)  DE(clash)    DE(int)     intcor
     22.09     -23.64       2.88        0.00     108.51       1.63       0.15       1.40       ----

> <Gold.Chemscore.Fitness>
22.0894

> <Gold.Chemscore.DG>
-23.6366

> <Gold.Chemscore.ZeroCoef>
-5.4800

> <Gold.Chemscore.Hbond>
2.8829

> <Gold.Chemscore.Metal>
0.0000

> <Gold.Chemscore.Lipo>
108.5109

> <Gold.Chemscore.Internal_Hbond>
0.0000

> <Gold.Chemscore.DEClash>
0.1499

> <Gold.Chemscore.DEInternal>
1.3973

> <Gold.Chemscore.Rot>
1.6282

> <Gold.Chemscore.Internal.Correction>
   9.000000E+99

> <Gold.Chemscore.Hbonds>
donor molecule, donor type, donor heavy atom, donor atom, acceptor molecule, acceptor atom, score
      L1  H     8    31       P1  8028  0.98
      L1  H    11    32       P1  8028  0.81
      L1  H    16    53       P1 10175  1.00

> <Gold.Chemscore.Hbond.Weighted>
-9.6290

> <Gold.Chemscore.Metal.Weighted>
-0.0000

> <Gold.Chemscore.Lipo.Weighted>
-12.6958

> <Gold.Chemscore.Internal_Hbond.Weighted>
0.0000

> <Gold.Chemscore.DEClash.Weighted>
0.1499

> <Gold.Chemscore.DEInternal.Weighted>
1.3973

> <Gold.Chemscore.Rot.Weighted>
4.1682

> <Gold.Chemscore.Internal.Correction.Weighted>
   9.000000E+99

> <Gold.Protein.RotatedTorsions>
[ 6907 6896 6895 6894 ] final -168.99 input  -60.11 | X-H torsion
[ 7974 7965 7964 7962 ] final  -43.77 input  175.53 | X-H torsion
[ 8008 7997 7996 7995 ] final  138.40 input   59.86 | X-H torsion
[ 10167 10162 10161 10158 ] final  156.81 input  -65.29 | X-H torsion
[ 10718 10713 10712 10709 ] final   85.33 input   66.30 | X-H torsion
[ 10763 10752 10751 10750 ] final   12.68 input  -60.55 | X-H torsion
[ 11005 11000 10999 10996 ] final   81.39 input  -57.11 | X-H torsion

> <Gold.Protein.ActiveResidues>
 VAL166  LYS551  ARG553  GLY616  TRP617  ASP618  TYR619  PRO620  LYS621  CYS622 
 ASP623  PHE694  ASN695  SER759  ASP760  ASP761  ALA762  ILE779  LEU786  VAL792 
 PHE793  MET794  SER795  GLU796  ALA797  LYS798  CYS799  TRP800  GLU811  SER814 

> <Gold.Protein.RotatedAtoms>
  151.4844  133.3539  159.2843 H   0  0  0  0  0  0  0  0  0  0  0  0  # atno 6907 bound_to 6896
  150.8876  134.8277  159.7281 H   0  0  0  0  0  0  0  0  0  0  0  0  # atno 6908 bound_to 6896
  152.4802  134.4750  159.9699 H   0  0  0  0  0  0  0  0  0  0  0  0  # atno 6909 bound_to 6896
  145.9986  140.7100  142.9281 H   0  0  0  0  0  0  0  0  0  0  0  0  # atno 7974 bound_to 7965
  156.2997  140.2394  156.4068 H   0  0  0  0  0  0  0  0  0  0  0  0  # atno 8008 bound_to 7997
  154.8477  140.0425  157.1603 H   0  0  0  0  0  0  0  0  0  0  0  0  # atno 8009 bound_to 7997
  154.9033  140.2980  155.5309 H   0  0  0  0  0  0  0  0  0  0  0  0  # atno 8010 bound_to 7997
  139.4822  144.4974  151.8219 H   0  0  0  0  0  0  0  0  0  0  0  0  # atno 10167 bound_to 10162
  157.6913  131.0170  150.2806 H   0  0  0  0  0  0  0  0  0  0  0  0  # atno 10718 bound_to 10713
  153.1798  135.6826  153.8493 H   0  0  0  0  0  0  0  0  0  0  0  0  # atno 10763 bound_to 10752
  153.7829  135.3180  155.3369 H   0  0  0  0  0  0  0  0  0  0  0  0  # atno 10764 bound_to 10752
  154.8052  135.4753  154.0469 H   0  0  0  0  0  0  0  0  0  0  0  0  # atno 10765 bound_to 10752
  139.9100  134.7993  156.2035 H   0  0  0  0  0  0  0  0  0  0  0  0  # atno 11005 bound_to 11000
  144.6912  140.3194  143.7235 LP  0  0  0  0  0  0  0  0  0  0  0  0  # atno 17320 bound_to 7965
  145.7521  139.1797  143.2315 LP  0  0  0  0  0  0  0  0  0  0  0  0  # atno 17321 bound_to 7965
  140.4464  144.1915  150.5894 LP  0  0  0  0  0  0  0  0  0  0  0  0  # atno 17342 bound_to 10162
  140.4630  143.2441  151.9194 LP  0  0  0  0  0  0  0  0  0  0  0  0  # atno 17343 bound_to 10162
  156.3354  130.3807  149.7455 LP  0  0  0  0  0  0  0  0  0  0  0  0  # atno 17370 bound_to 10713
  156.4981  130.8116  151.3122 LP  0  0  0  0  0  0  0  0  0  0  0  0  # atno 17371 bound_to 10713
  141.0510  133.6889  156.1772 LP  0  0  0  0  0  0  0  0  0  0  0  0  # atno 17394 bound_to 11000
  140.6810  134.4767  157.5589 LP  0  0  0  0  0  0  0  0  0  0  0  0  # atno 17395 bound_to 11000

$$$$
