AV-unprocessed.smi:107|AV-procd|sdf|1026|dock6
  -GOLD-   2262018 23D 1   1.00000     0.00000
 Structure written by MMmdl.
 30 31  0  0  0  0  0  0  0  0  2 V2000
  151.3547  142.4980  158.2858 C   0  0  0  0  0  0  0  0  0  0  0  0
  151.1896  141.4506  157.1987 C   0  0  0  0  0  0  0  0  0  0  0  0
  150.3164  141.6012  156.1784 C   0  0  0  0  0  0  0  0  0  0  0  0
  150.1670  140.6435  155.1913 N   0  0  0  0  0  0  0  0  0  0  0  0
  149.1723  140.8499  154.0713 C   0  0  1  0  0  0  0  0  0  0  0  0
  148.1859  139.6821  153.9987 C   0  0  0  0  0  0  0  0  0  0  0  0
  146.8922  140.3975  153.6694 C   0  0  1  0  0  0  0  0  0  0  0  0
  145.7771  139.6446  154.1008 O   0  0  0  0  0  0  0  0  0  0  0  0
  147.0513  141.7089  154.4446 C   0  0  2  0  0  0  0  0  0  0  0  0
  146.2259  142.8848  153.8997 C   0  0  0  0  0  0  0  0  0  0  0  0
  144.8440  142.6345  154.0471 O   0  0  0  0  0  0  0  0  0  0  0  0
  148.4386  142.0140  154.3220 O   0  0  0  0  0  0  0  0  0  0  0  0
  150.9306  139.4481  155.2520 C   0  0  0  0  0  0  0  0  0  0  0  0
  150.7508  138.5954  154.3824 O   0  0  0  0  0  0  0  0  0  0  0  0
  151.8211  139.2914  156.2728 N   0  5  0  0  0  0  0  0  0  0  0  0
  151.9983  140.2267  157.2497 C   0  0  0  0  0  0  0  0  0  0  0  0
  152.8081  140.0729  158.1635 O   0  0  0  0  0  0  0  0  0  0  0  0
  150.6953  143.3500  158.1185 H   0  0  0  0  0  0  0  0  0  0  0  0
  152.3812  142.8647  158.3088 H   0  0  0  0  0  0  0  0  0  0  0  0
  151.1182  142.0742  159.2624 H   0  0  0  0  0  0  0  0  0  0  0  0
  149.7142  142.4959  156.1388 H   0  0  0  0  0  0  0  0  0  0  0  0
  149.7317  141.0073  153.1487 H   0  0  0  0  0  0  0  0  0  0  0  0
  148.4923  138.9497  153.2512 H   0  0  0  0  0  0  0  0  0  0  0  0
  148.1219  139.1923  154.9722 H   0  0  0  0  0  0  0  0  0  0  0  0
  146.8313  140.5858  152.5967 H   0  0  0  0  0  0  0  0  0  0  0  0
  145.0401  139.8635  153.5507 H   0  0  0  0  0  0  0  0  0  0  0  0
  146.8392  141.5514  155.5036 H   0  0  0  0  0  0  0  0  0  0  0  0
  146.4675  143.7948  154.4491 H   0  0  0  0  0  0  0  0  0  0  0  0
  146.4560  143.0717  152.8506 H   0  0  0  0  0  0  0  0  0  0  0  0
  144.6508  141.7888  153.6720 H   0  0  0  0  0  0  0  0  0  0  0  0
  1  2  1  0  0  0  0
  1 18  1  0  0  0  0
  1 19  1  0  0  0  0
  1 20  1  0  0  0  0
  2 16  1  0  0  0  0
  2  3  2  0  0  0  0
  3  4  1  0  0  0  0
  3 21  1  0  0  0  0
  4  5  1  0  0  0  0
  4 13  1  0  0  0  0
  5 12  1  0  0  0  0
  5  6  1  0  0  0  0
  5 22  1  0  0  0  0
  6  7  1  0  0  0  0
  6 23  1  0  0  0  0
  6 24  1  0  0  0  0
  7  8  1  0  0  0  0
  7  9  1  0  0  0  0
  7 25  1  0  0  0  0
  8 26  1  0  0  0  0
  9 10  1  0  0  0  0
  9 12  1  0  0  0  0
  9 27  1  0  0  0  0
 10 11  1  0  0  0  0
 10 28  1  0  0  0  0
 10 29  1  0  0  0  0
 11 30  1  0  0  0  0
 13 14  2  0  0  0  0
 13 15  1  0  0  0  0
 15 16  1  0  0  0  0
 16 17  2  0  0  0  0
M  CHG  1  15  -1
M  END
> <s_m_source_file>
AV-unprocessed.smi

> <i_m_source_file_index>
107

> <i_lp_mmshare_version>
43012

> <i_f3d_flags>
0

> <s_epik_input>
Tz1jMVtuSF1jKD1PKW4oW2NIXWMxW0NIM10pW0NAQEhdMltDSDJdW0NAQEhdKFtPSF0pW0NASF0oTzIpW0NIMl1bT0hd

> <s_epik_cmdline>
J2VwaWtfcHl0aG9uJywgJy1waCcsICc3LjAnLCAnLXRuJywgJzgnLCAnLW1hJywgJzIwMCcsICctbWV0YWxfYmluZGluZycsICctaW1hZScsICc8aW5maWxlLm1hZT4nLCAnLW9tYWUnLCAnPG91dGZpbGUubWFlPic=

> <r_lp_tautomer_probability>
0.999537

> <r_epik_Ionization_Penalty>
3.66603

> <r_epik_Ionization_Penalty_Charging>
1.09773e-07

> <r_epik_Ionization_Penalty_Neutral>
3.66603

> <r_epik_State_Penalty>
3.66562

> <r_epik_Charging_Adjusted_Penalty>
3.66562

> <i_epik_Tot_Q>
-1

> <i_epik_Tot_abs_Q>
1

> <r_epik_Metal_State_Penalty>
0.234536

> <b_epik_Metal_Only>
1

> <s_epik_Chemistry_Notes>
This compound contains an acetal/aminal-like group ( X-CH(R)-Y where X, Y are N, S, or O) that may be acid/base labile, releasing an aldehyde.

> <s_lp_Force_Field>
OPLS_2005

> <r_lp_Energy>
34.2111

> <b_lp_Chiralities_Consistent>
1

> <s_lp_Variant>
AV-unprocessed.smi:107-14

> <Gold.Version>
5.8.1

> <Gold.Id.Protein>
6NUR|6NUR_protein|mol2

> <Gold.PLP.Fitness>
39.8432

> <Gold.PLP.PLP>
-28.4740

> <Gold.PLP.part.hbond>
-4.2492

> <Gold.PLP.part.metal>
0.0000

> <Gold.PLP.part.buried>
-1.8747

> <Gold.PLP.part.nonpolar>
-24.3414

> <Gold.PLP.part.repulsive>
1.2468

> <Gold.PLP.ligand.clash>
0.0000

> <Gold.PLP.ligand.torsion>
0.0734

> <Gold.PLP.Chemscore.Hbond>
2.8358

> <Gold.PLP.Chemscore.CHOScore>
1.0000

> <Gold.PLP.Chemscore.Metal>
0.0000

> <Gold.Chemscore.Hbonds>
donor molecule, donor type, donor heavy atom, donor atom, acceptor molecule, acceptor atom, score
      L1  H     8    26       P1 10175  1.00
      L1  H    11    30       P1 10175  0.45
      P1  H  7997  8009       L1    17  0.76
      L1  C     3    21       P1  8028  1.00

> <Gold.PLP.Chemscore.Internal.Correction>
0.0085

> <Gold.Rescore>
     Score         DG    S(hbond)    S(metal)    S(lipo)     H(rot)  DE(clash)    DE(int)     intcor
      8.99     -10.67       2.13        0.00      42.44       2.69       0.09       1.59       ----

> <Gold.Chemscore.Fitness>
8.9924

> <Gold.Chemscore.DG>
-10.6741

> <Gold.Chemscore.ZeroCoef>
-5.4800

> <Gold.Chemscore.Hbond>
2.1281

> <Gold.Chemscore.Metal>
0.0000

> <Gold.Chemscore.Lipo>
42.4384

> <Gold.Chemscore.Internal_Hbond>
0.0000

> <Gold.Chemscore.DEClash>
0.0924

> <Gold.Chemscore.DEInternal>
1.5893

> <Gold.Chemscore.Rot>
2.6871

> <Gold.Chemscore.Internal.Correction>
   9.000000E+99

> <Gold.Chemscore.Hbonds>
donor molecule, donor type, donor heavy atom, donor atom, acceptor molecule, acceptor atom, score
      L1  H     8    26       P1 10175  1.00
      L1  H    11    30       P1 10175  0.02
      P1  H  7997  8009       L1    17  0.16

> <Gold.Chemscore.Hbond.Weighted>
-7.1079

> <Gold.Chemscore.Metal.Weighted>
-0.0000

> <Gold.Chemscore.Lipo.Weighted>
-4.9653

> <Gold.Chemscore.Internal_Hbond.Weighted>
0.0000

> <Gold.Chemscore.DEClash.Weighted>
0.0924

> <Gold.Chemscore.DEInternal.Weighted>
1.5893

> <Gold.Chemscore.Rot.Weighted>
6.8791

> <Gold.Chemscore.Internal.Correction.Weighted>
   9.000000E+99

> <Gold.Protein.RotatedTorsions>
[ 6907 6896 6895 6894 ] final  -25.07 input  -60.11 | X-H torsion
[ 7974 7965 7964 7962 ] final   61.96 input  175.53 | X-H torsion
[ 8008 7997 7996 7995 ] final  153.19 input   59.86 | X-H torsion
[ 10167 10162 10161 10158 ] final -131.51 input  -65.29 | X-H torsion
[ 10718 10713 10712 10709 ] final -165.48 input   66.30 | X-H torsion
[ 10763 10752 10751 10750 ] final -122.17 input  -60.55 | X-H torsion
[ 11005 11000 10999 10996 ] final  112.54 input  -57.11 | X-H torsion

> <Gold.Protein.ActiveResidues>
 VAL166  LYS551  ARG553  GLY616  TRP617  ASP618  TYR619  PRO620  LYS621  CYS622 
 ASP623  PHE694  ASN695  SER759  ASP760  ASP761  ALA762  ILE779  LEU786  VAL792 
 PHE793  MET794  SER795  GLU796  ALA797  LYS798  CYS799  TRP800  GLU811  SER814 

> <Gold.Protein.RotatedAtoms>
  151.1804  135.0358  159.8789 H   0  0  0  0  0  0  0  0  0  0  0  0  # atno 6907 bound_to 6896
  152.5445  134.1069  159.8352 H   0  0  0  0  0  0  0  0  0  0  0  0  # atno 6908 bound_to 6896
  151.1185  133.5074  159.2635 H   0  0  0  0  0  0  0  0  0  0  0  0  # atno 6909 bound_to 6896
  145.8788  139.3428  143.0718 H   0  0  0  0  0  0  0  0  0  0  0  0  # atno 7974 bound_to 7965
  156.2593  140.2000  156.6451 H   0  0  0  0  0  0  0  0  0  0  0  0  # atno 8008 bound_to 7997
  154.6579  140.0564  157.0054 H   0  0  0  0  0  0  0  0  0  0  0  0  # atno 8009 bound_to 7997
  155.1319  140.3234  155.4475 H   0  0  0  0  0  0  0  0  0  0  0  0  # atno 8010 bound_to 7997
  139.9181  143.6414  152.2560 H   0  0  0  0  0  0  0  0  0  0  0  0  # atno 10167 bound_to 10162
  156.6541  130.9019  151.3018 H   0  0  0  0  0  0  0  0  0  0  0  0  # atno 10718 bound_to 10713
  154.8684  135.4142  154.2739 H   0  0  0  0  0  0  0  0  0  0  0  0  # atno 10763 bound_to 10752
  153.3644  135.7005  153.6692 H   0  0  0  0  0  0  0  0  0  0  0  0  # atno 10764 bound_to 10752
  153.5580  135.3615  155.2759 H   0  0  0  0  0  0  0  0  0  0  0  0  # atno 10765 bound_to 10752
  139.8930  134.9532  156.6601 H   0  0  0  0  0  0  0  0  0  0  0  0  # atno 11005 bound_to 11000
  145.9049  140.9219  143.0484 LP  0  0  0  0  0  0  0  0  0  0  0  0  # atno 17320 bound_to 7965
  144.6727  140.1082  143.7457 LP  0  0  0  0  0  0  0  0  0  0  0  0  # atno 17321 bound_to 7965
  139.6885  144.7649  151.1481 LP  0  0  0  0  0  0  0  0  0  0  0  0  # atno 17342 bound_to 10162
  140.7669  143.5623  150.9085 LP  0  0  0  0  0  0  0  0  0  0  0  0  # atno 17343 bound_to 10162
  157.7131  130.9464  150.1159 LP  0  0  0  0  0  0  0  0  0  0  0  0  # atno 17370 bound_to 10713
  156.2061  130.3663  149.8727 LP  0  0  0  0  0  0  0  0  0  0  0  0  # atno 17371 bound_to 10713
  140.7453  133.8943  155.8307 LP  0  0  0  0  0  0  0  0  0  0  0  0  # atno 17394 bound_to 11000
  141.0044  134.1106  157.4285 LP  0  0  0  0  0  0  0  0  0  0  0  0  # atno 17395 bound_to 11000

$$$$
