AV-unprocessed.smi:2435|AV-procd|sdf|9592|dock9
  -GOLD-   2272013223D 1   1.00000     0.00000
 Structure written by MMmdl.
 44 45  0  0  0  0  0  0  0  0  1 V2000
  150.8073  130.2782  154.4812 C   0  0  0  0  0  0  0  0  0  0  0  0
  149.7891  131.1278  154.9817 O   0  0  0  0  0  0  0  0  0  0  0  0
  150.2349  132.3531  155.3319 C   0  0  0  0  0  0  0  0  0  0  0  0
  149.9336  133.6043  154.8692 C   0  0  0  0  0  0  0  0  0  0  0  0
  149.0353  134.0086  153.8488 N   0  0  0  0  0  0  0  0  0  0  0  0
  147.8933  133.4050  153.4832 C   0  0  0  0  0  0  0  0  0  0  0  0
  147.4415  132.3796  153.9921 O   0  0  0  0  0  0  0  0  0  0  0  0
  147.2842  134.0754  152.4945 N   0  0  0  0  0  0  0  0  0  0  0  0
  146.0206  133.6979  151.8649 C   0  0  0  0  0  0  0  0  0  0  0  0
  146.1794  132.2809  151.2822 C   0  0  0  0  0  0  0  0  0  0  0  0
  144.9425  131.7273  150.5535 C   0  0  0  0  0  0  0  0  0  0  0  0
  144.7298  132.3679  149.1725 C   0  0  0  0  0  0  0  0  0  0  0  0
  143.9243  133.6786  149.1704 C   0  0  0  0  0  0  0  0  0  0  0  0
  144.1561  134.6313  150.3564 C   0  0  0  0  0  0  0  0  0  0  0  0
  145.6141  134.7673  150.8258 C   0  0  0  0  0  0  0  0  0  0  0  0
  150.7823  134.4810  155.6000 C   0  0  0  0  0  0  0  0  0  0  0  0
  150.9219  135.9726  155.4956 C   0  0  0  0  0  0  0  0  0  0  0  0
  151.5159  133.8132  156.4837 N   0  0  0  0  0  0  0  0  0  0  0  0
  151.1752  132.5104  156.3280 N   0  0  0  0  0  0  0  0  0  0  0  0
  151.8114  131.4978  157.1451 C   0  0  0  0  0  0  0  0  0  0  0  0
  150.3833  129.3045  154.2370 H   0  0  0  0  0  0  0  0  0  0  0  0
  151.5918  130.1277  155.2244 H   0  0  0  0  0  0  0  0  0  0  0  0
  151.2595  130.6837  153.5752 H   0  0  0  0  0  0  0  0  0  0  0  0
  149.2377  134.8958  153.4120 H   0  0  0  0  0  0  0  0  0  0  0  0
  147.7288  134.9123  152.1468 H   0  0  0  0  0  0  0  0  0  0  0  0
  145.2523  133.6527  152.6393 H   0  0  0  0  0  0  0  0  0  0  0  0
  147.0399  132.2476  150.6122 H   0  0  0  0  0  0  0  0  0  0  0  0
  146.4207  131.6016  152.1012 H   0  0  0  0  0  0  0  0  0  0  0  0
  145.1002  130.6583  150.4051 H   0  0  0  0  0  0  0  0  0  0  0  0
  144.0475  131.8123  151.1708 H   0  0  0  0  0  0  0  0  0  0  0  0
  145.6975  132.5337  148.6977 H   0  0  0  0  0  0  0  0  0  0  0  0
  144.2135  131.6566  148.5266 H   0  0  0  0  0  0  0  0  0  0  0  0
  144.1376  134.2062  148.2402 H   0  0  0  0  0  0  0  0  0  0  0  0
  142.8604  133.4417  149.1330 H   0  0  0  0  0  0  0  0  0  0  0  0
  143.7860  135.6157  150.0679 H   0  0  0  0  0  0  0  0  0  0  0  0
  143.5310  134.3291  151.1975 H   0  0  0  0  0  0  0  0  0  0  0  0
  145.7124  135.7504  151.2885 H   0  0  0  0  0  0  0  0  0  0  0  0
  146.2978  134.7711  149.9759 H   0  0  0  0  0  0  0  0  0  0  0  0
  150.0640  136.4178  154.9915 H   0  0  0  0  0  0  0  0  0  0  0  0
  151.8150  136.2416  154.9313 H   0  0  0  0  0  0  0  0  0  0  0  0
  150.9984  136.4328  156.4810 H   0  0  0  0  0  0  0  0  0  0  0  0
  151.1026  130.6983  157.3622 H   0  0  0  0  0  0  0  0  0  0  0  0
  152.1531  131.9288  158.0872 H   0  0  0  0  0  0  0  0  0  0  0  0
  152.6654  131.0815  156.6106 H   0  0  0  0  0  0  0  0  0  0  0  0
  1  2  1  0  0  0  0
  1 21  1  0  0  0  0
  1 22  1  0  0  0  0
  1 23  1  0  0  0  0
  2  3  1  0  0  0  0
  3 19  1  0  0  0  0
  3  4  2  0  0  0  0
  4  5  1  0  0  0  0
  4 16  1  0  0  0  0
  5  6  1  0  0  0  0
  5 24  1  0  0  0  0
  6  7  2  0  0  0  0
  6  8  1  0  0  0  0
  8  9  1  0  0  0  0
  8 25  1  0  0  0  0
  9 15  1  0  0  0  0
  9 10  1  0  0  0  0
  9 26  1  0  0  0  0
 10 11  1  0  0  0  0
 10 27  1  0  0  0  0
 10 28  1  0  0  0  0
 11 12  1  0  0  0  0
 11 29  1  0  0  0  0
 11 30  1  0  0  0  0
 12 13  1  0  0  0  0
 12 31  1  0  0  0  0
 12 32  1  0  0  0  0
 13 14  1  0  0  0  0
 13 33  1  0  0  0  0
 13 34  1  0  0  0  0
 14 15  1  0  0  0  0
 14 35  1  0  0  0  0
 14 36  1  0  0  0  0
 15 37  1  0  0  0  0
 15 38  1  0  0  0  0
 16 17  1  0  0  0  0
 16 18  2  0  0  0  0
 17 39  1  0  0  0  0
 17 40  1  0  0  0  0
 17 41  1  0  0  0  0
 18 19  1  0  0  0  0
 19 20  1  0  0  0  0
 20 42  1  0  0  0  0
 20 43  1  0  0  0  0
 20 44  1  0  0  0  0
M  END
> <s_m_source_file>
AV-unprocessed.smi

> <i_m_source_file_index>
2435

> <i_lp_mmshare_version>
43012

> <i_f3d_flags>
0

> <s_epik_input>
W0NIM11uMW5jKFtDSDNdKWMoYzFPW0NIM10pW05IXUMoPU8pW05IXVtDSF0yW0NIMl1bQ0gyXVtDSDJdW0NIMl1bQ0gyXVtDSDJdMg==

> <s_epik_cmdline>
J2VwaWtfcHl0aG9uJywgJy1waCcsICc3LjAnLCAnLXRuJywgJzgnLCAnLW1hJywgJzIwMCcsICctbWV0YWxfYmluZGluZycsICctaW1hZScsICc8aW5maWxlLm1hZT4nLCAnLW9tYWUnLCAnPG91dGZpbGUubWFlPic=

> <r_lp_tautomer_probability>
1

> <r_epik_Ionization_Penalty>
0.000417553

> <r_epik_Ionization_Penalty_Charging>
0

> <r_epik_Ionization_Penalty_Neutral>
0.000417553

> <r_epik_State_Penalty>
-0

> <r_epik_Charging_Adjusted_Penalty>
0

> <i_epik_Tot_Q>
0

> <i_epik_Tot_abs_Q>
0

> <r_epik_Metal_State_Penalty>
-0

> <b_epik_Metal_Only>
0

> <s_lp_Force_Field>
OPLS_2005

> <r_lp_Energy>
21.6667

> <b_lp_Chiralities_Consistent>
1

> <s_lp_Variant>
AV-unprocessed.smi:2435-1

> <Gold.Version>
5.8.1

> <Gold.Id.Protein>
6NUR|6NUR_protein|mol2

> <Gold.PLP.Fitness>
38.7988

> <Gold.PLP.PLP>
-33.6122

> <Gold.PLP.part.hbond>
-2.1211

> <Gold.PLP.part.metal>
0.0000

> <Gold.PLP.part.buried>
-1.5629

> <Gold.PLP.part.nonpolar>
-30.5918

> <Gold.PLP.part.repulsive>
0.0659

> <Gold.PLP.ligand.clash>
0.0000

> <Gold.PLP.ligand.torsion>
0.1907

> <Gold.PLP.Chemscore.Hbond>
1.8500

> <Gold.PLP.Chemscore.CHOScore>
0.0000

> <Gold.PLP.Chemscore.Metal>
0.0000

> <Gold.Chemscore.Hbonds>
donor molecule, donor type, donor heavy atom, donor atom, acceptor molecule, acceptor atom, score
      L1  H     5    24       P1  7948  0.69
      L1  H     8    25       P1  7948  1.00

> <Gold.PLP.Chemscore.Internal.Correction>
0.0181

> <Gold.Rescore>
     Score         DG    S(hbond)    S(metal)    S(lipo)     H(rot)  DE(clash)    DE(int)     intcor
     13.64     -16.17       1.18        0.00      84.12       1.21       0.95       1.58       ----

> <Gold.Chemscore.Fitness>
13.6378

> <Gold.Chemscore.DG>
-16.1717

> <Gold.Chemscore.ZeroCoef>
-5.4800

> <Gold.Chemscore.Hbond>
1.1831

> <Gold.Chemscore.Metal>
0.0000

> <Gold.Chemscore.Lipo>
84.1231

> <Gold.Chemscore.Internal_Hbond>
0.0000

> <Gold.Chemscore.DEClash>
0.9531

> <Gold.Chemscore.DEInternal>
1.5809

> <Gold.Chemscore.Rot>
1.2119

> <Gold.Chemscore.Internal.Correction>
   9.000000E+99

> <Gold.Chemscore.Hbonds>
donor molecule, donor type, donor heavy atom, donor atom, acceptor molecule, acceptor atom, score
      L1  H     5    24       P1  7948  0.07
      L1  H     8    25       P1  7948  0.82

> <Gold.Chemscore.Hbond.Weighted>
-3.9517

> <Gold.Chemscore.Metal.Weighted>
-0.0000

> <Gold.Chemscore.Lipo.Weighted>
-9.8424

> <Gold.Chemscore.Internal_Hbond.Weighted>
0.0000

> <Gold.Chemscore.DEClash.Weighted>
0.9531

> <Gold.Chemscore.DEInternal.Weighted>
1.5809

> <Gold.Chemscore.Rot.Weighted>
3.1024

> <Gold.Chemscore.Internal.Correction.Weighted>
   9.000000E+99

> <Gold.Protein.RotatedTorsions>
[ 6907 6896 6895 6894 ] final  -36.60 input  -60.11 | X-H torsion
[ 7974 7965 7964 7962 ] final  -74.00 input  175.53 | X-H torsion
[ 8008 7997 7996 7995 ] final   97.41 input   59.86 | X-H torsion
[ 10167 10162 10161 10158 ] final  142.13 input  -65.29 | X-H torsion
[ 10718 10713 10712 10709 ] final   79.31 input   66.30 | X-H torsion
[ 10763 10752 10751 10750 ] final  102.65 input  -60.55 | X-H torsion
[ 11005 11000 10999 10996 ] final   62.01 input  -57.11 | X-H torsion

> <Gold.Protein.ActiveResidues>
 VAL166  LYS551  ARG553  GLY616  TRP617  ASP618  TYR619  PRO620  LYS621  CYS622 
 ASP623  PHE694  ASN695  SER759  ASP760  ASP761  ALA762  ILE779  LEU786  VAL792 
 PHE793  MET794  SER795  GLU796  ALA797  LYS798  CYS799  TRP800  GLU811  SER814 

> <Gold.Protein.RotatedAtoms>
  151.0252  134.9498  159.8080 H   0  0  0  0  0  0  0  0  0  0  0  0  # atno 6907 bound_to 6896
  152.5334  134.2852  159.9032 H   0  0  0  0  0  0  0  0  0  0  0  0  # atno 6908 bound_to 6896
  151.2860  133.4145  159.2664 H   0  0  0  0  0  0  0  0  0  0  0  0  # atno 6909 bound_to 6896
  145.6449  140.9300  143.1016 H   0  0  0  0  0  0  0  0  0  0  0  0  # atno 7974 bound_to 7965
  156.0899  140.3258  155.7802 H   0  0  0  0  0  0  0  0  0  0  0  0  # atno 8008 bound_to 7997
  155.5014  140.0569  157.2955 H   0  0  0  0  0  0  0  0  0  0  0  0  # atno 8009 bound_to 7997
  154.4631  140.1976  156.0207 H   0  0  0  0  0  0  0  0  0  0  0  0  # atno 8010 bound_to 7997
  139.5002  144.6126  151.6236 H   0  0  0  0  0  0  0  0  0  0  0  0  # atno 10167 bound_to 10162
  157.6773  130.9908  150.1914 H   0  0  0  0  0  0  0  0  0  0  0  0  # atno 10718 bound_to 10713
  153.3424  135.4003  155.1582 H   0  0  0  0  0  0  0  0  0  0  0  0  # atno 10763 bound_to 10752
  154.8646  135.3637  154.5328 H   0  0  0  0  0  0  0  0  0  0  0  0  # atno 10764 bound_to 10752
  153.5774  135.7077  153.5538 H   0  0  0  0  0  0  0  0  0  0  0  0  # atno 10765 bound_to 10752
  140.0121  134.6280  155.9764 H   0  0  0  0  0  0  0  0  0  0  0  0  # atno 11005 bound_to 11000
  144.7144  139.8251  143.7404 LP  0  0  0  0  0  0  0  0  0  0  0  0  # atno 17320 bound_to 7965
  146.1251  139.4276  143.0204 LP  0  0  0  0  0  0  0  0  0  0  0  0  # atno 17321 bound_to 7965
  140.5806  143.9953  150.6266 LP  0  0  0  0  0  0  0  0  0  0  0  0  # atno 17342 bound_to 10162
  140.3101  143.3204  152.0887 LP  0  0  0  0  0  0  0  0  0  0  0  0  # atno 17343 bound_to 10162
  156.2625  130.3712  149.8116 LP  0  0  0  0  0  0  0  0  0  0  0  0  # atno 17370 bound_to 10713
  156.5857  130.8485  151.3395 LP  0  0  0  0  0  0  0  0  0  0  0  0  # atno 17371 bound_to 10713
  141.1718  133.6538  156.4680 LP  0  0  0  0  0  0  0  0  0  0  0  0  # atno 17394 bound_to 11000
  140.4535  134.6907  157.5051 LP  0  0  0  0  0  0  0  0  0  0  0  0  # atno 17395 bound_to 11000

$$$$
