AV-unprocessed.smi:290|AV-procd|sdf|2219|dock2
  -GOLD-   2262022 63D 1   1.00000     0.00000
 Structure written by MMmdl.
 59 62  0  0  0  0  0  0  0  0  2 V2000
  152.3368  140.9611  159.3506 C   0  0  0  0  0  0  0  0  0  0  0  0
  151.5934  141.3792  158.0724 C   0  0  2  0  0  0  0  0  0  0  0  0
  150.4401  142.1192  158.4646 O   0  0  0  0  0  0  0  0  0  0  0  0
  149.4275  141.9338  157.4921 C   0  0  0  0  0  0  0  0  0  0  0  0
  149.5581  140.4544  157.1654 C   0  0  0  0  0  0  0  0  0  0  0  0
  151.0690  140.2355  157.1579 C   0  0  1  0  0  0  0  0  0  0  0  0
  151.5322  140.4889  155.8419 O   0  0  0  0  0  0  0  0  0  0  0  0
  151.4873  138.7932  157.5483 C   0  0  0  0  0  0  0  0  0  0  0  0
  150.7742  137.7645  156.8068 N   0  0  0  0  0  0  0  0  0  0  0  0
  150.7027  137.6331  155.4373 C   0  0  0  0  0  0  0  0  0  0  0  0
  150.0031  136.6169  155.0101 N   0  0  0  0  0  0  0  0  0  0  0  0
  149.5532  136.0083  156.1741 C   0  0  0  0  0  0  0  0  0  0  0  0
  148.7580  134.8648  156.4428 C   0  0  0  0  0  0  0  0  0  0  0  0
  148.2639  134.0954  155.4464 N   0  0  0  0  0  0  0  0  0  0  0  0
  149.2722  133.5004  154.5898 C   0  0  0  0  0  0  0  0  0  0  0  0
  148.5257  133.0393  153.3387 C   0  0  0  0  0  0  0  0  0  0  0  0
  147.1631  133.7647  153.3627 C   0  0  2  0  0  0  0  0  0  0  0  0
  146.8556  134.3878  152.0362 N   0  3  1  0  0  0  0  0  0  0  0  0
  146.6957  133.3502  150.9841 C   0  0  0  0  0  0  0  0  0  0  0  0
  145.7348  135.3715  152.0356 C   0  0  0  0  0  0  0  0  0  0  0  0
  145.5536  136.1117  150.6967 C   0  0  0  0  0  0  0  0  0  0  0  0
  146.2150  137.3591  150.7314 O   0  0  0  0  0  0  0  0  0  0  0  0
  147.2864  134.7282  154.5692 C   0  0  1  0  0  0  0  0  0  0  0  0
  145.9622  134.9612  155.3301 C   0  0  0  0  0  0  0  0  0  0  0  0
  148.5141  134.5485  157.7422 N   0  0  0  0  0  0  0  0  0  0  0  0
  149.0146  135.3122  158.7188 C   0  0  0  0  0  0  0  0  0  0  0  0
  149.7713  136.4075  158.6176 N   0  0  0  0  0  0  0  0  0  0  0  0
  150.0219  136.7193  157.3132 C   0  0  0  0  0  0  0  0  0  0  0  0
  146.3865  133.0325  153.5925 H   0  0  0  0  0  0  0  0  0  0  0  0
  147.6951  135.6822  154.2323 H   0  0  0  0  0  0  0  0  0  0  0  0
  153.2420  140.3996  159.1195 H   0  0  0  0  0  0  0  0  0  0  0  0
  151.7093  140.3488  159.9983 H   0  0  0  0  0  0  0  0  0  0  0  0
  152.6361  141.8392  159.9235 H   0  0  0  0  0  0  0  0  0  0  0  0
  152.2393  142.0529  157.5058 H   0  0  0  0  0  0  0  0  0  0  0  0
  148.4426  142.1970  157.8778 H   0  0  0  0  0  0  0  0  0  0  0  0
  149.6358  142.5517  156.6173 H   0  0  0  0  0  0  0  0  0  0  0  0
  149.0990  139.8773  157.9690 H   0  0  0  0  0  0  0  0  0  0  0  0
  149.0657  140.1748  156.2329 H   0  0  0  0  0  0  0  0  0  0  0  0
  152.3672  140.0606  155.7292 H   0  0  0  0  0  0  0  0  0  0  0  0
  152.5566  138.6483  157.3892 H   0  0  0  0  0  0  0  0  0  0  0  0
  151.3061  138.6170  158.6089 H   0  0  0  0  0  0  0  0  0  0  0  0
  151.1944  138.3160  154.7597 H   0  0  0  0  0  0  0  0  0  0  0  0
  150.0368  134.2310  154.3212 H   0  0  0  0  0  0  0  0  0  0  0  0
  149.7653  132.6667  155.0907 H   0  0  0  0  0  0  0  0  0  0  0  0
  149.1160  133.2722  152.4516 H   0  0  0  0  0  0  0  0  0  0  0  0
  148.3754  131.9593  153.3565 H   0  0  0  0  0  0  0  0  0  0  0  0
  145.7438  132.8289  151.0936 H   0  0  0  0  0  0  0  0  0  0  0  0
  147.4885  132.6037  151.0259 H   0  0  0  0  0  0  0  0  0  0  0  0
  146.7397  133.7811  149.9849 H   0  0  0  0  0  0  0  0  0  0  0  0
  144.8093  134.8600  152.3029 H   0  0  0  0  0  0  0  0  0  0  0  0
  145.9037  136.1393  152.7881 H   0  0  0  0  0  0  0  0  0  0  0  0
  145.9011  135.5272  149.8460 H   0  0  0  0  0  0  0  0  0  0  0  0
  144.4933  136.2974  150.5227 H   0  0  0  0  0  0  0  0  0  0  0  0
  145.5976  138.0371  150.5011 H   0  0  0  0  0  0  0  0  0  0  0  0
  145.1810  135.3834  154.7016 H   0  0  0  0  0  0  0  0  0  0  0  0
  146.1018  135.6489  156.1647 H   0  0  0  0  0  0  0  0  0  0  0  0
  145.5772  134.0264  155.7391 H   0  0  0  0  0  0  0  0  0  0  0  0
  148.7767  135.0006  159.7252 H   0  0  0  0  0  0  0  0  0  0  0  0
  147.6781  134.9208  151.7910 H   0  0  0  0  0  0  0  0  0  0  0  0
  1  2  1  0  0  0  0
  1 31  1  0  0  0  0
  1 32  1  0  0  0  0
  1 33  1  0  0  0  0
  2  6  1  0  0  0  0
  2  3  1  0  0  0  0
  2 34  1  0  0  0  0
  3  4  1  0  0  0  0
  4  5  1  0  0  0  0
  4 35  1  0  0  0  0
  4 36  1  0  0  0  0
  5  6  1  0  0  0  0
  5 37  1  0  0  0  0
  5 38  1  0  0  0  0
  6  7  1  0  0  0  0
  6  8  1  0  0  0  0
  7 39  1  0  0  0  0
  8  9  1  0  0  0  0
  8 40  1  0  0  0  0
  8 41  1  0  0  0  0
  9 28  1  0  0  0  0
  9 10  1  0  0  0  0
 10 11  2  0  0  0  0
 10 42  1  0  0  0  0
 11 12  1  0  0  0  0
 12 28  2  0  0  0  0
 12 13  1  0  0  0  0
 13 14  1  0  0  0  0
 13 25  2  0  0  0  0
 14 23  1  0  0  0  0
 14 15  1  0  0  0  0
 15 16  1  0  0  0  0
 15 43  1  0  0  0  0
 15 44  1  0  0  0  0
 16 17  1  0  0  0  0
 16 45  1  0  0  0  0
 16 46  1  0  0  0  0
 17 29  1  0  0  0  0
 17 18  1  0  0  0  0
 17 23  1  0  0  0  0
 18 19  1  0  0  0  0
 18 20  1  0  0  0  0
 18 59  1  0  0  0  0
 19 47  1  0  0  0  0
 19 48  1  0  0  0  0
 19 49  1  0  0  0  0
 20 21  1  0  0  0  0
 20 50  1  0  0  0  0
 20 51  1  0  0  0  0
 21 22  1  0  0  0  0
 21 52  1  0  0  0  0
 21 53  1  0  0  0  0
 22 54  1  0  0  0  0
 23 30  1  0  0  0  0
 23 24  1  0  0  0  0
 24 55  1  0  0  0  0
 24 56  1  0  0  0  0
 24 57  1  0  0  0  0
 25 26  1  0  0  0  0
 26 27  2  0  0  0  0
 26 58  1  0  0  0  0
 27 28  1  0  0  0  0
M  CHG  1  18   1
M  END
> <s_m_source_file>
AV-unprocessed.smi

> <i_m_source_file_index>
290

> <i_lp_mmshare_version>
43012

> <i_f3d_flags>
0

> <s_epik_input>
W0NIMl0xW0NIMl1PW0NAQEhdKFtDSDNdKVtDQEBdMShbT0hdKVtDSDJdbihbY0hdbjIpYyhjMjMpbltjSF1uYzNONFtDSDJdW0NIMl1bQ0BIXShbQ0BIXTRbQ0gzXSlOKFtDSDNdKVtDSDJdW0NIMl1bT0hd

> <s_epik_cmdline>
J2VwaWtfcHl0aG9uJywgJy1waCcsICc3LjAnLCAnLXRuJywgJzgnLCAnLW1hJywgJzIwMCcsICctbWV0YWxfYmluZGluZycsICctaW1hZScsICc8aW5maWxlLm1hZT4nLCAnLW9tYWUnLCAnPG91dGZpbGUubWFlPic=

> <r_lp_tautomer_probability>
1

> <r_epik_Ionization_Penalty>
0.0036983

> <r_epik_Ionization_Penalty_Charging>
0.0032725

> <r_epik_Ionization_Penalty_Neutral>
0.000425798

> <r_epik_State_Penalty>
-0

> <r_epik_Charging_Adjusted_Penalty>
0.0032725

> <i_epik_Tot_Q>
1

> <i_epik_Tot_abs_Q>
1

> <r_epik_Metal_State_Penalty>
-0

> <b_epik_Metal_Only>
0

> <s_lp_Force_Field>
OPLS_2005

> <r_lp_Energy>
64.8136

> <b_lp_Chiralities_Consistent>
1

> <s_lp_Variant>
AV-unprocessed.smi:290-5

> <Gold.Version>
5.8.1

> <Gold.Id.Protein>
6NUR|6NUR_protein|mol2

> <Gold.PLP.Fitness>
43.3775

> <Gold.PLP.PLP>
-31.5722

> <Gold.PLP.part.hbond>
-5.2879

> <Gold.PLP.part.metal>
0.0000

> <Gold.PLP.part.buried>
-3.5178

> <Gold.PLP.part.nonpolar>
-23.3671

> <Gold.PLP.part.repulsive>
0.3008

> <Gold.PLP.ligand.clash>
0.0000

> <Gold.PLP.ligand.torsion>
0.4630

> <Gold.PLP.Chemscore.Hbond>
4.1513

> <Gold.PLP.Chemscore.CHOScore>
0.0000

> <Gold.PLP.Chemscore.Metal>
0.0000

> <Gold.Chemscore.Hbonds>
donor molecule, donor type, donor heavy atom, donor atom, acceptor molecule, acceptor atom, score
      L1  H    18    59       P1  7948  2.00
      L1  H    22    54       P1 10171  1.00
      P1  H  7954  7966       L1    22  0.63
      P1  H  7989  7998       L1     7  0.03

> <Gold.PLP.Chemscore.Internal.Correction>
0.2774

> <Gold.Rescore>
     Score         DG    S(hbond)    S(metal)    S(lipo)     H(rot)  DE(clash)    DE(int)     intcor
     11.20     -11.86       2.15        0.00      73.33       3.67       0.14       0.52       ----

> <Gold.Chemscore.Fitness>
11.2017

> <Gold.Chemscore.DG>
-11.8610

> <Gold.Chemscore.ZeroCoef>
-5.4800

> <Gold.Chemscore.Hbond>
2.1514

> <Gold.Chemscore.Metal>
0.0000

> <Gold.Chemscore.Lipo>
73.3319

> <Gold.Chemscore.Internal_Hbond>
0.0000

> <Gold.Chemscore.DEClash>
0.1385

> <Gold.Chemscore.DEInternal>
0.5208

> <Gold.Chemscore.Rot>
3.6658

> <Gold.Chemscore.Internal.Correction>
   9.000000E+99

> <Gold.Chemscore.Hbonds>
donor molecule, donor type, donor heavy atom, donor atom, acceptor molecule, acceptor atom, score
      L1  H    18    59       P1  7948  0.60
      L1  H    22    54       P1 10171  0.95
      P1  H  7954  7966       L1    22  0.43

> <Gold.Chemscore.Hbond.Weighted>
-7.1856

> <Gold.Chemscore.Metal.Weighted>
-0.0000

> <Gold.Chemscore.Lipo.Weighted>
-8.5798

> <Gold.Chemscore.Internal_Hbond.Weighted>
0.0000

> <Gold.Chemscore.DEClash.Weighted>
0.1385

> <Gold.Chemscore.DEInternal.Weighted>
0.5208

> <Gold.Chemscore.Rot.Weighted>
9.3844

> <Gold.Chemscore.Internal.Correction.Weighted>
   9.000000E+99

> <Gold.Protein.RotatedTorsions>
[ 6907 6896 6895 6894 ] final  -94.09 input  -60.11 | X-H torsion
[ 7974 7965 7964 7962 ] final  -61.72 input  175.53 | X-H torsion
[ 8008 7997 7996 7995 ] final -156.29 input   59.86 | X-H torsion
[ 10167 10162 10161 10158 ] final  -43.18 input  -65.29 | X-H torsion
[ 10718 10713 10712 10709 ] final  -79.93 input   66.30 | X-H torsion
[ 10763 10752 10751 10750 ] final -172.07 input  -60.55 | X-H torsion
[ 11005 11000 10999 10996 ] final  154.57 input  -57.11 | X-H torsion

> <Gold.Protein.ActiveResidues>
 VAL166  LYS551  ARG553  GLY616  TRP617  ASP618  TYR619  PRO620  LYS621  CYS622 
 ASP623  PHE694  ASN695  SER759  ASP760  ASP761  ALA762  ILE779  LEU786  VAL792 
 PHE793  MET794  SER795  GLU796  ALA797  LYS798  CYS799  TRP800  GLU811  SER814 

> <Gold.Protein.RotatedAtoms>
  150.6935  134.1866  159.4268 H   0  0  0  0  0  0  0  0  0  0  0  0  # atno 6907 bound_to 6896
  151.9839  135.0012  160.0568 H   0  0  0  0  0  0  0  0  0  0  0  0  # atno 6908 bound_to 6896
  152.1730  133.4621  159.4956 H   0  0  0  0  0  0  0  0  0  0  0  0  # atno 6909 bound_to 6896
  145.8001  140.8660  143.0236 H   0  0  0  0  0  0  0  0  0  0  0  0  # atno 7974 bound_to 7965
  155.7150  140.0783  157.2355 H   0  0  0  0  0  0  0  0  0  0  0  0  # atno 8008 bound_to 7997
  154.4053  140.1623  156.2392 H   0  0  0  0  0  0  0  0  0  0  0  0  # atno 8009 bound_to 7997
  155.9248  140.3395  155.6205 H   0  0  0  0  0  0  0  0  0  0  0  0  # atno 8010 bound_to 7997
  140.6943  143.2997  151.3316 H   0  0  0  0  0  0  0  0  0  0  0  0  # atno 10167 bound_to 10162
  156.0081  130.4560  150.3723 H   0  0  0  0  0  0  0  0  0  0  0  0  # atno 10718 bound_to 10713
  154.6235  135.2878  155.0299 H   0  0  0  0  0  0  0  0  0  0  0  0  # atno 10763 bound_to 10752
  154.1486  135.6507  153.4962 H   0  0  0  0  0  0  0  0  0  0  0  0  # atno 10764 bound_to 10752
  153.0246  135.5350  154.7034 H   0  0  0  0  0  0  0  0  0  0  0  0  # atno 10765 bound_to 10752
  140.1501  134.8680  157.2443 H   0  0  0  0  0  0  0  0  0  0  0  0  # atno 11005 bound_to 11000
  144.6770  140.0246  143.7483 LP  0  0  0  0  0  0  0  0  0  0  0  0  # atno 17320 bound_to 7965
  145.9887  139.2997  143.0998 LP  0  0  0  0  0  0  0  0  0  0  0  0  # atno 17321 bound_to 7965
  139.6379  144.0594  152.2531 LP  0  0  0  0  0  0  0  0  0  0  0  0  # atno 17342 bound_to 10162
  140.0090  144.6237  150.7663 LP  0  0  0  0  0  0  0  0  0  0  0  0  # atno 17343 bound_to 10162
  157.1807  131.0391  151.2750 LP  0  0  0  0  0  0  0  0  0  0  0  0  # atno 17370 bound_to 10713
  157.4148  130.7405  149.6867 LP  0  0  0  0  0  0  0  0  0  0  0  0  # atno 17371 bound_to 10713
  140.2615  134.3565  155.7405 LP  0  0  0  0  0  0  0  0  0  0  0  0  # atno 17394 bound_to 11000
  141.2198  133.7372  156.9087 LP  0  0  0  0  0  0  0  0  0  0  0  0  # atno 17395 bound_to 11000

$$$$
