#       Name:                AV-unprocessed.smi:890
#       Creating user name   scv26
#       Creation time:       Fri Mar 27 01:54:53 2020


#       File generated by GOLD software.
#

@<TRIPOS>MOLECULE
AV-unprocessed.smi:890
    56    59     1
SMALL
NO_CHARGES


@<TRIPOS>ATOM
      1 ****         1.5945   2.1789   0.1027 O.2            1 S1                 0.0000
      2 ****         1.1985   1.0254   0.2705 C.2            1 S1                 0.0000
      3 ****         1.9861  -0.0606   0.3422 N.am           1 S1                 0.0000
      4 ****         3.4060  -0.1283   0.2612 C.ar           1 S1                 0.0000
      5 ****         4.2286   0.9292   0.7207 C.ar           1 S1                 0.0000
      6 ****         5.6248   0.8181   0.6048 C.ar           1 S1                 0.0000
      7 ****         6.1528  -0.3516   0.0336 C.ar           1 S1                 0.0000
      8 ****         5.3852  -1.3749  -0.3912 N.ar           1 S1                 0.0000
      9 ****         4.0374  -1.2888  -0.2718 C.ar           1 S1                 0.0000
     10 ****         3.2847  -2.4009  -0.7138 N.3            1 S1                 0.0000
     11 ****         3.8938  -3.4137  -1.5692 C.3            1 S1                 0.0000
     12 ****         2.9414  -4.6044  -1.5092 C.3            1 S1                 0.0000
     13 ****         2.4468  -4.5515  -0.0671 C.3            1 S1                 0.0000
     14 ****         2.3965  -3.0518   0.2447 C.3            1 S1                 0.0000
     15 ****        -0.0941   0.6893   0.3846 N.am           1 S1                 0.0000
     16 ****        -1.2249   1.6115   0.3329 C.3            1 S1                 0.0000
     17 ****        -2.1544   1.3651   1.5312 C.3            1 S1                 0.0000
     18 ****        -3.4392   2.2034   1.4158 C.3            1 S1                 0.0000
     19 ****        -4.1400   1.8807   0.1729 N.3            1 S1                 0.0000
     20 ****        -5.3756   2.6445   0.1175 C.3            1 S1                 0.0000
     21 ****        -6.5910   2.0581   0.7991 C.3            1 S1                 0.0000
     22 ****        -6.5097   2.0806  -0.7082 C.3            1 S1                 0.0000
     23 ****        -3.3065   2.2437  -0.9735 C.3            1 S1                 0.0000
     24 ****        -2.0110   1.4129  -0.9735 C.3            1 S1                 0.0000
     25 ****         1.5127  -0.9516   0.3689 H              1 S1                 0.0000
     26 ****         3.8121   1.8186   1.1683 H              1 S1                 0.0000
     27 ****         6.2744   1.6109   0.9449 H              1 S1                 0.0000
     28 ****         7.2200  -0.4735  -0.0774 H              1 S1                 0.0000
     29 ****         4.0225  -3.0477  -2.5882 H              1 S1                 0.0000
     30 ****         4.8703  -3.7117  -1.1853 H              1 S1                 0.0000
     31 ****         2.1072  -4.4512  -2.1953 H              1 S1                 0.0000
     32 ****         3.4233  -5.5489  -1.7631 H              1 S1                 0.0000
     33 ****         1.4854  -5.0462   0.0727 H              1 S1                 0.0000
     34 ****         3.1732  -5.0376   0.5859 H              1 S1                 0.0000
     35 ****         2.6864  -2.8501   1.2771 H              1 S1                 0.0000
     36 ****         1.3839  -2.6759   0.0961 H              1 S1                 0.0000
     37 ****        -0.3171  -0.2869   0.5136 H              1 S1                 0.0000
     38 ****        -0.8812   2.6467   0.3775 H              1 S1                 0.0000
     39 ****        -2.4179   0.3078   1.5909 H              1 S1                 0.0000
     40 ****        -1.6372   1.6082   2.4601 H              1 S1                 0.0000
     41 ****        -4.0880   1.9913   2.2663 H              1 S1                 0.0000
     42 ****        -3.2026   3.2684   1.4508 H              1 S1                 0.0000
     43 ****        -5.3141   3.7314   0.1385 H              1 S1                 0.0000
     44 ****        -6.4847   1.0936   1.2922 H              1 S1                 0.0000
     45 ****        -7.2808   2.7513   1.2760 H              1 S1                 0.0000
     46 ****        -7.1461   2.7881  -1.2356 H              1 S1                 0.0000
     47 ****        -6.3494   1.1308  -1.2151 H              1 S1                 0.0000
     48 ****        -3.8565   2.0571  -1.8967 H              1 S1                 0.0000
     49 ****        -3.0741   3.3097  -0.9488 H              1 S1                 0.0000
     50 ****        -1.3929   1.6927  -1.8274 H              1 S1                 0.0000
     51 ****        -2.2600   0.3584  -1.1039 H              1 S1                 0.0000
     52 ****         2.5729   2.3629   0.0079 LP             1 S1                 0.0000
     53 ****         0.9378   2.9320   0.0612 LP             1 S1                 0.0000
     54 ****         5.8057  -2.1896  -0.7905 LP             1 S1                 0.0000
     55 ****         2.7365  -1.8336  -1.3284 LP             1 S1                 0.0000
     56 ****        -4.3360   0.9005   0.1453 LP             1 S1                 0.0000
@<TRIPOS>BOND
    1    1    2 2     
    2    2    3 am    
    3    2   15 am    
    4    3    4 1     
    5    3   25 1     
    6    4    9 ar    
    7    4    5 ar    
    8    5    6 ar    
    9    5   26 1     
   10    6    7 ar    
   11    6   27 1     
   12    7    8 ar    
   13    7   28 1     
   14    8    9 ar    
   15    9   10 1     
   16   10   14 1     
   17   10   11 1     
   18   11   12 1     
   19   11   29 1     
   20   11   30 1     
   21   12   13 1     
   22   12   31 1     
   23   12   32 1     
   24   13   14 1     
   25   13   33 1     
   26   13   34 1     
   27   14   35 1     
   28   14   36 1     
   29   15   16 1     
   30   15   37 1     
   31   16   24 1     
   32   16   17 1     
   33   16   38 1     
   34   17   18 1     
   35   17   39 1     
   36   17   40 1     
   37   18   19 1     
   38   18   41 1     
   39   18   42 1     
   40   19   20 1     
   41   19   23 1     
   42   20   22 1     
   43   20   21 1     
   44   20   43 1     
   45   21   22 1     
   46   21   44 1     
   47   21   45 1     
   48   22   46 1     
   49   22   47 1     
   50   23   24 1     
   51   23   48 1     
   52   23   49 1     
   53   24   50 1     
   54   24   51 1     
   55    1   52 1     
   56    1   53 1     
   57    8   54 1     
   58   10   55 1     
   59   19   56 1     
@<TRIPOS>SUBSTRUCTURE
      1 S1             1
@<TRIPOS>SET
LONE_PAIRS      STATIC     ATOMS    <user>   **** ""
5 52 53 54 55 56
DONOR_HYDROGENS      STATIC     ATOMS    <user>   **** ""
2 25 37
ATOM$BLUE        STATIC     ATOMS    COLORGROUP SYSTEM
5 52 53 54 55 56
ATOM$RED        STATIC     ATOMS    COLORGROUP SYSTEM
2 25 37
