AV-unprocessed.smi:1794|AV-procd|sdf|7235|dock9
  -GOLD-   22720 8483D 1   1.00000     0.00000
 Structure written by MMmdl.
 56 58  0  0  0  0  0  0  0  0  3 V2000
  146.9421  134.8200  157.8391 C   0  0  0  0  0  0  0  0  0  0  0  0
  147.8742  134.9280  159.0712 C   0  0  0  0  0  0  0  0  0  0  0  0
  148.2333  133.4894  159.5314 C   0  0  0  0  0  0  0  0  0  0  0  0
  149.1998  135.6423  158.6730 C   0  0  0  0  0  0  0  0  0  0  0  0
  148.9951  136.9912  158.1517 N   0  0  0  0  0  0  0  0  0  0  0  0
  149.9091  137.9683  158.2017 C   0  0  0  0  0  0  0  0  0  0  0  0
  151.0327  137.8221  158.6820 O   0  0  0  0  0  0  0  0  0  0  0  0
  149.4294  139.1118  157.6851 N   0  0  0  0  0  0  0  0  0  0  0  0
  150.0682  140.3827  157.6282 C   0  0  0  0  0  0  0  0  0  0  0  0
  151.3077  140.6139  158.2786 C   0  0  0  0  0  0  0  0  0  0  0  0
  151.9031  141.8883  158.2242 C   0  0  0  0  0  0  0  0  0  0  0  0
  151.2526  142.9127  157.5156 C   0  0  0  0  0  0  0  0  0  0  0  0
  150.0851  142.6560  156.8902 N   0  3  0  0  0  0  0  0  0  0  0  0
  149.4695  141.4473  156.8938 C   0  0  0  0  0  0  0  0  0  0  0  0
  148.2536  141.3233  156.1836 N   0  0  0  0  0  0  0  0  0  0  0  0
  147.0319  141.9318  156.6968 C   0  0  0  0  0  0  0  0  0  0  0  0
  146.0513  141.8927  155.5279 C   0  0  0  0  0  0  0  0  0  0  0  0
  146.9649  142.1189  154.3270 C   0  0  0  0  0  0  0  0  0  0  0  0
  148.2703  141.4231  154.7275 C   0  0  0  0  0  0  0  0  0  0  0  0
  147.2161  135.6990  160.1916 N   0  3  0  0  0  0  0  0  0  0  0  0
  148.1151  136.0855  161.3182 C   0  0  0  0  0  0  0  0  0  0  0  0
  147.3126  136.7060  162.4728 C   0  0  0  0  0  0  0  0  0  0  0  0
  146.6079  137.8435  161.9992 O   0  0  0  0  0  0  0  0  0  0  0  0
  145.6718  137.4920  160.9919 C   0  0  0  0  0  0  0  0  0  0  0  0
  146.4022  136.8812  159.7834 C   0  0  0  0  0  0  0  0  0  0  0  0
  147.3688  134.1729  157.0721 H   0  0  0  0  0  0  0  0  0  0  0  0
  146.7697  135.7883  157.3693 H   0  0  0  0  0  0  0  0  0  0  0  0
  145.9715  134.3983  158.0996 H   0  0  0  0  0  0  0  0  0  0  0  0
  148.8143  132.9481  158.7847 H   0  0  0  0  0  0  0  0  0  0  0  0
  147.3474  132.8775  159.7012 H   0  0  0  0  0  0  0  0  0  0  0  0
  148.8205  133.4996  160.4504 H   0  0  0  0  0  0  0  0  0  0  0  0
  149.8692  135.7420  159.5261 H   0  0  0  0  0  0  0  0  0  0  0  0
  149.7316  135.0520  157.9244 H   0  0  0  0  0  0  0  0  0  0  0  0
  148.0952  137.1929  157.7412 H   0  0  0  0  0  0  0  0  0  0  0  0
  148.4575  139.1015  157.4130 H   0  0  0  0  0  0  0  0  0  0  0  0
  151.8156  139.8288  158.8178 H   0  0  0  0  0  0  0  0  0  0  0  0
  152.8437  142.0763  158.7213 H   0  0  0  0  0  0  0  0  0  0  0  0
  151.6307  143.9206  157.4232 H   0  0  0  0  0  0  0  0  0  0  0  0
  146.6508  141.3916  157.5638 H   0  0  0  0  0  0  0  0  0  0  0  0
  147.2136  142.9673  156.9876 H   0  0  0  0  0  0  0  0  0  0  0  0
  145.5874  140.9076  155.4616 H   0  0  0  0  0  0  0  0  0  0  0  0
  145.2588  142.6370  155.6107 H   0  0  0  0  0  0  0  0  0  0  0  0
  146.5477  141.7348  153.3957 H   0  0  0  0  0  0  0  0  0  0  0  0
  147.1427  143.1877  154.1995 H   0  0  0  0  0  0  0  0  0  0  0  0
  149.1399  141.9711  154.3625 H   0  0  0  0  0  0  0  0  0  0  0  0
  148.2998  140.4179  154.3063 H   0  0  0  0  0  0  0  0  0  0  0  0
  148.6600  135.2317  161.7136 H   0  0  0  0  0  0  0  0  0  0  0  0
  148.8567  136.8086  160.9773 H   0  0  0  0  0  0  0  0  0  0  0  0
  146.6209  135.9812  162.9051 H   0  0  0  0  0  0  0  0  0  0  0  0
  147.9859  137.0188  163.2711 H   0  0  0  0  0  0  0  0  0  0  0  0
  144.9327  136.7959  161.3922 H   0  0  0  0  0  0  0  0  0  0  0  0
  145.1303  138.3879  160.6878 H   0  0  0  0  0  0  0  0  0  0  0  0
  147.0405  137.6332  159.3188 H   0  0  0  0  0  0  0  0  0  0  0  0
  145.6363  136.6123  159.0585 H   0  0  0  0  0  0  0  0  0  0  0  0
  146.5483  135.0533  160.5889 H   0  0  0  0  0  0  0  0  0  0  0  0
  149.6427  143.4179  156.3760 H   0  0  0  0  0  0  0  0  0  0  0  0
  1  2  1  0  0  0  0
  1 26  1  0  0  0  0
  1 27  1  0  0  0  0
  1 28  1  0  0  0  0
  2  3  1  0  0  0  0
  2  4  1  0  0  0  0
  2 20  1  0  0  0  0
  3 29  1  0  0  0  0
  3 30  1  0  0  0  0
  3 31  1  0  0  0  0
  4  5  1  0  0  0  0
  4 32  1  0  0  0  0
  4 33  1  0  0  0  0
  5  6  1  0  0  0  0
  5 34  1  0  0  0  0
  6  7  2  0  0  0  0
  6  8  1  0  0  0  0
  8  9  1  0  0  0  0
  8 35  1  0  0  0  0
  9 14  1  0  0  0  0
  9 10  2  0  0  0  0
 10 11  1  0  0  0  0
 10 36  1  0  0  0  0
 11 12  2  0  0  0  0
 11 37  1  0  0  0  0
 12 13  1  0  0  0  0
 12 38  1  0  0  0  0
 13 14  2  0  0  0  0
 13 56  1  0  0  0  0
 14 15  1  0  0  0  0
 15 19  1  0  0  0  0
 15 16  1  0  0  0  0
 16 17  1  0  0  0  0
 16 39  1  0  0  0  0
 16 40  1  0  0  0  0
 17 18  1  0  0  0  0
 17 41  1  0  0  0  0
 17 42  1  0  0  0  0
 18 19  1  0  0  0  0
 18 43  1  0  0  0  0
 18 44  1  0  0  0  0
 19 45  1  0  0  0  0
 19 46  1  0  0  0  0
 20 25  1  0  0  0  0
 20 21  1  0  0  0  0
 20 55  1  0  0  0  0
 21 22  1  0  0  0  0
 21 47  1  0  0  0  0
 21 48  1  0  0  0  0
 22 23  1  0  0  0  0
 22 49  1  0  0  0  0
 22 50  1  0  0  0  0
 23 24  1  0  0  0  0
 24 25  1  0  0  0  0
 24 51  1  0  0  0  0
 24 52  1  0  0  0  0
 25 53  1  0  0  0  0
 25 54  1  0  0  0  0
M  CHG  1  13   1
M  CHG  1  20   1
M  END
> <s_m_source_file>
AV-unprocessed.smi

> <i_m_source_file_index>
1794

> <i_lp_mmshare_version>
43012

> <i_f3d_flags>
0

> <s_epik_input>
W0NIMl0xW0NIMl1PW0NIMl1bQ0gyXU4xQyhbQ0gzXSkoW0NIM10pW0NIMl1bTkhdQyg9TylbTkhdYzJbY0hdW2NIXVtjSF1uYzJOM1tDSDJdW0NIMl1bQ0gyXVtDSDJdMw==

> <s_epik_cmdline>
J2VwaWtfcHl0aG9uJywgJy1waCcsICc3LjAnLCAnLXRuJywgJzgnLCAnLW1hJywgJzIwMCcsICctbWV0YWxfYmluZGluZycsICctaW1hZScsICc8aW5maWxlLm1hZT4nLCAnLW9tYWUnLCAnPG91dGZpbGUubWFlPic=

> <r_lp_tautomer_probability>
0.999994

> <r_epik_Ionization_Penalty>
1.80144

> <r_epik_Ionization_Penalty_Charging>
1.80142

> <r_epik_Ionization_Penalty_Neutral>
2.02981e-05

> <r_epik_State_Penalty>
1.84115

> <r_epik_Charging_Adjusted_Penalty>
3.64257

> <i_epik_Tot_Q>
2

> <i_epik_Tot_abs_Q>
2

> <r_epik_Metal_State_Penalty>
1.92426

> <b_epik_Metal_Only>
0

> <s_lp_Force_Field>
OPLS_2005

> <r_lp_Energy>
63.0658

> <b_lp_Chiralities_Consistent>
1

> <s_lp_Variant>
AV-unprocessed.smi:1794-4

> <Gold.Version>
5.8.1

> <Gold.Id.Protein>
6NUR|6NUR_protein|mol2

> <Gold.PLP.Fitness>
39.3145

> <Gold.PLP.PLP>
-32.2026

> <Gold.PLP.part.hbond>
-1.7023

> <Gold.PLP.part.metal>
0.0000

> <Gold.PLP.part.buried>
-5.8383

> <Gold.PLP.part.nonpolar>
-24.8494

> <Gold.PLP.part.repulsive>
0.3597

> <Gold.PLP.ligand.clash>
0.0000

> <Gold.PLP.ligand.torsion>
0.8112

> <Gold.PLP.Chemscore.Hbond>
2.7520

> <Gold.PLP.Chemscore.CHOScore>
0.0000

> <Gold.PLP.Chemscore.Metal>
0.0000

> <Gold.Chemscore.Hbonds>
donor molecule, donor type, donor heavy atom, donor atom, acceptor molecule, acceptor atom, score
      L1  H    13    56       P1  8028  2.00
      P1  H  6934  6947       L1    23  0.28

> <Gold.PLP.Chemscore.Internal.Correction>
0.4783

> <Gold.Rescore>
     Score         DG    S(hbond)    S(metal)    S(lipo)     H(rot)  DE(clash)    DE(int)     intcor
     13.42     -15.79       1.77        0.00      73.45       1.64       0.02       2.35       ----

> <Gold.Chemscore.Fitness>
13.4214

> <Gold.Chemscore.DG>
-15.7865

> <Gold.Chemscore.ZeroCoef>
-5.4800

> <Gold.Chemscore.Hbond>
1.7661

> <Gold.Chemscore.Metal>
0.0000

> <Gold.Chemscore.Lipo>
73.4480

> <Gold.Chemscore.Internal_Hbond>
0.0000

> <Gold.Chemscore.DEClash>
0.0153

> <Gold.Chemscore.DEInternal>
2.3499

> <Gold.Chemscore.Rot>
1.6350

> <Gold.Chemscore.Internal.Correction>
   9.000000E+99

> <Gold.Chemscore.Hbonds>
donor molecule, donor type, donor heavy atom, donor atom, acceptor molecule, acceptor atom, score
      L1  H    13    56       P1  8028  1.00
      P1  H  6934  6947       L1    23  0.01

> <Gold.Chemscore.Hbond.Weighted>
-5.8987

> <Gold.Chemscore.Metal.Weighted>
-0.0000

> <Gold.Chemscore.Lipo.Weighted>
-8.5934

> <Gold.Chemscore.Internal_Hbond.Weighted>
0.0000

> <Gold.Chemscore.DEClash.Weighted>
0.0153

> <Gold.Chemscore.DEInternal.Weighted>
2.3499

> <Gold.Chemscore.Rot.Weighted>
4.1856

> <Gold.Chemscore.Internal.Correction.Weighted>
   9.000000E+99

> <Gold.Protein.RotatedTorsions>
[ 6907 6896 6895 6894 ] final -153.39 input  -60.11 | X-H torsion
[ 7974 7965 7964 7962 ] final  -79.37 input  175.53 | X-H torsion
[ 8008 7997 7996 7995 ] final  -48.36 input   59.86 | X-H torsion
[ 10167 10162 10161 10158 ] final   62.95 input  -65.29 | X-H torsion
[ 10718 10713 10712 10709 ] final   54.19 input   66.30 | X-H torsion
[ 10763 10752 10751 10750 ] final  159.15 input  -60.55 | X-H torsion
[ 11005 11000 10999 10996 ] final   10.48 input  -57.11 | X-H torsion

> <Gold.Protein.ActiveResidues>
 VAL166  LYS551  ARG553  GLY616  TRP617  ASP618  TYR619  PRO620  LYS621  CYS622 
 ASP623  PHE694  ASN695  SER759  ASP760  ASP761  ALA762  ILE779  LEU786  VAL792 
 PHE793  MET794  SER795  GLU796  ALA797  LYS798  CYS799  TRP800  GLU811  SER814 

> <Gold.Protein.RotatedAtoms>
  151.2419  133.4395  159.2607 H   0  0  0  0  0  0  0  0  0  0  0  0  # atno 6907 bound_to 6896
  151.0698  134.9791  159.8313 H   0  0  0  0  0  0  0  0  0  0  0  0  # atno 6908 bound_to 6896
  152.5410  134.2365  159.8898 H   0  0  0  0  0  0  0  0  0  0  0  0  # atno 6909 bound_to 6896
  145.5741  140.9460  143.1379 H   0  0  0  0  0  0  0  0  0  0  0  0  # atno 7974 bound_to 7965
  154.4028  140.1323  156.4326 H   0  0  0  0  0  0  0  0  0  0  0  0  # atno 8008 bound_to 7997
  155.7536  140.3487  155.5142 H   0  0  0  0  0  0  0  0  0  0  0  0  # atno 8009 bound_to 7997
  155.8926  140.1006  157.1398 H   0  0  0  0  0  0  0  0  0  0  0  0  # atno 8010 bound_to 7997
  140.1383  144.4577  150.6825 H   0  0  0  0  0  0  0  0  0  0  0  0  # atno 10167 bound_to 10162
  157.5235  130.8581  149.8590 H   0  0  0  0  0  0  0  0  0  0  0  0  # atno 10718 bound_to 10713
  154.2273  135.2779  155.2903 H   0  0  0  0  0  0  0  0  0  0  0  0  # atno 10763 bound_to 10752
  154.5653  135.5635  153.7048 H   0  0  0  0  0  0  0  0  0  0  0  0  # atno 10764 bound_to 10752
  153.0028  135.6308  154.2414 H   0  0  0  0  0  0  0  0  0  0  0  0  # atno 10765 bound_to 10752
  140.5140  134.0624  155.7826 H   0  0  0  0  0  0  0  0  0  0  0  0  # atno 11005 bound_to 11000
  144.7424  139.7412  143.7305 LP  0  0  0  0  0  0  0  0  0  0  0  0  # atno 17320 bound_to 7965
  146.1763  139.4935  142.9895 LP  0  0  0  0  0  0  0  0  0  0  0  0  # atno 17321 bound_to 7965
  140.6776  143.2312  151.5468 LP  0  0  0  0  0  0  0  0  0  0  0  0  # atno 17342 bound_to 10162
  139.5485  144.2459  152.1486 LP  0  0  0  0  0  0  0  0  0  0  0  0  # atno 17343 bound_to 10162
  156.0370  130.3749  150.1534 LP  0  0  0  0  0  0  0  0  0  0  0  0  # atno 17370 bound_to 10713
  156.9721  130.9838  151.3456 LP  0  0  0  0  0  0  0  0  0  0  0  0  # atno 17371 bound_to 10713
  141.1370  133.9204  157.2412 LP  0  0  0  0  0  0  0  0  0  0  0  0  # atno 17394 bound_to 11000
  139.9643  135.0146  156.9344 LP  0  0  0  0  0  0  0  0  0  0  0  0  # atno 17395 bound_to 11000

$$$$
