AV-unprocessed.smi:538|AV-procd|sdf|2866|dock2
  -GOLD-   2262023353D 1   1.00000     0.00000
 Structure written by MMmdl.
 43 44  0  0  0  0  0  0  0  0  1 V2000
  146.2679  142.2991  154.1364 C   0  0  0  0  0  0  0  0  0  0  0  0
  147.6841  142.3033  154.1076 O   0  0  0  0  0  0  0  0  0  0  0  0
  148.2446  141.2451  154.8676 C   0  0  0  0  0  0  0  0  0  0  0  0
  149.7361  141.5224  155.0947 C   0  0  0  0  0  0  0  0  0  0  0  0
  149.9679  142.2955  156.3009 N   0  0  0  0  0  0  0  0  0  0  0  0
  150.8210  142.1045  157.3807 C   0  0  0  0  0  0  0  0  0  0  0  0
  150.9129  142.9277  158.4275 N   0  0  0  0  0  0  0  0  0  0  0  0
  151.8859  142.3203  159.2092 C   0  0  0  0  0  0  0  0  0  0  0  0
  152.3389  141.1848  158.6271 C   0  0  0  0  0  0  0  0  0  0  0  0
  153.3800  140.3447  159.2276 C   0  0  0  0  0  0  0  0  0  0  0  0
  153.7813  139.3205  158.6725 O   0  0  0  0  0  0  0  0  0  0  0  0
  153.8453  140.8055  160.4302 N   0  0  0  0  0  0  0  0  0  0  0  0
  154.8919  139.9847  161.0677 C   0  0  0  0  0  0  0  0  0  0  0  0
  153.4036  141.9520  161.0697 C   0  0  0  0  0  0  0  0  0  0  0  0
  153.8584  142.2976  162.1633 O   0  0  0  0  0  0  0  0  0  0  0  0
  152.4351  142.7088  160.4584 N   0  0  0  0  0  0  0  0  0  0  0  0
  151.9456  143.9311  161.1026 C   0  0  0  0  0  0  0  0  0  0  0  0
  151.6415  141.0258  157.4288 N   0  0  0  0  0  0  0  0  0  0  0  0
  151.7674  139.9513  156.4482 C   0  0  0  0  0  0  0  0  0  0  0  0
  151.4243  138.5801  157.0467 C   0  0  0  0  0  0  0  0  0  0  0  0
  151.8518  137.5546  156.1652 O   0  0  0  0  0  0  0  0  0  0  0  0
  151.3761  137.7398  154.8442 C   0  0  0  0  0  0  0  0  0  0  0  0
  145.8869  143.1306  153.5436 H   0  0  0  0  0  0  0  0  0  0  0  0
  145.8929  142.4113  155.1545 H   0  0  0  0  0  0  0  0  0  0  0  0
  145.8685  141.3755  153.7154 H   0  0  0  0  0  0  0  0  0  0  0  0
  147.7358  141.1859  155.8307 H   0  0  0  0  0  0  0  0  0  0  0  0
  148.1013  140.2867  154.3658 H   0  0  0  0  0  0  0  0  0  0  0  0
  150.2941  140.5876  155.1514 H   0  0  0  0  0  0  0  0  0  0  0  0
  150.1396  142.0819  154.2504 H   0  0  0  0  0  0  0  0  0  0  0  0
  149.4150  143.1392  156.3497 H   0  0  0  0  0  0  0  0  0  0  0  0
  155.3162  140.4047  161.9798 H   0  0  0  0  0  0  0  0  0  0  0  0
  155.7308  139.8331  160.3863 H   0  0  0  0  0  0  0  0  0  0  0  0
  154.4930  139.0033  161.3294 H   0  0  0  0  0  0  0  0  0  0  0  0
  152.7678  144.6237  161.2885 H   0  0  0  0  0  0  0  0  0  0  0  0
  151.4748  143.6959  162.0582 H   0  0  0  0  0  0  0  0  0  0  0  0
  151.2087  144.4614  160.4990 H   0  0  0  0  0  0  0  0  0  0  0  0
  151.1233  140.1691  155.5969 H   0  0  0  0  0  0  0  0  0  0  0  0
  152.7819  139.9405  156.0495 H   0  0  0  0  0  0  0  0  0  0  0  0
  151.9071  138.4633  158.0181 H   0  0  0  0  0  0  0  0  0  0  0  0
  150.3478  138.5076  157.2078 H   0  0  0  0  0  0  0  0  0  0  0  0
  151.7409  136.9336  154.2078 H   0  0  0  0  0  0  0  0  0  0  0  0
  151.7275  138.6841  154.4264 H   0  0  0  0  0  0  0  0  0  0  0  0
  150.2860  137.7263  154.8129 H   0  0  0  0  0  0  0  0  0  0  0  0
  1  2  1  0  0  0  0
  1 23  1  0  0  0  0
  1 24  1  0  0  0  0
  1 25  1  0  0  0  0
  2  3  1  0  0  0  0
  3  4  1  0  0  0  0
  3 26  1  0  0  0  0
  3 27  1  0  0  0  0
  4  5  1  0  0  0  0
  4 28  1  0  0  0  0
  4 29  1  0  0  0  0
  5  6  1  0  0  0  0
  5 30  1  0  0  0  0
  6 18  1  0  0  0  0
  6  7  2  0  0  0  0
  7  8  1  0  0  0  0
  8 16  1  0  0  0  0
  8  9  2  0  0  0  0
  9 10  1  0  0  0  0
  9 18  1  0  0  0  0
 10 11  2  0  0  0  0
 10 12  1  0  0  0  0
 12 13  1  0  0  0  0
 12 14  1  0  0  0  0
 13 31  1  0  0  0  0
 13 32  1  0  0  0  0
 13 33  1  0  0  0  0
 14 15  2  0  0  0  0
 14 16  1  0  0  0  0
 16 17  1  0  0  0  0
 17 34  1  0  0  0  0
 17 35  1  0  0  0  0
 17 36  1  0  0  0  0
 18 19  1  0  0  0  0
 19 20  1  0  0  0  0
 19 37  1  0  0  0  0
 19 38  1  0  0  0  0
 20 21  1  0  0  0  0
 20 39  1  0  0  0  0
 20 40  1  0  0  0  0
 21 22  1  0  0  0  0
 22 41  1  0  0  0  0
 22 42  1  0  0  0  0
 22 43  1  0  0  0  0
M  END
> <s_m_source_file>
AV-unprocessed.smi

> <i_m_source_file_index>
538

> <i_lp_mmshare_version>
43012

> <i_f3d_flags>
0

> <s_epik_input>
W0NIM11PW0NIMl1bQ0gyXVtOSF1jKG4xKW4oW0NIMl1bQ0gyXU9bQ0gzXSljKGMxMiljKD1PKW4oW0NIM10pYyg9TyluMltDSDNd

> <s_epik_cmdline>
J2VwaWtfcHl0aG9uJywgJy1waCcsICc3LjAnLCAnLXRuJywgJzgnLCAnLW1hJywgJzIwMCcsICctbWV0YWxfYmluZGluZycsICctaW1hZScsICc8aW5maWxlLm1hZT4nLCAnLW9tYWUnLCAnPG91dGZpbGUubWFlPic=

> <r_lp_tautomer_probability>
1

> <r_epik_Ionization_Penalty>
5.57243e-05

> <r_epik_Ionization_Penalty_Charging>
2.44156e-09

> <r_epik_Ionization_Penalty_Neutral>
5.57218e-05

> <r_epik_State_Penalty>
-0

> <r_epik_Charging_Adjusted_Penalty>
2.44156e-09

> <i_epik_Tot_Q>
0

> <i_epik_Tot_abs_Q>
0

> <r_epik_Metal_State_Penalty>
-0

> <b_epik_Metal_Only>
0

> <s_lp_Force_Field>
OPLS_2005

> <r_lp_Energy>
28.2468

> <b_lp_Chiralities_Consistent>
1

> <s_lp_Variant>
AV-unprocessed.smi:538-1

> <Gold.Version>
5.8.1

> <Gold.Id.Protein>
6NUR|6NUR_protein|mol2

> <Gold.PLP.Fitness>
46.9334

> <Gold.PLP.PLP>
-44.7363

> <Gold.PLP.part.hbond>
-3.4426

> <Gold.PLP.part.metal>
0.0000

> <Gold.PLP.part.buried>
-3.8812

> <Gold.PLP.part.nonpolar>
-37.0595

> <Gold.PLP.part.repulsive>
0.8624

> <Gold.PLP.ligand.clash>
3.1863

> <Gold.PLP.ligand.torsion>
0.3353

> <Gold.PLP.Chemscore.Hbond>
1.9920

> <Gold.PLP.Chemscore.CHOScore>
0.0000

> <Gold.PLP.Chemscore.Metal>
0.0000

> <Gold.Chemscore.Hbonds>
donor molecule, donor type, donor heavy atom, donor atom, acceptor molecule, acceptor atom, score
      L1  H     5    30       P1  8028  1.00
      P1  H  7997  8008       L1    11  1.00

> <Gold.PLP.Chemscore.Internal.Correction>
0.0780

> <Gold.Rescore>
     Score         DG    S(hbond)    S(metal)    S(lipo)     H(rot)  DE(clash)    DE(int)     intcor
     11.94     -13.37       1.77        0.00      66.91       2.28       0.02       1.42       ----

> <Gold.Chemscore.Fitness>
11.9387

> <Gold.Chemscore.DG>
-13.3738

> <Gold.Chemscore.ZeroCoef>
-5.4800

> <Gold.Chemscore.Hbond>
1.7670

> <Gold.Chemscore.Metal>
0.0000

> <Gold.Chemscore.Lipo>
66.9071

> <Gold.Chemscore.Internal_Hbond>
0.0000

> <Gold.Chemscore.DEClash>
0.0174

> <Gold.Chemscore.DEInternal>
1.4177

> <Gold.Chemscore.Rot>
2.2797

> <Gold.Chemscore.Internal.Correction>
   9.000000E+99

> <Gold.Chemscore.Hbonds>
donor molecule, donor type, donor heavy atom, donor atom, acceptor molecule, acceptor atom, score
      L1  H     5    30       P1  8028  0.95
      P1  H  7997  8008       L1    11  0.34

> <Gold.Chemscore.Hbond.Weighted>
-5.9018

> <Gold.Chemscore.Metal.Weighted>
-0.0000

> <Gold.Chemscore.Lipo.Weighted>
-7.8281

> <Gold.Chemscore.Internal_Hbond.Weighted>
0.0000

> <Gold.Chemscore.DEClash.Weighted>
0.0174

> <Gold.Chemscore.DEInternal.Weighted>
1.4177

> <Gold.Chemscore.Rot.Weighted>
5.8361

> <Gold.Chemscore.Internal.Correction.Weighted>
   9.000000E+99

> <Gold.Protein.RotatedTorsions>
[ 6907 6896 6895 6894 ] final  118.24 input  -60.11 | X-H torsion
[ 7974 7965 7964 7962 ] final  -18.82 input  175.53 | X-H torsion
[ 8008 7997 7996 7995 ] final  -91.56 input   59.86 | X-H torsion
[ 10167 10162 10161 10158 ] final   16.44 input  -65.29 | X-H torsion
[ 10718 10713 10712 10709 ] final  -44.49 input   66.30 | X-H torsion
[ 10763 10752 10751 10750 ] final  165.19 input  -60.55 | X-H torsion
[ 11005 11000 10999 10996 ] final -167.65 input  -57.11 | X-H torsion

> <Gold.Protein.ActiveResidues>
 VAL166  LYS551  ARG553  GLY616  TRP617  ASP618  TYR619  PRO620  LYS621  CYS622 
 ASP623  PHE694  ASN695  SER759  ASP760  ASP761  ALA762  ILE779  LEU786  VAL792 
 PHE793  MET794  SER795  GLU796  ALA797  LYS798  CYS799  TRP800  GLU811  SER814 

> <Gold.Protein.RotatedAtoms>
  152.4556  133.7717  159.6802 H   0  0  0  0  0  0  0  0  0  0  0  0  # atno 6907 bound_to 6896
  150.8482  133.7819  159.3041 H   0  0  0  0  0  0  0  0  0  0  0  0  # atno 6908 bound_to 6896
  151.5422  135.1071  159.9981 H   0  0  0  0  0  0  0  0  0  0  0  0  # atno 6909 bound_to 6896
  146.1873  140.3975  142.8471 H   0  0  0  0  0  0  0  0  0  0  0  0  # atno 7974 bound_to 7965
  154.7122  140.0518  157.0561 H   0  0  0  0  0  0  0  0  0  0  0  0  # atno 8008 bound_to 7997
  155.0539  140.3182  155.4664 H   0  0  0  0  0  0  0  0  0  0  0  0  # atno 8009 bound_to 7997
  156.2793  140.2111  156.5665 H   0  0  0  0  0  0  0  0  0  0  0  0  # atno 8010 bound_to 7997
  140.5797  143.9004  150.6780 H   0  0  0  0  0  0  0  0  0  0  0  0  # atno 10167 bound_to 10162
  156.2380  130.4177  149.8794 H   0  0  0  0  0  0  0  0  0  0  0  0  # atno 10718 bound_to 10713
  154.3203  135.2756  155.2523 H   0  0  0  0  0  0  0  0  0  0  0  0  # atno 10763 bound_to 10752
  154.4879  135.5841  153.6441 H   0  0  0  0  0  0  0  0  0  0  0  0  # atno 10764 bound_to 10752
  152.9877  135.6127  154.3387 H   0  0  0  0  0  0  0  0  0  0  0  0  # atno 10765 bound_to 10752
  140.5508  134.5430  157.5122 H   0  0  0  0  0  0  0  0  0  0  0  0  # atno 11005 bound_to 11000
  144.8420  140.6872  143.6223 LP  0  0  0  0  0  0  0  0  0  0  0  0  # atno 17320 bound_to 7965
  145.3901  139.1618  143.4234 LP  0  0  0  0  0  0  0  0  0  0  0  0  # atno 17321 bound_to 7965
  140.2500  143.3600  152.1414 LP  0  0  0  0  0  0  0  0  0  0  0  0  # atno 17342 bound_to 10162
  139.5163  144.6975  151.5588 LP  0  0  0  0  0  0  0  0  0  0  0  0  # atno 17343 bound_to 10162
  156.6385  130.8695  151.3509 LP  0  0  0  0  0  0  0  0  0  0  0  0  # atno 17370 bound_to 10713
  157.7163  130.9501  150.1267 LP  0  0  0  0  0  0  0  0  0  0  0  0  # atno 17371 bound_to 10713
  139.9456  134.7708  156.0570 LP  0  0  0  0  0  0  0  0  0  0  0  0  # atno 17394 bound_to 11000
  141.1172  133.6624  156.3125 LP  0  0  0  0  0  0  0  0  0  0  0  0  # atno 17395 bound_to 11000

$$$$
