AV-unprocessed.smi:747|AV-procd|sdf|3580|dock9
  -GOLD-   22720 0573D 1   1.00000     0.00000
 Structure written by MMmdl.
 48 49  0  0  0  0  0  0  0  0  1 V2000
  146.6588  143.2505  156.1741 C   0  0  0  0  0  0  0  0  0  0  0  0
  147.4123  142.5013  155.1903 N   0  0  0  0  0  0  0  0  0  0  0  0
  147.2885  142.8375  153.8201 C   0  0  0  0  0  0  0  0  0  0  0  0
  146.5590  143.7454  153.4206 O   0  0  0  0  0  0  0  0  0  0  0  0
  148.0966  142.0190  152.9239 C   0  0  0  0  0  0  0  0  0  0  0  0
  148.8823  141.0310  153.4049 C   0  0  0  0  0  0  0  0  0  0  0  0
  148.9833  140.7225  154.7491 N   0  0  0  0  0  0  0  0  0  0  0  0
  149.8781  139.6402  155.1781 C   0  0  0  0  0  0  0  0  0  0  0  0
  151.1294  140.1377  155.9147 C   0  0  0  0  0  0  0  0  0  0  0  0
  152.1561  140.4341  155.3016 O   0  0  0  0  0  0  0  0  0  0  0  0
  151.0241  140.2100  157.2497 N   0  0  0  0  0  0  0  0  0  0  0  0
  152.0838  140.6243  158.1723 C   0  0  2  0  0  0  0  0  0  0  0  0
  152.3726  139.5000  159.2080 C   0  0  0  0  0  0  0  0  0  0  0  0
  153.7018  139.6163  159.9713 C   0  0  0  0  0  0  0  0  0  0  0  0
  153.6275  139.9559  161.2604 N   0  0  0  0  0  0  0  0  0  0  0  0
  154.7790  139.4136  159.4144 O   0  0  0  0  0  0  0  0  0  0  0  0
  151.7471  142.0138  158.7877 C   0  0  0  0  0  0  0  0  0  0  0  0
  151.5738  143.1024  157.6987 C   0  0  0  0  0  0  0  0  0  0  0  0
  151.2447  144.4789  158.2986 C   0  0  0  0  0  0  0  0  0  0  0  0
  152.3115  144.9137  159.3116 C   0  0  0  0  0  0  0  0  0  0  0  0
  152.4819  143.8553  160.4090 C   0  0  0  0  0  0  0  0  0  0  0  0
  152.8108  142.4777  159.8117 C   0  0  0  0  0  0  0  0  0  0  0  0
  148.2377  141.4684  155.6866 C   0  0  0  0  0  0  0  0  0  0  0  0
  148.3123  141.2211  156.8929 O   0  0  0  0  0  0  0  0  0  0  0  0
  146.0482  144.0215  155.7059 H   0  0  0  0  0  0  0  0  0  0  0  0
  147.3806  143.7109  156.8512 H   0  0  0  0  0  0  0  0  0  0  0  0
  146.0175  142.5404  156.6995 H   0  0  0  0  0  0  0  0  0  0  0  0
  148.0669  142.2071  151.8607 H   0  0  0  0  0  0  0  0  0  0  0  0
  149.4653  140.4554  152.7004 H   0  0  0  0  0  0  0  0  0  0  0  0
  149.3470  138.9309  155.8151 H   0  0  0  0  0  0  0  0  0  0  0  0
  150.1978  139.0671  154.3064 H   0  0  0  0  0  0  0  0  0  0  0  0
  150.1450  139.9399  157.6668 H   0  0  0  0  0  0  0  0  0  0  0  0
  152.9958  140.7570  157.5870 H   0  0  0  0  0  0  0  0  0  0  0  0
  151.5728  139.4740  159.9490 H   0  0  0  0  0  0  0  0  0  0  0  0
  152.3255  138.5294  158.7136 H   0  0  0  0  0  0  0  0  0  0  0  0
  154.4703  140.0434  161.8093 H   0  0  0  0  0  0  0  0  0  0  0  0
  152.7255  140.1214  161.6830 H   0  0  0  0  0  0  0  0  0  0  0  0
  150.7953  141.9321  159.3146 H   0  0  0  0  0  0  0  0  0  0  0  0
  152.4863  143.1750  157.1055 H   0  0  0  0  0  0  0  0  0  0  0  0
  150.7790  142.8322  157.0033 H   0  0  0  0  0  0  0  0  0  0  0  0
  151.1652  145.2204  157.5029 H   0  0  0  0  0  0  0  0  0  0  0  0
  150.2695  144.4421  158.7857 H   0  0  0  0  0  0  0  0  0  0  0  0
  153.2622  145.0690  158.8000 H   0  0  0  0  0  0  0  0  0  0  0  0
  152.0369  145.8710  159.7555 H   0  0  0  0  0  0  0  0  0  0  0  0
  153.2711  144.1590  161.0976 H   0  0  0  0  0  0  0  0  0  0  0  0
  151.5665  143.7887  160.9983 H   0  0  0  0  0  0  0  0  0  0  0  0
  152.8915  141.7648  160.6315 H   0  0  0  0  0  0  0  0  0  0  0  0
  153.7911  142.5124  159.3344 H   0  0  0  0  0  0  0  0  0  0  0  0
  1  2  1  0  0  0  0
  1 25  1  0  0  0  0
  1 26  1  0  0  0  0
  1 27  1  0  0  0  0
  2 23  1  0  0  0  0
  2  3  1  0  0  0  0
  3  4  2  0  0  0  0
  3  5  1  0  0  0  0
  5  6  2  0  0  0  0
  5 28  1  0  0  0  0
  6  7  1  0  0  0  0
  6 29  1  0  0  0  0
  7  8  1  0  0  0  0
  7 23  1  0  0  0  0
  8  9  1  0  0  0  0
  8 30  1  0  0  0  0
  8 31  1  0  0  0  0
  9 10  2  0  0  0  0
  9 11  1  0  0  0  0
 11 12  1  0  0  0  0
 11 32  1  0  0  0  0
 12 13  1  0  0  0  0
 12 17  1  0  0  0  0
 12 33  1  0  0  0  0
 13 14  1  0  0  0  0
 13 34  1  0  0  0  0
 13 35  1  0  0  0  0
 14 15  1  0  0  0  0
 14 16  2  0  0  0  0
 15 36  1  0  0  0  0
 15 37  1  0  0  0  0
 17 22  1  0  0  0  0
 17 18  1  0  0  0  0
 17 38  1  0  0  0  0
 18 19  1  0  0  0  0
 18 39  1  0  0  0  0
 18 40  1  0  0  0  0
 19 20  1  0  0  0  0
 19 41  1  0  0  0  0
 19 42  1  0  0  0  0
 20 21  1  0  0  0  0
 20 43  1  0  0  0  0
 20 44  1  0  0  0  0
 21 22  1  0  0  0  0
 21 45  1  0  0  0  0
 21 46  1  0  0  0  0
 22 47  1  0  0  0  0
 22 48  1  0  0  0  0
 23 24  2  0  0  0  0
M  END
> <s_m_source_file>
AV-unprocessed.smi

> <i_m_source_file_index>
747

> <i_lp_mmshare_version>
43012

> <i_f3d_flags>
0

> <s_epik_input>
W0NIM11uMWMoPU8pW2NIXVtjSF1uKGMxPU8pW0NIMl1DKD1PKVtOSF1bQ0BIXShbQ0gyXUMoPU8pW05IMl0pW0NIXTJbQ0gyXVtDSDJdW0NIMl1bQ0gyXVtDSDJdMg==

> <s_epik_cmdline>
J2VwaWtfcHl0aG9uJywgJy1waCcsICc3LjAnLCAnLXRuJywgJzgnLCAnLW1hJywgJzIwMCcsICctbWV0YWxfYmluZGluZycsICctaW1hZScsICc8aW5maWxlLm1hZT4nLCAnLW9tYWUnLCAnPG91dGZpbGUubWFlPic=

> <r_lp_tautomer_probability>
1

> <r_epik_Ionization_Penalty>
6.11221e-08

> <r_epik_Ionization_Penalty_Charging>
1.14855e-08

> <r_epik_Ionization_Penalty_Neutral>
4.96365e-08

> <r_epik_State_Penalty>
-0

> <r_epik_Charging_Adjusted_Penalty>
1.14855e-08

> <i_epik_Tot_Q>
0

> <i_epik_Tot_abs_Q>
0

> <r_epik_Metal_State_Penalty>
-0

> <b_epik_Metal_Only>
0

> <s_lp_Force_Field>
OPLS_2005

> <r_lp_Energy>
14.8557

> <b_lp_Chiralities_Consistent>
1

> <s_lp_Variant>
AV-unprocessed.smi:747-1

> <Gold.Version>
5.8.1

> <Gold.Id.Protein>
6NUR|6NUR_protein|mol2

> <Gold.PLP.Fitness>
50.1123

> <Gold.PLP.PLP>
-42.9411

> <Gold.PLP.part.hbond>
-2.0000

> <Gold.PLP.part.metal>
0.0000

> <Gold.PLP.part.buried>
-7.3820

> <Gold.PLP.part.nonpolar>
-34.4539

> <Gold.PLP.part.repulsive>
0.3250

> <Gold.PLP.ligand.clash>
0.0000

> <Gold.PLP.ligand.torsion>
0.7690

> <Gold.PLP.Chemscore.Hbond>
1.8400

> <Gold.PLP.Chemscore.CHOScore>
1.0000

> <Gold.PLP.Chemscore.Metal>
0.0000

> <Gold.Chemscore.Hbonds>
donor molecule, donor type, donor heavy atom, donor atom, acceptor molecule, acceptor atom, score
      P1  H  7989  7998       L1    10  0.61
      P1  H  7997  8009       L1    16  0.37
      P1  H  7997  8010       L1    10  0.18

> <Gold.PLP.Chemscore.Internal.Correction>
0.1891

> <Gold.Rescore>
     Score         DG    S(hbond)    S(metal)    S(lipo)     H(rot)  DE(clash)    DE(int)     intcor
     14.32     -15.37       1.74        0.00      98.56       2.91       0.03       1.02       ----

> <Gold.Chemscore.Fitness>
14.3190

> <Gold.Chemscore.DG>
-15.3674

> <Gold.Chemscore.ZeroCoef>
-5.4800

> <Gold.Chemscore.Hbond>
1.7397

> <Gold.Chemscore.Metal>
0.0000

> <Gold.Chemscore.Lipo>
98.5642

> <Gold.Chemscore.Internal_Hbond>
0.0000

> <Gold.Chemscore.DEClash>
0.0284

> <Gold.Chemscore.DEInternal>
1.0200

> <Gold.Chemscore.Rot>
2.9122

> <Gold.Chemscore.Internal.Correction>
   9.000000E+99

> <Gold.Chemscore.Hbonds>
donor molecule, donor type, donor heavy atom, donor atom, acceptor molecule, acceptor atom, score
      P1  H  7989  7998       L1    10  0.39
      P1  H  7997  8009       L1    16  0.36
      P1  H  7997  8010       L1    10  0.19

> <Gold.Chemscore.Hbond.Weighted>
-5.8107

> <Gold.Chemscore.Metal.Weighted>
-0.0000

> <Gold.Chemscore.Lipo.Weighted>
-11.5320

> <Gold.Chemscore.Internal_Hbond.Weighted>
0.0000

> <Gold.Chemscore.DEClash.Weighted>
0.0284

> <Gold.Chemscore.DEInternal.Weighted>
1.0200

> <Gold.Chemscore.Rot.Weighted>
7.4553

> <Gold.Chemscore.Internal.Correction.Weighted>
   9.000000E+99

> <Gold.Protein.RotatedTorsions>
[ 6907 6896 6895 6894 ] final  141.10 input  -60.11 | X-H torsion
[ 7974 7965 7964 7962 ] final  124.43 input  175.53 | X-H torsion
[ 8008 7997 7996 7995 ] final   95.32 input   59.86 | X-H torsion
[ 10167 10162 10161 10158 ] final  154.57 input  -65.29 | X-H torsion
[ 10718 10713 10712 10709 ] final  120.95 input   66.30 | X-H torsion
[ 10763 10752 10751 10750 ] final   40.96 input  -60.55 | X-H torsion
[ 11005 11000 10999 10996 ] final  -98.06 input  -57.11 | X-H torsion

> <Gold.Protein.ActiveResidues>
 VAL166  LYS551  ARG553  GLY616  TRP617  ASP618  TYR619  PRO620  LYS621  CYS622 
 ASP623  PHE694  ASN695  SER759  ASP760  ASP761  ALA762  ILE779  LEU786  VAL792 
 PHE793  MET794  SER795  GLU796  ALA797  LYS798  CYS799  TRP800  GLU811  SER814 

> <Gold.Protein.RotatedAtoms>
  152.2351  133.5089  159.5237 H   0  0  0  0  0  0  0  0  0  0  0  0  # atno 6907 bound_to 6896
  150.7048  134.1164  159.4028 H   0  0  0  0  0  0  0  0  0  0  0  0  # atno 6908 bound_to 6896
  151.9085  135.0348  160.0563 H   0  0  0  0  0  0  0  0  0  0  0  0  # atno 6909 bound_to 6896
  145.0845  139.3632  143.4892 H   0  0  0  0  0  0  0  0  0  0  0  0  # atno 7974 bound_to 7965
  156.0676  140.3288  155.7536 H   0  0  0  0  0  0  0  0  0  0  0  0  # atno 8008 bound_to 7997
  155.5357  140.0597  157.2897 H   0  0  0  0  0  0  0  0  0  0  0  0  # atno 8009 bound_to 7997
  154.4513  140.1919  156.0529 H   0  0  0  0  0  0  0  0  0  0  0  0  # atno 8010 bound_to 7997
  139.4823  144.5175  151.7929 H   0  0  0  0  0  0  0  0  0  0  0  0  # atno 10167 bound_to 10162
  157.5853  131.1070  150.8107 H   0  0  0  0  0  0  0  0  0  0  0  0  # atno 10718 bound_to 10713
  152.9921  135.6176  154.2710 H   0  0  0  0  0  0  0  0  0  0  0  0  # atno 10763 bound_to 10752
  154.2442  135.2787  155.2843 H   0  0  0  0  0  0  0  0  0  0  0  0  # atno 10764 bound_to 10752
  154.5343  135.5779  153.6843 H   0  0  0  0  0  0  0  0  0  0  0  0  # atno 10765 bound_to 10752
  141.1358  133.8217  157.0788 H   0  0  0  0  0  0  0  0  0  0  0  0  # atno 11005 bound_to 11000
  146.3531  140.0651  142.8627 LP  0  0  0  0  0  0  0  0  0  0  0  0  # atno 17320 bound_to 7965
  145.1138  140.9421  143.4640 LP  0  0  0  0  0  0  0  0  0  0  0  0  # atno 17321 bound_to 7965
  140.4685  144.1621  150.5915 LP  0  0  0  0  0  0  0  0  0  0  0  0  # atno 17342 bound_to 10162
  140.4408  143.2527  151.9475 LP  0  0  0  0  0  0  0  0  0  0  0  0  # atno 17343 bound_to 10162
  156.8542  130.5091  149.5309 LP  0  0  0  0  0  0  0  0  0  0  0  0  # atno 17370 bound_to 10713
  156.0902  130.5889  150.9719 LP  0  0  0  0  0  0  0  0  0  0  0  0  # atno 17371 bound_to 10713
  140.0464  134.9828  157.1057 LP  0  0  0  0  0  0  0  0  0  0  0  0  # atno 17394 bound_to 11000
  140.4056  134.2036  155.7163 LP  0  0  0  0  0  0  0  0  0  0  0  0  # atno 17395 bound_to 11000

$$$$
