#       Name:                AV-unprocessed.smi:674
#       Creating user name   scv26
#       Creation time:       Fri Mar 27 00:26:28 2020


#       File generated by GOLD software.
#

@<TRIPOS>MOLECULE
AV-unprocessed.smi:674
    52    53     1
SMALL
NO_CHARGES


@<TRIPOS>ATOM
      1 ****        -5.4061   3.9973  -1.1075 C.3            1 S1                 0.0000
      2 ****        -4.7654   3.9208   0.2831 C.3            1 S1                 0.0000
      3 ****        -4.1096   2.5914   0.5295 C.2            1 S1                 0.0000
      4 ****        -2.7210   2.2774   0.4702 C.2            1 S1                 0.0000
      5 ****        -2.6989   0.9434   0.7739 C.2            1 S1                 0.0000
      6 ****        -1.6303   0.1070   0.8583 N.am           1 S1                 0.0000
      7 ****        -0.3249   0.3937   0.7134 C.2            1 S1                 0.0000
      8 ****         0.1436   1.5151   0.5166 O.2            1 S1                 0.0000
      9 ****         0.4265  -0.7117   0.8077 N.am           1 S1                 0.0000
     10 ****         1.8794  -0.7337   0.6712 C.3            1 S1                 0.0000
     11 ****         2.4688  -2.1290   0.8684 C.3            1 S1                 0.0000
     12 ****         3.4670  -1.7857  -0.2540 C.3            1 S1                 0.0000
     13 ****         3.9652  -2.8989  -1.1846 C.3            1 S1                 0.0000
     14 ****         4.5716  -1.0417   0.2786 O.3            1 S1                 0.0000
     15 ****         5.5709  -1.7704   0.9810 C.3            1 S1                 0.0000
     16 ****         2.4015  -0.7738  -0.7887 C.3            1 S1                 0.0000
     17 ****         1.4323  -1.3166  -1.8563 C.3            1 S1                 0.0000
     18 ****         2.9353   0.5501  -1.3474 C.3            1 S1                 0.0000
     19 ****        -3.9916   0.5149   0.9870 N.pl3          1 S1                 0.0000
     20 ****        -4.4966  -0.8007   1.3294 C.3            1 S1                 0.0000
     21 ****        -4.8590   1.5389   0.8395 N.2            1 S1                 0.0000
     22 ****        -5.8715   4.9698  -1.2679 H              1 S1                 0.0000
     23 ****        -6.1770   3.2358  -1.2291 H              1 S1                 0.0000
     24 ****        -4.6622   3.8502  -1.8910 H              1 S1                 0.0000
     25 ****        -4.0299   4.7193   0.3849 H              1 S1                 0.0000
     26 ****        -5.5232   4.1104   1.0443 H              1 S1                 0.0000
     27 ****        -1.8977   2.9359   0.2385 H              1 S1                 0.0000
     28 ****        -1.8551  -0.8596   1.0416 H              1 S1                 0.0000
     29 ****        -0.0329  -1.5953   0.9724 H              1 S1                 0.0000
     30 ****         2.3914   0.0106   1.2858 H              1 S1                 0.0000
     31 ****         2.8961  -2.2979   1.8564 H              1 S1                 0.0000
     32 ****         1.7856  -2.9351   0.5952 H              1 S1                 0.0000
     33 ****         3.1424  -3.4102  -1.6826 H              1 S1                 0.0000
     34 ****         4.5140  -3.6687  -0.6429 H              1 S1                 0.0000
     35 ****         4.6205  -2.5022  -1.9603 H              1 S1                 0.0000
     36 ****         6.2496  -1.0679   1.4639 H              1 S1                 0.0000
     37 ****         6.1694  -2.3822   0.3061 H              1 S1                 0.0000
     38 ****         5.1517  -2.4111   1.7562 H              1 S1                 0.0000
     39 ****         1.9401  -1.4894  -2.8057 H              1 S1                 0.0000
     40 ****         0.6167  -0.6197  -2.0520 H              1 S1                 0.0000
     41 ****         0.9777  -2.2613  -1.5580 H              1 S1                 0.0000
     42 ****         3.5632   0.3882  -2.2240 H              1 S1                 0.0000
     43 ****         3.5347   1.0903  -0.6143 H              1 S1                 0.0000
     44 ****         2.1253   1.2188  -1.6403 H              1 S1                 0.0000
     45 ****        -3.7257  -1.5577   1.1862 H              1 S1                 0.0000
     46 ****        -5.3484  -1.0463   0.6943 H              1 S1                 0.0000
     47 ****        -4.8148  -0.8102   2.3722 H              1 S1                 0.0000
     48 ****        -0.4641   2.3066   0.4526 LP             1 S1                 0.0000
     49 ****         1.1319   1.6343   0.4208 LP             1 S1                 0.0000
     50 ****         4.1989  -0.3599   0.9080 LP             1 S1                 0.0000
     51 ****         5.0193  -0.5794  -0.4868 LP             1 S1                 0.0000
     52 ****        -5.8533   1.5111   0.9418 LP             1 S1                 0.0000
@<TRIPOS>BOND
    1    1    2 1     
    2    1   22 1     
    3    1   23 1     
    4    1   24 1     
    5    2    3 1     
    6    2   25 1     
    7    2   26 1     
    8    3   21 2     
    9    3    4 1     
   10    4    5 2     
   11    4   27 1     
   12    5    6 1     
   13    5   19 1     
   14    6    7 am    
   15    6   28 1     
   16    7    8 2     
   17    7    9 am    
   18    9   10 1     
   19    9   29 1     
   20   10   16 1     
   21   10   11 1     
   22   10   30 1     
   23   11   12 1     
   24   11   31 1     
   25   11   32 1     
   26   12   13 1     
   27   12   14 1     
   28   12   16 1     
   29   13   33 1     
   30   13   34 1     
   31   13   35 1     
   32   14   15 1     
   33   15   36 1     
   34   15   37 1     
   35   15   38 1     
   36   16   17 1     
   37   16   18 1     
   38   17   39 1     
   39   17   40 1     
   40   17   41 1     
   41   18   42 1     
   42   18   43 1     
   43   18   44 1     
   44   19   20 1     
   45   19   21 1     
   46   20   45 1     
   47   20   46 1     
   48   20   47 1     
   49    8   48 1     
   50    8   49 1     
   51   14   50 1     
   52   14   51 1     
   53   21   52 1     
@<TRIPOS>SUBSTRUCTURE
      1 S1             1
@<TRIPOS>SET
LONE_PAIRS      STATIC     ATOMS    <user>   **** ""
5 48 49 50 51 52
DONOR_HYDROGENS      STATIC     ATOMS    <user>   **** ""
2 28 29
ATOM$BLUE        STATIC     ATOMS    COLORGROUP SYSTEM
5 48 49 50 51 52
ATOM$RED        STATIC     ATOMS    COLORGROUP SYSTEM
2 28 29
