AV-unprocessed.smi:2171|AV-procd|sdf|8833|dock4
  -GOLD-   2272012 23D 1   1.00000     0.00000
 Structure written by MMmdl.
 39 41  0  0  0  0  0  0  0  0  2 V2000
  151.1700  141.1208  158.0914 O   0  0  0  0  0  0  0  0  0  0  0  0
  150.6282  142.1987  157.8483 C   0  0  0  0  0  0  0  0  0  0  0  0
  151.0253  143.4497  158.6333 C   0  0  0  0  0  0  0  0  0  0  0  0
  151.8332  143.1090  159.7908 N   0  0  0  0  0  0  0  0  0  0  0  0
  152.9963  142.3688  159.8350 C   0  0  0  0  0  0  0  0  0  0  0  0
  153.3881  142.3059  161.1415 C   0  0  0  0  0  0  0  0  0  0  0  0
  152.3886  143.0479  161.8307 C   0  0  0  0  0  0  0  0  0  0  0  0
  151.4581  143.5260  161.0203 N   0  0  0  0  0  0  0  0  0  0  0  0
  149.6848  142.3578  156.9067 N   0  0  0  0  0  0  0  0  0  0  0  0
  149.1408  141.2966  156.0653 C   0  0  1  0  0  0  0  0  0  0  0  0
  147.9210  141.7496  155.2501 C   0  0  0  0  0  0  0  0  0  0  0  0
  148.0696  141.0664  153.8761 C   0  0  0  0  0  0  0  0  0  0  0  0
  149.2639  140.1951  153.9610 N   0  3  2  0  0  0  0  0  0  0  0  0
  148.9029  138.7798  154.2517 C   0  0  0  0  0  0  0  0  0  0  0  0
  150.1329  137.9223  154.5771 C   0  0  0  0  0  0  0  0  0  0  0  0
  150.8939  138.5172  155.7646 C   0  0  0  0  0  0  0  0  0  0  0  0
  151.3108  139.9532  155.4319 C   0  0  0  0  0  0  0  0  0  0  0  0
  150.1263  140.8385  154.9820 C   0  0  2  0  0  0  0  0  0  0  0  0
  151.5954  144.1267  157.9958 H   0  0  0  0  0  0  0  0  0  0  0  0
  150.1322  143.9876  158.9553 H   0  0  0  0  0  0  0  0  0  0  0  0
  153.4410  141.9521  158.9434 H   0  0  0  0  0  0  0  0  0  0  0  0
  154.2567  141.8062  161.5437 H   0  0  0  0  0  0  0  0  0  0  0  0
  152.3114  143.2509  162.8886 H   0  0  0  0  0  0  0  0  0  0  0  0
  149.2977  143.2829  156.7843 H   0  0  0  0  0  0  0  0  0  0  0  0
  148.8412  140.4444  156.6777 H   0  0  0  0  0  0  0  0  0  0  0  0
  146.9929  141.4628  155.7458 H   0  0  0  0  0  0  0  0  0  0  0  0
  147.9018  142.8334  155.1240 H   0  0  0  0  0  0  0  0  0  0  0  0
  147.1722  140.5196  153.5828 H   0  0  0  0  0  0  0  0  0  0  0  0
  148.2510  141.8216  153.1103 H   0  0  0  0  0  0  0  0  0  0  0  0
  148.2035  138.7381  155.0882 H   0  0  0  0  0  0  0  0  0  0  0  0
  148.3805  138.3634  153.3897 H   0  0  0  0  0  0  0  0  0  0  0  0
  149.8243  136.9020  154.8070 H   0  0  0  0  0  0  0  0  0  0  0  0
  150.7867  137.8613  153.7062 H   0  0  0  0  0  0  0  0  0  0  0  0
  150.2700  138.5021  156.6590 H   0  0  0  0  0  0  0  0  0  0  0  0
  151.7742  137.9141  155.9888 H   0  0  0  0  0  0  0  0  0  0  0  0
  151.8250  140.4030  156.2810 H   0  0  0  0  0  0  0  0  0  0  0  0
  152.0453  139.9200  154.6262 H   0  0  0  0  0  0  0  0  0  0  0  0
  150.5464  141.7324  154.5159 H   0  0  0  0  0  0  0  0  0  0  0  0
  149.7493  140.2042  153.0752 H   0  0  0  0  0  0  0  0  0  0  0  0
  1  2  2  0  0  0  0
  2  3  1  0  0  0  0
  2  9  1  0  0  0  0
  3  4  1  0  0  0  0
  3 19  1  0  0  0  0
  3 20  1  0  0  0  0
  4  8  1  0  0  0  0
  4  5  1  0  0  0  0
  5  6  2  0  0  0  0
  5 21  1  0  0  0  0
  6  7  1  0  0  0  0
  6 22  1  0  0  0  0
  7  8  2  0  0  0  0
  7 23  1  0  0  0  0
  9 10  1  0  0  0  0
  9 24  1  0  0  0  0
 10 18  1  0  0  0  0
 10 11  1  0  0  0  0
 10 25  1  0  0  0  0
 11 12  1  0  0  0  0
 11 26  1  0  0  0  0
 11 27  1  0  0  0  0
 12 13  1  0  0  0  0
 12 28  1  0  0  0  0
 12 29  1  0  0  0  0
 13 18  1  0  0  0  0
 13 14  1  0  0  0  0
 13 39  1  0  0  0  0
 14 15  1  0  0  0  0
 14 30  1  0  0  0  0
 14 31  1  0  0  0  0
 15 16  1  0  0  0  0
 15 32  1  0  0  0  0
 15 33  1  0  0  0  0
 16 17  1  0  0  0  0
 16 34  1  0  0  0  0
 16 35  1  0  0  0  0
 17 18  1  0  0  0  0
 17 36  1  0  0  0  0
 17 37  1  0  0  0  0
 18 38  1  0  0  0  0
M  CHG  1  13   1
M  END
> <s_m_source_file>
AV-unprocessed.smi

> <i_m_source_file_index>
2171

> <i_lp_mmshare_version>
43012

> <i_f3d_flags>
0

> <s_epik_input>
bjFbY0hdW2NIXVtjSF1uMVtDSDJdQyg9TylbTkhdW0NASF0oW0NIMl1bQ0gyXTIpW0NAQEhdKE4yMylbQ0gyXVtDSDJdW0NIMl1bQ0gyXTM=

> <s_epik_cmdline>
J2VwaWtfcHl0aG9uJywgJy1waCcsICc3LjAnLCAnLXRuJywgJzgnLCAnLW1hJywgJzIwMCcsICctbWV0YWxfYmluZGluZycsICctaW1hZScsICc8aW5maWxlLm1hZT4nLCAnLW9tYWUnLCAnPG91dGZpbGUubWFlPic=

> <r_lp_tautomer_probability>
1

> <r_epik_Ionization_Penalty>
0.00204179

> <r_epik_Ionization_Penalty_Charging>
0.00203239

> <r_epik_Ionization_Penalty_Neutral>
9.40205e-06

> <r_epik_State_Penalty>
0.00138983

> <r_epik_Charging_Adjusted_Penalty>
0.00342221

> <i_epik_Tot_Q>
1

> <i_epik_Tot_abs_Q>
1

> <r_epik_Metal_State_Penalty>
-0

> <b_epik_Metal_Only>
0

> <s_lp_Force_Field>
OPLS_2005

> <r_lp_Energy>
36.6444

> <b_lp_Chiralities_Consistent>
1

> <s_lp_Variant>
AV-unprocessed.smi:2171-8

> <Gold.Version>
5.8.1

> <Gold.Id.Protein>
6NUR|6NUR_protein|mol2

> <Gold.PLP.Fitness>
44.1530

> <Gold.PLP.PLP>
-38.7260

> <Gold.PLP.part.hbond>
-2.5003

> <Gold.PLP.part.metal>
0.0000

> <Gold.PLP.part.buried>
-2.4845

> <Gold.PLP.part.nonpolar>
-34.0726

> <Gold.PLP.part.repulsive>
0.2963

> <Gold.PLP.ligand.clash>
0.0000

> <Gold.PLP.ligand.torsion>
0.2810

> <Gold.PLP.Chemscore.Hbond>
1.9920

> <Gold.PLP.Chemscore.CHOScore>
0.0000

> <Gold.PLP.Chemscore.Metal>
0.0000

> <Gold.Chemscore.Hbonds>
donor molecule, donor type, donor heavy atom, donor atom, acceptor molecule, acceptor atom, score
      L1  H     9    24       P1  8028  1.00
      L1  H    13    39       P1  7957  0.94

> <Gold.PLP.Chemscore.Internal.Correction>
0.0128

> <Gold.Rescore>
     Score         DG    S(hbond)    S(metal)    S(lipo)     H(rot)  DE(clash)    DE(int)     intcor
     17.53     -19.28       1.98        0.00      92.90       1.44       0.15       1.60       ----

> <Gold.Chemscore.Fitness>
17.5298

> <Gold.Chemscore.DG>
-19.2818

> <Gold.Chemscore.ZeroCoef>
-5.4800

> <Gold.Chemscore.Hbond>
1.9824

> <Gold.Chemscore.Metal>
0.0000

> <Gold.Chemscore.Lipo>
92.9024

> <Gold.Chemscore.Internal_Hbond>
0.0000

> <Gold.Chemscore.DEClash>
0.1550

> <Gold.Chemscore.DEInternal>
1.5970

> <Gold.Chemscore.Rot>
1.4410

> <Gold.Chemscore.Internal.Correction>
   9.000000E+99

> <Gold.Chemscore.Hbonds>
donor molecule, donor type, donor heavy atom, donor atom, acceptor molecule, acceptor atom, score
      L1  H     9    24       P1  8028  0.92
      L1  H    13    39       P1  7957  0.91

> <Gold.Chemscore.Hbond.Weighted>
-6.6212

> <Gold.Chemscore.Metal.Weighted>
-0.0000

> <Gold.Chemscore.Lipo.Weighted>
-10.8696

> <Gold.Chemscore.Internal_Hbond.Weighted>
0.0000

> <Gold.Chemscore.DEClash.Weighted>
0.1550

> <Gold.Chemscore.DEInternal.Weighted>
1.5970

> <Gold.Chemscore.Rot.Weighted>
3.6889

> <Gold.Chemscore.Internal.Correction.Weighted>
   9.000000E+99

> <Gold.Protein.RotatedTorsions>
[ 6907 6896 6895 6894 ] final  103.96 input  -60.11 | X-H torsion
[ 7974 7965 7964 7962 ] final   88.26 input  175.53 | X-H torsion
[ 8008 7997 7996 7995 ] final  -97.90 input   59.86 | X-H torsion
[ 10167 10162 10161 10158 ] final  -65.60 input  -65.29 | X-H torsion
[ 10718 10713 10712 10709 ] final  -93.31 input   66.30 | X-H torsion
[ 10763 10752 10751 10750 ] final   50.86 input  -60.55 | X-H torsion
[ 11005 11000 10999 10996 ] final   10.76 input  -57.11 | X-H torsion

> <Gold.Protein.ActiveResidues>
 VAL166  LYS551  ARG553  GLY616  TRP617  ASP618  TYR619  PRO620  LYS621  CYS622 
 ASP623  PHE694  ASN695  SER759  ASP760  ASP761  ALA762  ILE779  LEU786  VAL792 
 PHE793  MET794  SER795  GLU796  ALA797  LYS798  CYS799  TRP800  GLU811  SER814 

> <Gold.Protein.RotatedAtoms>
  152.5279  133.9748  159.7778 H   0  0  0  0  0  0  0  0  0  0  0  0  # atno 6907 bound_to 6896
  151.0013  133.6045  159.2701 H   0  0  0  0  0  0  0  0  0  0  0  0  # atno 6908 bound_to 6896
  151.3153  135.0811  159.9340 H   0  0  0  0  0  0  0  0  0  0  0  0  # atno 6909 bound_to 6896
  145.5480  139.2293  143.2528 H   0  0  0  0  0  0  0  0  0  0  0  0  # atno 7974 bound_to 7965
  154.7939  140.0459  157.1222 H   0  0  0  0  0  0  0  0  0  0  0  0  # atno 8008 bound_to 7997
  154.9558  140.3071  155.5034 H   0  0  0  0  0  0  0  0  0  0  0  0  # atno 8009 bound_to 7997
  156.2953  140.2279  156.4640 H   0  0  0  0  0  0  0  0  0  0  0  0  # atno 8010 bound_to 7997
  140.5718  143.2318  151.6523 H   0  0  0  0  0  0  0  0  0  0  0  0  # atno 10167 bound_to 10162
  156.0012  130.5022  150.5757 H   0  0  0  0  0  0  0  0  0  0  0  0  # atno 10718 bound_to 10713
  152.9784  135.5865  154.4321 H   0  0  0  0  0  0  0  0  0  0  0  0  # atno 10763 bound_to 10752
  154.3932  135.2768  155.2144 H   0  0  0  0  0  0  0  0  0  0  0  0  # atno 10764 bound_to 10752
  154.4006  135.6104  153.5949 H   0  0  0  0  0  0  0  0  0  0  0  0  # atno 10765 bound_to 10752
  140.5108  134.0654  155.7818 H   0  0  0  0  0  0  0  0  0  0  0  0  # atno 11005 bound_to 11000
  146.1936  140.6302  142.9134 LP  0  0  0  0  0  0  0  0  0  0  0  0  # atno 17320 bound_to 7965
  144.7543  140.5269  143.6780 LP  0  0  0  0  0  0  0  0  0  0  0  0  # atno 17321 bound_to 7965
  139.5121  144.3486  152.0673 LP  0  0  0  0  0  0  0  0  0  0  0  0  # atno 17342 bound_to 10162
  140.2624  144.4052  150.6180 LP  0  0  0  0  0  0  0  0  0  0  0  0  # atno 17343 bound_to 10162
  157.3645  131.0755  151.1609 LP  0  0  0  0  0  0  0  0  0  0  0  0  # atno 17370 bound_to 10713
  157.2383  130.6557  149.5879 LP  0  0  0  0  0  0  0  0  0  0  0  0  # atno 17371 bound_to 10713
  141.1386  133.9177  157.2377 LP  0  0  0  0  0  0  0  0  0  0  0  0  # atno 17394 bound_to 11000
  139.9660  135.0142  156.9387 LP  0  0  0  0  0  0  0  0  0  0  0  0  # atno 17395 bound_to 11000

$$$$
