AV-unprocessed.smi:282|AV-procd|sdf|2120|dock9
  -GOLD-   2262021423D 1   1.00000     0.00000
 Structure written by MMmdl.
 65 69  0  0  0  0  0  0  0  0  2 V2000
  145.2484  135.7331  151.2663 C   0  0  0  0  0  0  0  0  0  0  0  0
  145.7963  135.3734  152.6542 C   0  0  0  0  0  0  0  0  0  0  0  0
  145.9591  133.8501  152.9059 C   0  0  1  0  0  0  0  0  0  0  0  0
  146.7496  133.1800  151.7514 C   0  0  0  0  0  0  0  0  0  0  0  0
  147.0273  131.7432  151.9983 N   0  3  2  0  0  0  0  0  0  0  0  0
  145.8386  130.8723  151.7915 C   0  0  0  0  0  0  0  0  0  0  0  0
  146.2000  129.3879  151.9530 C   0  0  0  0  0  0  0  0  0  0  0  0
  146.8297  129.1267  153.3262 C   0  0  0  0  0  0  0  0  0  0  0  0
  148.0483  130.0389  153.5244 C   0  0  0  0  0  0  0  0  0  0  0  0
  147.7084  131.5275  153.3047 C   0  0  2  0  0  0  0  0  0  0  0  0
  146.8961  132.1489  154.4554 C   0  0  0  0  0  0  0  0  0  0  0  0
  146.6093  133.5574  154.1931 N   0  0  0  0  0  0  0  0  0  0  0  0
  146.0537  134.1588  155.2693 C   0  0  0  0  0  0  0  0  0  0  0  0
  144.7251  134.4438  155.2795 N   0  0  0  0  0  0  0  0  0  0  0  0
  144.1864  135.0578  156.3377 C   0  0  0  0  0  0  0  0  0  0  0  0
  144.7853  135.4727  157.4564 N   0  0  0  0  0  0  0  0  0  0  0  0
  146.1207  135.1948  157.4411 C   0  0  0  0  0  0  0  0  0  0  0  0
  146.8270  134.5366  156.3970 C   0  0  0  0  0  0  0  0  0  0  0  0
  148.1698  134.4155  156.7265 N   0  0  0  0  0  0  0  0  0  0  0  0
  148.2544  134.9743  157.9030 C   0  0  0  0  0  0  0  0  0  0  0  0
  147.0761  135.4887  158.3994 N   0  0  0  0  0  0  0  0  0  0  0  0
  146.8923  136.1672  159.6752 C   0  0  0  0  0  0  0  0  0  0  0  0
  146.8891  135.2317  160.9216 C   0  0  0  0  0  0  0  0  0  0  0  0
  147.1355  136.0498  162.2218 C   0  0  0  0  0  0  0  0  0  0  0  0
  148.3357  136.7942  162.1667 O   0  0  0  0  0  0  0  0  0  0  0  0
  145.5304  134.4878  160.9703 C   0  0  0  0  0  0  0  0  0  0  0  0
  145.5126  133.3377  161.9925 C   0  0  0  0  0  0  0  0  0  0  0  0
  146.5539  132.4166  161.6962 O   0  0  0  0  0  0  0  0  0  0  0  0
  147.8468  132.9990  161.7909 C   0  0  0  0  0  0  0  0  0  0  0  0
  147.9899  134.1492  160.7762 C   0  0  0  0  0  0  0  0  0  0  0  0
  145.0489  136.8028  151.1996 H   0  0  0  0  0  0  0  0  0  0  0  0
  144.3137  135.2097  151.0637 H   0  0  0  0  0  0  0  0  0  0  0  0
  145.9548  135.4889  150.4735 H   0  0  0  0  0  0  0  0  0  0  0  0
  146.7506  135.8780  152.8099 H   0  0  0  0  0  0  0  0  0  0  0  0
  145.1066  135.8032  153.3810 H   0  0  0  0  0  0  0  0  0  0  0  0
  144.9614  133.4105  152.9407 H   0  0  0  0  0  0  0  0  0  0  0  0
  146.2243  133.2785  150.8015 H   0  0  0  0  0  0  0  0  0  0  0  0
  147.7068  133.6883  151.6257 H   0  0  0  0  0  0  0  0  0  0  0  0
  145.0462  131.1371  152.4920 H   0  0  0  0  0  0  0  0  0  0  0  0
  145.4381  131.0387  150.7909 H   0  0  0  0  0  0  0  0  0  0  0  0
  145.3091  128.7718  151.8290 H   0  0  0  0  0  0  0  0  0  0  0  0
  146.8946  129.0899  151.1664 H   0  0  0  0  0  0  0  0  0  0  0  0
  146.0952  129.3039  154.1125 H   0  0  0  0  0  0  0  0  0  0  0  0
  147.1270  128.0810  153.4105 H   0  0  0  0  0  0  0  0  0  0  0  0
  148.4708  129.8910  154.5188 H   0  0  0  0  0  0  0  0  0  0  0  0
  148.8268  129.7447  152.8190 H   0  0  0  0  0  0  0  0  0  0  0  0
  148.6565  132.0660  153.2576 H   0  0  0  0  0  0  0  0  0  0  0  0
  145.9612  131.6060  154.5983 H   0  0  0  0  0  0  0  0  0  0  0  0
  147.4564  132.0596  155.3876 H   0  0  0  0  0  0  0  0  0  0  0  0
  143.1248  135.2479  156.2791 H   0  0  0  0  0  0  0  0  0  0  0  0
  149.1895  135.0364  158.4408 H   0  0  0  0  0  0  0  0  0  0  0  0
  147.6672  136.9287  159.7714 H   0  0  0  0  0  0  0  0  0  0  0  0
  145.9513  136.7161  159.6184 H   0  0  0  0  0  0  0  0  0  0  0  0
  146.3275  136.7527  162.4164 H   0  0  0  0  0  0  0  0  0  0  0  0
  147.1747  135.3938  163.0913 H   0  0  0  0  0  0  0  0  0  0  0  0
  149.0073  136.2536  161.7793 H   0  0  0  0  0  0  0  0  0  0  0  0
  144.7147  135.1809  161.1776 H   0  0  0  0  0  0  0  0  0  0  0  0
  145.3144  134.0641  159.9885 H   0  0  0  0  0  0  0  0  0  0  0  0
  145.6087  133.7056  163.0145 H   0  0  0  0  0  0  0  0  0  0  0  0
  144.5594  132.8116  161.9397 H   0  0  0  0  0  0  0  0  0  0  0  0
  148.0335  133.3362  162.8107 H   0  0  0  0  0  0  0  0  0  0  0  0
  148.5888  132.2286  161.5815 H   0  0  0  0  0  0  0  0  0  0  0  0
  147.9466  133.7217  159.7735 H   0  0  0  0  0  0  0  0  0  0  0  0
  148.9816  134.5916  160.8758 H   0  0  0  0  0  0  0  0  0  0  0  0
  147.6886  131.4616  151.2889 H   0  0  0  0  0  0  0  0  0  0  0  0
  1  2  1  0  0  0  0
  1 31  1  0  0  0  0
  1 32  1  0  0  0  0
  1 33  1  0  0  0  0
  2  3  1  0  0  0  0
  2 34  1  0  0  0  0
  2 35  1  0  0  0  0
  3 12  1  0  0  0  0
  3  4  1  0  0  0  0
  3 36  1  0  0  0  0
  4  5  1  0  0  0  0
  4 37  1  0  0  0  0
  4 38  1  0  0  0  0
  5 10  1  0  0  0  0
  5  6  1  0  0  0  0
  5 65  1  0  0  0  0
  6  7  1  0  0  0  0
  6 39  1  0  0  0  0
  6 40  1  0  0  0  0
  7  8  1  0  0  0  0
  7 41  1  0  0  0  0
  7 42  1  0  0  0  0
  8  9  1  0  0  0  0
  8 43  1  0  0  0  0
  8 44  1  0  0  0  0
  9 10  1  0  0  0  0
  9 45  1  0  0  0  0
  9 46  1  0  0  0  0
 10 11  1  0  0  0  0
 10 47  1  0  0  0  0
 11 12  1  0  0  0  0
 11 48  1  0  0  0  0
 11 49  1  0  0  0  0
 12 13  1  0  0  0  0
 13 18  1  0  0  0  0
 13 14  2  0  0  0  0
 14 15  1  0  0  0  0
 15 16  2  0  0  0  0
 15 50  1  0  0  0  0
 16 17  1  0  0  0  0
 17 21  1  0  0  0  0
 17 18  2  0  0  0  0
 18 19  1  0  0  0  0
 19 20  2  0  0  0  0
 20 21  1  0  0  0  0
 20 51  1  0  0  0  0
 21 22  1  0  0  0  0
 22 23  1  0  0  0  0
 22 52  1  0  0  0  0
 22 53  1  0  0  0  0
 23 30  1  0  0  0  0
 23 24  1  0  0  0  0
 23 26  1  0  0  0  0
 24 25  1  0  0  0  0
 24 54  1  0  0  0  0
 24 55  1  0  0  0  0
 25 56  1  0  0  0  0
 26 27  1  0  0  0  0
 26 57  1  0  0  0  0
 26 58  1  0  0  0  0
 27 28  1  0  0  0  0
 27 59  1  0  0  0  0
 27 60  1  0  0  0  0
 28 29  1  0  0  0  0
 29 30  1  0  0  0  0
 29 61  1  0  0  0  0
 29 62  1  0  0  0  0
 30 63  1  0  0  0  0
 30 64  1  0  0  0  0
M  CHG  1   5   1
M  END
> <s_m_source_file>
AV-unprocessed.smi

> <i_m_source_file_index>
282

> <i_lp_mmshare_version>
43012

> <i_f3d_flags>
0

> <s_epik_input>
W0NIMl0xW0NIMl1bQ0gyXVtDSDJdW0NAQEhdKE4xMilbQ0gyXU4oW0NAQEhdKFtDSDJdMilbQ0gyXVtDSDNdKWMobltjSF1uMyljKGMzNCluW2NIXW40W0NIMl1DNShbQ0gyXVtPSF0pW0NIMl1bQ0gyXU9bQ0gyXVtDSDJdNQ==

> <s_epik_cmdline>
J2VwaWtfcHl0aG9uJywgJy1waCcsICc3LjAnLCAnLXRuJywgJzgnLCAnLW1hJywgJzIwMCcsICctbWV0YWxfYmluZGluZycsICctaW1hZScsICc8aW5maWxlLm1hZT4nLCAnLW9tYWUnLCAnPG91dGZpbGUubWFlPic=

> <r_lp_tautomer_probability>
1

> <r_epik_Ionization_Penalty>
0.00308583

> <r_epik_Ionization_Penalty_Charging>
0.00300384

> <r_epik_Ionization_Penalty_Neutral>
8.19894e-05

> <r_epik_State_Penalty>
-0

> <r_epik_Charging_Adjusted_Penalty>
0.00300384

> <i_epik_Tot_Q>
1

> <i_epik_Tot_abs_Q>
1

> <r_epik_Metal_State_Penalty>
-0

> <b_epik_Metal_Only>
0

> <s_lp_Force_Field>
OPLS_2005

> <r_lp_Energy>
59.0592

> <b_lp_Chiralities_Consistent>
1

> <s_lp_Variant>
AV-unprocessed.smi:282-4

> <Gold.Version>
5.8.1

> <Gold.Id.Protein>
6NUR|6NUR_protein|mol2

> <Gold.PLP.Fitness>
40.1442

> <Gold.PLP.PLP>
-35.9942

> <Gold.PLP.part.hbond>
-2.0000

> <Gold.PLP.part.metal>
0.0000

> <Gold.PLP.part.buried>
-6.4009

> <Gold.PLP.part.nonpolar>
-27.9173

> <Gold.PLP.part.repulsive>
0.1824

> <Gold.PLP.ligand.clash>
0.0000

> <Gold.PLP.ligand.torsion>
1.0436

> <Gold.PLP.Chemscore.Hbond>
2.0000

> <Gold.PLP.Chemscore.CHOScore>
0.0000

> <Gold.PLP.Chemscore.Metal>
0.0000

> <Gold.Chemscore.Hbonds>
donor molecule, donor type, donor heavy atom, donor atom, acceptor molecule, acceptor atom, score
      L1  H     5    65       P1 10747  1.00
      P1  H  6931  6943       L1    25  0.90

> <Gold.PLP.Chemscore.Internal.Correction>
0.2372

> <Gold.Rescore>
     Score         DG    S(hbond)    S(metal)    S(lipo)     H(rot)  DE(clash)    DE(int)     intcor
     14.15     -17.37       1.96        0.00      99.47       2.46       0.01       3.21       ----

> <Gold.Chemscore.Fitness>
14.1547

> <Gold.Chemscore.DG>
-17.3697

> <Gold.Chemscore.ZeroCoef>
-5.4800

> <Gold.Chemscore.Hbond>
1.9589

> <Gold.Chemscore.Metal>
0.0000

> <Gold.Chemscore.Lipo>
99.4730

> <Gold.Chemscore.Internal_Hbond>
0.0000

> <Gold.Chemscore.DEClash>
0.0089

> <Gold.Chemscore.DEInternal>
3.2062

> <Gold.Chemscore.Rot>
2.4576

> <Gold.Chemscore.Internal.Correction>
   9.000000E+99

> <Gold.Chemscore.Hbonds>
donor molecule, donor type, donor heavy atom, donor atom, acceptor molecule, acceptor atom, score
      L1  H     5    65       P1 10747  1.00
      P1  H  6931  6943       L1    25  0.18

> <Gold.Chemscore.Hbond.Weighted>
-6.5429

> <Gold.Chemscore.Metal.Weighted>
-0.0000

> <Gold.Chemscore.Lipo.Weighted>
-11.6383

> <Gold.Chemscore.Internal_Hbond.Weighted>
0.0000

> <Gold.Chemscore.DEClash.Weighted>
0.0089

> <Gold.Chemscore.DEInternal.Weighted>
3.2062

> <Gold.Chemscore.Rot.Weighted>
6.2915

> <Gold.Chemscore.Internal.Correction.Weighted>
   9.000000E+99

> <Gold.Protein.RotatedTorsions>
[ 6907 6896 6895 6894 ] final  -50.48 input  -60.11 | X-H torsion
[ 7974 7965 7964 7962 ] final  -95.11 input  175.53 | X-H torsion
[ 8008 7997 7996 7995 ] final  108.29 input   59.86 | X-H torsion
[ 10167 10162 10161 10158 ] final   91.17 input  -65.29 | X-H torsion
[ 10718 10713 10712 10709 ] final   79.00 input   66.30 | X-H torsion
[ 10763 10752 10751 10750 ] final -112.91 input  -60.55 | X-H torsion
[ 11005 11000 10999 10996 ] final  -15.90 input  -57.11 | X-H torsion

> <Gold.Protein.ActiveResidues>
 VAL166  LYS551  ARG553  GLY616  TRP617  ASP618  TYR619  PRO620  LYS621  CYS622 
 ASP623  PHE694  ASN695  SER759  ASP760  ASP761  ALA762  ILE779  LEU786  VAL792 
 PHE793  MET794  SER795  GLU796  ALA797  LYS798  CYS799  TRP800  GLU811  SER814 

> <Gold.Protein.RotatedAtoms>
  150.8703  134.8075  159.7149 H   0  0  0  0  0  0  0  0  0  0  0  0  # atno 6907 bound_to 6896
  152.4710  134.4958  159.9719 H   0  0  0  0  0  0  0  0  0  0  0  0  # atno 6908 bound_to 6896
  151.5047  133.3458  159.2910 H   0  0  0  0  0  0  0  0  0  0  0  0  # atno 6909 bound_to 6896
  145.3644  140.9496  143.2482 H   0  0  0  0  0  0  0  0  0  0  0  0  # atno 7974 bound_to 7965
  156.1892  140.3079  155.9298 H   0  0  0  0  0  0  0  0  0  0  0  0  # atno 8008 bound_to 7997
  155.3213  140.0456  157.3056 H   0  0  0  0  0  0  0  0  0  0  0  0  # atno 8009 bound_to 7997
  154.5431  140.2268  155.8617 H   0  0  0  0  0  0  0  0  0  0  0  0  # atno 8010 bound_to 7997
  139.8401  144.6645  150.9294 H   0  0  0  0  0  0  0  0  0  0  0  0  # atno 10167 bound_to 10162
  157.6763  130.9894  150.1869 H   0  0  0  0  0  0  0  0  0  0  0  0  # atno 10718 bound_to 10713
  154.8372  135.4473  154.1267 H   0  0  0  0  0  0  0  0  0  0  0  0  # atno 10763 bound_to 10752
  153.2488  135.6924  153.7708 H   0  0  0  0  0  0  0  0  0  0  0  0  # atno 10764 bound_to 10752
  153.7028  135.3369  155.3204 H   0  0  0  0  0  0  0  0  0  0  0  0  # atno 10765 bound_to 10752
  140.8013  133.8212  155.9473 H   0  0  0  0  0  0  0  0  0  0  0  0  # atno 11005 bound_to 11000
  144.8622  139.5160  143.6807 LP  0  0  0  0  0  0  0  0  0  0  0  0  # atno 17320 bound_to 7965
  146.2913  139.7147  142.9159 LP  0  0  0  0  0  0  0  0  0  0  0  0  # atno 17321 bound_to 7965
  140.7799  143.3921  151.1293 LP  0  0  0  0  0  0  0  0  0  0  0  0  # atno 17342 bound_to 10162
  139.7568  143.8696  152.3090 LP  0  0  0  0  0  0  0  0  0  0  0  0  # atno 17343 bound_to 10162
  156.2589  130.3708  149.8152 LP  0  0  0  0  0  0  0  0  0  0  0  0  # atno 17370 bound_to 10713
  156.5902  130.8503  151.3406 LP  0  0  0  0  0  0  0  0  0  0  0  0  # atno 17371 bound_to 10713
  140.9292  134.2044  157.4875 LP  0  0  0  0  0  0  0  0  0  0  0  0  # atno 17394 bound_to 11000
  139.8721  134.9825  156.5160 LP  0  0  0  0  0  0  0  0  0  0  0  0  # atno 17395 bound_to 11000

$$$$
