AV-unprocessed.smi:2083|AV-procd|sdf|8510|dock9
  -GOLD-   2272011223D 1   1.00000     0.00000
 Structure written by MMmdl.
 44 45  0  0  0  0  0  0  0  0  3 V2000
  153.3366  142.3693  160.0864 C   0  0  0  0  0  0  0  0  0  0  0  0
  152.4247  142.6719  158.9476 C   0  0  0  0  0  0  0  0  0  0  0  0
  151.7891  141.8844  158.0295 C   0  0  0  0  0  0  0  0  0  0  0  0
  151.0793  142.8246  157.2359 C   0  0  0  0  0  0  0  0  0  0  0  0
  150.2734  142.3925  156.1495 N   0  0  0  0  0  0  0  0  0  0  0  0
  149.9867  141.1367  155.7599 C   0  0  0  0  0  0  0  0  0  0  0  0
  150.4351  140.1701  156.3879 O   0  0  0  0  0  0  0  0  0  0  0  0
  149.1909  141.1098  154.6558 N   0  5  0  0  0  0  0  0  0  0  0  0
  148.4158  139.9481  154.2234 C   0  0  0  0  0  0  0  0  0  0  0  0
  147.0416  140.3910  153.6558 C   0  0  2  0  0  0  0  0  0  0  0  0
  146.1710  141.2029  154.6484 C   0  0  0  0  0  0  0  0  0  0  0  0
  146.3164  139.2197  153.0707 N   0  3  1  0  0  0  0  0  0  0  0  0
  146.8098  138.7311  151.7492 C   0  0  0  0  0  0  0  0  0  0  0  0
  145.8294  137.7161  151.1429 C   0  0  0  0  0  0  0  0  0  0  0  0
  145.5912  136.5432  152.1049 C   0  0  0  0  0  0  0  0  0  0  0  0
  145.1539  137.0385  153.4962 C   0  0  2  0  0  0  0  0  0  0  0  0
  143.6983  137.5382  153.5187 C   0  0  0  0  0  0  0  0  0  0  0  0
  146.1392  138.0979  154.0329 C   0  0  0  0  0  0  0  0  0  0  0  0
  151.2669  144.0741  157.6345 N   0  0  0  0  0  0  0  0  0  0  0  0
  152.1295  143.9826  158.7331 O   0  0  0  0  0  0  0  0  0  0  0  0
  153.5892  141.3092  160.1127 H   0  0  0  0  0  0  0  0  0  0  0  0
  152.8670  142.6287  161.0351 H   0  0  0  0  0  0  0  0  0  0  0  0
  154.2639  142.9359  160.0007 H   0  0  0  0  0  0  0  0  0  0  0  0
  151.8256  140.8088  157.9416 H   0  0  0  0  0  0  0  0  0  0  0  0
  149.8670  143.1274  155.5901 H   0  0  0  0  0  0  0  0  0  0  0  0
  148.9445  139.3930  153.4469 H   0  0  0  0  0  0  0  0  0  0  0  0
  148.2564  139.2373  155.0352 H   0  0  0  0  0  0  0  0  0  0  0  0
  147.2738  141.0626  152.8275 H   0  0  0  0  0  0  0  0  0  0  0  0
  146.6538  142.1367  154.9415 H   0  0  0  0  0  0  0  0  0  0  0  0
  145.9484  140.6534  155.5647 H   0  0  0  0  0  0  0  0  0  0  0  0
  145.2194  141.4782  154.1930 H   0  0  0  0  0  0  0  0  0  0  0  0
  146.9344  139.5615  151.0536 H   0  0  0  0  0  0  0  0  0  0  0  0
  147.7892  138.2651  151.8649 H   0  0  0  0  0  0  0  0  0  0  0  0
  144.8850  138.2093  150.9104 H   0  0  0  0  0  0  0  0  0  0  0  0
  146.2202  137.3434  150.1958 H   0  0  0  0  0  0  0  0  0  0  0  0
  144.8510  135.8575  151.6913 H   0  0  0  0  0  0  0  0  0  0  0  0
  146.5152  135.9717  152.2023 H   0  0  0  0  0  0  0  0  0  0  0  0
  145.1942  136.1836  154.1723 H   0  0  0  0  0  0  0  0  0  0  0  0
  143.5592  138.4185  152.8909 H   0  0  0  0  0  0  0  0  0  0  0  0
  143.3931  137.8062  154.5306 H   0  0  0  0  0  0  0  0  0  0  0  0
  143.0134  136.7672  153.1651 H   0  0  0  0  0  0  0  0  0  0  0  0
  147.1098  137.6401  154.2297 H   0  0  0  0  0  0  0  0  0  0  0  0
  145.7716  138.4717  154.9895 H   0  0  0  0  0  0  0  0  0  0  0  0
  145.3826  139.5677  152.9046 H   0  0  0  0  0  0  0  0  0  0  0  0
  1  2  1  0  0  0  0
  1 21  1  0  0  0  0
  1 22  1  0  0  0  0
  1 23  1  0  0  0  0
  2 20  1  0  0  0  0
  2  3  2  0  0  0  0
  3  4  1  0  0  0  0
  3 24  1  0  0  0  0
  4  5  1  0  0  0  0
  4 19  2  0  0  0  0
  5  6  1  0  0  0  0
  5 25  1  0  0  0  0
  6  7  2  0  0  0  0
  6  8  1  0  0  0  0
  8  9  1  0  0  0  0
  9 10  1  0  0  0  0
  9 26  1  0  0  0  0
  9 27  1  0  0  0  0
 10 11  1  0  0  0  0
 10 12  1  0  0  0  0
 10 28  1  0  0  0  0
 11 29  1  0  0  0  0
 11 30  1  0  0  0  0
 11 31  1  0  0  0  0
 12 18  1  0  0  0  0
 12 13  1  0  0  0  0
 12 44  1  0  0  0  0
 13 14  1  0  0  0  0
 13 32  1  0  0  0  0
 13 33  1  0  0  0  0
 14 15  1  0  0  0  0
 14 34  1  0  0  0  0
 14 35  1  0  0  0  0
 15 16  1  0  0  0  0
 15 36  1  0  0  0  0
 15 37  1  0  0  0  0
 16 17  1  0  0  0  0
 16 18  1  0  0  0  0
 16 38  1  0  0  0  0
 17 39  1  0  0  0  0
 17 40  1  0  0  0  0
 17 41  1  0  0  0  0
 18 42  1  0  0  0  0
 18 43  1  0  0  0  0
 19 20  1  0  0  0  0
M  CHG  1   8  -1
M  CHG  1  12   1
M  END
> <s_m_source_file>
AV-unprocessed.smi

> <i_m_source_file_index>
2083

> <i_lp_mmshare_version>
43012

> <i_f3d_flags>
0

> <s_epik_input>
W0NIM11jMVtjSF1jKG5vMSlbTkhdQyg9TylbTkhdW0NIMl1bQ0BIXShbQ0gzXSlOMltDSDJdW0NIMl1bQ0gyXVtDQEBIXShbQ0gzXSlbQ0gyXTI=

> <s_epik_cmdline>
J2VwaWtfcHl0aG9uJywgJy1waCcsICc3LjAnLCAnLXRuJywgJzgnLCAnLW1hJywgJzIwMCcsICctbWV0YWxfYmluZGluZycsICctaW1hZScsICc8aW5maWxlLm1hZT4nLCAnLW9tYWUnLCAnPG91dGZpbGUubWFlPic=

> <r_epik_Ionization_Penalty>
6.76934

> <r_epik_Ionization_Penalty_Charging>
6.76934

> <r_epik_Ionization_Penalty_Neutral>
5.77849e-06

> <r_epik_State_Penalty>
6.79457

> <r_epik_Charging_Adjusted_Penalty>
13.5639

> <i_epik_Tot_Q>
0

> <i_epik_Tot_abs_Q>
2

> <r_epik_Metal_State_Penalty>
2.72837

> <b_epik_Metal_Only>
1

> <s_lp_Force_Field>
OPLS_2005

> <r_lp_Energy>
20.9735

> <b_lp_Chiralities_Consistent>
1

> <s_lp_Variant>
AV-unprocessed.smi:2083-21

> <Gold.Version>
5.8.1

> <Gold.Id.Protein>
6NUR|6NUR_protein|mol2

> <Gold.PLP.Fitness>
39.5324

> <Gold.PLP.PLP>
-32.0022

> <Gold.PLP.part.hbond>
-2.0000

> <Gold.PLP.part.metal>
0.0000

> <Gold.PLP.part.buried>
-0.1120

> <Gold.PLP.part.nonpolar>
-31.6580

> <Gold.PLP.part.repulsive>
0.4066

> <Gold.PLP.ligand.clash>
0.6317

> <Gold.PLP.ligand.torsion>
0.4873

> <Gold.PLP.Chemscore.Hbond>
2.9920

> <Gold.PLP.Chemscore.CHOScore>
0.0000

> <Gold.PLP.Chemscore.Metal>
0.0000

> <Gold.Chemscore.Hbonds>
donor molecule, donor type, donor heavy atom, donor atom, acceptor molecule, acceptor atom, score
      L1  H     5    25       P1  8028  0.90
      L1  H    12    44       P1 10175  2.00

> <Gold.PLP.Chemscore.Internal.Correction>
0.1605

> <Gold.Rescore>
     Score         DG    S(hbond)    S(metal)    S(lipo)     H(rot)  DE(clash)    DE(int)     intcor
     14.04     -17.32       1.93        0.00      79.33       1.52       1.45       1.83       ----

> <Gold.Chemscore.Fitness>
14.0352

> <Gold.Chemscore.DG>
-17.3168

> <Gold.Chemscore.ZeroCoef>
-5.4800

> <Gold.Chemscore.Hbond>
1.9293

> <Gold.Chemscore.Metal>
0.0000

> <Gold.Chemscore.Lipo>
79.3311

> <Gold.Chemscore.Internal_Hbond>
0.0000

> <Gold.Chemscore.DEClash>
1.4508

> <Gold.Chemscore.DEInternal>
1.8309

> <Gold.Chemscore.Rot>
1.5190

> <Gold.Chemscore.Internal.Correction>
   9.000000E+99

> <Gold.Chemscore.Hbonds>
donor molecule, donor type, donor heavy atom, donor atom, acceptor molecule, acceptor atom, score
      L1  H     5    25       P1  8028  0.88
      L1  H    12    44       P1 10175  0.98

> <Gold.Chemscore.Hbond.Weighted>
-6.4437

> <Gold.Chemscore.Metal.Weighted>
-0.0000

> <Gold.Chemscore.Lipo.Weighted>
-9.2817

> <Gold.Chemscore.Internal_Hbond.Weighted>
0.0000

> <Gold.Chemscore.DEClash.Weighted>
1.4508

> <Gold.Chemscore.DEInternal.Weighted>
1.8309

> <Gold.Chemscore.Rot.Weighted>
3.8886

> <Gold.Chemscore.Internal.Correction.Weighted>
   9.000000E+99

> <Gold.Protein.RotatedTorsions>
[ 6907 6896 6895 6894 ] final -138.47 input  -60.11 | X-H torsion
[ 7974 7965 7964 7962 ] final -159.78 input  175.53 | X-H torsion
[ 8008 7997 7996 7995 ] final  164.08 input   59.86 | X-H torsion
[ 10167 10162 10161 10158 ] final   43.07 input  -65.29 | X-H torsion
[ 10718 10713 10712 10709 ] final  -91.03 input   66.30 | X-H torsion
[ 10763 10752 10751 10750 ] final  -70.49 input  -60.55 | X-H torsion
[ 11005 11000 10999 10996 ] final -122.97 input  -57.11 | X-H torsion

> <Gold.Protein.ActiveResidues>
 VAL166  LYS551  ARG553  GLY616  TRP617  ASP618  TYR619  PRO620  LYS621  CYS622 
 ASP623  PHE694  ASN695  SER759  ASP760  ASP761  ALA762  ILE779  LEU786  VAL792 
 PHE793  MET794  SER795  GLU796  ALA797  LYS798  CYS799  TRP800  GLU811  SER814 

> <Gold.Protein.RotatedAtoms>
  151.0354  133.5753  159.2656 H   0  0  0  0  0  0  0  0  0  0  0  0  # atno 6907 bound_to 6896
  151.2819  135.0715  159.9182 H   0  0  0  0  0  0  0  0  0  0  0  0  # atno 6908 bound_to 6896
  152.5353  134.0067  159.7974 H   0  0  0  0  0  0  0  0  0  0  0  0  # atno 6909 bound_to 6896
  144.7452  140.3635  143.6091 H   0  0  0  0  0  0  0  0  0  0  0  0  # atno 7974 bound_to 7965
  156.1908  140.1706  156.8096 H   0  0  0  0  0  0  0  0  0  0  0  0  # atno 8008 bound_to 7997
  154.5469  140.0725  156.8635 H   0  0  0  0  0  0  0  0  0  0  0  0  # atno 8009 bound_to 7997
  155.3104  140.3367  155.4246 H   0  0  0  0  0  0  0  0  0  0  0  0  # atno 8010 bound_to 7997
  140.3481  144.2385  150.6148 H   0  0  0  0  0  0  0  0  0  0  0  0  # atno 10167 bound_to 10162
  155.9991  130.4932  150.5413 H   0  0  0  0  0  0  0  0  0  0  0  0  # atno 10718 bound_to 10713
  154.4184  135.5992  153.5995 H   0  0  0  0  0  0  0  0  0  0  0  0  # atno 10763 bound_to 10752
  152.9793  135.5946  154.3985 H   0  0  0  0  0  0  0  0  0  0  0  0  # atno 10764 bound_to 10752
  154.3807  135.2841  155.2191 H   0  0  0  0  0  0  0  0  0  0  0  0  # atno 10765 bound_to 10752
  140.9955  134.0478  157.3603 H   0  0  0  0  0  0  0  0  0  0  0  0  # atno 11005 bound_to 11000
  145.7152  139.1695  143.2516 LP  0  0  0  0  0  0  0  0  0  0  0  0  # atno 17320 bound_to 7965
  146.1318  140.7176  142.9409 LP  0  0  0  0  0  0  0  0  0  0  0  0  # atno 17321 bound_to 7965
  140.5245  143.2257  151.8336 LP  0  0  0  0  0  0  0  0  0  0  0  0  # atno 17342 bound_to 10162
  139.4830  144.4796  151.9323 LP  0  0  0  0  0  0  0  0  0  0  0  0  # atno 17343 bound_to 10162
  157.3349  131.0706  151.1832 LP  0  0  0  0  0  0  0  0  0  0  0  0  # atno 17370 bound_to 10713
  157.2701  130.6700  149.6015 LP  0  0  0  0  0  0  0  0  0  0  0  0  # atno 17371 bound_to 10713
  139.9012  135.0165  156.7279 LP  0  0  0  0  0  0  0  0  0  0  0  0  # atno 17394 bound_to 11000
  140.6973  133.9337  155.8002 LP  0  0  0  0  0  0  0  0  0  0  0  0  # atno 17395 bound_to 11000

$$$$
