#       Name:                AV-unprocessed.smi:2821
#       Creating user name   scv26
#       Creation time:       Fri Mar 27 15:30:04 2020


#       File generated by GOLD software.
#

@<TRIPOS>MOLECULE
AV-unprocessed.smi:2821
    42    43     1
SMALL
NO_CHARGES


@<TRIPOS>ATOM
      1 ****        -4.2332   2.8637  -0.9716 C.3            1 S1                 0.0000
      2 ****        -3.1655   1.7834  -0.7846 C.3            1 S1                 0.0000
      3 ****        -3.7789   0.5052  -0.9196 O.3            1 S1                 0.0000
      4 ****        -2.9876  -0.6170  -0.7854 C.ar           1 S1                 0.0000
      5 ****        -3.5702  -1.8971  -0.9013 C.ar           1 S1                 0.0000
      6 ****        -2.8417  -3.0282  -0.7762 N.ar           1 S1                 0.0000
      7 ****        -1.5209  -2.8743  -0.5355 C.ar           1 S1                 0.0000
      8 ****        -0.9227  -1.5999  -0.4212 C.ar           1 S1                 0.0000
      9 ****         0.4544  -1.5062  -0.1717 N.pl3          1 S1                 0.0000
     10 ****         1.1675  -0.2352  -0.2681 C.3            1 S1                 0.0000
     11 ****         1.4056   0.1371  -1.7423 C.3            1 S1                 0.0000
     12 ****         2.4958  -0.3114   0.5083 C.3            1 S1                 0.0000
     13 ****         2.3382  -0.5411   2.0132 C.3            1 S1                 0.0000
     14 ****         3.6044   0.0579   2.6064 C.3            1 S1                 0.0000
     15 ****         4.1933   0.8897   1.4645 C.3            1 S1                 0.0000
     16 ****         3.1718   0.9363   0.4792 O.3            1 S1                 0.0000
     17 ****        -1.6605  -0.4703  -0.5439 N.ar           1 S1                 0.0000
     18 ****        -3.8016   3.8596  -0.8689 H              1 S1                 0.0000
     19 ****        -5.0253   2.7641  -0.2292 H              1 S1                 0.0000
     20 ****        -4.6884   2.7967  -1.9600 H              1 S1                 0.0000
     21 ****        -2.3807   1.9113  -1.5322 H              1 S1                 0.0000
     22 ****        -2.7117   1.8852   0.2027 H              1 S1                 0.0000
     23 ****        -4.6263  -2.0137  -1.0947 H              1 S1                 0.0000
     24 ****        -0.9375  -3.7782  -0.4362 H              1 S1                 0.0000
     25 ****         0.9995  -2.3543  -0.1150 H              1 S1                 0.0000
     26 ****         0.5614   0.5462   0.1921 H              1 S1                 0.0000
     27 ****         1.9126   1.0983  -1.8291 H              1 S1                 0.0000
     28 ****         0.4676   0.2180  -2.2921 H              1 S1                 0.0000
     29 ****         2.0218  -0.6091  -2.2450 H              1 S1                 0.0000
     30 ****         3.1483  -1.0749   0.0794 H              1 S1                 0.0000
     31 ****         1.4698   0.0025   2.3881 H              1 S1                 0.0000
     32 ****         2.2087  -1.5935   2.2668 H              1 S1                 0.0000
     33 ****         3.3705   0.6748   3.4746 H              1 S1                 0.0000
     34 ****         4.3059  -0.7149   2.9219 H              1 S1                 0.0000
     35 ****         4.4817   1.8926   1.7802 H              1 S1                 0.0000
     36 ****         5.0725   0.3982   1.0454 H              1 S1                 0.0000
     37 ****        -4.1916   0.4694  -1.8297 LP             1 S1                 0.0000
     38 ****        -4.4965   0.4463  -0.2256 LP             1 S1                 0.0000
     39 ****        -3.2588  -3.9334  -0.8576 LP             1 S1                 0.0000
     40 ****         2.5319   1.6765   0.6853 LP             1 S1                 0.0000
     41 ****         3.5747   1.0856  -0.4238 LP             1 S1                 0.0000
     42 ****        -1.2439   0.4349  -0.4599 LP             1 S1                 0.0000
@<TRIPOS>BOND
    1    1    2 1     
    2    1   18 1     
    3    1   19 1     
    4    1   20 1     
    5    2    3 1     
    6    2   21 1     
    7    2   22 1     
    8    3    4 1     
    9    4   17 ar    
   10    4    5 ar    
   11    5    6 ar    
   12    5   23 1     
   13    6    7 ar    
   14    7    8 ar    
   15    7   24 1     
   16    8    9 1     
   17    8   17 ar    
   18    9   10 1     
   19    9   25 1     
   20   10   11 1     
   21   10   12 1     
   22   10   26 1     
   23   11   27 1     
   24   11   28 1     
   25   11   29 1     
   26   12   16 1     
   27   12   13 1     
   28   12   30 1     
   29   13   14 1     
   30   13   31 1     
   31   13   32 1     
   32   14   15 1     
   33   14   33 1     
   34   14   34 1     
   35   15   16 1     
   36   15   35 1     
   37   15   36 1     
   38    3   37 1     
   39    3   38 1     
   40    6   39 1     
   41   16   40 1     
   42   16   41 1     
   43   17   42 1     
@<TRIPOS>SUBSTRUCTURE
      1 S1             1
@<TRIPOS>SET
LONE_PAIRS      STATIC     ATOMS    <user>   **** ""
6 37 38 39 40 41 42
DONOR_HYDROGENS      STATIC     ATOMS    <user>   **** ""
1 25
ATOM$BLUE        STATIC     ATOMS    COLORGROUP SYSTEM
6 37 38 39 40 41 42
ATOM$RED        STATIC     ATOMS    COLORGROUP SYSTEM
1 25
