AV-unprocessed.smi:1641|AV-procd|sdf|6569|dock4
  -GOLD-   22720 7253D 1   1.00000     0.00000
 Structure written by MMmdl.
 41 42  0  0  0  0  0  0  0  0  3 V2000
  146.8823  135.4128  163.2174 C   0  0  0  0  0  0  0  0  0  0  0  0
  147.5149  135.4152  161.8678 C   0  0  0  0  0  0  0  0  0  0  0  0
  147.9353  136.5300  161.2649 N   0  0  0  0  0  0  0  0  0  0  0  0
  148.4835  136.2738  160.0165 N   0  0  0  0  0  0  0  0  0  0  0  0
  148.4765  134.9721  159.6958 C   0  0  0  0  0  0  0  0  0  0  0  0
  148.9549  134.5170  158.5260 N   0  5  0  0  0  0  0  0  0  0  0  0
  148.5202  135.0510  157.3626 C   0  0  0  0  0  0  0  0  0  0  0  0
  147.4309  135.5943  157.1660 O   0  0  0  0  0  0  0  0  0  0  0  0
  149.4036  134.9475  156.3614 N   0  0  0  0  0  0  0  0  0  0  0  0
  149.1878  135.4181  155.0007 C   0  0  0  0  0  0  0  0  0  0  0  0
  148.6613  136.8614  155.0127 C   0  0  0  0  0  0  0  0  0  0  0  0
  149.3210  137.7073  153.9833 N   0  3  1  0  0  0  0  0  0  0  0  0
  148.7795  139.0867  153.9087 C   0  0  0  0  0  0  0  0  0  0  0  0
  149.3186  139.9637  155.0574 C   0  0  2  0  0  0  0  0  0  0  0  0
  148.8429  141.4167  154.9478 C   0  0  0  0  0  0  0  0  0  0  0  0
  150.7413  139.9620  155.0094 O   0  0  0  0  0  0  0  0  0  0  0  0
  151.2987  138.6646  155.1910 C   0  0  2  0  0  0  0  0  0  0  0  0
  152.8250  138.8009  155.1984 C   0  0  0  0  0  0  0  0  0  0  0  0
  150.8042  137.7364  154.0601 C   0  0  0  0  0  0  0  0  0  0  0  0
  147.7584  133.9464  160.9375 S   0  0  0  0  0  0  0  0  0  0  0  0
  147.0577  136.3618  163.7252 H   0  0  0  0  0  0  0  0  0  0  0  0
  147.3008  134.6103  163.8248 H   0  0  0  0  0  0  0  0  0  0  0  0
  145.8073  135.2587  163.1230 H   0  0  0  0  0  0  0  0  0  0  0  0
  150.2850  134.4988  156.5637 H   0  0  0  0  0  0  0  0  0  0  0  0
  150.1296  135.3478  154.4561 H   0  0  0  0  0  0  0  0  0  0  0  0
  148.4737  134.7624  154.4999 H   0  0  0  0  0  0  0  0  0  0  0  0
  147.5894  136.8271  154.8125 H   0  0  0  0  0  0  0  0  0  0  0  0
  148.7713  137.3013  156.0039 H   0  0  0  0  0  0  0  0  0  0  0  0
  149.0773  139.5170  152.9515 H   0  0  0  0  0  0  0  0  0  0  0  0
  147.6889  139.0701  153.9082 H   0  0  0  0  0  0  0  0  0  0  0  0
  148.9891  139.5665  156.0188 H   0  0  0  0  0  0  0  0  0  0  0  0
  147.7552  141.4785  154.9901 H   0  0  0  0  0  0  0  0  0  0  0  0
  149.1687  141.8706  154.0114 H   0  0  0  0  0  0  0  0  0  0  0  0
  149.2409  142.0188  155.7651 H   0  0  0  0  0  0  0  0  0  0  0  0
  150.9903  138.2763  156.1625 H   0  0  0  0  0  0  0  0  0  0  0  0
  153.3045  137.8333  155.3481 H   0  0  0  0  0  0  0  0  0  0  0  0
  153.1529  139.4608  156.0021 H   0  0  0  0  0  0  0  0  0  0  0  0
  153.1911  139.2148  154.2583 H   0  0  0  0  0  0  0  0  0  0  0  0
  151.2105  136.7328  154.1808 H   0  0  0  0  0  0  0  0  0  0  0  0
  151.1811  138.1011  153.1035 H   0  0  0  0  0  0  0  0  0  0  0  0
  149.0858  137.2725  153.1023 H   0  0  0  0  0  0  0  0  0  0  0  0
  1  2  1  0  0  0  0
  1 21  1  0  0  0  0
  1 22  1  0  0  0  0
  1 23  1  0  0  0  0
  2 20  1  0  0  0  0
  2  3  2  0  0  0  0
  3  4  1  0  0  0  0
  4  5  2  0  0  0  0
  5  6  1  0  0  0  0
  5 20  1  0  0  0  0
  6  7  1  0  0  0  0
  7  8  2  0  0  0  0
  7  9  1  0  0  0  0
  9 10  1  0  0  0  0
  9 24  1  0  0  0  0
 10 11  1  0  0  0  0
 10 25  1  0  0  0  0
 10 26  1  0  0  0  0
 11 12  1  0  0  0  0
 11 27  1  0  0  0  0
 11 28  1  0  0  0  0
 12 19  1  0  0  0  0
 12 13  1  0  0  0  0
 12 41  1  0  0  0  0
 13 14  1  0  0  0  0
 13 29  1  0  0  0  0
 13 30  1  0  0  0  0
 14 15  1  0  0  0  0
 14 16  1  0  0  0  0
 14 31  1  0  0  0  0
 15 32  1  0  0  0  0
 15 33  1  0  0  0  0
 15 34  1  0  0  0  0
 16 17  1  0  0  0  0
 17 18  1  0  0  0  0
 17 19  1  0  0  0  0
 17 35  1  0  0  0  0
 18 36  1  0  0  0  0
 18 37  1  0  0  0  0
 18 38  1  0  0  0  0
 19 39  1  0  0  0  0
 19 40  1  0  0  0  0
M  CHG  1   6  -1
M  CHG  1  12   1
M  END
> <s_m_source_file>
AV-unprocessed.smi

> <i_m_source_file_index>
1641

> <i_lp_mmshare_version>
43012

> <i_f3d_flags>
0

> <s_epik_input>
W0NIM11jMW5uYyhzMSlbTkhdQyg9TylbTkhdW0NIMl1bQ0gyXU4yW0NIMl1bQ0BASF0oW0NIM10pT1tDQEBIXShbQ0gzXSlbQ0gyXTI=

> <s_epik_cmdline>
J2VwaWtfcHl0aG9uJywgJy1waCcsICc3LjAnLCAnLXRuJywgJzgnLCAnLW1hJywgJzIwMCcsICctbWV0YWxfYmluZGluZycsICctaW1hZScsICc8aW5maWxlLm1hZT4nLCAnLW9tYWUnLCAnPG91dGZpbGUubWFlPic=

> <r_lp_tautomer_probability>
1

> <r_epik_Ionization_Penalty>
3.5343

> <r_epik_Ionization_Penalty_Charging>
3.42778

> <r_epik_Ionization_Penalty_Neutral>
0.106519

> <r_epik_State_Penalty>
3.62118

> <r_epik_Charging_Adjusted_Penalty>
7.04896

> <i_epik_Tot_Q>
0

> <i_epik_Tot_abs_Q>
2

> <r_epik_Metal_State_Penalty>
1.13984

> <b_epik_Metal_Only>
1

> <s_lp_Force_Field>
OPLS_2005

> <r_lp_Energy>
10.5073

> <b_lp_Chiralities_Consistent>
1

> <s_lp_Variant>
AV-unprocessed.smi:1641-14

> <Gold.Version>
5.8.1

> <Gold.Id.Protein>
6NUR|6NUR_protein|mol2

> <Gold.PLP.Fitness>
48.1986

> <Gold.PLP.PLP>
-29.9310

> <Gold.PLP.part.hbond>
-5.6433

> <Gold.PLP.part.metal>
0.0000

> <Gold.PLP.part.buried>
-1.1812

> <Gold.PLP.part.nonpolar>
-24.2825

> <Gold.PLP.part.repulsive>
0.1148

> <Gold.PLP.ligand.clash>
0.0000

> <Gold.PLP.ligand.torsion>
0.9968

> <Gold.PLP.Chemscore.Hbond>
6.7360

> <Gold.PLP.Chemscore.CHOScore>
0.0000

> <Gold.PLP.Chemscore.Metal>
0.0000

> <Gold.Chemscore.Hbonds>
donor molecule, donor type, donor heavy atom, donor atom, acceptor molecule, acceptor atom, score
      L1  H    12    41       P1  7948  2.00
      P1  H  6896  6907       L1     6  0.70
      P1  H  6931  6943       L1     3  0.73
      P1  H  7989  7998       L1    16  1.00

> <Gold.PLP.Chemscore.Internal.Correction>
0.0532

> <Gold.Rescore>
     Score         DG    S(hbond)    S(metal)    S(lipo)     H(rot)  DE(clash)    DE(int)     intcor
     15.53     -20.78       3.07        0.00      78.39       1.61       2.84       2.41       ----

> <Gold.Chemscore.Fitness>
15.5291

> <Gold.Chemscore.DG>
-20.7790

> <Gold.Chemscore.ZeroCoef>
-5.4800

> <Gold.Chemscore.Hbond>
3.0662

> <Gold.Chemscore.Metal>
0.0000

> <Gold.Chemscore.Lipo>
78.3919

> <Gold.Chemscore.Internal_Hbond>
0.0000

> <Gold.Chemscore.DEClash>
2.8447

> <Gold.Chemscore.DEInternal>
2.4052

> <Gold.Chemscore.Rot>
1.6070

> <Gold.Chemscore.Internal.Correction>
   9.000000E+99

> <Gold.Chemscore.Hbonds>
donor molecule, donor type, donor heavy atom, donor atom, acceptor molecule, acceptor atom, score
      L1  H    12    41       P1  7948  0.98
      P1  H  6896  6907       L1     6  0.01
      P1  H  6931  6943       L1     3  0.25
      P1  H  7989  7998       L1    16  0.70

> <Gold.Chemscore.Hbond.Weighted>
-10.2410

> <Gold.Chemscore.Metal.Weighted>
-0.0000

> <Gold.Chemscore.Lipo.Weighted>
-9.1719

> <Gold.Chemscore.Internal_Hbond.Weighted>
0.0000

> <Gold.Chemscore.DEClash.Weighted>
2.8447

> <Gold.Chemscore.DEInternal.Weighted>
2.4052

> <Gold.Chemscore.Rot.Weighted>
4.1139

> <Gold.Chemscore.Internal.Correction.Weighted>
   9.000000E+99

> <Gold.Protein.RotatedTorsions>
[ 6907 6896 6895 6894 ] final  -90.42 input  -60.11 | X-H torsion
[ 7974 7965 7964 7962 ] final  156.70 input  175.53 | X-H torsion
[ 8008 7997 7996 7995 ] final  176.08 input   59.86 | X-H torsion
[ 10167 10162 10161 10158 ] final  -83.54 input  -65.29 | X-H torsion
[ 10718 10713 10712 10709 ] final   46.76 input   66.30 | X-H torsion
[ 10763 10752 10751 10750 ] final   86.50 input  -60.55 | X-H torsion
[ 11005 11000 10999 10996 ] final    9.00 input  -57.11 | X-H torsion

> <Gold.Protein.ActiveResidues>
 VAL166  LYS551  ARG553  GLY616  TRP617  ASP618  TYR619  PRO620  LYS621  CYS622 
 ASP623  PHE694  ASN695  SER759  ASP760  ASP761  ALA762  ILE779  LEU786  VAL792 
 PHE793  MET794  SER795  GLU796  ALA797  LYS798  CYS799  TRP800  GLU811  SER814 

> <Gold.Protein.RotatedAtoms>
  150.6882  134.2434  159.4481 H   0  0  0  0  0  0  0  0  0  0  0  0  # atno 6907 bound_to 6896
  152.0377  134.9728  160.0583 H   0  0  0  0  0  0  0  0  0  0  0  0  # atno 6908 bound_to 6896
  152.1242  133.4336  159.4727 H   0  0  0  0  0  0  0  0  0  0  0  0  # atno 6909 bound_to 6896
  144.7947  139.7240  143.6207 H   0  0  0  0  0  0  0  0  0  0  0  0  # atno 7974 bound_to 7965
  156.0802  140.1392  156.9721 H   0  0  0  0  0  0  0  0  0  0  0  0  # atno 8008 bound_to 7997
  154.4581  140.0953  156.6864 H   0  0  0  0  0  0  0  0  0  0  0  0  # atno 8009 bound_to 7997
  155.5087  140.3453  155.4386 H   0  0  0  0  0  0  0  0  0  0  0  0  # atno 8010 bound_to 7997
  140.4217  143.2582  151.8880 H   0  0  0  0  0  0  0  0  0  0  0  0  # atno 10167 bound_to 10162
  157.4515  130.8141  149.7793 H   0  0  0  0  0  0  0  0  0  0  0  0  # atno 10718 bound_to 10713
  153.1577  135.4578  154.9727 H   0  0  0  0  0  0  0  0  0  0  0  0  # atno 10763 bound_to 10752
  154.7874  135.3208  154.7858 H   0  0  0  0  0  0  0  0  0  0  0  0  # atno 10764 bound_to 10752
  153.8353  135.6935  153.4864 H   0  0  0  0  0  0  0  0  0  0  0  0  # atno 10765 bound_to 10752
  140.5307  134.0469  155.7872 H   0  0  0  0  0  0  0  0  0  0  0  0  # atno 11005 bound_to 11000
  146.2211  139.5638  142.9618 LP  0  0  0  0  0  0  0  0  0  0  0  0  # atno 17320 bound_to 7965
  145.5704  141.0395  143.2177 LP  0  0  0  0  0  0  0  0  0  0  0  0  # atno 17321 bound_to 7965
  139.4783  144.5430  151.8500 LP  0  0  0  0  0  0  0  0  0  0  0  0  # atno 17342 bound_to 10162
  140.4526  144.1834  150.5898 LP  0  0  0  0  0  0  0  0  0  0  0  0  # atno 17343 bound_to 10162
  155.9989  130.3892  150.2685 LP  0  0  0  0  0  0  0  0  0  0  0  0  # atno 17370 bound_to 10713
  157.0857  131.0155  151.3140 LP  0  0  0  0  0  0  0  0  0  0  0  0  # atno 17371 bound_to 10713
  141.1283  133.9346  157.2589 LP  0  0  0  0  0  0  0  0  0  0  0  0  # atno 17394 bound_to 11000
  139.9556  135.0166  156.9118 LP  0  0  0  0  0  0  0  0  0  0  0  0  # atno 17395 bound_to 11000

$$$$
