AV-unprocessed.smi:1570|AV-procd|sdf|6316|dock7
  -GOLD-   22720 6523D 1   1.00000     0.00000
 Structure written by MMmdl.
 51 53  0  0  0  0  0  0  0  0  1 V2000
  155.3836  140.6450  159.6583 C   0  0  0  0  0  0  0  0  0  0  0  0
  154.0850  140.9922  160.3968 C   0  0  0  0  0  0  0  0  0  0  0  0
  153.0253  141.3576  159.4603 N   0  0  0  0  0  0  0  0  0  0  0  0
  152.4742  140.5608  158.5147 C   0  0  0  0  0  0  0  0  0  0  0  0
  152.7753  139.3880  158.2914 O   0  0  0  0  0  0  0  0  0  0  0  0
  151.5407  141.2811  157.8492 N   0  0  0  0  0  0  0  0  0  0  0  0
  150.7008  140.8096  156.7491 C   0  0  0  0  0  0  0  0  0  0  0  0
  151.4494  139.8152  155.8393 C   0  0  2  0  0  0  0  0  0  0  0  0
  152.6183  140.4517  155.3630 O   0  0  0  0  0  0  0  0  0  0  0  0
  150.6016  139.4372  154.6070 C   0  0  0  0  0  0  0  0  0  0  0  0
  149.1507  139.5239  154.7848 N   0  0  0  0  0  0  0  0  0  0  0  0
  148.4651  138.6089  153.8778 C   0  0  0  0  0  0  0  0  0  0  0  0
  146.9310  138.6617  154.0179 C   0  0  1  0  0  0  0  0  0  0  0  0
  146.4112  137.9904  155.3006 C   0  0  0  0  0  0  0  0  0  0  0  0
  146.4721  140.0091  153.8998 O   0  0  0  0  0  0  0  0  0  0  0  0
  147.1096  140.9457  154.7661 C   0  0  2  0  0  0  0  0  0  0  0  0
  146.5546  142.3389  154.4522 C   0  0  0  0  0  0  0  0  0  0  0  0
  148.6350  140.8734  154.5700 C   0  0  0  0  0  0  0  0  0  0  0  0
  151.5060  142.5816  158.3722 C   0  0  0  0  0  0  0  0  0  0  0  0
  150.7321  143.7014  158.0201 C   0  0  0  0  0  0  0  0  0  0  0  0
  150.9461  144.8921  158.7531 C   0  0  0  0  0  0  0  0  0  0  0  0
  151.9070  144.9412  159.7961 C   0  0  0  0  0  0  0  0  0  0  0  0
  152.6751  143.8006  160.1278 C   0  0  0  0  0  0  0  0  0  0  0  0
  152.4405  142.6298  159.3856 C   0  0  0  0  0  0  0  0  0  0  0  0
  156.1701  140.3769  160.3637 H   0  0  0  0  0  0  0  0  0  0  0  0
  155.7398  141.4896  159.0679 H   0  0  0  0  0  0  0  0  0  0  0  0
  155.2399  139.8001  158.9840 H   0  0  0  0  0  0  0  0  0  0  0  0
  153.7665  140.1438  161.0044 H   0  0  0  0  0  0  0  0  0  0  0  0
  154.2586  141.8130  161.0930 H   0  0  0  0  0  0  0  0  0  0  0  0
  149.8330  140.3170  157.1910 H   0  0  0  0  0  0  0  0  0  0  0  0
  150.2982  141.6450  156.1750 H   0  0  0  0  0  0  0  0  0  0  0  0
  151.7224  138.9284  156.4096 H   0  0  0  0  0  0  0  0  0  0  0  0
  152.3895  140.9549  154.5960 H   0  0  0  0  0  0  0  0  0  0  0  0
  150.8901  140.0697  153.7660 H   0  0  0  0  0  0  0  0  0  0  0  0
  150.8692  138.4205  154.3138 H   0  0  0  0  0  0  0  0  0  0  0  0
  148.7310  138.8555  152.8484 H   0  0  0  0  0  0  0  0  0  0  0  0
  148.8096  137.5877  154.0458 H   0  0  0  0  0  0  0  0  0  0  0  0
  146.4996  138.1174  153.1776 H   0  0  0  0  0  0  0  0  0  0  0  0
  146.6772  136.9333  155.3193 H   0  0  0  0  0  0  0  0  0  0  0  0
  145.3250  138.0587  155.3621 H   0  0  0  0  0  0  0  0  0  0  0  0
  146.8263  138.4456  156.1995 H   0  0  0  0  0  0  0  0  0  0  0  0
  146.8651  140.7054  155.8012 H   0  0  0  0  0  0  0  0  0  0  0  0
  147.0008  143.0941  155.0996 H   0  0  0  0  0  0  0  0  0  0  0  0
  145.4749  142.3708  154.6003 H   0  0  0  0  0  0  0  0  0  0  0  0
  146.7575  142.6210  153.4187 H   0  0  0  0  0  0  0  0  0  0  0  0
  149.1009  141.5741  155.2610 H   0  0  0  0  0  0  0  0  0  0  0  0
  148.8908  141.2103  153.5641 H   0  0  0  0  0  0  0  0  0  0  0  0
  150.0061  143.6613  157.2217 H   0  0  0  0  0  0  0  0  0  0  0  0
  150.3722  145.7754  158.5140 H   0  0  0  0  0  0  0  0  0  0  0  0
  152.0555  145.8613  160.3420 H   0  0  0  0  0  0  0  0  0  0  0  0
  153.4109  143.8338  160.9175 H   0  0  0  0  0  0  0  0  0  0  0  0
  1  2  1  0  0  0  0
  1 25  1  0  0  0  0
  1 26  1  0  0  0  0
  1 27  1  0  0  0  0
  2  3  1  0  0  0  0
  2 28  1  0  0  0  0
  2 29  1  0  0  0  0
  3 24  1  0  0  0  0
  3  4  1  0  0  0  0
  4  5  2  0  0  0  0
  4  6  1  0  0  0  0
  6  7  1  0  0  0  0
  6 19  1  0  0  0  0
  7  8  1  0  0  0  0
  7 30  1  0  0  0  0
  7 31  1  0  0  0  0
  8  9  1  0  0  0  0
  8 10  1  0  0  0  0
  8 32  1  0  0  0  0
  9 33  1  0  0  0  0
 10 11  1  0  0  0  0
 10 34  1  0  0  0  0
 10 35  1  0  0  0  0
 11 18  1  0  0  0  0
 11 12  1  0  0  0  0
 12 13  1  0  0  0  0
 12 36  1  0  0  0  0
 12 37  1  0  0  0  0
 13 14  1  0  0  0  0
 13 15  1  0  0  0  0
 13 38  1  0  0  0  0
 14 39  1  0  0  0  0
 14 40  1  0  0  0  0
 14 41  1  0  0  0  0
 15 16  1  0  0  0  0
 16 17  1  0  0  0  0
 16 18  1  0  0  0  0
 16 42  1  0  0  0  0
 17 43  1  0  0  0  0
 17 44  1  0  0  0  0
 17 45  1  0  0  0  0
 18 46  1  0  0  0  0
 18 47  1  0  0  0  0
 19 24  2  0  0  0  0
 19 20  1  0  0  0  0
 20 21  2  0  0  0  0
 20 48  1  0  0  0  0
 21 22  1  0  0  0  0
 21 49  1  0  0  0  0
 22 23  2  0  0  0  0
 22 50  1  0  0  0  0
 23 24  1  0  0  0  0
 23 51  1  0  0  0  0
M  END
> <s_m_source_file>
AV-unprocessed.smi

> <i_m_source_file_index>
1570

> <i_lp_mmshare_version>
43012

> <i_f3d_flags>
0

> <s_epik_input>
W2NIXTFbY0hdW2NIXVtjSF1jKGMxMiluKFtDSDJdW0NIM10pYyg9TyluMltDSDJdW0NASF0oW09IXSlbQ0gyXU4zW0NIMl1bQ0BASF0oW0NIM10pT1tDQEBIXShbQ0gzXSlbQ0gyXTM=

> <s_epik_cmdline>
J2VwaWtfcHl0aG9uJywgJy1waCcsICc3LjAnLCAnLXRuJywgJzgnLCAnLW1hJywgJzIwMCcsICctbWV0YWxfYmluZGluZycsICctaW1hZScsICc8aW5maWxlLm1hZT4nLCAnLW9tYWUnLCAnPG91dGZpbGUubWFlPic=

> <r_epik_Ionization_Penalty>
0.214359

> <r_epik_Ionization_Penalty_Charging>
2.30976e-09

> <r_epik_Ionization_Penalty_Neutral>
0.214359

> <r_epik_State_Penalty>
0.204533

> <r_epik_Charging_Adjusted_Penalty>
0.204533

> <i_epik_Tot_Q>
0

> <i_epik_Tot_abs_Q>
0

> <r_epik_Metal_State_Penalty>
0.204533

> <b_epik_Metal_Only>
0

> <s_lp_Force_Field>
OPLS_2005

> <r_lp_Energy>
63.3527

> <b_lp_Chiralities_Consistent>
1

> <s_lp_Variant>
AV-unprocessed.smi:1570-5

> <Gold.Version>
5.8.1

> <Gold.Id.Protein>
6NUR|6NUR_protein|mol2

> <Gold.PLP.Fitness>
48.8285

> <Gold.PLP.PLP>
-48.0026

> <Gold.PLP.part.hbond>
-1.9562

> <Gold.PLP.part.metal>
0.0000

> <Gold.PLP.part.buried>
-2.0418

> <Gold.PLP.part.nonpolar>
-44.6788

> <Gold.PLP.part.repulsive>
0.2686

> <Gold.PLP.ligand.clash>
0.0000

> <Gold.PLP.ligand.torsion>
1.1059

> <Gold.PLP.Chemscore.Hbond>
0.9920

> <Gold.PLP.Chemscore.CHOScore>
0.0000

> <Gold.PLP.Chemscore.Metal>
0.0000

> <Gold.Chemscore.Hbonds>
donor molecule, donor type, donor heavy atom, donor atom, acceptor molecule, acceptor atom, score
      P1  H  7997  8008       L1     9  0.82

> <Gold.PLP.Chemscore.Internal.Correction>
0.0616

> <Gold.Rescore>
     Score         DG    S(hbond)    S(metal)    S(lipo)     H(rot)  DE(clash)    DE(int)     intcor
     15.69     -18.42       0.92        0.00     129.36       2.06       0.03       2.70       ----

> <Gold.Chemscore.Fitness>
15.6901

> <Gold.Chemscore.DG>
-18.4204

> <Gold.Chemscore.ZeroCoef>
-5.4800

> <Gold.Chemscore.Hbond>
0.9197

> <Gold.Chemscore.Metal>
0.0000

> <Gold.Chemscore.Lipo>
129.3634

> <Gold.Chemscore.Internal_Hbond>
0.0000

> <Gold.Chemscore.DEClash>
0.0327

> <Gold.Chemscore.DEInternal>
2.6976

> <Gold.Chemscore.Rot>
2.0574

> <Gold.Chemscore.Internal.Correction>
   9.000000E+99

> <Gold.Chemscore.Hbonds>
donor molecule, donor type, donor heavy atom, donor atom, acceptor molecule, acceptor atom, score
      P1  H  7997  8008       L1     9  0.75

> <Gold.Chemscore.Hbond.Weighted>
-3.0718

> <Gold.Chemscore.Metal.Weighted>
-0.0000

> <Gold.Chemscore.Lipo.Weighted>
-15.1355

> <Gold.Chemscore.Internal_Hbond.Weighted>
0.0000

> <Gold.Chemscore.DEClash.Weighted>
0.0327

> <Gold.Chemscore.DEInternal.Weighted>
2.6976

> <Gold.Chemscore.Rot.Weighted>
5.2669

> <Gold.Chemscore.Internal.Correction.Weighted>
   9.000000E+99

> <Gold.Protein.RotatedTorsions>
[ 6907 6896 6895 6894 ] final -149.95 input  -60.11 | X-H torsion
[ 7974 7965 7964 7962 ] final  101.11 input  175.53 | X-H torsion
[ 8008 7997 7996 7995 ] final  -43.63 input   59.86 | X-H torsion
[ 10167 10162 10161 10158 ] final  -81.57 input  -65.29 | X-H torsion
[ 10718 10713 10712 10709 ] final    9.41 input   66.30 | X-H torsion
[ 10763 10752 10751 10750 ] final  -83.37 input  -60.55 | X-H torsion
[ 11005 11000 10999 10996 ] final    2.85 input  -57.11 | X-H torsion

> <Gold.Protein.ActiveResidues>
 VAL166  LYS551  ARG553  GLY616  TRP617  ASP618  TYR619  PRO620  LYS621  CYS622 
 ASP623  PHE694  ASN695  SER759  ASP760  ASP761  ALA762  ILE779  LEU786  VAL792 
 PHE793  MET794  SER795  GLU796  ALA797  LYS798  CYS799  TRP800  GLU811  SER814 

> <Gold.Protein.RotatedAtoms>
  151.1915  133.4664  159.2594 H   0  0  0  0  0  0  0  0  0  0  0  0  # atno 6907 bound_to 6896
  151.1159  135.0052  159.8526 H   0  0  0  0  0  0  0  0  0  0  0  0  # atno 6908 bound_to 6896
  152.5453  134.1831  159.8696 H   0  0  0  0  0  0  0  0  0  0  0  0  # atno 6909 bound_to 6896
  145.3767  139.2387  143.3426 H   0  0  0  0  0  0  0  0  0  0  0  0  # atno 7974 bound_to 7965
  154.3997  140.1443  156.3551 H   0  0  0  0  0  0  0  0  0  0  0  0  # atno 8008 bound_to 7997
  155.8233  140.3468  155.5506 H   0  0  0  0  0  0  0  0  0  0  0  0  # atno 8009 bound_to 7997
  155.8265  140.0906  157.1808 H   0  0  0  0  0  0  0  0  0  0  0  0  # atno 8010 bound_to 7997
  140.4400  143.2518  151.8639 H   0  0  0  0  0  0  0  0  0  0  0  0  # atno 10167 bound_to 10162
  156.9658  130.5950  149.5665 H   0  0  0  0  0  0  0  0  0  0  0  0  # atno 10718 bound_to 10713
  154.5869  135.5558  153.7240 H   0  0  0  0  0  0  0  0  0  0  0  0  # atno 10763 bound_to 10752
  153.0102  135.6333  154.1904 H   0  0  0  0  0  0  0  0  0  0  0  0  # atno 10764 bound_to 10752
  154.1845  135.2885  155.3021 H   0  0  0  0  0  0  0  0  0  0  0  0  # atno 10765 bound_to 10752
  140.5997  133.9847  155.8126 H   0  0  0  0  0  0  0  0  0  0  0  0  # atno 11005 bound_to 11000
  146.2861  140.4428  142.8757 LP  0  0  0  0  0  0  0  0  0  0  0  0  # atno 17320 bound_to 7965
  144.8537  140.7039  143.6152 LP  0  0  0  0  0  0  0  0  0  0  0  0  # atno 17321 bound_to 7965
  139.4789  144.5239  151.8762 LP  0  0  0  0  0  0  0  0  0  0  0  0  # atno 17342 bound_to 10162
  140.4329  144.2091  150.5888 LP  0  0  0  0  0  0  0  0  0  0  0  0  # atno 17343 bound_to 10162
  156.0303  130.5394  150.8516 LP  0  0  0  0  0  0  0  0  0  0  0  0  # atno 17370 bound_to 10713
  157.5626  131.0946  150.9536 LP  0  0  0  0  0  0  0  0  0  0  0  0  # atno 17371 bound_to 10713
  141.0880  133.9960  157.3282 LP  0  0  0  0  0  0  0  0  0  0  0  0  # atno 17394 bound_to 11000
  139.9238  135.0201  156.8160 LP  0  0  0  0  0  0  0  0  0  0  0  0  # atno 17395 bound_to 11000

$$$$
