AV-unprocessed.smi:1807|AV-procd|sdf|7303|dock8
  -GOLD-   22720 8563D 1   1.00000     0.00000
 Structure written by MMmdl.
 44 45  0  0  0  0  0  0  0  0  1 V2000
  149.8294  139.9191  154.4649 C   0  0  0  0  0  0  0  0  0  0  0  0
  148.4450  140.4744  154.8411 C   0  0  2  0  0  0  0  0  0  0  0  0
  147.9458  141.5004  153.8028 C   0  0  0  0  0  0  0  0  0  0  0  0
  146.5339  142.0046  154.1412 C   0  0  0  0  0  0  0  0  0  0  0  0
  146.4747  142.5928  155.5589 C   0  0  0  0  0  0  0  0  0  0  0  0
  146.9742  141.5797  156.6042 C   0  0  0  0  0  0  0  0  0  0  0  0
  148.3867  141.0528  156.2790 C   0  0  2  0  0  0  0  0  0  0  0  0
  149.3691  142.1202  156.4791 N   0  0  0  0  0  0  0  0  0  0  0  0
  150.4447  142.0726  157.2799 C   0  0  0  0  0  0  0  0  0  0  0  0
  150.7382  141.0916  157.9656 O   0  0  0  0  0  0  0  0  0  0  0  0
  151.3057  143.3381  157.2999 C   0  0  0  0  0  0  0  0  0  0  0  0
  151.5344  143.8258  158.6530 N   0  0  0  0  0  0  0  0  0  0  0  0
  152.2431  143.0349  159.5630 C   0  0  0  0  0  0  0  0  0  0  0  0
  152.4934  143.4561  160.8972 C   0  0  0  0  0  0  0  0  0  0  0  0
  153.1898  142.4082  161.4293 C   0  0  0  0  0  0  0  0  0  0  0  0
  153.3225  141.4517  160.4412 N   0  0  0  0  0  0  0  0  0  0  0  0
  153.9759  140.1576  160.5205 C   0  0  0  0  0  0  0  0  0  0  0  0
  155.4874  140.2901  160.3260 C   0  0  0  0  0  0  0  0  0  0  0  0
  156.2010  140.7273  161.3670 N   0  0  0  0  0  0  0  0  0  0  0  0
  156.0053  140.0013  159.2495 O   0  0  0  0  0  0  0  0  0  0  0  0
  152.7396  141.8390  159.2850 N   0  0  0  0  0  0  0  0  0  0  0  0
  150.5785  140.7087  154.4003 H   0  0  0  0  0  0  0  0  0  0  0  0
  149.7982  139.4178  153.4974 H   0  0  0  0  0  0  0  0  0  0  0  0
  150.1737  139.1917  155.2007 H   0  0  0  0  0  0  0  0  0  0  0  0
  147.7556  139.6291  154.8121 H   0  0  0  0  0  0  0  0  0  0  0  0
  148.6335  142.3456  153.7535 H   0  0  0  0  0  0  0  0  0  0  0  0
  147.9415  141.0520  152.8088 H   0  0  0  0  0  0  0  0  0  0  0  0
  146.2231  142.7558  153.4145 H   0  0  0  0  0  0  0  0  0  0  0  0
  145.8233  141.1813  154.0580 H   0  0  0  0  0  0  0  0  0  0  0  0
  147.0783  143.5000  155.6038 H   0  0  0  0  0  0  0  0  0  0  0  0
  145.4533  142.8931  155.7932 H   0  0  0  0  0  0  0  0  0  0  0  0
  146.9583  142.0299  157.5976 H   0  0  0  0  0  0  0  0  0  0  0  0
  146.2805  140.7391  156.6430 H   0  0  0  0  0  0  0  0  0  0  0  0
  148.5943  140.2409  156.9784 H   0  0  0  0  0  0  0  0  0  0  0  0
  149.2161  142.9719  155.9587 H   0  0  0  0  0  0  0  0  0  0  0  0
  152.2641  143.1260  156.8227 H   0  0  0  0  0  0  0  0  0  0  0  0
  150.8094  144.1121  156.7131 H   0  0  0  0  0  0  0  0  0  0  0  0
  151.1075  144.6939  158.9433 H   0  0  0  0  0  0  0  0  0  0  0  0
  152.2063  144.3749  161.3867 H   0  0  0  0  0  0  0  0  0  0  0  0
  153.5957  142.2631  162.4195 H   0  0  0  0  0  0  0  0  0  0  0  0
  153.7665  139.7041  161.4908 H   0  0  0  0  0  0  0  0  0  0  0  0
  153.5498  139.4995  159.7617 H   0  0  0  0  0  0  0  0  0  0  0  0
  157.2025  140.8281  161.2882 H   0  0  0  0  0  0  0  0  0  0  0  0
  155.7336  140.9529  162.2333 H   0  0  0  0  0  0  0  0  0  0  0  0
  1  2  1  0  0  0  0
  1 22  1  0  0  0  0
  1 23  1  0  0  0  0
  1 24  1  0  0  0  0
  2  7  1  0  0  0  0
  2  3  1  0  0  0  0
  2 25  1  0  0  0  0
  3  4  1  0  0  0  0
  3 26  1  0  0  0  0
  3 27  1  0  0  0  0
  4  5  1  0  0  0  0
  4 28  1  0  0  0  0
  4 29  1  0  0  0  0
  5  6  1  0  0  0  0
  5 30  1  0  0  0  0
  5 31  1  0  0  0  0
  6  7  1  0  0  0  0
  6 32  1  0  0  0  0
  6 33  1  0  0  0  0
  7  8  1  0  0  0  0
  7 34  1  0  0  0  0
  8  9  1  0  0  0  0
  8 35  1  0  0  0  0
  9 10  2  0  0  0  0
  9 11  1  0  0  0  0
 11 12  1  0  0  0  0
 11 36  1  0  0  0  0
 11 37  1  0  0  0  0
 12 13  1  0  0  0  0
 12 38  1  0  0  0  0
 13 21  2  0  0  0  0
 13 14  1  0  0  0  0
 14 15  2  0  0  0  0
 14 39  1  0  0  0  0
 15 16  1  0  0  0  0
 15 40  1  0  0  0  0
 16 17  1  0  0  0  0
 16 21  1  0  0  0  0
 17 18  1  0  0  0  0
 17 41  1  0  0  0  0
 17 42  1  0  0  0  0
 18 19  1  0  0  0  0
 18 20  2  0  0  0  0
 19 43  1  0  0  0  0
 19 44  1  0  0  0  0
M  END
> <s_m_source_file>
AV-unprocessed.smi

> <i_m_source_file_index>
1807

> <i_lp_mmshare_version>
43012

> <i_f3d_flags>
0

> <s_epik_input>
W0NIM11bQ0BASF0xW0NIMl1bQ0gyXVtDSDJdW0NIMl1bQ0BIXTFbTkhdQyg9TylbQ0gyXVtOSF1jMltjSF1bY0hdbihuMilbQ0gyXUMoPU8pW05IMl0=

> <s_epik_cmdline>
J2VwaWtfcHl0aG9uJywgJy1waCcsICc3LjAnLCAnLXRuJywgJzgnLCAnLW1hJywgJzIwMCcsICctbWV0YWxfYmluZGluZycsICctaW1hZScsICc8aW5maWxlLm1hZT4nLCAnLW9tYWUnLCAnPG91dGZpbGUubWFlPic=

> <r_lp_tautomer_probability>
1

> <r_epik_Ionization_Penalty>
0.000167642

> <r_epik_Ionization_Penalty_Charging>
0

> <r_epik_Ionization_Penalty_Neutral>
0.000167642

> <r_epik_State_Penalty>
-0

> <r_epik_Charging_Adjusted_Penalty>
0

> <i_epik_Tot_Q>
0

> <i_epik_Tot_abs_Q>
0

> <r_epik_Metal_State_Penalty>
-0

> <b_epik_Metal_Only>
0

> <s_lp_Force_Field>
OPLS_2005

> <r_lp_Energy>
5.83979

> <b_lp_Chiralities_Consistent>
1

> <s_lp_Variant>
AV-unprocessed.smi:1807-3

> <Gold.Version>
5.8.1

> <Gold.Id.Protein>
6NUR|6NUR_protein|mol2

> <Gold.PLP.Fitness>
47.5712

> <Gold.PLP.PLP>
-42.8387

> <Gold.PLP.part.hbond>
-2.8599

> <Gold.PLP.part.metal>
0.0000

> <Gold.PLP.part.buried>
-4.4940

> <Gold.PLP.part.nonpolar>
-34.7230

> <Gold.PLP.part.repulsive>
0.1070

> <Gold.PLP.ligand.clash>
0.0000

> <Gold.PLP.ligand.torsion>
0.6504

> <Gold.PLP.Chemscore.Hbond>
2.0000

> <Gold.PLP.Chemscore.CHOScore>
0.0000

> <Gold.PLP.Chemscore.Metal>
0.0000

> <Gold.Chemscore.Hbonds>
donor molecule, donor type, donor heavy atom, donor atom, acceptor molecule, acceptor atom, score
      L1  H     8    35       P1  8028  1.00
      P1  H  7997  8009       L1    20  1.00

> <Gold.PLP.Chemscore.Internal.Correction>
0.0332

> <Gold.Rescore>
     Score         DG    S(hbond)    S(metal)    S(lipo)     H(rot)  DE(clash)    DE(int)     intcor
      9.59     -14.65       1.98        0.00      79.64       2.64       0.16       4.90       ----

> <Gold.Chemscore.Fitness>
9.5942

> <Gold.Chemscore.DG>
-14.6489

> <Gold.Chemscore.ZeroCoef>
-5.4800

> <Gold.Chemscore.Hbond>
1.9765

> <Gold.Chemscore.Metal>
0.0000

> <Gold.Chemscore.Lipo>
79.6402

> <Gold.Chemscore.Internal_Hbond>
0.0000

> <Gold.Chemscore.DEClash>
0.1595

> <Gold.Chemscore.DEInternal>
4.8952

> <Gold.Chemscore.Rot>
2.6369

> <Gold.Chemscore.Internal.Correction>
   9.000000E+99

> <Gold.Chemscore.Hbonds>
donor molecule, donor type, donor heavy atom, donor atom, acceptor molecule, acceptor atom, score
      L1  H     8    35       P1  8028  0.99
      P1  H  7997  8009       L1    20  0.96

> <Gold.Chemscore.Hbond.Weighted>
-6.6013

> <Gold.Chemscore.Metal.Weighted>
-0.0000

> <Gold.Chemscore.Lipo.Weighted>
-9.3179

> <Gold.Chemscore.Internal_Hbond.Weighted>
0.0000

> <Gold.Chemscore.DEClash.Weighted>
0.1595

> <Gold.Chemscore.DEInternal.Weighted>
4.8952

> <Gold.Chemscore.Rot.Weighted>
6.7504

> <Gold.Chemscore.Internal.Correction.Weighted>
   9.000000E+99

> <Gold.Protein.RotatedTorsions>
[ 6907 6896 6895 6894 ] final  -83.26 input  -60.11 | X-H torsion
[ 7974 7965 7964 7962 ] final -145.27 input  175.53 | X-H torsion
[ 8008 7997 7996 7995 ] final   87.59 input   59.86 | X-H torsion
[ 10167 10162 10161 10158 ] final    8.76 input  -65.29 | X-H torsion
[ 10718 10713 10712 10709 ] final -116.48 input   66.30 | X-H torsion
[ 10763 10752 10751 10750 ] final   66.65 input  -60.55 | X-H torsion
[ 11005 11000 10999 10996 ] final  -44.39 input  -57.11 | X-H torsion

> <Gold.Protein.ActiveResidues>
 VAL166  LYS551  ARG553  GLY616  TRP617  ASP618  TYR619  PRO620  LYS621  CYS622 
 ASP623  PHE694  ASN695  SER759  ASP760  ASP761  ALA762  ILE779  LEU786  VAL792 
 PHE793  MET794  SER795  GLU796  ALA797  LYS798  CYS799  TRP800  GLU811  SER814 

> <Gold.Protein.RotatedAtoms>
  150.6887  134.3539  159.4920 H   0  0  0  0  0  0  0  0  0  0  0  0  # atno 6907 bound_to 6896
  152.1377  134.9084  160.0564 H   0  0  0  0  0  0  0  0  0  0  0  0  # atno 6908 bound_to 6896
  152.0230  133.3871  159.4303 H   0  0  0  0  0  0  0  0  0  0  0  0  # atno 6909 bound_to 6896
  144.8239  140.5604  143.5560 H   0  0  0  0  0  0  0  0  0  0  0  0  # atno 7974 bound_to 7965
  155.9773  140.3380  155.6630 H   0  0  0  0  0  0  0  0  0  0  0  0  # atno 8008 bound_to 7997
  155.6595  140.0714  157.2577 H   0  0  0  0  0  0  0  0  0  0  0  0  # atno 8009 bound_to 7997
  154.4182  140.1711  156.1749 H   0  0  0  0  0  0  0  0  0  0  0  0  # atno 8010 bound_to 7997
  140.6295  143.8025  150.7277 H   0  0  0  0  0  0  0  0  0  0  0  0  # atno 10167 bound_to 10162
  156.0966  130.6137  150.9041 H   0  0  0  0  0  0  0  0  0  0  0  0  # atno 10718 bound_to 10713
  153.0149  135.5313  154.6856 H   0  0  0  0  0  0  0  0  0  0  0  0  # atno 10763 bound_to 10752
  154.6005  135.2868  155.0543 H   0  0  0  0  0  0  0  0  0  0  0  0  # atno 10764 bound_to 10752
  154.1602  135.6549  153.5036 H   0  0  0  0  0  0  0  0  0  0  0  0  # atno 10765 bound_to 10752
  141.0447  133.6766  156.2866 H   0  0  0  0  0  0  0  0  0  0  0  0  # atno 11005 bound_to 11000
  145.5044  139.1482  143.3639 LP  0  0  0  0  0  0  0  0  0  0  0  0  # atno 17320 bound_to 7965
  146.2544  140.5184  142.8880 LP  0  0  0  0  0  0  0  0  0  0  0  0  # atno 17321 bound_to 7965
  140.1633  143.4256  152.2052 LP  0  0  0  0  0  0  0  0  0  0  0  0  # atno 17342 bound_to 10162
  139.5511  144.7338  151.4432 LP  0  0  0  0  0  0  0  0  0  0  0  0  # atno 17343 bound_to 10162
  157.6128  131.0935  150.8763 LP  0  0  0  0  0  0  0  0  0  0  0  0  # atno 17370 bound_to 10713
  156.8900  130.5209  149.5286 LP  0  0  0  0  0  0  0  0  0  0  0  0  # atno 17371 bound_to 10713
  140.6168  134.5402  157.5542 LP  0  0  0  0  0  0  0  0  0  0  0  0  # atno 17394 bound_to 11000
  139.9303  134.7977  156.0951 LP  0  0  0  0  0  0  0  0  0  0  0  0  # atno 17395 bound_to 11000

$$$$
