#       Name:                AV-unprocessed.smi:768
#       Creating user name   scv26
#       Creation time:       Fri Mar 27 01:08:29 2020


#       File generated by GOLD software.
#

@<TRIPOS>MOLECULE
AV-unprocessed.smi:768
    54    55     1
SMALL
NO_CHARGES


@<TRIPOS>ATOM
      1 ****        -2.4491  -2.2271   0.3315 C.3            1 S1                 0.0000
      2 ****        -2.3301  -1.4711   1.6431 C.2            1 S1                 0.0000
      3 ****        -2.3189  -2.1165   2.8296 C.2            1 S1                 0.0000
      4 ****        -2.2005  -1.3922   4.0717 C.2            1 S1                 0.0000
      5 ****        -2.1033  -0.0563   4.0191 C.2            1 S1                 0.0000
      6 ****        -2.1144   0.6408   2.7968 N.am           1 S1                 0.0000
      7 ****        -1.9942   2.1095   2.8648 C.3            1 S1                 0.0000
      8 ****        -0.5727   2.6538   2.6383 C.2            1 S1                 0.0000
      9 ****        -0.4170   3.8622   2.4688 O.2            1 S1                 0.0000
     10 ****         0.4435   1.7750   2.6189 N.am           1 S1                 0.0000
     11 ****         1.8364   2.0795   2.3111 C.3            1 S1                 0.0000
     12 ****         2.3879   1.0983   1.2641 C.3            1 S1                 0.0000
     13 ****         1.6533   1.1647  -0.0833 C.3            1 S1                 0.0000
     14 ****         2.2258   0.2115  -0.9659 O.3            1 S1                 0.0000
     15 ****         1.6037   0.1462  -2.2433 C.3            1 S1                 0.0000
     16 ****         0.3038  -0.6846  -2.1830 C.3            1 S1                 0.0000
     17 ****        -0.3049  -0.8806  -3.5807 C.3            1 S1                 0.0000
     18 ****         0.7077  -1.5124  -4.5486 C.3            1 S1                 0.0000
     19 ****         2.0029  -0.6878  -4.6121 C.3            1 S1                 0.0000
     20 ****         2.6100  -0.4993  -3.2124 C.3            1 S1                 0.0000
     21 ****        -2.2206  -0.0012   1.5913 C.2            1 S1                 0.0000
     22 ****        -2.2178   0.6225   0.5285 O.2            1 S1                 0.0000
     23 ****        -2.5692  -3.2979   0.4985 H              1 S1                 0.0000
     24 ****        -1.5550  -2.0806  -0.2739 H              1 S1                 0.0000
     25 ****        -3.3114  -1.8768  -0.2368 H              1 S1                 0.0000
     26 ****        -2.3975  -3.1935   2.8573 H              1 S1                 0.0000
     27 ****        -2.1873  -1.9128   5.0179 H              1 S1                 0.0000
     28 ****        -2.0053   0.5597   4.9013 H              1 S1                 0.0000
     29 ****        -2.6636   2.5732   2.1377 H              1 S1                 0.0000
     30 ****        -2.3403   2.4728   3.8333 H              1 S1                 0.0000
     31 ****         0.2222   0.8030   2.7799 H              1 S1                 0.0000
     32 ****         1.9561   3.1026   1.9515 H              1 S1                 0.0000
     33 ****         2.4156   2.0022   3.2313 H              1 S1                 0.0000
     34 ****         3.4470   1.3043   1.1051 H              1 S1                 0.0000
     35 ****         2.3314   0.0820   1.6559 H              1 S1                 0.0000
     36 ****         0.5933   0.9588   0.0600 H              1 S1                 0.0000
     37 ****         1.7387   2.1663  -0.5071 H              1 S1                 0.0000
     38 ****         1.3824   1.1539  -2.6006 H              1 S1                 0.0000
     39 ****         0.5137  -1.6583  -1.7384 H              1 S1                 0.0000
     40 ****        -0.4341  -0.2041  -1.5418 H              1 S1                 0.0000
     41 ****        -1.1950  -1.5068  -3.5126 H              1 S1                 0.0000
     42 ****        -0.6337   0.0826  -3.9729 H              1 S1                 0.0000
     43 ****         0.9371  -2.5288  -4.2255 H              1 S1                 0.0000
     44 ****         0.2696  -1.5957  -5.5435 H              1 S1                 0.0000
     45 ****         2.7241  -1.1780  -5.2668 H              1 S1                 0.0000
     46 ****         1.7953   0.2871  -5.0553 H              1 S1                 0.0000
     47 ****         3.5078   0.1158  -3.2793 H              1 S1                 0.0000
     48 ****         2.9275  -1.4670  -2.8215 H              1 S1                 0.0000
     49 ****        -1.2075   4.4746   2.4795 LP             1 S1                 0.0000
     50 ****         0.5001   4.2322   2.3203 LP             1 S1                 0.0000
     51 ****         2.1587  -0.6902  -0.5388 LP             1 S1                 0.0000
     52 ****         3.1886   0.4467  -1.0985 LP             1 S1                 0.0000
     53 ****        -2.2915   0.1316  -0.3396 LP             1 S1                 0.0000
     54 ****        -2.1418   1.6196   0.5341 LP             1 S1                 0.0000
@<TRIPOS>BOND
    1    1    2 1     
    2    1   23 1     
    3    1   24 1     
    4    1   25 1     
    5    2   21 1     
    6    2    3 2     
    7    3    4 1     
    8    3   26 1     
    9    4    5 2     
   10    4   27 1     
   11    5    6 1     
   12    5   28 1     
   13    6    7 1     
   14    6   21 am    
   15    7    8 1     
   16    7   29 1     
   17    7   30 1     
   18    8    9 2     
   19    8   10 am    
   20   10   11 1     
   21   10   31 1     
   22   11   12 1     
   23   11   32 1     
   24   11   33 1     
   25   12   13 1     
   26   12   34 1     
   27   12   35 1     
   28   13   14 1     
   29   13   36 1     
   30   13   37 1     
   31   14   15 1     
   32   15   20 1     
   33   15   16 1     
   34   15   38 1     
   35   16   17 1     
   36   16   39 1     
   37   16   40 1     
   38   17   18 1     
   39   17   41 1     
   40   17   42 1     
   41   18   19 1     
   42   18   43 1     
   43   18   44 1     
   44   19   20 1     
   45   19   45 1     
   46   19   46 1     
   47   20   47 1     
   48   20   48 1     
   49   21   22 2     
   50    9   49 1     
   51    9   50 1     
   52   14   51 1     
   53   14   52 1     
   54   22   53 1     
   55   22   54 1     
@<TRIPOS>SUBSTRUCTURE
      1 S1             1
@<TRIPOS>SET
LONE_PAIRS      STATIC     ATOMS    <user>   **** ""
6 49 50 51 52 53 54
DONOR_HYDROGENS      STATIC     ATOMS    <user>   **** ""
1 31
ATOM$BLUE        STATIC     ATOMS    COLORGROUP SYSTEM
6 49 50 51 52 53 54
ATOM$RED        STATIC     ATOMS    COLORGROUP SYSTEM
1 31
