#       Name:                AV-unprocessed.smi:110
#       Creating user name   scv26
#       Creation time:       Thu Mar 26 18:15:21 2020


#       File generated by GOLD software.
#

@<TRIPOS>MOLECULE
AV-unprocessed.smi:110
    57    61     1
SMALL
NO_CHARGES


@<TRIPOS>ATOM
      1 ****        -0.4671   1.3489   6.1638 O.3            1 S1                 0.0000
      2 ****        -0.5233   0.1654   5.3961 C.3            1 S1                 0.0000
      3 ****         0.8410  -0.1016   4.7363 C.3            1 S1                 0.0000
      4 ****         0.9816   0.6471   3.5387 O.3            1 S1                 0.0000
      5 ****         2.0174   0.0972   2.7913 C.3            1 S1                 0.0000
      6 ****         1.7025   0.2951   1.3447 N.pl3          1 S1                 0.0000
      7 ****         2.5389   0.7698   0.3607 C.2            1 S1                 0.0000
      8 ****         2.0132   0.8410  -0.8319 N.2            1 S1                 0.0000
      9 ****         0.7079   0.3929  -0.6608 C.ar           1 S1                 0.0000
     10 ****        -0.4062   0.2060  -1.5310 C.ar           1 S1                 0.0000
     11 ****        -0.3842   0.4990  -2.8572 N.pl3          1 S1                 0.0000
     12 ****         0.3368   1.6960  -3.3182 C.3            1 S1                 0.0000
     13 ****        -0.2208   2.0842  -4.6990 C.3            1 S1                 0.0000
     14 ****        -1.1646   0.9556  -4.9505 C.ar           1 S1                 0.0000
     15 ****        -1.9275   0.7312  -6.1097 C.ar           1 S1                 0.0000
     16 ****        -2.7527  -0.4122  -6.1520 C.ar           1 S1                 0.0000
     17 ****        -2.7955  -1.3016  -5.0539 C.ar           1 S1                 0.0000
     18 ****        -2.0194  -1.0559  -3.8997 C.ar           1 S1                 0.0000
     19 ****        -1.2064   0.0975  -3.8551 C.ar           1 S1                 0.0000
     20 ****        -1.5528  -0.2671  -0.9773 N.ar           1 S1                 0.0000
     21 ****        -1.6108  -0.5463   0.3270 C.ar           1 S1                 0.0000
     22 ****        -0.6540  -0.4260   1.2473 N.ar           1 S1                 0.0000
     23 ****         0.5038   0.0497   0.7067 C.ar           1 S1                 0.0000
     24 ****         2.1109  -1.3978   3.1475 C.3            1 S1                 0.0000
     25 ****         3.3972  -1.7232   3.6359 O.3            1 S1                 0.0000
     26 ****         1.0901  -1.5469   4.2756 C.3            1 S1                 0.0000
     27 ****        -0.0949  -2.1542   3.7955 O.3            1 S1                 0.0000
     28 ****         1.6484   0.1803   5.4154 H              1 S1                 0.0000
     29 ****         2.9435   0.6484   2.9618 H              1 S1                 0.0000
     30 ****         1.8786  -2.0292   2.2880 H              1 S1                 0.0000
     31 ****         1.4592  -2.1633   5.0968 H              1 S1                 0.0000
     32 ****        -1.3132   1.4914   6.5595 H              1 S1                 0.0000
     33 ****        -0.7795  -0.6489   6.0743 H              1 S1                 0.0000
     34 ****        -1.3179   0.2344   4.6522 H              1 S1                 0.0000
     35 ****         3.5614   1.0593   0.5548 H              1 S1                 0.0000
     36 ****         0.2271   2.5179  -2.6095 H              1 S1                 0.0000
     37 ****         1.3990   1.4638  -3.3993 H              1 S1                 0.0000
     38 ****        -0.7600   3.0314  -4.6709 H              1 S1                 0.0000
     39 ****         0.5561   2.1296  -5.4626 H              1 S1                 0.0000
     40 ****        -1.8811   1.4128  -6.9463 H              1 S1                 0.0000
     41 ****        -3.3495  -0.6119  -7.0297 H              1 S1                 0.0000
     42 ****        -3.4229  -2.1795  -5.0994 H              1 S1                 0.0000
     43 ****        -2.0503  -1.7531  -3.0760 H              1 S1                 0.0000
     44 ****        -2.5596  -0.9179   0.6848 H              1 S1                 0.0000
     45 ****         4.0198  -1.6167   2.9331 H              1 S1                 0.0000
     46 ****        -0.7211  -2.1932   4.5018 H              1 S1                 0.0000
     47 ****        -0.2362   2.1226   5.5739 LP             1 S1                 0.0000
     48 ****         0.2272   1.2550   6.8774 LP             1 S1                 0.0000
     49 ****         1.1938   1.5991   3.7594 LP             1 S1                 0.0000
     50 ****         0.1306   0.6081   3.0150 LP             1 S1                 0.0000
     51 ****         2.4502   1.1483  -1.6773 LP             1 S1                 0.0000
     52 ****        -2.3597  -0.4073  -1.5510 LP             1 S1                 0.0000
     53 ****        -0.7708  -0.6559   2.2135 LP             1 S1                 0.0000
     54 ****         3.4072  -2.6709   3.9550 LP             1 S1                 0.0000
     55 ****         3.6350  -1.1143   4.3926 LP             1 S1                 0.0000
     56 ****         0.1073  -3.0790   3.4731 LP             1 S1                 0.0000
     57 ****        -0.4696  -1.6132   3.0426 LP             1 S1                 0.0000
@<TRIPOS>BOND
    1    1    2 1     
    2    1   32 1     
    3    2    3 1     
    4    2   33 1     
    5    2   34 1     
    6    3   28 1     
    7    3   26 1     
    8    3    4 1     
    9    4    5 1     
   10    5   29 1     
   11    5    6 1     
   12    5   24 1     
   13    6   23 1     
   14    6    7 1     
   15    7    8 2     
   16    7   35 1     
   17    8    9 1     
   18    9   23 ar    
   19    9   10 ar    
   20   10   11 1     
   21   10   20 ar    
   22   11   19 1     
   23   11   12 1     
   24   12   13 1     
   25   12   36 1     
   26   12   37 1     
   27   13   14 1     
   28   13   38 1     
   29   13   39 1     
   30   14   19 ar    
   31   14   15 ar    
   32   15   16 ar    
   33   15   40 1     
   34   16   17 ar    
   35   16   41 1     
   36   17   18 ar    
   37   17   42 1     
   38   18   19 ar    
   39   18   43 1     
   40   20   21 ar    
   41   21   22 ar    
   42   21   44 1     
   43   22   23 ar    
   44   24   30 1     
   45   24   25 1     
   46   24   26 1     
   47   25   45 1     
   48   26   31 1     
   49   26   27 1     
   50   27   46 1     
   51    1   47 1     
   52    1   48 1     
   53    4   49 1     
   54    4   50 1     
   55    8   51 1     
   56   20   52 1     
   57   22   53 1     
   58   25   54 1     
   59   25   55 1     
   60   27   56 1     
   61   27   57 1     
@<TRIPOS>SUBSTRUCTURE
      1 S1             1
@<TRIPOS>SET
LONE_PAIRS      STATIC     ATOMS    <user>   **** ""
11 47 48 49 50 51 52 53 54 55 56 57
DONOR_HYDROGENS      STATIC     ATOMS    <user>   **** ""
3 32 45 46
ATOM$BLUE        STATIC     ATOMS    COLORGROUP SYSTEM
11 47 48 49 50 51 52 53 54 55 56 57
ATOM$RED        STATIC     ATOMS    COLORGROUP SYSTEM
3 32 45 46
