AV-unprocessed.smi:1964|AV-procd|sdf|7931|dock10
  -GOLD-   2272010103D 1   1.00000     0.00000
 Structure written by MMmdl.
 46 48  0  0  0  0  0  0  0  0  1 V2000
  150.1371  138.4666  154.2667 C   0  0  0  0  0  0  0  0  0  0  0  0
  148.8302  139.2623  154.4402 C   0  0  1  0  0  0  0  0  0  0  0  0
  149.0938  140.7766  154.3154 C   0  0  0  0  0  0  0  0  0  0  0  0
  147.8096  141.5988  154.5029 C   0  0  0  0  0  0  0  0  0  0  0  0
  146.7225  141.1583  153.5132 C   0  0  0  0  0  0  0  0  0  0  0  0
  146.4414  139.6539  153.6378 C   0  0  0  0  0  0  0  0  0  0  0  0
  147.7263  138.8205  153.4473 C   0  0  2  0  0  0  0  0  0  0  0  0
  147.4337  137.4015  153.6214 N   0  0  0  0  0  0  0  0  0  0  0  0
  146.7660  136.8527  154.6503 C   0  0  0  0  0  0  0  0  0  0  0  0
  146.3454  137.5115  155.6003 O   0  0  0  0  0  0  0  0  0  0  0  0
  146.5133  135.3348  154.6205 C   0  0  0  0  0  0  0  0  0  0  0  0
  145.4378  134.9041  153.6964 N   0  0  0  0  0  0  0  0  0  0  0  0
  144.0892  135.0648  154.1061 C   0  0  0  0  0  0  0  0  0  0  0  0
  143.8126  135.5607  155.1993 O   0  0  0  0  0  0  0  0  0  0  0  0
  143.0825  134.6133  153.1486 C   0  0  0  0  0  0  0  0  0  0  0  0
  141.7165  134.7133  153.5441 C   0  0  0  0  0  0  0  0  0  0  0  0
  140.6010  134.7868  153.8429 N   0  0  0  0  0  0  0  0  0  0  0  0
  143.4401  134.1226  151.9441 C   0  0  0  0  0  0  0  0  0  0  0  0
  144.7548  134.0327  151.5419 N   0  0  0  0  0  0  0  0  0  0  0  0
  145.1207  133.3927  150.3102 C   0  0  0  0  0  0  0  0  0  0  0  0
  144.5306  132.0430  149.9499 C   0  0  0  0  0  0  0  0  0  0  0  0
  145.9798  132.1477  150.3563 C   0  0  0  0  0  0  0  0  0  0  0  0
  145.7954  134.3760  152.4318 C   0  0  0  0  0  0  0  0  0  0  0  0
  146.9789  134.2284  152.1177 O   0  0  0  0  0  0  0  0  0  0  0  0
  150.5394  138.5827  153.2600 H   0  0  0  0  0  0  0  0  0  0  0  0
  149.9896  137.4013  154.4454 H   0  0  0  0  0  0  0  0  0  0  0  0
  150.8979  138.8077  154.9692 H   0  0  0  0  0  0  0  0  0  0  0  0
  148.4684  139.0741  155.4525 H   0  0  0  0  0  0  0  0  0  0  0  0
  149.8335  141.0887  155.0532 H   0  0  0  0  0  0  0  0  0  0  0  0
  149.5241  140.9952  153.3370 H   0  0  0  0  0  0  0  0  0  0  0  0
  147.4449  141.4818  155.5241 H   0  0  0  0  0  0  0  0  0  0  0  0
  148.0246  142.6595  154.3707 H   0  0  0  0  0  0  0  0  0  0  0  0
  145.8069  141.7235  153.6891 H   0  0  0  0  0  0  0  0  0  0  0  0
  147.0384  141.3882  152.4948 H   0  0  0  0  0  0  0  0  0  0  0  0
  146.0087  139.4463  154.6176 H   0  0  0  0  0  0  0  0  0  0  0  0
  145.6899  139.3648  152.9022 H   0  0  0  0  0  0  0  0  0  0  0  0
  148.0988  138.9782  152.4330 H   0  0  0  0  0  0  0  0  0  0  0  0
  147.7491  136.7845  152.8873 H   0  0  0  0  0  0  0  0  0  0  0  0
  147.4562  134.8414  154.3804 H   0  0  0  0  0  0  0  0  0  0  0  0
  146.3028  135.0057  155.6393 H   0  0  0  0  0  0  0  0  0  0  0  0
  142.6675  133.7965  151.2625 H   0  0  0  0  0  0  0  0  0  0  0  0
  145.3076  134.0658  149.4753 H   0  0  0  0  0  0  0  0  0  0  0  0
  143.8496  131.5731  150.6574 H   0  0  0  0  0  0  0  0  0  0  0  0
  144.3131  131.8558  148.9005 H   0  0  0  0  0  0  0  0  0  0  0  0
  146.7300  132.0269  149.5775 H   0  0  0  0  0  0  0  0  0  0  0  0
  146.2528  131.7474  151.3310 H   0  0  0  0  0  0  0  0  0  0  0  0
  1  2  1  0  0  0  0
  1 25  1  0  0  0  0
  1 26  1  0  0  0  0
  1 27  1  0  0  0  0
  2  7  1  0  0  0  0
  2  3  1  0  0  0  0
  2 28  1  0  0  0  0
  3  4  1  0  0  0  0
  3 29  1  0  0  0  0
  3 30  1  0  0  0  0
  4  5  1  0  0  0  0
  4 31  1  0  0  0  0
  4 32  1  0  0  0  0
  5  6  1  0  0  0  0
  5 33  1  0  0  0  0
  5 34  1  0  0  0  0
  6  7  1  0  0  0  0
  6 35  1  0  0  0  0
  6 36  1  0  0  0  0
  7  8  1  0  0  0  0
  7 37  1  0  0  0  0
  8  9  1  0  0  0  0
  8 38  1  0  0  0  0
  9 10  2  0  0  0  0
  9 11  1  0  0  0  0
 11 12  1  0  0  0  0
 11 39  1  0  0  0  0
 11 40  1  0  0  0  0
 12 23  1  0  0  0  0
 12 13  1  0  0  0  0
 13 14  2  0  0  0  0
 13 15  1  0  0  0  0
 15 16  1  0  0  0  0
 15 18  2  0  0  0  0
 16 17  3  0  0  0  0
 18 19  1  0  0  0  0
 18 41  1  0  0  0  0
 19 20  1  0  0  0  0
 19 23  1  0  0  0  0
 20 22  1  0  0  0  0
 20 21  1  0  0  0  0
 20 42  1  0  0  0  0
 21 22  1  0  0  0  0
 21 43  1  0  0  0  0
 21 44  1  0  0  0  0
 22 45  1  0  0  0  0
 22 46  1  0  0  0  0
 23 24  2  0  0  0  0
M  END
> <s_m_source_file>
AV-unprocessed.smi

> <i_m_source_file_index>
1964

> <i_lp_mmshare_version>
43012

> <i_f3d_flags>
0

> <s_epik_input>
W0NIM11bQ0BASF0xW0NIMl1bQ0gyXVtDSDJdW0NIMl1bQ0BIXTFbTkhdQyg9TylbQ0gyXW4yYyg9TyljKEMjTilbY0hdbihjMj1PKVtDSF0zW0NIMl1bQ0gyXTM=

> <s_epik_cmdline>
J2VwaWtfcHl0aG9uJywgJy1waCcsICc3LjAnLCAnLXRuJywgJzgnLCAnLW1hJywgJzIwMCcsICctbWV0YWxfYmluZGluZycsICctaW1hZScsICc8aW5maWxlLm1hZT4nLCAnLW9tYWUnLCAnPG91dGZpbGUubWFlPic=

> <r_lp_tautomer_probability>
1

> <r_epik_Ionization_Penalty>
1.91372e-08

> <r_epik_Ionization_Penalty_Charging>
9.0283e-11

> <r_epik_Ionization_Penalty_Neutral>
1.90469e-08

> <r_epik_State_Penalty>
-0

> <r_epik_Charging_Adjusted_Penalty>
9.0283e-11

> <i_epik_Tot_Q>
0

> <i_epik_Tot_abs_Q>
0

> <r_epik_Metal_State_Penalty>
-0

> <b_epik_Metal_Only>
0

> <s_lp_Force_Field>
OPLS_2005

> <r_lp_Energy>
35.2183

> <b_lp_Chiralities_Consistent>
1

> <s_lp_Variant>
AV-unprocessed.smi:1964-4

> <Gold.Version>
5.8.1

> <Gold.Id.Protein>
6NUR|6NUR_protein|mol2

> <Gold.PLP.Fitness>
45.1701

> <Gold.PLP.PLP>
-37.4209

> <Gold.PLP.part.hbond>
-2.9859

> <Gold.PLP.part.metal>
0.0000

> <Gold.PLP.part.buried>
-5.9402

> <Gold.PLP.part.nonpolar>
-31.8612

> <Gold.PLP.part.repulsive>
2.1463

> <Gold.PLP.ligand.clash>
0.0000

> <Gold.PLP.ligand.torsion>
0.7088

> <Gold.PLP.Chemscore.Hbond>
1.9913

> <Gold.PLP.Chemscore.CHOScore>
1.0000

> <Gold.PLP.Chemscore.Metal>
0.0000

> <Gold.Chemscore.Hbonds>
donor molecule, donor type, donor heavy atom, donor atom, acceptor molecule, acceptor atom, score
      L1  H     8    38       P1  7948  1.00
      P1  H 11000 11005       L1    17  1.00
      L1  C    18    41       P1 10186  1.00

> <Gold.PLP.Chemscore.Internal.Correction>
0.1930

> <Gold.Rescore>
     Score         DG    S(hbond)    S(metal)    S(lipo)     H(rot)  DE(clash)    DE(int)     intcor
     13.48     -17.60       1.88        0.00      87.29       1.70       1.56       2.56       ----

> <Gold.Chemscore.Fitness>
13.4783

> <Gold.Chemscore.DG>
-17.5967

> <Gold.Chemscore.ZeroCoef>
-5.4800

> <Gold.Chemscore.Hbond>
1.8759

> <Gold.Chemscore.Metal>
0.0000

> <Gold.Chemscore.Lipo>
87.2901

> <Gold.Chemscore.Internal_Hbond>
0.0000

> <Gold.Chemscore.DEClash>
1.5616

> <Gold.Chemscore.DEInternal>
2.5567

> <Gold.Chemscore.Rot>
1.7038

> <Gold.Chemscore.Internal.Correction>
   9.000000E+99

> <Gold.Chemscore.Hbonds>
donor molecule, donor type, donor heavy atom, donor atom, acceptor molecule, acceptor atom, score
      L1  H     8    38       P1  7948  0.95
      P1  H 10995 11001       L1    17  0.01
      P1  H 11000 11005       L1    17  0.87

> <Gold.Chemscore.Hbond.Weighted>
-6.2655

> <Gold.Chemscore.Metal.Weighted>
-0.0000

> <Gold.Chemscore.Lipo.Weighted>
-10.2129

> <Gold.Chemscore.Internal_Hbond.Weighted>
0.0000

> <Gold.Chemscore.DEClash.Weighted>
1.5616

> <Gold.Chemscore.DEInternal.Weighted>
2.5567

> <Gold.Chemscore.Rot.Weighted>
4.3618

> <Gold.Chemscore.Internal.Correction.Weighted>
   9.000000E+99

> <Gold.Protein.RotatedTorsions>
[ 6907 6896 6895 6894 ] final   13.52 input  -60.11 | X-H torsion
[ 7974 7965 7964 7962 ] final   80.28 input  175.53 | X-H torsion
[ 8008 7997 7996 7995 ] final  -92.93 input   59.86 | X-H torsion
[ 10167 10162 10161 10158 ] final -144.17 input  -65.29 | X-H torsion
[ 10718 10713 10712 10709 ] final    9.67 input   66.30 | X-H torsion
[ 10763 10752 10751 10750 ] final  -38.15 input  -60.55 | X-H torsion
[ 11005 11000 10999 10996 ] final   35.68 input  -57.11 | X-H torsion

> <Gold.Protein.ActiveResidues>
 VAL166  LYS551  ARG553  GLY616  TRP617  ASP618  TYR619  PRO620  LYS621  CYS622 
 ASP623  PHE694  ASN695  SER759  ASP760  ASP761  ALA762  ILE779  LEU786  VAL792 
 PHE793  MET794  SER795  GLU796  ALA797  LYS798  CYS799  TRP800  GLU811  SER814 

> <Gold.Protein.RotatedAtoms>
  151.7876  135.0744  160.0382 H   0  0  0  0  0  0  0  0  0  0  0  0  # atno 6907 bound_to 6896
  152.3179  133.5817  159.5733 H   0  0  0  0  0  0  0  0  0  0  0  0  # atno 6908 bound_to 6896
  150.7354  133.9971  159.3668 H   0  0  0  0  0  0  0  0  0  0  0  0  # atno 6909 bound_to 6896
  145.6532  139.2453  143.1965 H   0  0  0  0  0  0  0  0  0  0  0  0  # atno 7974 bound_to 7965
  154.7292  140.0504  157.0711 H   0  0  0  0  0  0  0  0  0  0  0  0  # atno 8008 bound_to 7997
  155.0324  140.3159  155.4734 H   0  0  0  0  0  0  0  0  0  0  0  0  # atno 8009 bound_to 7997
  156.2837  140.2147  156.5446 H   0  0  0  0  0  0  0  0  0  0  0  0  # atno 8010 bound_to 7997
  139.7924  143.7947  152.2651 H   0  0  0  0  0  0  0  0  0  0  0  0  # atno 10167 bound_to 10162
  156.9698  130.5964  149.5668 H   0  0  0  0  0  0  0  0  0  0  0  0  # atno 10718 bound_to 10713
  153.9081  135.6795  153.4752 H   0  0  0  0  0  0  0  0  0  0  0  0  # atno 10763 bound_to 10752
  153.1093  135.4790  154.9004 H   0  0  0  0  0  0  0  0  0  0  0  0  # atno 10764 bound_to 10752
  154.7541  135.3192  154.8458 H   0  0  0  0  0  0  0  0  0  0  0  0  # atno 10765 bound_to 10752
  140.2402  134.3424  155.7928 H   0  0  0  0  0  0  0  0  0  0  0  0  # atno 11005 bound_to 11000
  146.1186  140.7337  142.9468 LP  0  0  0  0  0  0  0  0  0  0  0  0  # atno 17320 bound_to 7965
  144.7115  140.4056  143.7077 LP  0  0  0  0  0  0  0  0  0  0  0  0  # atno 17321 bound_to 7965
  139.8043  144.7362  150.9783 LP  0  0  0  0  0  0  0  0  0  0  0  0  # atno 17342 bound_to 10162
  140.7820  143.4314  151.0689 LP  0  0  0  0  0  0  0  0  0  0  0  0  # atno 17343 bound_to 10162
  156.0287  130.5380  150.8477 LP  0  0  0  0  0  0  0  0  0  0  0  0  # atno 17370 bound_to 10713
  157.5600  131.0945  150.9572 LP  0  0  0  0  0  0  0  0  0  0  0  0  # atno 17371 bound_to 10713
  141.2211  133.7294  156.8873 LP  0  0  0  0  0  0  0  0  0  0  0  0  # atno 17394 bound_to 11000
  140.1661  134.9132  157.2775 LP  0  0  0  0  0  0  0  0  0  0  0  0  # atno 17395 bound_to 11000

$$$$
