AV-unprocessed.smi:4|AV-procd|sdf|34|dock2
  -GOLD-   2262015143D 1   1.00000     0.00000
 Structure written by MMmdl.
 43 44  0  0  0  0  0  0  0  0  1 V2000
  147.5081  140.9234  155.8846 C   0  0  0  0  0  0  0  0  0  0  0  0
  147.5084  139.9553  154.6728 C   0  0  0  0  0  0  0  0  0  0  0  0
  146.1090  139.2859  154.6833 C   0  0  0  0  0  0  0  0  0  0  0  0
  147.6781  140.8558  153.4225 C   0  0  0  0  0  0  0  0  0  0  0  0
  148.5873  138.9476  154.7512 N   0  0  0  0  0  0  0  0  0  0  0  0
  148.3652  137.5744  154.8884 C   0  0  0  0  0  0  0  0  0  0  0  0
  149.3430  136.6351  154.9579 C   0  0  0  0  0  0  0  0  0  0  0  0
  149.0267  135.1573  155.1431 C   0  0  0  0  0  0  0  0  0  0  0  0
  148.4202  134.5860  153.9438 N   0  0  0  0  0  0  0  0  0  0  0  0
  148.9066  133.2429  153.6399 C   0  0  0  0  0  0  0  0  0  0  0  0
  147.9240  132.4813  152.7459 C   0  0  0  0  0  0  0  0  0  0  0  0
  148.5291  131.2250  152.5089 O   0  0  0  0  0  0  0  0  0  0  0  0
  146.4680  132.3792  153.2363 C   0  0  0  0  0  0  0  0  0  0  0  0
  145.9880  132.6213  151.8046 C   0  0  0  0  0  0  0  0  0  0  0  0
  147.3732  133.1887  151.4932 C   0  0  0  0  0  0  0  0  0  0  0  0
  150.7445  137.0529  154.9099 C   0  0  0  0  0  0  0  0  0  0  0  0
  151.7180  136.3043  154.9784 O   0  0  0  0  0  0  0  0  0  0  0  0
  150.9403  138.4254  154.7764 N   0  0  0  0  0  0  0  0  0  0  0  0
  149.9397  139.3912  154.6951 C   0  0  0  0  0  0  0  0  0  0  0  0
  150.2802  140.5678  154.5841 O   0  0  0  0  0  0  0  0  0  0  0  0
  151.8954  138.7500  154.7359 H   0  0  0  0  0  0  0  0  0  0  0  0
  146.6989  141.6510  155.8105 H   0  0  0  0  0  0  0  0  0  0  0  0
  148.4322  141.4997  155.9483 H   0  0  0  0  0  0  0  0  0  0  0  0
  147.3627  140.3957  156.8283 H   0  0  0  0  0  0  0  0  0  0  0  0
  146.0076  138.5982  155.5239 H   0  0  0  0  0  0  0  0  0  0  0  0
  145.8835  138.7313  153.7745 H   0  0  0  0  0  0  0  0  0  0  0  0
  145.3177  140.0304  154.7783 H   0  0  0  0  0  0  0  0  0  0  0  0
  146.9653  141.6811  153.4328 H   0  0  0  0  0  0  0  0  0  0  0  0
  147.5136  140.3306  152.4834 H   0  0  0  0  0  0  0  0  0  0  0  0
  148.6767  141.2927  153.3853 H   0  0  0  0  0  0  0  0  0  0  0  0
  147.3628  137.1847  154.9466 H   0  0  0  0  0  0  0  0  0  0  0  0
  149.9473  134.6279  155.3919 H   0  0  0  0  0  0  0  0  0  0  0  0
  148.3571  135.0305  155.9945 H   0  0  0  0  0  0  0  0  0  0  0  0
  148.6171  135.1884  153.1501 H   0  0  0  0  0  0  0  0  0  0  0  0
  149.8882  133.2961  153.1661 H   0  0  0  0  0  0  0  0  0  0  0  0
  149.0558  132.7000  154.5740 H   0  0  0  0  0  0  0  0  0  0  0  0
  148.9807  131.2882  151.6813 H   0  0  0  0  0  0  0  0  0  0  0  0
  146.1870  131.4070  153.6432 H   0  0  0  0  0  0  0  0  0  0  0  0
  146.1865  133.1871  153.9134 H   0  0  0  0  0  0  0  0  0  0  0  0
  145.7810  131.6953  151.2661 H   0  0  0  0  0  0  0  0  0  0  0  0
  145.1710  133.3374  151.7119 H   0  0  0  0  0  0  0  0  0  0  0  0
  147.4071  134.2769  151.5705 H   0  0  0  0  0  0  0  0  0  0  0  0
  147.7973  132.8445  150.5494 H   0  0  0  0  0  0  0  0  0  0  0  0
  1  2  1  0  0  0  0
  1 22  1  0  0  0  0
  1 23  1  0  0  0  0
  1 24  1  0  0  0  0
  2  3  1  0  0  0  0
  2  4  1  0  0  0  0
  2  5  1  0  0  0  0
  3 25  1  0  0  0  0
  3 26  1  0  0  0  0
  3 27  1  0  0  0  0
  4 28  1  0  0  0  0
  4 29  1  0  0  0  0
  4 30  1  0  0  0  0
  5 19  1  0  0  0  0
  5  6  1  0  0  0  0
  6  7  2  0  0  0  0
  6 31  1  0  0  0  0
  7  8  1  0  0  0  0
  7 16  1  0  0  0  0
  8  9  1  0  0  0  0
  8 32  1  0  0  0  0
  8 33  1  0  0  0  0
  9 10  1  0  0  0  0
  9 34  1  0  0  0  0
 10 11  1  0  0  0  0
 10 35  1  0  0  0  0
 10 36  1  0  0  0  0
 11 15  1  0  0  0  0
 11 12  1  0  0  0  0
 11 13  1  0  0  0  0
 12 37  1  0  0  0  0
 13 14  1  0  0  0  0
 13 38  1  0  0  0  0
 13 39  1  0  0  0  0
 14 15  1  0  0  0  0
 14 40  1  0  0  0  0
 14 41  1  0  0  0  0
 15 42  1  0  0  0  0
 15 43  1  0  0  0  0
 16 17  2  0  0  0  0
 16 18  1  0  0  0  0
 18 21  1  0  0  0  0
 18 19  1  0  0  0  0
 19 20  2  0  0  0  0
M  END
> <s_m_source_file>
AV-unprocessed.smi

> <i_m_source_file_index>
4

> <i_lp_mmshare_version>
43012

> <i_f3d_flags>
0

> <s_epik_input>
W0NIM11DKFtDSDNdKShbQ0gzXSluMVtjSF1jKGMoPU8pW25IXWMxPU8pW0NIMl1bTkhdW0NIMl1DMihbT0hdKVtDSDJdW0NIMl1bQ0gyXTI=

> <s_epik_cmdline>
J2VwaWtfcHl0aG9uJywgJy1waCcsICc3LjAnLCAnLXRuJywgJzgnLCAnLW1hJywgJzIwMCcsICctbWV0YWxfYmluZGluZycsICctaW1hZScsICc8aW5maWxlLm1hZT4nLCAnLW9tYWUnLCAnPG91dGZpbGUubWFlPic=

> <r_lp_tautomer_probability>
0.999537

> <r_epik_Ionization_Penalty>
2.11381

> <r_epik_Ionization_Penalty_Charging>
0.000786845

> <r_epik_Ionization_Penalty_Neutral>
2.11303

> <r_epik_State_Penalty>
2.25008

> <r_epik_Charging_Adjusted_Penalty>
2.25087

> <i_epik_Tot_Q>
0

> <i_epik_Tot_abs_Q>
0

> <r_epik_Metal_State_Penalty>
2.75188

> <b_epik_Metal_Only>
0

> <s_lp_Force_Field>
OPLS_2005

> <r_lp_Energy>
31.2144

> <b_lp_Chiralities_Consistent>
1

> <s_lp_Variant>
AV-unprocessed.smi:4-2

> <Gold.Version>
5.8.1

> <Gold.Id.Protein>
6NUR|6NUR_protein|mol2

> <Gold.PLP.Fitness>
37.9796

> <Gold.PLP.PLP>
-27.2762

> <Gold.PLP.part.hbond>
-3.9632

> <Gold.PLP.part.metal>
0.0000

> <Gold.PLP.part.buried>
-4.5252

> <Gold.PLP.part.nonpolar>
-19.7774

> <Gold.PLP.part.repulsive>
0.3256

> <Gold.PLP.ligand.clash>
0.0000

> <Gold.PLP.ligand.torsion>
0.5911

> <Gold.PLP.Chemscore.Hbond>
3.9120

> <Gold.PLP.Chemscore.CHOScore>
0.0000

> <Gold.PLP.Chemscore.Metal>
0.0000

> <Gold.Chemscore.Hbonds>
donor molecule, donor type, donor heavy atom, donor atom, acceptor molecule, acceptor atom, score
      L1  H     9    34       P1  7948  1.00
      L1  H    12    37       P1 10747  0.72
      P1  H  7989  7998       L1    20  0.91
      P1  H 10752 10765       L1    17  0.86

> <Gold.PLP.Chemscore.Internal.Correction>
0.1496

> <Gold.Rescore>
     Score         DG    S(hbond)    S(metal)    S(lipo)     H(rot)  DE(clash)    DE(int)     intcor
     16.62     -18.64       3.97        0.00      53.15       2.46       0.11       1.92       ----

> <Gold.Chemscore.Fitness>
16.6181

> <Gold.Chemscore.DG>
-18.6436

> <Gold.Chemscore.ZeroCoef>
-5.4800

> <Gold.Chemscore.Hbond>
3.9657

> <Gold.Chemscore.Metal>
0.0000

> <Gold.Chemscore.Lipo>
53.1520

> <Gold.Chemscore.Internal_Hbond>
0.0000

> <Gold.Chemscore.DEClash>
0.1101

> <Gold.Chemscore.DEInternal>
1.9155

> <Gold.Chemscore.Rot>
2.4612

> <Gold.Chemscore.Internal.Correction>
   9.000000E+99

> <Gold.Chemscore.Hbonds>
donor molecule, donor type, donor heavy atom, donor atom, acceptor molecule, acceptor atom, score
      L1  H     9    34       P1  7948  0.78
      L1  H    12    37       P1 10747  0.51
      P1  H  7989  7998       L1    20  0.83
      P1  H 10752 10765       L1    17  0.84

> <Gold.Chemscore.Hbond.Weighted>
-13.2454

> <Gold.Chemscore.Metal.Weighted>
-0.0000

> <Gold.Chemscore.Lipo.Weighted>
-6.2188

> <Gold.Chemscore.Internal_Hbond.Weighted>
0.0000

> <Gold.Chemscore.DEClash.Weighted>
0.1101

> <Gold.Chemscore.DEInternal.Weighted>
1.9155

> <Gold.Chemscore.Rot.Weighted>
6.3006

> <Gold.Chemscore.Internal.Correction.Weighted>
   9.000000E+99

> <Gold.Protein.RotatedTorsions>
[ 6907 6896 6895 6894 ] final  156.73 input  -60.11 | X-H torsion
[ 7974 7965 7964 7962 ] final -163.71 input  175.53 | X-H torsion
[ 8008 7997 7996 7995 ] final  -23.19 input   59.86 | X-H torsion
[ 10167 10162 10161 10158 ] final   31.63 input  -65.29 | X-H torsion
[ 10718 10713 10712 10709 ] final  168.34 input   66.30 | X-H torsion
[ 10763 10752 10751 10750 ] final  172.95 input  -60.55 | X-H torsion
[ 11005 11000 10999 10996 ] final  -89.68 input  -57.11 | X-H torsion

> <Gold.Protein.ActiveResidues>
 VAL166  LYS551  ARG553  GLY616  TRP617  ASP618  TYR619  PRO620  LYS621  CYS622 
 ASP623  PHE694  ASN695  SER759  ASP760  ASP761  ALA762  ILE779  LEU786  VAL792 
 PHE793  MET794  SER795  GLU796  ALA797  LYS798  CYS799  TRP800  GLU811  SER814 

> <Gold.Protein.RotatedAtoms>
  152.0254  133.3915  159.4274 H   0  0  0  0  0  0  0  0  0  0  0  0  # atno 6907 bound_to 6896
  150.6886  134.3580  159.4947 H   0  0  0  0  0  0  0  0  0  0  0  0  # atno 6908 bound_to 6896
  152.1359  134.9099  160.0607 H   0  0  0  0  0  0  0  0  0  0  0  0  # atno 6909 bound_to 6896
  144.7318  140.3067  143.6195 H   0  0  0  0  0  0  0  0  0  0  0  0  # atno 7974 bound_to 7965
  154.4600  140.1987  156.0272 H   0  0  0  0  0  0  0  0  0  0  0  0  # atno 8008 bound_to 7997
  156.0821  140.3270  155.7678 H   0  0  0  0  0  0  0  0  0  0  0  0  # atno 8009 bound_to 7997
  155.5095  140.0560  157.2916 H   0  0  0  0  0  0  0  0  0  0  0  0  # atno 8010 bound_to 7997
  140.4571  144.0962  150.6204 H   0  0  0  0  0  0  0  0  0  0  0  0  # atno 10167 bound_to 10162
  157.0385  131.0280  151.2721 H   0  0  0  0  0  0  0  0  0  0  0  0  # atno 10718 bound_to 10713
  154.4333  135.2760  155.1898 H   0  0  0  0  0  0  0  0  0  0  0  0  # atno 10763 bound_to 10752
  154.3795  135.6091  153.5786 H   0  0  0  0  0  0  0  0  0  0  0  0  # atno 10764 bound_to 10752
  152.9837  135.5877  154.4648 H   0  0  0  0  0  0  0  0  0  0  0  0  # atno 10765 bound_to 10752
  141.1580  133.7645  156.9630 H   0  0  0  0  0  0  0  0  0  0  0  0  # atno 11005 bound_to 11000
  145.7706  139.1856  143.2215 LP  0  0  0  0  0  0  0  0  0  0  0  0  # atno 17320 bound_to 7965
  146.0914  140.7651  142.9593 LP  0  0  0  0  0  0  0  0  0  0  0  0  # atno 17321 bound_to 7965
  140.4138  143.2644  151.9800 LP  0  0  0  0  0  0  0  0  0  0  0  0  # atno 17342 bound_to 10162
  139.4802  144.5892  151.7801 LP  0  0  0  0  0  0  0  0  0  0  0  0  # atno 17343 bound_to 10162
  157.5123  130.7946  149.7718 LP  0  0  0  0  0  0  0  0  0  0  0  0  # atno 17370 bound_to 10713
  156.0046  130.3862  150.2479 LP  0  0  0  0  0  0  0  0  0  0  0  0  # atno 17371 bound_to 10713
  140.1180  134.9435  157.2163 LP  0  0  0  0  0  0  0  0  0  0  0  0  # atno 17394 bound_to 11000
  140.3108  134.3026  155.7267 LP  0  0  0  0  0  0  0  0  0  0  0  0  # atno 17395 bound_to 11000

$$$$
