AV-unprocessed.smi:3156|AV-procd|sdf|12034|dock9
  -GOLD-   2272017453D 1   1.00000     0.00000
 Structure written by MMmdl.
 41 42  0  0  0  0  0  0  0  0  2 V2000
  144.2793  136.2235  152.3803 C   0  0  0  0  0  0  0  0  0  0  0  0
  145.6800  136.1534  151.7438 C   0  0  1  0  0  0  0  0  0  0  0  0
  146.5997  137.0845  152.4384 N   0  3  0  0  0  0  0  0  0  0  0  0
  146.3773  138.5225  152.1779 C   0  0  0  0  0  0  0  0  0  0  0  0
  146.9915  139.3909  153.2873 C   0  0  2  0  0  0  0  0  0  0  0  0
  147.0386  140.8913  152.9260 C   0  0  0  0  0  0  0  0  0  0  0  0
  147.7147  141.6911  154.0446 C   0  0  0  0  0  0  0  0  0  0  0  0
  149.0769  141.0696  154.3712 C   0  0  0  0  0  0  0  0  0  0  0  0
  148.9239  139.5694  154.6706 C   0  0  0  0  0  0  0  0  0  0  0  0
  148.3041  138.9102  153.5699 O   0  0  0  0  0  0  0  0  0  0  0  0
  146.2750  134.7182  151.7646 C   0  0  1  0  0  0  0  0  0  0  0  0
  146.3569  134.1158  153.1793 C   0  0  0  0  0  0  0  0  0  0  0  0
  145.5344  133.8118  150.8919 N   0  0  0  0  0  0  0  0  0  0  0  0
  145.8709  132.5273  150.5159 C   0  0  0  0  0  0  0  0  0  0  0  0
  144.8800  132.0675  149.6968 C   0  0  0  0  0  0  0  0  0  0  0  0
  143.9579  133.1492  149.6411 C   0  0  0  0  0  0  0  0  0  0  0  0
  144.3495  134.1888  150.3592 N   0  0  0  0  0  0  0  0  0  0  0  0
  143.5612  135.6058  151.8422 H   0  0  0  0  0  0  0  0  0  0  0  0
  143.8843  137.2392  152.3687 H   0  0  0  0  0  0  0  0  0  0  0  0
  144.2972  135.8873  153.4176 H   0  0  0  0  0  0  0  0  0  0  0  0
  145.5993  136.4691  150.7024 H   0  0  0  0  0  0  0  0  0  0  0  0
  146.5714  136.9118  153.4332 H   0  0  0  0  0  0  0  0  0  0  0  0
  146.8234  138.7960  151.2209 H   0  0  0  0  0  0  0  0  0  0  0  0
  145.3078  138.7189  152.1003 H   0  0  0  0  0  0  0  0  0  0  0  0
  146.3805  139.2653  154.1831 H   0  0  0  0  0  0  0  0  0  0  0  0
  147.5922  141.0403  151.9980 H   0  0  0  0  0  0  0  0  0  0  0  0
  146.0314  141.2711  152.7513 H   0  0  0  0  0  0  0  0  0  0  0  0
  147.8322  142.7344  153.7496 H   0  0  0  0  0  0  0  0  0  0  0  0
  147.0845  141.6850  154.9349 H   0  0  0  0  0  0  0  0  0  0  0  0
  149.7544  141.2058  153.5275 H   0  0  0  0  0  0  0  0  0  0  0  0
  149.5300  141.5800  155.2216 H   0  0  0  0  0  0  0  0  0  0  0  0
  149.9023  139.1207  154.8430 H   0  0  0  0  0  0  0  0  0  0  0  0
  148.3384  139.4122  155.5778 H   0  0  0  0  0  0  0  0  0  0  0  0
  147.2912  134.7699  151.3702 H   0  0  0  0  0  0  0  0  0  0  0  0
  147.0360  134.6769  153.8204 H   0  0  0  0  0  0  0  0  0  0  0  0
  146.7278  133.0909  153.1454 H   0  0  0  0  0  0  0  0  0  0  0  0
  145.3792  134.0970  153.6621 H   0  0  0  0  0  0  0  0  0  0  0  0
  146.7799  132.0526  150.8557 H   0  0  0  0  0  0  0  0  0  0  0  0
  144.8194  131.1024  149.2158 H   0  0  0  0  0  0  0  0  0  0  0  0
  143.0220  133.2090  149.1051 H   0  0  0  0  0  0  0  0  0  0  0  0
  147.5299  136.8731  152.1057 H   0  0  0  0  0  0  0  0  0  0  0  0
  1  2  1  0  0  0  0
  1 18  1  0  0  0  0
  1 19  1  0  0  0  0
  1 20  1  0  0  0  0
  2  3  1  0  0  0  0
  2 11  1  0  0  0  0
  2 21  1  0  0  0  0
  3  4  1  0  0  0  0
  3 22  1  0  0  0  0
  3 41  1  0  0  0  0
  4  5  1  0  0  0  0
  4 23  1  0  0  0  0
  4 24  1  0  0  0  0
  5 10  1  0  0  0  0
  5  6  1  0  0  0  0
  5 25  1  0  0  0  0
  6  7  1  0  0  0  0
  6 26  1  0  0  0  0
  6 27  1  0  0  0  0
  7  8  1  0  0  0  0
  7 28  1  0  0  0  0
  7 29  1  0  0  0  0
  8  9  1  0  0  0  0
  8 30  1  0  0  0  0
  8 31  1  0  0  0  0
  9 10  1  0  0  0  0
  9 32  1  0  0  0  0
  9 33  1  0  0  0  0
 11 12  1  0  0  0  0
 11 13  1  0  0  0  0
 11 34  1  0  0  0  0
 12 35  1  0  0  0  0
 12 36  1  0  0  0  0
 12 37  1  0  0  0  0
 13 17  1  0  0  0  0
 13 14  1  0  0  0  0
 14 15  2  0  0  0  0
 14 38  1  0  0  0  0
 15 16  1  0  0  0  0
 15 39  1  0  0  0  0
 16 17  2  0  0  0  0
 16 40  1  0  0  0  0
M  CHG  1   3   1
M  END
> <s_m_source_file>
AV-unprocessed.smi

> <i_m_source_file_index>
3156

> <i_lp_mmshare_version>
43012

> <i_f3d_flags>
0

> <s_epik_input>
bjFbY0hdW2NIXVtjSF1uMVtDQEBIXShbQ0gzXSlbQ0BIXShbQ0gzXSlbTkhdW0NIMl1bQ0BASF0yW0NIMl1bQ0gyXVtDSDJdW0NIMl1PMg==

> <s_epik_cmdline>
J2VwaWtfcHl0aG9uJywgJy1waCcsICc3LjAnLCAnLXRuJywgJzgnLCAnLW1hJywgJzIwMCcsICctbWV0YWxfYmluZGluZycsICctaW1hZScsICc8aW5maWxlLm1hZT4nLCAnLW9tYWUnLCAnPG91dGZpbGUubWFlPic=

> <r_lp_tautomer_probability>
1

> <r_epik_Ionization_Penalty>
0.00658015

> <r_epik_Ionization_Penalty_Charging>
0.00656881

> <r_epik_Ionization_Penalty_Neutral>
1.13431e-05

> <r_epik_State_Penalty>
0.0048654

> <r_epik_Charging_Adjusted_Penalty>
0.0114342

> <i_epik_Tot_Q>
1

> <i_epik_Tot_abs_Q>
1

> <r_epik_Metal_State_Penalty>
-0

> <b_epik_Metal_Only>
0

> <s_lp_Force_Field>
OPLS_2005

> <r_lp_Energy>
18.8572

> <b_lp_Chiralities_Consistent>
1

> <s_lp_Variant>
AV-unprocessed.smi:3156-6

> <Gold.Version>
5.8.1

> <Gold.Id.Protein>
6NUR|6NUR_protein|mol2

> <Gold.PLP.Fitness>
44.9644

> <Gold.PLP.PLP>
-33.8377

> <Gold.PLP.part.hbond>
-0.9742

> <Gold.PLP.part.metal>
0.0000

> <Gold.PLP.part.buried>
-3.2251

> <Gold.PLP.part.nonpolar>
-31.5661

> <Gold.PLP.part.repulsive>
1.5347

> <Gold.PLP.ligand.clash>
0.0000

> <Gold.PLP.ligand.torsion>
0.4602

> <Gold.PLP.Chemscore.Hbond>
2.0000

> <Gold.PLP.Chemscore.CHOScore>
1.9858

> <Gold.PLP.Chemscore.Metal>
0.0000

> <Gold.Chemscore.Hbonds>
donor molecule, donor type, donor heavy atom, donor atom, acceptor molecule, acceptor atom, score
      L1  H     3    41       P1  7948  2.00
      L1  C    14    38       P1 10747  0.91
      L1  C    16    40       P1 10186  1.00

> <Gold.PLP.Chemscore.Internal.Correction>
0.0896

> <Gold.Rescore>
     Score         DG    S(hbond)    S(metal)    S(lipo)     H(rot)  DE(clash)    DE(int)     intcor
     13.34     -15.32       0.97        0.00      91.37       1.59       0.33       1.65       ----

> <Gold.Chemscore.Fitness>
13.3403

> <Gold.Chemscore.DG>
-15.3210

> <Gold.Chemscore.ZeroCoef>
-5.4800

> <Gold.Chemscore.Hbond>
0.9675

> <Gold.Chemscore.Metal>
0.0000

> <Gold.Chemscore.Lipo>
91.3658

> <Gold.Chemscore.Internal_Hbond>
0.0000

> <Gold.Chemscore.DEClash>
0.3274

> <Gold.Chemscore.DEInternal>
1.6532

> <Gold.Chemscore.Rot>
1.5938

> <Gold.Chemscore.Internal.Correction>
   9.000000E+99

> <Gold.Chemscore.Hbonds>
donor molecule, donor type, donor heavy atom, donor atom, acceptor molecule, acceptor atom, score
      L1  H     3    41       P1  7948  0.97

> <Gold.Chemscore.Hbond.Weighted>
-3.2314

> <Gold.Chemscore.Metal.Weighted>
-0.0000

> <Gold.Chemscore.Lipo.Weighted>
-10.6898

> <Gold.Chemscore.Internal_Hbond.Weighted>
0.0000

> <Gold.Chemscore.DEClash.Weighted>
0.3274

> <Gold.Chemscore.DEInternal.Weighted>
1.6532

> <Gold.Chemscore.Rot.Weighted>
4.0802

> <Gold.Chemscore.Internal.Correction.Weighted>
   9.000000E+99

> <Gold.Protein.RotatedTorsions>
[ 6907 6896 6895 6894 ] final   17.90 input  -60.11 | X-H torsion
[ 7974 7965 7964 7962 ] final -107.06 input  175.53 | X-H torsion
[ 8008 7997 7996 7995 ] final  -76.62 input   59.86 | X-H torsion
[ 10167 10162 10161 10158 ] final  155.81 input  -65.29 | X-H torsion
[ 10718 10713 10712 10709 ] final  -46.89 input   66.30 | X-H torsion
[ 10763 10752 10751 10750 ] final -120.18 input  -60.55 | X-H torsion
[ 11005 11000 10999 10996 ] final  -96.32 input  -57.11 | X-H torsion

> <Gold.Protein.ActiveResidues>
 VAL166  LYS551  ARG553  GLY616  TRP617  ASP618  TYR619  PRO620  LYS621  CYS622 
 ASP623  PHE694  ASN695  SER759  ASP760  ASP761  ALA762  ILE779  LEU786  VAL792 
 PHE793  MET794  SER795  GLU796  ALA797  LYS798  CYS799  TRP800  GLU811  SER814 

> <Gold.Protein.RotatedAtoms>
  151.8568  135.0538  160.0464 H   0  0  0  0  0  0  0  0  0  0  0  0  # atno 6907 bound_to 6896
  152.2694  133.5364  159.5438 H   0  0  0  0  0  0  0  0  0  0  0  0  # atno 6908 bound_to 6896
  150.7146  134.0635  159.3882 H   0  0  0  0  0  0  0  0  0  0  0  0  # atno 6909 bound_to 6896
  145.2100  140.9092  143.3320 H   0  0  0  0  0  0  0  0  0  0  0  0  # atno 7974 bound_to 7965
  154.5521  140.0724  156.8685 H   0  0  0  0  0  0  0  0  0  0  0  0  # atno 8008 bound_to 7997
  155.2972  140.3382  155.4231 H   0  0  0  0  0  0  0  0  0  0  0  0  # atno 8009 bound_to 7997
  156.1970  140.1707  156.7963 H   0  0  0  0  0  0  0  0  0  0  0  0  # atno 8010 bound_to 7997
  139.4821  144.5066  151.8089 H   0  0  0  0  0  0  0  0  0  0  0  0  # atno 10167 bound_to 10162
  156.2139  130.4162  149.9080 H   0  0  0  0  0  0  0  0  0  0  0  0  # atno 10718 bound_to 10713
  154.8637  135.4212  154.2418 H   0  0  0  0  0  0  0  0  0  0  0  0  # atno 10763 bound_to 10752
  153.3382  135.6992  153.6895 H   0  0  0  0  0  0  0  0  0  0  0  0  # atno 10764 bound_to 10752
  153.5884  135.3559  155.2874 H   0  0  0  0  0  0  0  0  0  0  0  0  # atno 10765 bound_to 10752
  141.1415  133.8089  157.0555 H   0  0  0  0  0  0  0  0  0  0  0  0  # atno 11005 bound_to 11000
  144.9865  139.3732  143.6236 LP  0  0  0  0  0  0  0  0  0  0  0  0  # atno 17320 bound_to 7965
  146.3399  139.9029  142.8792 LP  0  0  0  0  0  0  0  0  0  0  0  0  # atno 17321 bound_to 7965
  140.4564  144.1783  150.5902 LP  0  0  0  0  0  0  0  0  0  0  0  0  # atno 17342 bound_to 10162
  140.4531  143.2479  151.9321 LP  0  0  0  0  0  0  0  0  0  0  0  0  # atno 17343 bound_to 10162
  156.6749  130.8835  151.3567 LP  0  0  0  0  0  0  0  0  0  0  0  0  # atno 17370 bound_to 10713
  157.7053  130.9378  150.0910 LP  0  0  0  0  0  0  0  0  0  0  0  0  # atno 17371 bound_to 10713
  140.0604  134.9758  157.1295 LP  0  0  0  0  0  0  0  0  0  0  0  0  # atno 17394 bound_to 11000
  140.3856  134.2239  155.7168 LP  0  0  0  0  0  0  0  0  0  0  0  0  # atno 17395 bound_to 11000

$$$$
