AV-unprocessed.smi:64|AV-procd|sdf|609|dock4
  -GOLD-   2262016503D 1   1.00000     0.00000
 Structure written by MMmdl.
 32 33  0  0  0  0  0  0  0  0  1 V2000
  147.1803  146.0178  160.5942 C   0  0  0  0  0  0  0  0  0  0  0  0
  146.8895  144.5897  161.0384 C   0  0  0  0  0  0  0  0  0  0  0  0
  147.7614  143.8878  161.5508 O   0  0  0  0  0  0  0  0  0  0  0  0
  145.6199  144.2251  160.8049 O   0  0  0  0  0  0  0  0  0  0  0  0
  145.1949  142.9120  161.1316 C   0  0  0  0  0  0  0  0  0  0  0  0
  144.7530  142.1937  159.8541 C   0  0  0  0  0  0  0  0  0  0  0  0
  145.9070  141.7317  159.1713 O   0  0  0  0  0  0  0  0  0  0  0  0
  146.0432  142.2687  157.8986 C   0  0  0  0  0  0  0  0  0  0  0  0
  147.3426  141.8698  157.3954 N   0  0  0  0  0  0  0  0  0  0  0  0
  148.5503  141.8560  158.0475 C   0  0  0  0  0  0  0  0  0  0  0  0
  149.5430  141.4349  157.3138 N   0  0  0  0  0  0  0  0  0  0  0  0
  148.9583  141.1408  156.0850 C   0  0  0  0  0  0  0  0  0  0  0  0
  149.5461  140.6355  154.8763 C   0  0  0  0  0  0  0  0  0  0  0  0
  150.7225  140.3511  154.6622 O   0  0  0  0  0  0  0  0  0  0  0  0
  148.5986  140.4719  153.8573 N   0  0  0  0  0  0  0  0  0  0  0  0
  147.2437  140.7658  153.9942 C   0  0  0  0  0  0  0  0  0  0  0  0
  146.4690  140.5537  152.9223 N   0  0  0  0  0  0  0  0  0  0  0  0
  146.7043  141.2331  155.1062 N   0  0  0  0  0  0  0  0  0  0  0  0
  147.6028  141.4041  156.1250 C   0  0  0  0  0  0  0  0  0  0  0  0
  148.9355  140.1178  152.9742 H   0  0  0  0  0  0  0  0  0  0  0  0
  146.3197  146.4518  160.0844 H   0  0  0  0  0  0  0  0  0  0  0  0
  148.0283  146.0325  159.9095 H   0  0  0  0  0  0  0  0  0  0  0  0
  147.4213  146.6393  161.4566 H   0  0  0  0  0  0  0  0  0  0  0  0
  145.9949  142.3574  161.6243 H   0  0  0  0  0  0  0  0  0  0  0  0
  144.3587  142.9733  161.8293 H   0  0  0  0  0  0  0  0  0  0  0  0
  144.1235  141.3418  160.1150 H   0  0  0  0  0  0  0  0  0  0  0  0
  144.1607  142.8603  159.2251 H   0  0  0  0  0  0  0  0  0  0  0  0
  145.2687  141.8952  157.2260 H   0  0  0  0  0  0  0  0  0  0  0  0
  145.9982  143.3587  157.9323 H   0  0  0  0  0  0  0  0  0  0  0  0
  148.6714  142.1632  159.0761 H   0  0  0  0  0  0  0  0  0  0  0  0
  146.8786  140.1971  152.0708 H   0  0  0  0  0  0  0  0  0  0  0  0
  145.4788  140.7472  152.9631 H   0  0  0  0  0  0  0  0  0  0  0  0
  1  2  1  0  0  0  0
  1 21  1  0  0  0  0
  1 22  1  0  0  0  0
  1 23  1  0  0  0  0
  2  3  2  0  0  0  0
  2  4  1  0  0  0  0
  4  5  1  0  0  0  0
  5  6  1  0  0  0  0
  5 24  1  0  0  0  0
  5 25  1  0  0  0  0
  6  7  1  0  0  0  0
  6 26  1  0  0  0  0
  6 27  1  0  0  0  0
  7  8  1  0  0  0  0
  8  9  1  0  0  0  0
  8 28  1  0  0  0  0
  8 29  1  0  0  0  0
  9 19  1  0  0  0  0
  9 10  1  0  0  0  0
 10 11  2  0  0  0  0
 10 30  1  0  0  0  0
 11 12  1  0  0  0  0
 12 19  2  0  0  0  0
 12 13  1  0  0  0  0
 13 14  2  0  0  0  0
 13 15  1  0  0  0  0
 15 20  1  0  0  0  0
 15 16  1  0  0  0  0
 16 17  1  0  0  0  0
 16 18  2  0  0  0  0
 17 31  1  0  0  0  0
 17 32  1  0  0  0  0
 18 19  1  0  0  0  0
M  END
> <s_m_source_file>
AV-unprocessed.smi

> <i_m_source_file_index>
64

> <i_lp_mmshare_version>
43012

> <i_f3d_flags>
0

> <s_epik_input>
W0NIM11DKD1PKU9bQ0gyXVtDSDJdT1tDSDJdbihbY0hdbjEpYyhjMTIpbmMoW05IMl0pW25IXWMyPU8=

> <s_epik_cmdline>
J2VwaWtfcHl0aG9uJywgJy1waCcsICc3LjAnLCAnLXRuJywgJzgnLCAnLW1hJywgJzIwMCcsICctbWV0YWxfYmluZGluZycsICctaW1hZScsICc8aW5maWxlLm1hZT4nLCAnLW9tYWUnLCAnPG91dGZpbGUubWFlPic=

> <r_lp_tautomer_probability>
1

> <r_epik_Ionization_Penalty>
0.00155449

> <r_epik_Ionization_Penalty_Charging>
0.00148332

> <r_epik_Ionization_Penalty_Neutral>
7.1171e-05

> <r_epik_State_Penalty>
-0

> <r_epik_Charging_Adjusted_Penalty>
0.00148332

> <i_epik_Tot_Q>
0

> <i_epik_Tot_abs_Q>
0

> <r_epik_Metal_State_Penalty>
0.320128

> <b_epik_Metal_Only>
0

> <s_epik_Chemistry_Notes>
This compound has an ester and may undergo hydrolysis at high or low pH. This compound contains an acetal/aminal-like group ( X-CH(R)-Y where X, Y are N, S, or O) that may be acid/base labile, releasing an aldehyde.

> <s_lp_Force_Field>
OPLS_2005

> <r_lp_Energy>
2.66723

> <b_lp_Chiralities_Consistent>
1

> <s_lp_Variant>
AV-unprocessed.smi:64-1

> <Gold.Version>
5.8.1

> <Gold.Id.Protein>
6NUR|6NUR_protein|mol2

> <Gold.PLP.Fitness>
40.4489

> <Gold.PLP.PLP>
-27.6142

> <Gold.PLP.part.hbond>
-4.8707

> <Gold.PLP.part.metal>
0.0000

> <Gold.PLP.part.buried>
-7.7743

> <Gold.PLP.part.nonpolar>
-16.2535

> <Gold.PLP.part.repulsive>
0.6361

> <Gold.PLP.ligand.clash>
0.0000

> <Gold.PLP.ligand.torsion>
1.0736

> <Gold.PLP.Chemscore.Hbond>
4.9675

> <Gold.PLP.Chemscore.CHOScore>
0.0000

> <Gold.PLP.Chemscore.Metal>
0.0000

> <Gold.Chemscore.Hbonds>
donor molecule, donor type, donor heavy atom, donor atom, acceptor molecule, acceptor atom, score
      L1  H    15    20       P1  7957  1.00
      L1  H    17    32       P1 10175  1.00
      P1  H  6933  6944       L1     3  1.00
      P1  H  6934  6946       L1     7  0.98
      P1  H  7989  7998       L1    14  1.00

> <Gold.PLP.Chemscore.Internal.Correction>
0.0794

> <Gold.Rescore>
     Score         DG    S(hbond)    S(metal)    S(lipo)     H(rot)  DE(clash)    DE(int)     intcor
      9.91     -10.91       4.08        0.00      16.37       3.95       0.00       1.00       ----

> <Gold.Chemscore.Fitness>
9.9072

> <Gold.Chemscore.DG>
-10.9059

> <Gold.Chemscore.ZeroCoef>
-5.4800

> <Gold.Chemscore.Hbond>
4.0801

> <Gold.Chemscore.Metal>
0.0000

> <Gold.Chemscore.Lipo>
16.3664

> <Gold.Chemscore.Internal_Hbond>
0.0000

> <Gold.Chemscore.DEClash>
0.0000

> <Gold.Chemscore.DEInternal>
0.9987

> <Gold.Chemscore.Rot>
3.9518

> <Gold.Chemscore.Internal.Correction>
   9.000000E+99

> <Gold.Chemscore.Hbonds>
donor molecule, donor type, donor heavy atom, donor atom, acceptor molecule, acceptor atom, score
      L1  H    15    20       P1  7957  0.99
      L1  H    17    32       P1 10175  0.59
      P1  H  6933  6944       L1     3  0.99
      P1  H  6934  6946       L1     7  0.26
      P1  H  7989  7998       L1    14  0.96

> <Gold.Chemscore.Hbond.Weighted>
-13.6275

> <Gold.Chemscore.Metal.Weighted>
-0.0000

> <Gold.Chemscore.Lipo.Weighted>
-1.9149

> <Gold.Chemscore.Internal_Hbond.Weighted>
0.0000

> <Gold.Chemscore.DEClash.Weighted>
0.0000

> <Gold.Chemscore.DEInternal.Weighted>
0.9987

> <Gold.Chemscore.Rot.Weighted>
10.1165

> <Gold.Chemscore.Internal.Correction.Weighted>
   9.000000E+99

> <Gold.Protein.RotatedTorsions>
[ 6907 6896 6895 6894 ] final  178.03 input  -60.11 | X-H torsion
[ 7974 7965 7964 7962 ] final  -51.39 input  175.53 | X-H torsion
[ 8008 7997 7996 7995 ] final -159.78 input   59.86 | X-H torsion
[ 10167 10162 10161 10158 ] final -179.24 input  -65.29 | X-H torsion
[ 10718 10713 10712 10709 ] final -152.33 input   66.30 | X-H torsion
[ 10763 10752 10751 10750 ] final  -54.39 input  -60.55 | X-H torsion
[ 11005 11000 10999 10996 ] final  -84.99 input  -57.11 | X-H torsion

> <Gold.Protein.ActiveResidues>
 VAL166  LYS551  ARG553  GLY616  TRP617  ASP618  TYR619  PRO620  LYS621  CYS622 
 ASP623  PHE694  ASN695  SER759  ASP760  ASP761  ALA762  ILE779  LEU786  VAL792 
 PHE793  MET794  SER795  GLU796  ALA797  LYS798  CYS799  TRP800  GLU811  SER814 

> <Gold.Protein.RotatedAtoms>
  151.6944  133.3311  159.3250 H   0  0  0  0  0  0  0  0  0  0  0  0  # atno 6907 bound_to 6896
  150.7764  134.6671  159.6380 H   0  0  0  0  0  0  0  0  0  0  0  0  # atno 6908 bound_to 6896
  152.3808  134.6596  160.0195 H   0  0  0  0  0  0  0  0  0  0  0  0  # atno 6909 bound_to 6896
  145.9195  140.7846  142.9655 H   0  0  0  0  0  0  0  0  0  0  0  0  # atno 7974 bound_to 7965
  155.7677  140.0848  157.2124 H   0  0  0  0  0  0  0  0  0  0  0  0  # atno 8008 bound_to 7997
  154.3998  140.1531  156.2962 H   0  0  0  0  0  0  0  0  0  0  0  0  # atno 8009 bound_to 7997
  155.8778  140.3422  155.5869 H   0  0  0  0  0  0  0  0  0  0  0  0  # atno 8010 bound_to 7997
  139.5395  144.2402  152.0866 H   0  0  0  0  0  0  0  0  0  0  0  0  # atno 10167 bound_to 10162
  156.4711  130.8259  151.2488 H   0  0  0  0  0  0  0  0  0  0  0  0  # atno 10718 bound_to 10713
  154.1740  135.6454  153.5017 H   0  0  0  0  0  0  0  0  0  0  0  0  # atno 10763 bound_to 10752
  153.0077  135.5390  154.6583 H   0  0  0  0  0  0  0  0  0  0  0  0  # atno 10764 bound_to 10752
  154.5930  135.2936  155.0588 H   0  0  0  0  0  0  0  0  0  0  0  0  # atno 10765 bound_to 10752
  141.1645  133.7375  156.8949 H   0  0  0  0  0  0  0  0  0  0  0  0  # atno 11005 bound_to 11000
  144.6751  140.1952  143.7392 LP  0  0  0  0  0  0  0  0  0  0  0  0  # atno 17320 bound_to 7965
  145.8569  139.2203  143.1739 LP  0  0  0  0  0  0  0  0  0  0  0  0  # atno 17321 bound_to 7965
  140.1878  144.4781  150.6494 LP  0  0  0  0  0  0  0  0  0  0  0  0  # atno 17342 bound_to 10162
  140.6618  143.2255  151.5837 LP  0  0  0  0  0  0  0  0  0  0  0  0  # atno 17343 bound_to 10162
  157.7491  131.0076  150.3196 LP  0  0  0  0  0  0  0  0  0  0  0  0  # atno 17370 bound_to 10713
  156.3618  130.3848  149.7245 LP  0  0  0  0  0  0  0  0  0  0  0  0  # atno 17371 bound_to 10713
  140.1623  134.9157  157.2730 LP  0  0  0  0  0  0  0  0  0  0  0  0  # atno 17394 bound_to 11000
  140.2597  134.3585  155.7411 LP  0  0  0  0  0  0  0  0  0  0  0  0  # atno 17395 bound_to 11000

$$$$
