AV-unprocessed.smi:828|AV-procd|sdf|3865|dock1
  -GOLD-   22720 1313D 1   1.00000     0.00000
 Structure written by MMmdl.
 34 35  0  0  0  0  0  0  0  0  3 V2000
  152.4222  141.6802  158.7662 C   0  0  0  0  0  0  0  0  0  0  0  0
  152.0578  141.0314  157.4751 C   0  0  0  0  0  0  0  0  0  0  0  0
  152.7450  140.0075  156.9631 N   0  0  0  0  0  0  0  0  0  0  0  0
  152.2168  139.5752  155.7554 N   0  0  0  0  0  0  0  0  0  0  0  0
  151.1465  140.2824  155.3665 C   0  0  0  0  0  0  0  0  0  0  0  0
  150.4867  140.0209  154.2260 N   0  5  0  0  0  0  0  0  0  0  0  0
  149.3799  140.7287  153.9088 C   0  0  0  0  0  0  0  0  0  0  0  0
  149.2834  141.9574  153.8714 O   0  0  0  0  0  0  0  0  0  0  0  0
  148.3164  139.9629  153.6266 N   0  0  0  0  0  0  0  0  0  0  0  0
  146.9815  140.4344  153.2719 C   0  0  0  0  0  0  0  0  0  0  0  0
  146.4975  141.5491  154.2199 C   0  0  1  0  0  0  0  0  0  0  0  0
  146.6026  142.9645  153.6413 C   0  0  0  0  0  0  0  0  0  0  0  0
  145.5802  143.7432  154.4556 C   0  0  0  0  0  0  0  0  0  0  0  0
  144.4545  142.7301  154.6725 C   0  0  0  0  0  0  0  0  0  0  0  0
  145.0667  141.3834  154.5711 N   0  3  2  0  0  0  0  0  0  0  0  0
  144.8266  140.5276  155.7538 C   0  0  0  0  0  0  0  0  0  0  0  0
  150.6925  141.5525  156.5025 S   0  0  0  0  0  0  0  0  0  0  0  0
  153.3335  142.2660  158.6452 H   0  0  0  0  0  0  0  0  0  0  0  0
  152.5889  140.9234  159.5331 H   0  0  0  0  0  0  0  0  0  0  0  0
  151.6217  142.3416  159.0976 H   0  0  0  0  0  0  0  0  0  0  0  0
  148.4500  138.9630  153.6660 H   0  0  0  0  0  0  0  0  0  0  0  0
  146.9466  140.7700  152.2339 H   0  0  0  0  0  0  0  0  0  0  0  0
  146.3102  139.5781  153.3342 H   0  0  0  0  0  0  0  0  0  0  0  0
  147.0848  141.5221  155.1402 H   0  0  0  0  0  0  0  0  0  0  0  0
  147.6079  143.3808  153.7151 H   0  0  0  0  0  0  0  0  0  0  0  0
  146.3122  142.9702  152.5896 H   0  0  0  0  0  0  0  0  0  0  0  0
  146.0151  144.0263  155.4151 H   0  0  0  0  0  0  0  0  0  0  0  0
  145.2429  144.6525  153.9573 H   0  0  0  0  0  0  0  0  0  0  0  0
  143.9471  142.8965  155.6239 H   0  0  0  0  0  0  0  0  0  0  0  0
  143.7081  142.8207  153.8828 H   0  0  0  0  0  0  0  0  0  0  0  0
  145.2612  140.9679  156.6522 H   0  0  0  0  0  0  0  0  0  0  0  0
  145.2636  139.5393  155.6107 H   0  0  0  0  0  0  0  0  0  0  0  0
  143.7564  140.3986  155.9187 H   0  0  0  0  0  0  0  0  0  0  0  0
  144.6270  140.9348  153.7801 H   0  0  0  0  0  0  0  0  0  0  0  0
  1  2  1  0  0  0  0
  1 18  1  0  0  0  0
  1 19  1  0  0  0  0
  1 20  1  0  0  0  0
  2 17  1  0  0  0  0
  2  3  2  0  0  0  0
  3  4  1  0  0  0  0
  4  5  2  0  0  0  0
  5  6  1  0  0  0  0
  5 17  1  0  0  0  0
  6  7  1  0  0  0  0
  7  8  2  0  0  0  0
  7  9  1  0  0  0  0
  9 10  1  0  0  0  0
  9 21  1  0  0  0  0
 10 11  1  0  0  0  0
 10 22  1  0  0  0  0
 10 23  1  0  0  0  0
 11 15  1  0  0  0  0
 11 12  1  0  0  0  0
 11 24  1  0  0  0  0
 12 13  1  0  0  0  0
 12 25  1  0  0  0  0
 12 26  1  0  0  0  0
 13 14  1  0  0  0  0
 13 27  1  0  0  0  0
 13 28  1  0  0  0  0
 14 15  1  0  0  0  0
 14 29  1  0  0  0  0
 14 30  1  0  0  0  0
 15 16  1  0  0  0  0
 15 34  1  0  0  0  0
 16 31  1  0  0  0  0
 16 32  1  0  0  0  0
 16 33  1  0  0  0  0
M  CHG  1   6  -1
M  CHG  1  15   1
M  END
> <s_m_source_file>
AV-unprocessed.smi

> <i_m_source_file_index>
828

> <i_lp_mmshare_version>
43012

> <i_f3d_flags>
0

> <s_epik_input>
W0NIM11jMW5uYyhzMSlbTkhdQyg9TylbTkhdW0NIMl1bQ0BASF0yW0NIMl1bQ0gyXVtDSDJdTjJbQ0gzXQ==

> <s_epik_cmdline>
J2VwaWtfcHl0aG9uJywgJy1waCcsICc3LjAnLCAnLXRuJywgJzgnLCAnLW1hJywgJzIwMCcsICctbWV0YWxfYmluZGluZycsICctaW1hZScsICc8aW5maWxlLm1hZT4nLCAnLW9tYWUnLCAnPG91dGZpbGUubWFlPic=

> <r_lp_tautomer_probability>
1

> <r_epik_Ionization_Penalty>
3.94379

> <r_epik_Ionization_Penalty_Charging>
3.83377

> <r_epik_Ionization_Penalty_Neutral>
0.110023

> <r_epik_State_Penalty>
3.83036

> <r_epik_Charging_Adjusted_Penalty>
7.66413

> <i_epik_Tot_Q>
0

> <i_epik_Tot_abs_Q>
2

> <r_epik_Metal_State_Penalty>
0.575095

> <b_epik_Metal_Only>
1

> <s_lp_Force_Field>
OPLS_2005

> <r_lp_Energy>
18.3481

> <b_lp_Chiralities_Consistent>
1

> <s_lp_Variant>
AV-unprocessed.smi:828-8

> <Gold.Version>
5.8.1

> <Gold.Id.Protein>
6NUR|6NUR_protein|mol2

> <Gold.PLP.Fitness>
39.8208

> <Gold.PLP.PLP>
-29.0903

> <Gold.PLP.part.hbond>
-6.4017

> <Gold.PLP.part.metal>
0.0000

> <Gold.PLP.part.buried>
0.6859

> <Gold.PLP.part.nonpolar>
-21.8534

> <Gold.PLP.part.repulsive>
0.7128

> <Gold.PLP.ligand.clash>
0.0000

> <Gold.PLP.ligand.torsion>
1.1361

> <Gold.PLP.Chemscore.Hbond>
4.3182

> <Gold.PLP.Chemscore.CHOScore>
0.0000

> <Gold.PLP.Chemscore.Metal>
0.0000

> <Gold.Chemscore.Hbonds>
donor molecule, donor type, donor heavy atom, donor atom, acceptor molecule, acceptor atom, score
      L1  H    15    34       P1 10175  2.00
      P1  H  7989  7998       L1     6  0.35
      P1  H  7997  8008       L1     3  0.93
      P1  H  8011  8017       L1     8  0.46

> <Gold.PLP.Chemscore.Internal.Correction>
0.0481

> <Gold.Rescore>
     Score         DG    S(hbond)    S(metal)    S(lipo)     H(rot)  DE(clash)    DE(int)     intcor
     10.72     -15.53       2.25        0.00      50.50       1.31       0.58       4.23       ----

> <Gold.Chemscore.Fitness>
10.7242

> <Gold.Chemscore.DG>
-15.5308

> <Gold.Chemscore.ZeroCoef>
-5.4800

> <Gold.Chemscore.Hbond>
2.2480

> <Gold.Chemscore.Metal>
0.0000

> <Gold.Chemscore.Lipo>
50.5020

> <Gold.Chemscore.Internal_Hbond>
0.0000

> <Gold.Chemscore.DEClash>
0.5814

> <Gold.Chemscore.DEInternal>
4.2252

> <Gold.Chemscore.Rot>
1.3149

> <Gold.Chemscore.Internal.Correction>
   9.000000E+99

> <Gold.Chemscore.Hbonds>
donor molecule, donor type, donor heavy atom, donor atom, acceptor molecule, acceptor atom, score
      L1  H    15    34       P1 10175  0.85
      P1  H  7997  8008       L1     3  0.63
      P1  H  8011  8017       L1     8  0.28

> <Gold.Chemscore.Hbond.Weighted>
-7.5082

> <Gold.Chemscore.Metal.Weighted>
-0.0000

> <Gold.Chemscore.Lipo.Weighted>
-5.9087

> <Gold.Chemscore.Internal_Hbond.Weighted>
0.0000

> <Gold.Chemscore.DEClash.Weighted>
0.5814

> <Gold.Chemscore.DEInternal.Weighted>
4.2252

> <Gold.Chemscore.Rot.Weighted>
3.3662

> <Gold.Chemscore.Internal.Correction.Weighted>
   9.000000E+99

> <Gold.Protein.RotatedTorsions>
[ 6907 6896 6895 6894 ] final  154.38 input  -60.11 | X-H torsion
[ 7974 7965 7964 7962 ] final  179.34 input  175.53 | X-H torsion
[ 8008 7997 7996 7995 ] final  -74.50 input   59.86 | X-H torsion
[ 10167 10162 10161 10158 ] final  -98.74 input  -65.29 | X-H torsion
[ 10718 10713 10712 10709 ] final  -82.74 input   66.30 | X-H torsion
[ 10763 10752 10751 10750 ] final   41.68 input  -60.55 | X-H torsion
[ 11005 11000 10999 10996 ] final -111.40 input  -57.11 | X-H torsion

> <Gold.Protein.ActiveResidues>
 VAL166  LYS551  ARG553  GLY616  TRP617  ASP618  TYR619  PRO620  LYS621  CYS622 
 ASP623  PHE694  ASN695  SER759  ASP760  ASP761  ALA762  ILE779  LEU786  VAL792 
 PHE793  MET794  SER795  GLU796  ALA797  LYS798  CYS799  TRP800  GLU811  SER814 

> <Gold.Protein.RotatedAtoms>
  152.0593  133.4054  159.4410 H   0  0  0  0  0  0  0  0  0  0  0  0  # atno 6907 bound_to 6896
  150.6867  134.3219  159.4799 H   0  0  0  0  0  0  0  0  0  0  0  0  # atno 6908 bound_to 6896
  152.1038  134.9322  160.0619 H   0  0  0  0  0  0  0  0  0  0  0  0  # atno 6909 bound_to 6896
  144.7146  140.0534  143.6434 H   0  0  0  0  0  0  0  0  0  0  0  0  # atno 7974 bound_to 7965
  154.5336  140.0760  156.8388 H   0  0  0  0  0  0  0  0  0  0  0  0  # atno 8008 bound_to 7997
  155.3324  140.3402  155.4221 H   0  0  0  0  0  0  0  0  0  0  0  0  # atno 8009 bound_to 7997
  156.1806  140.1651  156.8268 H   0  0  0  0  0  0  0  0  0  0  0  0  # atno 8010 bound_to 7997
  140.2698  143.3352  152.0546 H   0  0  0  0  0  0  0  0  0  0  0  0  # atno 10167 bound_to 10162
  156.0028  130.4643  150.4150 H   0  0  0  0  0  0  0  0  0  0  0  0  # atno 10718 bound_to 10713
  152.9902  135.6154  154.2826 H   0  0  0  0  0  0  0  0  0  0  0  0  # atno 10763 bound_to 10752
  154.2555  135.2784  155.2801 H   0  0  0  0  0  0  0  0  0  0  0  0  # atno 10764 bound_to 10752
  154.5251  135.5804  153.6770 H   0  0  0  0  0  0  0  0  0  0  0  0  # atno 10765 bound_to 10752
  141.0736  133.9338  157.2435 H   0  0  0  0  0  0  0  0  0  0  0  0  # atno 11005 bound_to 11000
  145.9925  139.3026  143.0976 LP  0  0  0  0  0  0  0  0  0  0  0  0  # atno 17320 bound_to 7965
  145.8886  140.9318  143.0564 LP  0  0  0  0  0  0  0  0  0  0  0  0  # atno 17321 bound_to 7965
  139.4992  144.6664  151.6346 LP  0  0  0  0  0  0  0  0  0  0  0  0  # atno 17342 bound_to 10162
  140.5899  143.9798  150.6318 LP  0  0  0  0  0  0  0  0  0  0  0  0  # atno 17343 bound_to 10162
  157.2210  131.0482  151.2546 LP  0  0  0  0  0  0  0  0  0  0  0  0  # atno 17370 bound_to 10713
  157.3800  130.7226  149.6623 LP  0  0  0  0  0  0  0  0  0  0  0  0  # atno 17371 bound_to 10713
  139.9549  135.0168  156.9099 LP  0  0  0  0  0  0  0  0  0  0  0  0  # atno 17394 bound_to 11000
  140.5621  134.0525  155.7402 LP  0  0  0  0  0  0  0  0  0  0  0  0  # atno 17395 bound_to 11000

$$$$
