AV-unprocessed.smi:1830|AV-procd|sdf|7433|dock3
  -GOLD-   22720 9113D 1   1.00000     0.00000
 Structure written by MMmdl.
 53 56  0  0  0  0  0  0  0  0  2 V2000
  149.8879  133.6826  155.8391 O   0  0  0  0  0  0  0  0  0  0  0  0
  149.4381  134.2235  154.8290 C   0  0  0  0  0  0  0  0  0  0  0  0
  149.4609  135.5476  154.6264 N   0  0  0  0  0  0  0  0  0  0  0  0
  149.9922  136.5280  155.5661 C   0  0  0  0  0  0  0  0  0  0  0  0
  151.0250  137.4631  154.8972 C   0  0  1  0  0  0  0  0  0  0  0  0
  150.5637  138.9404  154.8570 C   0  0  0  0  0  0  0  0  0  0  0  0
  150.6964  139.5242  156.2050 N   0  3  2  0  0  0  0  0  0  0  0  0
  150.3070  140.9323  156.3941 C   0  0  0  0  0  0  0  0  0  0  0  0
  151.0930  141.3965  157.6365 C   0  0  0  0  0  0  0  0  0  0  0  0
  152.0433  140.2372  157.9869 C   0  0  0  0  0  0  0  0  0  0  0  0
  152.0680  139.4101  156.7052 C   0  0  1  0  0  0  0  0  0  0  0  0
  152.4412  137.9274  156.8128 C   0  0  0  0  0  0  0  0  0  0  0  0
  152.3186  137.3475  155.5114 O   0  0  0  0  0  0  0  0  0  0  0  0
  148.8451  133.5872  153.8061 N   0  0  0  0  0  0  0  0  0  0  0  0
  148.5549  132.1993  153.6907 C   0  0  0  0  0  0  0  0  0  0  0  0
  149.4373  131.2154  154.1996 C   0  0  0  0  0  0  0  0  0  0  0  0
  149.1437  129.8559  153.9976 C   0  0  0  0  0  0  0  0  0  0  0  0
  147.9834  129.5268  153.2774 C   0  0  0  0  0  0  0  0  0  0  0  0
  147.1402  130.4513  152.7762 N   0  0  0  0  0  0  0  0  0  0  0  0
  147.4016  131.7666  152.9755 C   0  0  0  0  0  0  0  0  0  0  0  0
  146.4729  132.6915  152.4452 N   0  0  0  0  0  0  0  0  0  0  0  0
  146.9031  133.7058  151.4884 C   0  0  0  0  0  0  0  0  0  0  0  0
  145.6138  134.2315  150.8645 C   0  0  0  0  0  0  0  0  0  0  0  0
  144.7456  132.9784  150.8066 C   0  0  0  0  0  0  0  0  0  0  0  0
  145.1577  132.1911  152.0553 C   0  0  0  0  0  0  0  0  0  0  0  0
  149.0668  135.9033  153.7675 H   0  0  0  0  0  0  0  0  0  0  0  0
  149.1726  137.1138  155.9855 H   0  0  0  0  0  0  0  0  0  0  0  0
  150.4343  135.9910  156.4048 H   0  0  0  0  0  0  0  0  0  0  0  0
  151.1458  137.1347  153.8643 H   0  0  0  0  0  0  0  0  0  0  0  0
  151.1786  139.5057  154.1552 H   0  0  0  0  0  0  0  0  0  0  0  0
  149.5316  139.0178  154.5135 H   0  0  0  0  0  0  0  0  0  0  0  0
  150.6006  141.5210  155.5237 H   0  0  0  0  0  0  0  0  0  0  0  0
  149.2282  141.0271  156.5206 H   0  0  0  0  0  0  0  0  0  0  0  0
  151.6540  142.3035  157.4086 H   0  0  0  0  0  0  0  0  0  0  0  0
  150.4297  141.6220  158.4723 H   0  0  0  0  0  0  0  0  0  0  0  0
  153.0345  140.5776  158.2884 H   0  0  0  0  0  0  0  0  0  0  0  0
  151.6248  139.6508  158.8062 H   0  0  0  0  0  0  0  0  0  0  0  0
  152.7405  139.8965  155.9949 H   0  0  0  0  0  0  0  0  0  0  0  0
  153.4711  137.8185  157.1533 H   0  0  0  0  0  0  0  0  0  0  0  0
  151.8105  137.4058  157.5332 H   0  0  0  0  0  0  0  0  0  0  0  0
  148.4442  134.1725  153.0880 H   0  0  0  0  0  0  0  0  0  0  0  0
  150.3450  131.4823  154.7197 H   0  0  0  0  0  0  0  0  0  0  0  0
  149.8000  129.0852  154.3738 H   0  0  0  0  0  0  0  0  0  0  0  0
  147.7273  128.4939  153.0934 H   0  0  0  0  0  0  0  0  0  0  0  0
  147.4700  134.4987  151.9771 H   0  0  0  0  0  0  0  0  0  0  0  0
  147.5283  133.2655  150.7106 H   0  0  0  0  0  0  0  0  0  0  0  0
  145.1555  134.9733  151.5202 H   0  0  0  0  0  0  0  0  0  0  0  0
  145.7705  134.6898  149.8878 H   0  0  0  0  0  0  0  0  0  0  0  0
  143.6784  133.1997  150.7790 H   0  0  0  0  0  0  0  0  0  0  0  0
  144.9934  132.4040  149.9128 H   0  0  0  0  0  0  0  0  0  0  0  0
  145.1673  131.1171  151.8628 H   0  0  0  0  0  0  0  0  0  0  0  0
  144.4528  132.3841  152.8642 H   0  0  0  0  0  0  0  0  0  0  0  0
  150.1172  138.9808  156.8290 H   0  0  0  0  0  0  0  0  0  0  0  0
  1  2  2  0  0  0  0
  2  3  1  0  0  0  0
  2 14  1  0  0  0  0
  3  4  1  0  0  0  0
  3 26  1  0  0  0  0
  4  5  1  0  0  0  0
  4 27  1  0  0  0  0
  4 28  1  0  0  0  0
  5 13  1  0  0  0  0
  5  6  1  0  0  0  0
  5 29  1  0  0  0  0
  6  7  1  0  0  0  0
  6 30  1  0  0  0  0
  6 31  1  0  0  0  0
  7 11  1  0  0  0  0
  7  8  1  0  0  0  0
  7 53  1  0  0  0  0
  8  9  1  0  0  0  0
  8 32  1  0  0  0  0
  8 33  1  0  0  0  0
  9 10  1  0  0  0  0
  9 34  1  0  0  0  0
  9 35  1  0  0  0  0
 10 11  1  0  0  0  0
 10 36  1  0  0  0  0
 10 37  1  0  0  0  0
 11 12  1  0  0  0  0
 11 38  1  0  0  0  0
 12 13  1  0  0  0  0
 12 39  1  0  0  0  0
 12 40  1  0  0  0  0
 14 15  1  0  0  0  0
 14 41  1  0  0  0  0
 15 20  1  0  0  0  0
 15 16  2  0  0  0  0
 16 17  1  0  0  0  0
 16 42  1  0  0  0  0
 17 18  2  0  0  0  0
 17 43  1  0  0  0  0
 18 19  1  0  0  0  0
 18 44  1  0  0  0  0
 19 20  2  0  0  0  0
 20 21  1  0  0  0  0
 21 25  1  0  0  0  0
 21 22  1  0  0  0  0
 22 23  1  0  0  0  0
 22 45  1  0  0  0  0
 22 46  1  0  0  0  0
 23 24  1  0  0  0  0
 23 47  1  0  0  0  0
 23 48  1  0  0  0  0
 24 25  1  0  0  0  0
 24 49  1  0  0  0  0
 24 50  1  0  0  0  0
 25 51  1  0  0  0  0
 25 52  1  0  0  0  0
M  CHG  1   7   1
M  END
> <s_m_source_file>
AV-unprocessed.smi

> <i_m_source_file_index>
1830

> <i_lp_mmshare_version>
43012

> <i_f3d_flags>
0

> <s_epik_input>
W0NIMl0xW0NIMl1bQ0gyXVtDQEhdKE4xMilbQ0gyXU9bQ0BASF0oW0NIMl0yKVtDSDJdW05IXUMoPU8pW05IXWMzW2NIXVtjSF1bY0hdbmMzTjRbQ0gyXVtDSDJdW0NIMl1bQ0gyXTQ=

> <s_epik_cmdline>
J2VwaWtfcHl0aG9uJywgJy1waCcsICc3LjAnLCAnLXRuJywgJzgnLCAnLW1hJywgJzIwMCcsICctbWV0YWxfYmluZGluZycsICctaW1hZScsICc8aW5maWxlLm1hZT4nLCAnLW9tYWUnLCAnPG91dGZpbGUubWFlPic=

> <r_lp_tautomer_probability>
1

> <r_epik_Ionization_Penalty>
0.193547

> <r_epik_Ionization_Penalty_Charging>
0.10673

> <r_epik_Ionization_Penalty_Neutral>
0.0868166

> <r_epik_State_Penalty>
0.173595

> <r_epik_Charging_Adjusted_Penalty>
0.280326

> <i_epik_Tot_Q>
1

> <i_epik_Tot_abs_Q>
1

> <r_epik_Metal_State_Penalty>
0.164683

> <b_epik_Metal_Only>
0

> <s_lp_Force_Field>
OPLS_2005

> <r_lp_Energy>
66.0686

> <b_lp_Chiralities_Consistent>
1

> <s_lp_Variant>
AV-unprocessed.smi:1830-2

> <Gold.Version>
5.8.1

> <Gold.Id.Protein>
6NUR|6NUR_protein|mol2

> <Gold.PLP.Fitness>
46.4918

> <Gold.PLP.PLP>
-43.0553

> <Gold.PLP.part.hbond>
-3.0184

> <Gold.PLP.part.metal>
0.0000

> <Gold.PLP.part.buried>
-4.6713

> <Gold.PLP.part.nonpolar>
-34.4917

> <Gold.PLP.part.repulsive>
0.4642

> <Gold.PLP.ligand.clash>
0.0000

> <Gold.PLP.ligand.torsion>
1.2277

> <Gold.PLP.Chemscore.Hbond>
1.8535

> <Gold.PLP.Chemscore.CHOScore>
0.0000

> <Gold.PLP.Chemscore.Metal>
0.0000

> <Gold.Chemscore.Hbonds>
donor molecule, donor type, donor heavy atom, donor atom, acceptor molecule, acceptor atom, score
      L1  H     3    26       P1  7948  1.00
      L1  H    14    41       P1  7948  0.05
      P1  H 10752 10763       L1    13  0.41

> <Gold.PLP.Chemscore.Internal.Correction>
0.3314

> <Gold.Rescore>
     Score         DG    S(hbond)    S(metal)    S(lipo)     H(rot)  DE(clash)    DE(int)     intcor
     16.20     -18.65       1.60        0.00      97.70       1.41       0.00       2.45       ----

> <Gold.Chemscore.Fitness>
16.1971

> <Gold.Chemscore.DG>
-18.6513

> <Gold.Chemscore.ZeroCoef>
-5.4800

> <Gold.Chemscore.Hbond>
1.5994

> <Gold.Chemscore.Metal>
0.0000

> <Gold.Chemscore.Lipo>
97.6954

> <Gold.Chemscore.Internal_Hbond>
0.0000

> <Gold.Chemscore.DEClash>
0.0021

> <Gold.Chemscore.DEInternal>
2.4520

> <Gold.Chemscore.Rot>
1.4067

> <Gold.Chemscore.Internal.Correction>
   9.000000E+99

> <Gold.Chemscore.Hbonds>
donor molecule, donor type, donor heavy atom, donor atom, acceptor molecule, acceptor atom, score
      L1  H     3    26       P1  7948  0.89
      L1  H    14    41       P1  7948  0.02
      P1  H 10752 10763       L1    13  0.07

> <Gold.Chemscore.Hbond.Weighted>
-5.3420

> <Gold.Chemscore.Metal.Weighted>
-0.0000

> <Gold.Chemscore.Lipo.Weighted>
-11.4304

> <Gold.Chemscore.Internal_Hbond.Weighted>
0.0000

> <Gold.Chemscore.DEClash.Weighted>
0.0021

> <Gold.Chemscore.DEInternal.Weighted>
2.4520

> <Gold.Chemscore.Rot.Weighted>
3.6011

> <Gold.Chemscore.Internal.Correction.Weighted>
   9.000000E+99

> <Gold.Protein.RotatedTorsions>
[ 6907 6896 6895 6894 ] final -159.38 input  -60.11 | X-H torsion
[ 7974 7965 7964 7962 ] final  -59.65 input  175.53 | X-H torsion
[ 8008 7997 7996 7995 ] final   15.15 input   59.86 | X-H torsion
[ 10167 10162 10161 10158 ] final   80.03 input  -65.29 | X-H torsion
[ 10718 10713 10712 10709 ] final   -3.57 input   66.30 | X-H torsion
[ 10763 10752 10751 10750 ] final   48.82 input  -60.55 | X-H torsion
[ 11005 11000 10999 10996 ] final  -52.92 input  -57.11 | X-H torsion

> <Gold.Protein.ActiveResidues>
 VAL166  LYS551  ARG553  GLY616  TRP617  ASP618  TYR619  PRO620  LYS621  CYS622 
 ASP623  PHE694  ASN695  SER759  ASP760  ASP761  ALA762  ILE779  LEU786  VAL792 
 PHE793  MET794  SER795  GLU796  ALA797  LYS798  CYS799  TRP800  GLU811  SER814 

> <Gold.Protein.RotatedAtoms>
  151.3326  133.3994  159.2663 H   0  0  0  0  0  0  0  0  0  0  0  0  # atno 6907 bound_to 6896
  150.9943  134.9271  159.7928 H   0  0  0  0  0  0  0  0  0  0  0  0  # atno 6908 bound_to 6896
  152.5256  134.3291  159.9229 H   0  0  0  0  0  0  0  0  0  0  0  0  # atno 6909 bound_to 6896
  145.8249  140.8517  143.0113 H   0  0  0  0  0  0  0  0  0  0  0  0  # atno 7974 bound_to 7965
  154.8585  140.2940  155.5554 H   0  0  0  0  0  0  0  0  0  0  0  0  # atno 8008 bound_to 7997
  156.3019  140.2482  156.3488 H   0  0  0  0  0  0  0  0  0  0  0  0  # atno 8009 bound_to 7997
  154.8944  140.0393  157.1846 H   0  0  0  0  0  0  0  0  0  0  0  0  # atno 8010 bound_to 7997
  139.9541  144.6006  150.8133 H   0  0  0  0  0  0  0  0  0  0  0  0  # atno 10167 bound_to 10162
  156.7741  130.5309  149.5762 H   0  0  0  0  0  0  0  0  0  0  0  0  # atno 10718 bound_to 10713
  152.9790  135.5932  154.3988 H   0  0  0  0  0  0  0  0  0  0  0  0  # atno 10763 bound_to 10752
  154.3636  135.2767  155.2308 H   0  0  0  0  0  0  0  0  0  0  0  0  # atno 10764 bound_to 10752
  154.4294  135.6040  153.6114 H   0  0  0  0  0  0  0  0  0  0  0  0  # atno 10765 bound_to 10752
  141.0949  133.6626  156.4096 H   0  0  0  0  0  0  0  0  0  0  0  0  # atno 11005 bound_to 11000
  144.6744  140.0587  143.7476 LP  0  0  0  0  0  0  0  0  0  0  0  0  # atno 17320 bound_to 7965
  145.9635  139.2817  143.1141 LP  0  0  0  0  0  0  0  0  0  0  0  0  # atno 17321 bound_to 7965
  140.7574  143.3085  151.2903 LP  0  0  0  0  0  0  0  0  0  0  0  0  # atno 17342 bound_to 10162
  139.6605  144.0197  152.2689 LP  0  0  0  0  0  0  0  0  0  0  0  0  # atno 17343 bound_to 10162
  156.1259  130.6144  151.0263 LP  0  0  0  0  0  0  0  0  0  0  0  0  # atno 17370 bound_to 10713
  157.6677  131.0868  150.7688 LP  0  0  0  0  0  0  0  0  0  0  0  0  # atno 17371 bound_to 10713
  140.5163  134.6347  157.5302 LP  0  0  0  0  0  0  0  0  0  0  0  0  # atno 17394 bound_to 11000
  139.9784  134.7178  155.9906 LP  0  0  0  0  0  0  0  0  0  0  0  0  # atno 17395 bound_to 11000

$$$$
