AV-unprocessed.smi:1417|AV-procd|sdf|5767|dock9
  -GOLD-   22720 5413D 1   1.00000     0.00000
 Structure written by MMmdl.
 40 41  0  0  0  0  0  0  0  0  2 V2000
  153.9954  140.6627  160.1544 C   0  0  0  0  0  0  0  0  0  0  0  0
  153.0265  140.7577  159.0259 C   0  0  0  0  0  0  0  0  0  0  0  0
  151.9662  141.5827  158.7771 C   0  0  0  0  0  0  0  0  0  0  0  0
  151.4893  141.1179  157.5168 C   0  0  0  0  0  0  0  0  0  0  0  0
  150.3850  141.6350  156.7917 N   0  0  0  0  0  0  0  0  0  0  0  0
  149.8892  141.2179  155.6148 C   0  0  0  0  0  0  0  0  0  0  0  0
  150.3246  140.2795  154.9483 O   0  0  0  0  0  0  0  0  0  0  0  0
  148.8389  141.9634  155.2407 N   0  0  0  0  0  0  0  0  0  0  0  0
  148.0584  141.7747  154.0180 C   0  0  2  0  0  0  0  0  0  0  0  0
  146.7540  142.5968  154.0363 C   0  0  0  0  0  0  0  0  0  0  0  0
  145.7359  142.0389  155.0462 C   0  0  0  0  0  0  0  0  0  0  0  0
  145.4464  140.6052  154.7767 N   0  3  2  0  0  0  0  0  0  0  0  0
  144.3647  140.0576  155.6356 C   0  0  0  0  0  0  0  0  0  0  0  0
  144.0139  138.6029  155.3052 C   0  0  0  0  0  0  0  0  0  0  0  0
  143.5625  138.3568  154.0731 N   0  0  0  0  0  0  0  0  0  0  0  0
  144.1316  137.7160  156.1489 O   0  0  0  0  0  0  0  0  0  0  0  0
  146.6808  139.7806  154.8241 C   0  0  0  0  0  0  0  0  0  0  0  0
  147.7288  140.2856  153.8151 C   0  0  0  0  0  0  0  0  0  0  0  0
  152.1932  140.1039  157.0489 N   0  0  0  0  0  0  0  0  0  0  0  0
  153.1826  139.8668  158.0102 O   0  0  0  0  0  0  0  0  0  0  0  0
  153.7195  141.3400  160.9627 H   0  0  0  0  0  0  0  0  0  0  0  0
  155.0006  140.9232  159.8228 H   0  0  0  0  0  0  0  0  0  0  0  0
  154.0227  139.6500  160.5568 H   0  0  0  0  0  0  0  0  0  0  0  0
  151.6062  142.3828  159.4061 H   0  0  0  0  0  0  0  0  0  0  0  0
  149.9148  142.4150  157.2263 H   0  0  0  0  0  0  0  0  0  0  0  0
  148.5478  142.7089  155.8560 H   0  0  0  0  0  0  0  0  0  0  0  0
  148.6705  142.1033  153.1758 H   0  0  0  0  0  0  0  0  0  0  0  0
  146.9612  143.6450  154.2545 H   0  0  0  0  0  0  0  0  0  0  0  0
  146.3090  142.5815  153.0404 H   0  0  0  0  0  0  0  0  0  0  0  0
  146.1124  142.1522  156.0638 H   0  0  0  0  0  0  0  0  0  0  0  0
  144.8189  142.6253  154.9857 H   0  0  0  0  0  0  0  0  0  0  0  0
  144.6826  140.0705  156.6790 H   0  0  0  0  0  0  0  0  0  0  0  0
  143.4781  140.6906  155.5704 H   0  0  0  0  0  0  0  0  0  0  0  0
  143.3196  137.4160  153.7978 H   0  0  0  0  0  0  0  0  0  0  0  0
  143.4686  139.1167  153.4139 H   0  0  0  0  0  0  0  0  0  0  0  0
  147.0885  139.7911  155.8360 H   0  0  0  0  0  0  0  0  0  0  0  0
  146.4385  138.7427  154.5927 H   0  0  0  0  0  0  0  0  0  0  0  0
  147.3452  140.1400  152.8041 H   0  0  0  0  0  0  0  0  0  0  0  0
  148.6360  139.6838  153.8831 H   0  0  0  0  0  0  0  0  0  0  0  0
  145.1040  140.5484  153.8276 H   0  0  0  0  0  0  0  0  0  0  0  0
  1  2  1  0  0  0  0
  1 21  1  0  0  0  0
  1 22  1  0  0  0  0
  1 23  1  0  0  0  0
  2 20  1  0  0  0  0
  2  3  2  0  0  0  0
  3  4  1  0  0  0  0
  3 24  1  0  0  0  0
  4  5  1  0  0  0  0
  4 19  2  0  0  0  0
  5  6  1  0  0  0  0
  5 25  1  0  0  0  0
  6  7  2  0  0  0  0
  6  8  1  0  0  0  0
  8  9  1  0  0  0  0
  8 26  1  0  0  0  0
  9 18  1  0  0  0  0
  9 10  1  0  0  0  0
  9 27  1  0  0  0  0
 10 11  1  0  0  0  0
 10 28  1  0  0  0  0
 10 29  1  0  0  0  0
 11 12  1  0  0  0  0
 11 30  1  0  0  0  0
 11 31  1  0  0  0  0
 12 13  1  0  0  0  0
 12 17  1  0  0  0  0
 12 40  1  0  0  0  0
 13 14  1  0  0  0  0
 13 32  1  0  0  0  0
 13 33  1  0  0  0  0
 14 15  1  0  0  0  0
 14 16  2  0  0  0  0
 15 34  1  0  0  0  0
 15 35  1  0  0  0  0
 17 18  1  0  0  0  0
 17 36  1  0  0  0  0
 17 37  1  0  0  0  0
 18 38  1  0  0  0  0
 18 39  1  0  0  0  0
 19 20  1  0  0  0  0
M  CHG  1  12   1
M  END
> <s_m_source_file>
AV-unprocessed.smi

> <i_m_source_file_index>
1417

> <i_lp_mmshare_version>
43012

> <i_f3d_flags>
0

> <s_epik_input>
W0NIM11jMVtjSF1jKG5vMSlbTkhdQyg9TylbTkhdW0NIXTJbQ0gyXVtDSDJdTihbQ0gyXVtDSDJdMilbQ0gyXUMoPU8pW05IMl0=

> <s_epik_cmdline>
J2VwaWtfcHl0aG9uJywgJy1waCcsICc3LjAnLCAnLXRuJywgJzgnLCAnLW1hJywgJzIwMCcsICctbWV0YWxfYmluZGluZycsICctaW1hZScsICc8aW5maWxlLm1hZT4nLCAnLW9tYWUnLCAnPG91dGZpbGUubWFlPic=

> <r_epik_Ionization_Penalty>
0.867698

> <r_epik_Ionization_Penalty_Charging>
0.867623

> <r_epik_Ionization_Penalty_Neutral>
7.46743e-05

> <r_epik_State_Penalty>
0.904669

> <r_epik_Charging_Adjusted_Penalty>
1.77229

> <i_epik_Tot_Q>
1

> <i_epik_Tot_abs_Q>
1

> <r_epik_Metal_State_Penalty>
0.930696

> <b_epik_Metal_Only>
0

> <s_lp_Force_Field>
OPLS_2005

> <r_lp_Energy>
12.5471

> <b_lp_Chiralities_Consistent>
1

> <s_lp_Variant>
AV-unprocessed.smi:1417-3

> <Gold.Version>
5.8.1

> <Gold.Id.Protein>
6NUR|6NUR_protein|mol2

> <Gold.PLP.Fitness>
45.9587

> <Gold.PLP.PLP>
-29.5298

> <Gold.PLP.part.hbond>
-5.6672

> <Gold.PLP.part.metal>
0.0000

> <Gold.PLP.part.buried>
-3.5704

> <Gold.PLP.part.nonpolar>
-20.2452

> <Gold.PLP.part.repulsive>
0.2926

> <Gold.PLP.ligand.clash>
0.0000

> <Gold.PLP.ligand.torsion>
0.1623

> <Gold.PLP.Chemscore.Hbond>
5.5760

> <Gold.PLP.Chemscore.CHOScore>
0.0000

> <Gold.PLP.Chemscore.Metal>
0.0000

> <Gold.Chemscore.Hbonds>
donor molecule, donor type, donor heavy atom, donor atom, acceptor molecule, acceptor atom, score
      L1  H     8    26       P1  8028  0.56
      L1  H    12    40       P1 10175  2.00
      L1  H    15    35       P1 10175  1.00
      P1  H  7989  7998       L1     7  0.99
      P1  H  7997  8009       L1    20  1.00

> <Gold.PLP.Chemscore.Internal.Correction>
0.0256

> <Gold.Rescore>
     Score         DG    S(hbond)    S(metal)    S(lipo)     H(rot)  DE(clash)    DE(int)     intcor
     16.13     -19.27       3.81        0.00      53.78       2.05       0.21       2.94       ----

> <Gold.Chemscore.Fitness>
16.1285

> <Gold.Chemscore.DG>
-19.2745

> <Gold.Chemscore.ZeroCoef>
-5.4800

> <Gold.Chemscore.Hbond>
3.8142

> <Gold.Chemscore.Metal>
0.0000

> <Gold.Chemscore.Lipo>
53.7804

> <Gold.Chemscore.Internal_Hbond>
0.0000

> <Gold.Chemscore.DEClash>
0.2075

> <Gold.Chemscore.DEInternal>
2.9385

> <Gold.Chemscore.Rot>
2.0457

> <Gold.Chemscore.Internal.Correction>
   9.000000E+99

> <Gold.Chemscore.Hbonds>
donor molecule, donor type, donor heavy atom, donor atom, acceptor molecule, acceptor atom, score
      L1  H     8    26       P1  8028  0.51
      L1  H    12    40       P1 10175  0.95
      L1  H    15    35       P1 10175  0.99
      P1  H  7989  7998       L1     7  0.77
      P1  H  7997  8009       L1    20  0.23

> <Gold.Chemscore.Hbond.Weighted>
-12.7393

> <Gold.Chemscore.Metal.Weighted>
-0.0000

> <Gold.Chemscore.Lipo.Weighted>
-6.2923

> <Gold.Chemscore.Internal_Hbond.Weighted>
0.0000

> <Gold.Chemscore.DEClash.Weighted>
0.2075

> <Gold.Chemscore.DEInternal.Weighted>
2.9385

> <Gold.Chemscore.Rot.Weighted>
5.2371

> <Gold.Chemscore.Internal.Correction.Weighted>
   9.000000E+99

> <Gold.Protein.RotatedTorsions>
[ 6907 6896 6895 6894 ] final   80.43 input  -60.11 | X-H torsion
[ 7974 7965 7964 7962 ] final -105.51 input  175.53 | X-H torsion
[ 8008 7997 7996 7995 ] final  153.34 input   59.86 | X-H torsion
[ 10167 10162 10161 10158 ] final  -34.46 input  -65.29 | X-H torsion
[ 10718 10713 10712 10709 ] final  -35.93 input   66.30 | X-H torsion
[ 10763 10752 10751 10750 ] final   19.71 input  -60.55 | X-H torsion
[ 11005 11000 10999 10996 ] final  -75.97 input  -57.11 | X-H torsion

> <Gold.Protein.ActiveResidues>
 VAL166  LYS551  ARG553  GLY616  TRP617  ASP618  TYR619  PRO620  LYS621  CYS622 
 ASP623  PHE694  ASN695  SER759  ASP760  ASP761  ALA762  ILE779  LEU786  VAL792 
 PHE793  MET794  SER795  GLU796  ALA797  LYS798  CYS799  TRP800  GLU811  SER814 

> <Gold.Protein.RotatedAtoms>
  152.5234  134.3359  159.9199 H   0  0  0  0  0  0  0  0  0  0  0  0  # atno 6907 bound_to 6896
  151.3309  133.3995  159.2670 H   0  0  0  0  0  0  0  0  0  0  0  0  # atno 6908 bound_to 6896
  150.9882  134.9240  159.7941 H   0  0  0  0  0  0  0  0  0  0  0  0  # atno 6909 bound_to 6896
  145.2295  140.9165  143.3213 H   0  0  0  0  0  0  0  0  0  0  0  0  # atno 7974 bound_to 7965
  156.2586  140.1996  156.6475 H   0  0  0  0  0  0  0  0  0  0  0  0  # atno 8008 bound_to 7997
  154.6562  140.0566  157.0036 H   0  0  0  0  0  0  0  0  0  0  0  0  # atno 8009 bound_to 7997
  155.1344  140.3236  155.4469 H   0  0  0  0  0  0  0  0  0  0  0  0  # atno 8010 bound_to 7997
  140.7185  143.3546  151.2085 H   0  0  0  0  0  0  0  0  0  0  0  0  # atno 10167 bound_to 10162
  156.3329  130.4282  149.7856 H   0  0  0  0  0  0  0  0  0  0  0  0  # atno 10718 bound_to 10713
  153.1139  135.6703  153.9452 H   0  0  0  0  0  0  0  0  0  0  0  0  # atno 10763 bound_to 10752
  153.8987  135.3038  155.3449 H   0  0  0  0  0  0  0  0  0  0  0  0  # atno 10764 bound_to 10752
  154.7557  135.5013  153.9448 H   0  0  0  0  0  0  0  0  0  0  0  0  # atno 10765 bound_to 10752
  141.1650  133.6966  156.7597 H   0  0  0  0  0  0  0  0  0  0  0  0  # atno 11005 bound_to 11000
  144.9689  139.3900  143.6318 LP  0  0  0  0  0  0  0  0  0  0  0  0  # atno 17320 bound_to 7965
  146.3356  139.8778  142.8829 LP  0  0  0  0  0  0  0  0  0  0  0  0  # atno 17321 bound_to 7965
  139.7085  143.9416  152.2937 LP  0  0  0  0  0  0  0  0  0  0  0  0  # atno 17342 bound_to 10162
  139.9133  144.6844  150.8539 LP  0  0  0  0  0  0  0  0  0  0  0  0  # atno 17343 bound_to 10162
  156.5122  130.8177  151.3173 LP  0  0  0  0  0  0  0  0  0  0  0  0  # atno 17370 bound_to 10713
  157.7433  130.9910  150.2585 LP  0  0  0  0  0  0  0  0  0  0  0  0  # atno 17371 bound_to 10713
  140.2543  134.8516  157.3697 LP  0  0  0  0  0  0  0  0  0  0  0  0  # atno 17394 bound_to 11000
  140.1672  134.4654  155.7855 LP  0  0  0  0  0  0  0  0  0  0  0  0  # atno 17395 bound_to 11000

$$$$
