AV-unprocessed.smi:283|AV-procd|sdf|2150|dock3
  -GOLD-   2262021483D 1   1.00000     0.00000
 Structure written by MMmdl.
 48 51  0  0  0  0  0  0  0  0  1 V2000
  150.6595  142.1590  156.2974 C   0  0  0  0  0  0  0  0  0  0  0  0
  151.0009  141.6089  157.6889 C   0  0  1  0  0  0  0  0  0  0  0  0
  152.0550  140.6036  157.5739 N   0  0  0  0  0  0  0  0  0  0  0  0
  151.9516  139.5631  156.7170 C   0  0  0  0  0  0  0  0  0  0  0  0
  152.8695  139.5385  155.7219 N   0  0  0  0  0  0  0  0  0  0  0  0
  152.8681  138.5423  154.8335 C   0  0  0  0  0  0  0  0  0  0  0  0
  152.0498  137.4924  154.7612 N   0  0  0  0  0  0  0  0  0  0  0  0
  151.1082  137.5131  155.7491 C   0  0  0  0  0  0  0  0  0  0  0  0
  150.9882  138.5112  156.7601 C   0  0  0  0  0  0  0  0  0  0  0  0
  149.9081  138.2054  157.5793 N   0  0  0  0  0  0  0  0  0  0  0  0
  149.4371  137.0905  157.0941 C   0  0  0  0  0  0  0  0  0  0  0  0
  150.0972  136.6006  155.9908 N   0  0  0  0  0  0  0  0  0  0  0  0
  149.7705  135.3484  155.2301 C   0  0  2  0  0  0  0  0  0  0  0  0
  148.4677  134.9578  155.5433 O   0  0  0  0  0  0  0  0  0  0  0  0
  148.4247  133.5617  155.8224 C   0  0  2  0  0  0  0  0  0  0  0  0
  147.2334  133.2123  156.7327 C   0  0  0  0  0  0  0  0  0  0  0  0
  147.2454  131.8360  157.0468 O   0  0  0  0  0  0  0  0  0  0  0  0
  149.8138  133.2522  156.3995 C   0  0  2  0  0  0  0  0  0  0  0  0
  149.8753  133.5213  157.7898 O   0  0  0  0  0  0  0  0  0  0  0  0
  150.7090  134.1756  155.5816 C   0  0  2  0  0  0  0  0  0  0  0  0
  151.9170  134.5236  156.2378 O   0  0  0  0  0  0  0  0  0  0  0  0
  151.3097  142.7582  158.6536 C   0  0  0  0  0  0  0  0  0  0  0  0
  150.4803  143.9040  158.6772 C   0  0  0  0  0  0  0  0  0  0  0  0
  150.7549  144.9722  159.5515 C   0  0  0  0  0  0  0  0  0  0  0  0
  151.8579  144.9027  160.4209 C   0  0  0  0  0  0  0  0  0  0  0  0
  152.6806  143.7615  160.4184 C   0  0  0  0  0  0  0  0  0  0  0  0
  152.4103  142.6888  159.5451 C   0  0  0  0  0  0  0  0  0  0  0  0
  153.4471  141.3060  159.5972 Cl  0  0  0  0  0  0  0  0  0  0  0  0
  149.8406  135.6473  154.1835 H   0  0  0  0  0  0  0  0  0  0  0  0
  148.3349  133.0328  154.8714 H   0  0  0  0  0  0  0  0  0  0  0  0
  150.0801  132.2049  156.2530 H   0  0  0  0  0  0  0  0  0  0  0  0
  150.9594  133.6774  154.6441 H   0  0  0  0  0  0  0  0  0  0  0  0
  149.8121  142.8440  156.3423 H   0  0  0  0  0  0  0  0  0  0  0  0
  150.3944  141.3545  155.6109 H   0  0  0  0  0  0  0  0  0  0  0  0
  151.5026  142.7007  155.8670 H   0  0  0  0  0  0  0  0  0  0  0  0
  150.1191  141.0769  158.0423 H   0  0  0  0  0  0  0  0  0  0  0  0
  152.7183  140.6004  158.3350 H   0  0  0  0  0  0  0  0  0  0  0  0
  153.6333  138.5911  154.0730 H   0  0  0  0  0  0  0  0  0  0  0  0
  148.5815  136.5935  157.5272 H   0  0  0  0  0  0  0  0  0  0  0  0
  147.3060  133.7591  157.6733 H   0  0  0  0  0  0  0  0  0  0  0  0
  146.2846  133.4850  156.2696 H   0  0  0  0  0  0  0  0  0  0  0  0
  148.0533  131.4613  156.7311 H   0  0  0  0  0  0  0  0  0  0  0  0
  149.2999  134.2447  157.9844 H   0  0  0  0  0  0  0  0  0  0  0  0
  151.7076  135.0573  156.9888 H   0  0  0  0  0  0  0  0  0  0  0  0
  149.6271  143.9739  158.0185 H   0  0  0  0  0  0  0  0  0  0  0  0
  150.1191  145.8452  159.5538 H   0  0  0  0  0  0  0  0  0  0  0  0
  152.0707  145.7219  161.0919 H   0  0  0  0  0  0  0  0  0  0  0  0
  153.5231  143.7090  161.0921 H   0  0  0  0  0  0  0  0  0  0  0  0
  1  2  1  0  0  0  0
  1 33  1  0  0  0  0
  1 34  1  0  0  0  0
  1 35  1  0  0  0  0
  2  3  1  0  0  0  0
  2 22  1  0  0  0  0
  2 36  1  0  0  0  0
  3  4  1  0  0  0  0
  3 37  1  0  0  0  0
  4  9  1  0  0  0  0
  4  5  2  0  0  0  0
  5  6  1  0  0  0  0
  6  7  2  0  0  0  0
  6 38  1  0  0  0  0
  7  8  1  0  0  0  0
  8 12  1  0  0  0  0
  8  9  2  0  0  0  0
  9 10  1  0  0  0  0
 10 11  2  0  0  0  0
 11 12  1  0  0  0  0
 11 39  1  0  0  0  0
 12 13  1  0  0  0  0
 13 29  1  0  0  0  0
 13 20  1  0  0  0  0
 13 14  1  0  0  0  0
 14 15  1  0  0  0  0
 15 30  1  0  0  0  0
 15 16  1  0  0  0  0
 15 18  1  0  0  0  0
 16 17  1  0  0  0  0
 16 40  1  0  0  0  0
 16 41  1  0  0  0  0
 17 42  1  0  0  0  0
 18 31  1  0  0  0  0
 18 19  1  0  0  0  0
 18 20  1  0  0  0  0
 19 43  1  0  0  0  0
 20 32  1  0  0  0  0
 20 21  1  0  0  0  0
 21 44  1  0  0  0  0
 22 27  1  0  0  0  0
 22 23  2  0  0  0  0
 23 24  1  0  0  0  0
 23 45  1  0  0  0  0
 24 25  2  0  0  0  0
 24 46  1  0  0  0  0
 25 26  1  0  0  0  0
 25 47  1  0  0  0  0
 26 27  2  0  0  0  0
 26 48  1  0  0  0  0
 27 28  1  0  0  0  0
M  END
> <s_m_source_file>
AV-unprocessed.smi

> <i_m_source_file_index>
283

> <i_lp_mmshare_version>
43012

> <i_f3d_flags>
0

> <s_epik_input>
Q2xjMVtjSF1bY0hdW2NIXVtjSF1jMVtDQEhdKFtDSDNdKVtOSF1jKG5bY0hdbjIpYyhjMjMpbltjSF1uM1tDQEBIXTRPW0NASF0oW0NIMl1bT0hdKVtDQEBIXShbT0hdKVtDQEhdNFtPSF0=

> <s_epik_cmdline>
J2VwaWtfcHl0aG9uJywgJy1waCcsICc3LjAnLCAnLXRuJywgJzgnLCAnLW1hJywgJzIwMCcsICctbWV0YWxfYmluZGluZycsICctaW1hZScsICc8aW5maWxlLm1hZT4nLCAnLW9tYWUnLCAnPG91dGZpbGUubWFlPic=

> <r_lp_tautomer_probability>
1

> <r_epik_Ionization_Penalty>
0.000266407

> <r_epik_Ionization_Penalty_Charging>
0

> <r_epik_Ionization_Penalty_Neutral>
0.000266407

> <r_epik_State_Penalty>
-0

> <r_epik_Charging_Adjusted_Penalty>
0

> <i_epik_Tot_Q>
0

> <i_epik_Tot_abs_Q>
0

> <r_epik_Metal_State_Penalty>
-0

> <b_epik_Metal_Only>
0

> <s_epik_Chemistry_Notes>
This compound contains an acetal/aminal-like group ( X-CH(R)-Y where X, Y are N, S, or O) that may be acid/base labile, releasing an aldehyde.

> <s_lp_Force_Field>
OPLS_2005

> <r_lp_Energy>
56.8802

> <b_lp_Chiralities_Consistent>
1

> <s_lp_Variant>
AV-unprocessed.smi:283-26

> <Gold.Version>
5.8.1

> <Gold.Id.Protein>
6NUR|6NUR_protein|mol2

> <Gold.PLP.Fitness>
47.5032

> <Gold.PLP.PLP>
-42.0261

> <Gold.PLP.part.hbond>
-4.0000

> <Gold.PLP.part.metal>
0.0000

> <Gold.PLP.part.buried>
-5.3986

> <Gold.PLP.part.nonpolar>
-32.9457

> <Gold.PLP.part.repulsive>
0.2495

> <Gold.PLP.ligand.clash>
0.0000

> <Gold.PLP.ligand.torsion>
1.4639

> <Gold.PLP.Chemscore.Hbond>
2.7680

> <Gold.PLP.Chemscore.CHOScore>
0.0000

> <Gold.PLP.Chemscore.Metal>
0.0000

> <Gold.Chemscore.Hbonds>
donor molecule, donor type, donor heavy atom, donor atom, acceptor molecule, acceptor atom, score
      P1  H  6896  6907       L1    19  0.95
      P1  H  7997  8010       L1     5  1.00
      P1  H 10752 10763       L1    21  0.74

> <Gold.PLP.Chemscore.Internal.Correction>
0.1009

> <Gold.Rescore>
     Score         DG    S(hbond)    S(metal)    S(lipo)     H(rot)  DE(clash)    DE(int)     intcor
     11.53     -15.27       2.29        0.00     108.10       4.10       0.60       3.15       ----

> <Gold.Chemscore.Fitness>
11.5309

> <Gold.Chemscore.DG>
-15.2745

> <Gold.Chemscore.ZeroCoef>
-5.4800

> <Gold.Chemscore.Hbond>
2.2858

> <Gold.Chemscore.Metal>
0.0000

> <Gold.Chemscore.Lipo>
108.1007

> <Gold.Chemscore.Internal_Hbond>
0.0000

> <Gold.Chemscore.DEClash>
0.5985

> <Gold.Chemscore.DEInternal>
3.1451

> <Gold.Chemscore.Rot>
4.0968

> <Gold.Chemscore.Internal.Correction>
   9.000000E+99

> <Gold.Chemscore.Hbonds>
donor molecule, donor type, donor heavy atom, donor atom, acceptor molecule, acceptor atom, score
      P1  H  6896  6907       L1    19  0.21
      P1  H  7997  8010       L1     5  0.77
      P1  H 10752 10763       L1    21  0.52

> <Gold.Chemscore.Hbond.Weighted>
-7.6346

> <Gold.Chemscore.Metal.Weighted>
-0.0000

> <Gold.Chemscore.Lipo.Weighted>
-12.6478

> <Gold.Chemscore.Internal_Hbond.Weighted>
0.0000

> <Gold.Chemscore.DEClash.Weighted>
0.5985

> <Gold.Chemscore.DEInternal.Weighted>
3.1451

> <Gold.Chemscore.Rot.Weighted>
10.4879

> <Gold.Chemscore.Internal.Correction.Weighted>
   9.000000E+99

> <Gold.Protein.RotatedTorsions>
[ 6907 6896 6895 6894 ] final -134.05 input  -60.11 | X-H torsion
[ 7974 7965 7964 7962 ] final  -43.85 input  175.53 | X-H torsion
[ 8008 7997 7996 7995 ] final  103.40 input   59.86 | X-H torsion
[ 10167 10162 10161 10158 ] final -145.20 input  -65.29 | X-H torsion
[ 10718 10713 10712 10709 ] final   17.00 input   66.30 | X-H torsion
[ 10763 10752 10751 10750 ] final  101.56 input  -60.55 | X-H torsion
[ 11005 11000 10999 10996 ] final -174.48 input  -57.11 | X-H torsion

> <Gold.Protein.ActiveResidues>
 VAL166  LYS551  ARG553  GLY616  TRP617  ASP618  TYR619  PRO620  LYS621  CYS622 
 ASP623  PHE694  ASN695  SER759  ASP760  ASP761  ALA762  ILE779  LEU786  VAL792 
 PHE793  MET794  SER795  GLU796  ALA797  LYS798  CYS799  TRP800  GLU811  SER814 

> <Gold.Protein.RotatedAtoms>
  150.9812  133.6243  159.2722 H   0  0  0  0  0  0  0  0  0  0  0  0  # atno 6907 bound_to 6896
  151.3497  135.0881  159.9408 H   0  0  0  0  0  0  0  0  0  0  0  0  # atno 6908 bound_to 6896
  152.5216  133.9407  159.7679 H   0  0  0  0  0  0  0  0  0  0  0  0  # atno 6909 bound_to 6896
  145.9978  140.7108  142.9285 H   0  0  0  0  0  0  0  0  0  0  0  0  # atno 7974 bound_to 7965
  156.1480  140.3165  155.8602 H   0  0  0  0  0  0  0  0  0  0  0  0  # atno 8008 bound_to 7997
  155.4026  140.0500  157.3053 H   0  0  0  0  0  0  0  0  0  0  0  0  # atno 8009 bound_to 7997
  154.5033  140.2137  155.9313 H   0  0  0  0  0  0  0  0  0  0  0  0  # atno 8010 bound_to 7997
  139.7828  143.8076  152.2641 H   0  0  0  0  0  0  0  0  0  0  0  0  # atno 10167 bound_to 10162
  157.0759  130.6367  149.5815 H   0  0  0  0  0  0  0  0  0  0  0  0  # atno 10718 bound_to 10713
  153.3283  135.4040  155.1474 H   0  0  0  0  0  0  0  0  0  0  0  0  # atno 10763 bound_to 10752
  154.8617  135.3604  154.5505 H   0  0  0  0  0  0  0  0  0  0  0  0  # atno 10764 bound_to 10752
  153.5942  135.7073  153.5470 H   0  0  0  0  0  0  0  0  0  0  0  0  # atno 10765 bound_to 10752
  140.4740  134.6138  157.4893 H   0  0  0  0  0  0  0  0  0  0  0  0  # atno 11005 bound_to 11000
  144.6909  140.3181  143.7237 LP  0  0  0  0  0  0  0  0  0  0  0  0  # atno 17320 bound_to 7965
  145.7533  139.1801  143.2309 LP  0  0  0  0  0  0  0  0  0  0  0  0  # atno 17321 bound_to 7965
  139.8144  144.7322  150.9654 LP  0  0  0  0  0  0  0  0  0  0  0  0  # atno 17342 bound_to 10162
  140.7819  143.4219  151.0828 LP  0  0  0  0  0  0  0  0  0  0  0  0  # atno 17343 bound_to 10162
  155.9937  130.4999  150.7391 LP  0  0  0  0  0  0  0  0  0  0  0  0  # atno 17370 bound_to 10713
  157.4840  131.0905  151.0503 LP  0  0  0  0  0  0  0  0  0  0  0  0  # atno 17371 bound_to 10713
  139.9867  134.7050  155.9761 LP  0  0  0  0  0  0  0  0  0  0  0  0  # atno 17394 bound_to 11000
  141.1563  133.6542  156.4173 LP  0  0  0  0  0  0  0  0  0  0  0  0  # atno 17395 bound_to 11000

$$$$
