AV-unprocessed.smi:212|AV-procd|sdf|1627|dock8
  -GOLD-   2262019573D 1   1.00000     0.00000
 Structure written by MMmdl.
 65 68  0  0  0  0  0  0  0  0  2 V2000
  147.2452  139.3108  152.9826 C   0  0  0  0  0  0  0  0  0  0  0  0
  147.9005  139.4351  154.3685 C   0  0  2  0  0  0  0  0  0  0  0  0
  146.8657  139.7167  155.4784 C   0  0  0  0  0  0  0  0  0  0  0  0
  146.3443  141.1072  155.4003 N   0  3  1  0  0  0  0  0  0  0  0  0
  145.2482  141.3812  156.3667 C   0  0  0  0  0  0  0  0  0  0  0  0
  144.1985  142.3725  155.8112 C   0  0  0  0  0  0  0  0  0  0  0  0
  143.2056  142.7667  156.9176 C   0  0  0  0  0  0  0  0  0  0  0  0
  144.8467  143.6311  155.2053 C   0  0  0  0  0  0  0  0  0  0  0  0
  143.4424  141.7330  154.8023 O   0  0  0  0  0  0  0  0  0  0  0  0
  147.4341  142.1141  155.4483 C   0  0  0  0  0  0  0  0  0  0  0  0
  148.4798  141.8478  154.3499 C   0  0  0  0  0  0  0  0  0  0  0  0
  148.9472  140.4607  154.3830 N   0  0  0  0  0  0  0  0  0  0  0  0
  150.0648  140.1626  155.0967 C   0  0  0  0  0  0  0  0  0  0  0  0
  151.0711  139.4546  154.5181 N   0  0  0  0  0  0  0  0  0  0  0  0
  152.1790  139.1671  155.2082 C   0  0  0  0  0  0  0  0  0  0  0  0
  152.4826  139.4832  156.4681 N   0  0  0  0  0  0  0  0  0  0  0  0
  151.4738  140.1858  157.0579 C   0  0  0  0  0  0  0  0  0  0  0  0
  150.2437  140.5654  156.4505 C   0  0  0  0  0  0  0  0  0  0  0  0
  149.4624  141.2654  157.3629 N   0  0  0  0  0  0  0  0  0  0  0  0
  150.1926  141.3058  158.4440 C   0  0  0  0  0  0  0  0  0  0  0  0
  151.4169  140.6851  158.3472 N   0  0  0  0  0  0  0  0  0  0  0  0
  152.4171  140.5791  159.3949 C   0  0  0  0  0  0  0  0  0  0  0  0
  153.5522  141.6274  159.2523 C   0  0  2  0  0  0  0  0  0  0  0  0
  154.8917  141.0960  159.8167 C   0  0  0  0  0  0  0  0  0  0  0  0
  155.2803  139.8993  159.1749 O   0  0  0  0  0  0  0  0  0  0  0  0
  153.1765  143.0115  159.8546 C   0  0  1  0  0  0  0  0  0  0  0  0
  152.0830  143.7536  159.0803 C   0  0  0  0  0  0  0  0  0  0  0  0
  151.0809  144.1713  160.1538 C   0  0  0  0  0  0  0  0  0  0  0  0
  151.2427  143.1858  161.1590 O   0  0  0  0  0  0  0  0  0  0  0  0
  152.6384  142.9724  161.2946 C   0  0  0  0  0  0  0  0  0  0  0  0
  146.5113  138.5049  152.9710 H   0  0  0  0  0  0  0  0  0  0  0  0
  147.9904  139.0852  152.2191 H   0  0  0  0  0  0  0  0  0  0  0  0
  146.7313  140.2255  152.6867 H   0  0  0  0  0  0  0  0  0  0  0  0
  148.3364  138.4614  154.5907 H   0  0  0  0  0  0  0  0  0  0  0  0
  146.0491  138.9976  155.4137 H   0  0  0  0  0  0  0  0  0  0  0  0
  147.3302  139.5696  156.4550 H   0  0  0  0  0  0  0  0  0  0  0  0
  144.7746  140.4469  156.6732 H   0  0  0  0  0  0  0  0  0  0  0  0
  145.6646  141.8066  157.2814 H   0  0  0  0  0  0  0  0  0  0  0  0
  143.7112  143.2792  157.7368 H   0  0  0  0  0  0  0  0  0  0  0  0
  142.7051  141.8922  157.3356 H   0  0  0  0  0  0  0  0  0  0  0  0
  142.4328  143.4375  156.5402 H   0  0  0  0  0  0  0  0  0  0  0  0
  145.4551  144.1542  155.9437 H   0  0  0  0  0  0  0  0  0  0  0  0
  144.0916  144.3321  154.8473 H   0  0  0  0  0  0  0  0  0  0  0  0
  145.4900  143.3900  154.3585 H   0  0  0  0  0  0  0  0  0  0  0  0
  143.1076  142.3915  154.2125 H   0  0  0  0  0  0  0  0  0  0  0  0
  147.0193  143.1140  155.3157 H   0  0  0  0  0  0  0  0  0  0  0  0
  147.9016  142.0917  156.4338 H   0  0  0  0  0  0  0  0  0  0  0  0
  148.0392  142.0377  153.3712 H   0  0  0  0  0  0  0  0  0  0  0  0
  149.3137  142.5456  154.4372 H   0  0  0  0  0  0  0  0  0  0  0  0
  152.9300  138.6039  154.6741 H   0  0  0  0  0  0  0  0  0  0  0  0
  149.8572  141.7928  159.3484 H   0  0  0  0  0  0  0  0  0  0  0  0
  151.8997  140.6815  160.3479 H   0  0  0  0  0  0  0  0  0  0  0  0
  152.8220  139.5674  159.3816 H   0  0  0  0  0  0  0  0  0  0  0  0
  153.7062  141.7844  158.1832 H   0  0  0  0  0  0  0  0  0  0  0  0
  155.6843  141.8370  159.7106 H   0  0  0  0  0  0  0  0  0  0  0  0
  154.8096  140.8719  160.8795 H   0  0  0  0  0  0  0  0  0  0  0  0
  156.1194  139.6327  159.5186 H   0  0  0  0  0  0  0  0  0  0  0  0
  154.0644  143.6444  159.8495 H   0  0  0  0  0  0  0  0  0  0  0  0
  152.4717  144.6162  158.5382 H   0  0  0  0  0  0  0  0  0  0  0  0
  151.5978  143.1103  158.3473 H   0  0  0  0  0  0  0  0  0  0  0  0
  151.3326  145.1518  160.5613 H   0  0  0  0  0  0  0  0  0  0  0  0
  150.0561  144.2056  159.7839 H   0  0  0  0  0  0  0  0  0  0  0  0
  152.8516  142.0447  161.8251 H   0  0  0  0  0  0  0  0  0  0  0  0
  153.0641  143.7885  161.8805 H   0  0  0  0  0  0  0  0  0  0  0  0
  145.9288  141.1996  154.4844 H   0  0  0  0  0  0  0  0  0  0  0  0
  1  2  1  0  0  0  0
  1 31  1  0  0  0  0
  1 32  1  0  0  0  0
  1 33  1  0  0  0  0
  2 12  1  0  0  0  0
  2  3  1  0  0  0  0
  2 34  1  0  0  0  0
  3  4  1  0  0  0  0
  3 35  1  0  0  0  0
  3 36  1  0  0  0  0
  4  5  1  0  0  0  0
  4 10  1  0  0  0  0
  4 65  1  0  0  0  0
  5  6  1  0  0  0  0
  5 37  1  0  0  0  0
  5 38  1  0  0  0  0
  6  7  1  0  0  0  0
  6  8  1  0  0  0  0
  6  9  1  0  0  0  0
  7 39  1  0  0  0  0
  7 40  1  0  0  0  0
  7 41  1  0  0  0  0
  8 42  1  0  0  0  0
  8 43  1  0  0  0  0
  8 44  1  0  0  0  0
  9 45  1  0  0  0  0
 10 11  1  0  0  0  0
 10 46  1  0  0  0  0
 10 47  1  0  0  0  0
 11 12  1  0  0  0  0
 11 48  1  0  0  0  0
 11 49  1  0  0  0  0
 12 13  1  0  0  0  0
 13 18  1  0  0  0  0
 13 14  2  0  0  0  0
 14 15  1  0  0  0  0
 15 16  2  0  0  0  0
 15 50  1  0  0  0  0
 16 17  1  0  0  0  0
 17 21  1  0  0  0  0
 17 18  2  0  0  0  0
 18 19  1  0  0  0  0
 19 20  2  0  0  0  0
 20 21  1  0  0  0  0
 20 51  1  0  0  0  0
 21 22  1  0  0  0  0
 22 23  1  0  0  0  0
 22 52  1  0  0  0  0
 22 53  1  0  0  0  0
 23 24  1  0  0  0  0
 23 26  1  0  0  0  0
 23 54  1  0  0  0  0
 24 25  1  0  0  0  0
 24 55  1  0  0  0  0
 24 56  1  0  0  0  0
 25 57  1  0  0  0  0
 26 30  1  0  0  0  0
 26 27  1  0  0  0  0
 26 58  1  0  0  0  0
 27 28  1  0  0  0  0
 27 59  1  0  0  0  0
 27 60  1  0  0  0  0
 28 29  1  0  0  0  0
 28 61  1  0  0  0  0
 28 62  1  0  0  0  0
 29 30  1  0  0  0  0
 30 63  1  0  0  0  0
 30 64  1  0  0  0  0
M  CHG  1   4   1
M  END
> <s_m_source_file>
AV-unprocessed.smi

> <i_m_source_file_index>
212

> <i_lp_mmshare_version>
43012

> <i_f3d_flags>
0

> <s_epik_input>
W0NIM11bQ0BASF0xW0NIMl1OKFtDSDJdQyhbQ0gzXSkoW0NIM10pW09IXSlbQ0gyXVtDSDJdTjFjKG5bY0hdbjIpYyhjMjMpbltjSF1uM1tDSDJdW0NASF0oW0NIMl1bT0hdKVtDQEBIXTRbQ0gyXVtDSDJdT1tDSDJdNA==

> <s_epik_cmdline>
J2VwaWtfcHl0aG9uJywgJy1waCcsICc3LjAnLCAnLXRuJywgJzgnLCAnLW1hJywgJzIwMCcsICctbWV0YWxfYmluZGluZycsICctaW1hZScsICc8aW5maWxlLm1hZT4nLCAnLW9tYWUnLCAnPG91dGZpbGUubWFlPic=

> <r_lp_tautomer_probability>
1

> <r_epik_Ionization_Penalty>
0.00182193

> <r_epik_Ionization_Penalty_Charging>
0.00173996

> <r_epik_Ionization_Penalty_Neutral>
8.19718e-05

> <r_epik_State_Penalty>
-0

> <r_epik_Charging_Adjusted_Penalty>
0.00173996

> <i_epik_Tot_Q>
1

> <i_epik_Tot_abs_Q>
1

> <r_epik_Metal_State_Penalty>
-0

> <b_epik_Metal_Only>
0

> <s_lp_Force_Field>
OPLS_2005

> <r_lp_Energy>
60.0337

> <b_lp_Chiralities_Consistent>
1

> <s_lp_Variant>
AV-unprocessed.smi:212-11

> <Gold.Version>
5.8.1

> <Gold.Id.Protein>
6NUR|6NUR_protein|mol2

> <Gold.PLP.Fitness>
55.9156

> <Gold.PLP.PLP>
-50.0012

> <Gold.PLP.part.hbond>
-6.0000

> <Gold.PLP.part.metal>
0.0000

> <Gold.PLP.part.buried>
-0.2564

> <Gold.PLP.part.nonpolar>
-42.9129

> <Gold.PLP.part.repulsive>
0.3098

> <Gold.PLP.ligand.clash>
0.0000

> <Gold.PLP.ligand.torsion>
2.4052

> <Gold.PLP.Chemscore.Hbond>
3.2498

> <Gold.PLP.Chemscore.CHOScore>
0.0000

> <Gold.PLP.Chemscore.Metal>
0.0000

> <Gold.Chemscore.Hbonds>
donor molecule, donor type, donor heavy atom, donor atom, acceptor molecule, acceptor atom, score
      L1  H     9    45       P1 10174  0.49
      P1  H  6933  6945       L1    29  0.20
      P1  H  7989  7998       L1    14  0.70
      P1  H  7997  8008       L1    16  0.90
      P1  H  7997  8010       L1    25  0.90

> <Gold.PLP.Chemscore.Internal.Correction>
0.9754

> <Gold.Rescore>
     Score         DG    S(hbond)    S(metal)    S(lipo)     H(rot)  DE(clash)    DE(int)     intcor
      9.73     -13.56       1.28        0.00     106.78       3.40       0.07       3.77       ----

> <Gold.Chemscore.Fitness>
9.7274

> <Gold.Chemscore.DG>
-13.5644

> <Gold.Chemscore.ZeroCoef>
-5.4800

> <Gold.Chemscore.Hbond>
1.2849

> <Gold.Chemscore.Metal>
0.0000

> <Gold.Chemscore.Lipo>
106.7792

> <Gold.Chemscore.Internal_Hbond>
0.0000

> <Gold.Chemscore.DEClash>
0.0675

> <Gold.Chemscore.DEInternal>
3.7695

> <Gold.Chemscore.Rot>
3.3986

> <Gold.Chemscore.Internal.Correction>
   9.000000E+99

> <Gold.Chemscore.Hbonds>
donor molecule, donor type, donor heavy atom, donor atom, acceptor molecule, acceptor atom, score
      L1  H     9    45       P1 10174  0.10
      P1  H  6933  6945       L1    29  0.19
      P1  H  7989  7998       L1    14  0.02
      P1  H  7997  8008       L1    16  0.17
      P1  H  7997  8010       L1    25  0.32

> <Gold.Chemscore.Hbond.Weighted>
-4.2917

> <Gold.Chemscore.Metal.Weighted>
-0.0000

> <Gold.Chemscore.Lipo.Weighted>
-12.4932

> <Gold.Chemscore.Internal_Hbond.Weighted>
0.0000

> <Gold.Chemscore.DEClash.Weighted>
0.0675

> <Gold.Chemscore.DEInternal.Weighted>
3.7695

> <Gold.Chemscore.Rot.Weighted>
8.7005

> <Gold.Chemscore.Internal.Correction.Weighted>
   9.000000E+99

> <Gold.Protein.RotatedTorsions>
[ 6907 6896 6895 6894 ] final  -52.01 input  -60.11 | X-H torsion
[ 7974 7965 7964 7962 ] final   36.56 input  175.53 | X-H torsion
[ 8008 7997 7996 7995 ] final  -30.21 input   59.86 | X-H torsion
[ 10167 10162 10161 10158 ] final -165.36 input  -65.29 | X-H torsion
[ 10718 10713 10712 10709 ] final -143.80 input   66.30 | X-H torsion
[ 10763 10752 10751 10750 ] final   93.45 input  -60.55 | X-H torsion
[ 11005 11000 10999 10996 ] final   26.40 input  -57.11 | X-H torsion

> <Gold.Protein.ActiveResidues>
 VAL166  LYS551  ARG553  GLY616  TRP617  ASP618  TYR619  PRO620  LYS621  CYS622 
 ASP623  PHE694  ASN695  SER759  ASP760  ASP761  ALA762  ILE779  LEU786  VAL792 
 PHE793  MET794  SER795  GLU796  ALA797  LYS798  CYS799  TRP800  GLU811  SER814 

> <Gold.Protein.RotatedAtoms>
  150.8558  134.7896  159.7043 H   0  0  0  0  0  0  0  0  0  0  0  0  # atno 6907 bound_to 6896
  152.4610  134.5181  159.9784 H   0  0  0  0  0  0  0  0  0  0  0  0  # atno 6908 bound_to 6896
  151.5294  133.3414  159.2951 H   0  0  0  0  0  0  0  0  0  0  0  0  # atno 6909 bound_to 6896
  146.1202  139.6003  142.9294 H   0  0  0  0  0  0  0  0  0  0  0  0  # atno 7974 bound_to 7965
  154.4259  140.1797  156.1370 H   0  0  0  0  0  0  0  0  0  0  0  0  # atno 8008 bound_to 7997
  156.0022  140.3359  155.6832 H   0  0  0  0  0  0  0  0  0  0  0  0  # atno 8009 bound_to 7997
  155.6227  140.0661  157.2664 H   0  0  0  0  0  0  0  0  0  0  0  0  # atno 8010 bound_to 7997
  139.6187  144.0668  152.1912 H   0  0  0  0  0  0  0  0  0  0  0  0  # atno 10167 bound_to 10162
  156.3624  130.7745  151.1914 H   0  0  0  0  0  0  0  0  0  0  0  0  # atno 10718 bound_to 10713
  153.2305  135.4325  155.0589 H   0  0  0  0  0  0  0  0  0  0  0  0  # atno 10763 bound_to 10752
  154.8294  135.3378  154.6795 H   0  0  0  0  0  0  0  0  0  0  0  0  # atno 10764 bound_to 10752
  153.7222  135.7016  153.5066 H   0  0  0  0  0  0  0  0  0  0  0  0  # atno 10765 bound_to 10752
  140.3375  134.2370  155.7694 H   0  0  0  0  0  0  0  0  0  0  0  0  # atno 11005 bound_to 11000
  145.5481  141.0415  143.2293 LP  0  0  0  0  0  0  0  0  0  0  0  0  # atno 17320 bound_to 7965
  144.7590  139.7002  143.7242 LP  0  0  0  0  0  0  0  0  0  0  0  0  # atno 17321 bound_to 7965
  140.0304  144.6085  150.7492 LP  0  0  0  0  0  0  0  0  0  0  0  0  # atno 17342 bound_to 10162
  140.7368  143.2757  151.3748 LP  0  0  0  0  0  0  0  0  0  0  0  0  # atno 17343 bound_to 10162
  157.7475  131.0396  150.4558 LP  0  0  0  0  0  0  0  0  0  0  0  0  # atno 17370 bound_to 10713
  156.4772  130.4065  149.6483 LP  0  0  0  0  0  0  0  0  0  0  0  0  # atno 17371 bound_to 10713
  141.2047  133.7878  157.0271 LP  0  0  0  0  0  0  0  0  0  0  0  0  # atno 17394 bound_to 11000
  140.0809  134.9648  157.1622 LP  0  0  0  0  0  0  0  0  0  0  0  0  # atno 17395 bound_to 11000

$$$$
