AV-unprocessed.smi:240|AV-procd|sdf|1836|dock4
  -GOLD-   2262020443D 1   1.00000     0.00000
 Structure written by MMmdl.
 55 59  0  0  0  0  0  0  0  0  1 V2000
  150.6989  143.6689  157.4537 O   0  0  0  0  0  0  0  0  0  0  0  0
  150.5826  142.3864  158.0338 C   0  0  2  0  0  0  0  0  0  0  0  0
  151.7888  142.0800  158.9193 C   0  0  0  0  0  0  0  0  0  0  0  0
  151.7758  140.5563  159.0484 C   0  0  0  0  0  0  0  0  0  0  0  0
  151.1410  140.0270  157.7530 C   0  0  0  0  0  0  0  0  0  0  0  0
  150.6005  141.2539  156.9898 C   0  0  1  0  0  0  0  0  0  0  0  0
  149.2791  140.9944  156.1964 C   0  0  1  0  0  0  0  0  0  0  0  0
  148.3359  142.2255  156.1645 C   0  0  0  0  0  0  0  0  0  0  0  0
  147.1403  141.9124  155.4615 O   0  0  0  0  0  0  0  0  0  0  0  0
  147.4039  141.5957  154.1019 C   0  0  0  0  0  0  0  0  0  0  0  0
  148.2846  140.3411  154.0457 C   0  0  0  0  0  0  0  0  0  0  0  0
  149.5089  140.5295  154.8188 N   0  0  0  0  0  0  0  0  0  0  0  0
  150.3227  139.4614  154.6425 C   0  0  0  0  0  0  0  0  0  0  0  0
  151.6613  139.6356  154.4768 N   0  0  0  0  0  0  0  0  0  0  0  0
  152.4569  138.5756  154.3056 C   0  0  0  0  0  0  0  0  0  0  0  0
  152.1293  137.2816  154.2747 N   0  0  0  0  0  0  0  0  0  0  0  0
  150.7889  137.1053  154.4585 C   0  0  0  0  0  0  0  0  0  0  0  0
  149.8244  138.1321  154.6541 C   0  0  0  0  0  0  0  0  0  0  0  0
  148.5607  137.5774  154.8093 N   0  0  0  0  0  0  0  0  0  0  0  0
  148.7655  136.2925  154.7054 C   0  0  0  0  0  0  0  0  0  0  0  0
  150.0752  135.9201  154.4997 N   0  0  0  0  0  0  0  0  0  0  0  0
  150.5829  134.5658  154.3429 C   0  0  0  0  0  0  0  0  0  0  0  0
  150.0641  133.5683  155.4100 C   0  0  2  0  0  0  0  0  0  0  0  0
  150.2780  134.1146  156.6986 O   0  0  0  0  0  0  0  0  0  0  0  0
  150.7068  132.1846  155.3379 C   0  0  0  0  0  0  0  0  0  0  0  0
  149.7646  131.4374  154.4070 C   0  0  0  0  0  0  0  0  0  0  0  0
  148.4877  131.8750  154.8417 O   0  0  0  0  0  0  0  0  0  0  0  0
  148.5689  133.2505  155.2067 C   0  0  0  0  0  0  0  0  0  0  0  0
  149.8350  143.9742  157.2225 H   0  0  0  0  0  0  0  0  0  0  0  0
  149.6845  142.3512  158.6483 H   0  0  0  0  0  0  0  0  0  0  0  0
  152.7096  142.3923  158.4237 H   0  0  0  0  0  0  0  0  0  0  0  0
  151.7423  142.5848  159.8848 H   0  0  0  0  0  0  0  0  0  0  0  0
  152.7742  140.1519  159.2173 H   0  0  0  0  0  0  0  0  0  0  0  0
  151.1577  140.2680  159.8997 H   0  0  0  0  0  0  0  0  0  0  0  0
  151.8772  139.5000  157.1447 H   0  0  0  0  0  0  0  0  0  0  0  0
  150.3641  139.3032  157.9939 H   0  0  0  0  0  0  0  0  0  0  0  0
  151.3942  141.4987  156.2837 H   0  0  0  0  0  0  0  0  0  0  0  0
  148.7426  140.1969  156.7127 H   0  0  0  0  0  0  0  0  0  0  0  0
  148.0567  142.5370  157.1693 H   0  0  0  0  0  0  0  0  0  0  0  0
  148.8055  143.0852  155.6871 H   0  0  0  0  0  0  0  0  0  0  0  0
  146.4592  141.4150  153.5890 H   0  0  0  0  0  0  0  0  0  0  0  0
  147.8851  142.4369  153.6002 H   0  0  0  0  0  0  0  0  0  0  0  0
  147.7333  139.4868  154.4416 H   0  0  0  0  0  0  0  0  0  0  0  0
  148.5265  140.1130  153.0065 H   0  0  0  0  0  0  0  0  0  0  0  0
  153.5061  138.7959  154.1739 H   0  0  0  0  0  0  0  0  0  0  0  0
  147.9611  135.5748  154.7788 H   0  0  0  0  0  0  0  0  0  0  0  0
  150.3159  134.2181  153.3439 H   0  0  0  0  0  0  0  0  0  0  0  0
  151.6726  134.6074  154.3650 H   0  0  0  0  0  0  0  0  0  0  0  0
  150.4859  135.0317  156.6038 H   0  0  0  0  0  0  0  0  0  0  0  0
  151.7402  132.1784  154.9944 H   0  0  0  0  0  0  0  0  0  0  0  0
  150.6873  131.7002  156.3157 H   0  0  0  0  0  0  0  0  0  0  0  0
  149.9237  131.7306  153.3681 H   0  0  0  0  0  0  0  0  0  0  0  0
  149.8664  130.3546  154.4816 H   0  0  0  0  0  0  0  0  0  0  0  0
  147.9798  133.4089  156.1111 H   0  0  0  0  0  0  0  0  0  0  0  0
  148.1270  133.8643  154.4206 H   0  0  0  0  0  0  0  0  0  0  0  0
  1  2  1  0  0  0  0
  1 29  1  0  0  0  0
  2  6  1  0  0  0  0
  2  3  1  0  0  0  0
  2 30  1  0  0  0  0
  3  4  1  0  0  0  0
  3 31  1  0  0  0  0
  3 32  1  0  0  0  0
  4  5  1  0  0  0  0
  4 33  1  0  0  0  0
  4 34  1  0  0  0  0
  5  6  1  0  0  0  0
  5 35  1  0  0  0  0
  5 36  1  0  0  0  0
  6  7  1  0  0  0  0
  6 37  1  0  0  0  0
  7 12  1  0  0  0  0
  7  8  1  0  0  0  0
  7 38  1  0  0  0  0
  8  9  1  0  0  0  0
  8 39  1  0  0  0  0
  8 40  1  0  0  0  0
  9 10  1  0  0  0  0
 10 11  1  0  0  0  0
 10 41  1  0  0  0  0
 10 42  1  0  0  0  0
 11 12  1  0  0  0  0
 11 43  1  0  0  0  0
 11 44  1  0  0  0  0
 12 13  1  0  0  0  0
 13 18  1  0  0  0  0
 13 14  2  0  0  0  0
 14 15  1  0  0  0  0
 15 16  2  0  0  0  0
 15 45  1  0  0  0  0
 16 17  1  0  0  0  0
 17 21  1  0  0  0  0
 17 18  2  0  0  0  0
 18 19  1  0  0  0  0
 19 20  2  0  0  0  0
 20 21  1  0  0  0  0
 20 46  1  0  0  0  0
 21 22  1  0  0  0  0
 22 23  1  0  0  0  0
 22 47  1  0  0  0  0
 22 48  1  0  0  0  0
 23 28  1  0  0  0  0
 23 24  1  0  0  0  0
 23 25  1  0  0  0  0
 24 49  1  0  0  0  0
 25 26  1  0  0  0  0
 25 50  1  0  0  0  0
 25 51  1  0  0  0  0
 26 27  1  0  0  0  0
 26 52  1  0  0  0  0
 26 53  1  0  0  0  0
 27 28  1  0  0  0  0
 28 54  1  0  0  0  0
 28 55  1  0  0  0  0
M  END
> <s_m_source_file>
AV-unprocessed.smi

> <i_m_source_file_index>
240

> <i_lp_mmshare_version>
43012

> <i_f3d_flags>
0

> <s_epik_input>
W09IXVtDQEBIXTFbQ0gyXVtDSDJdW0NIMl1bQ0BIXTFbQ0BASF0yW0NIMl1PW0NIMl1bQ0gyXU4yYyhuW2NIXW4zKWMoYzM0KW5bY0hdbjRbQ0gyXVtDQEBdNShbT0hdKVtDSDJdW0NIMl1PW0NIMl01

> <s_epik_cmdline>
J2VwaWtfcHl0aG9uJywgJy1waCcsICc3LjAnLCAnLXRuJywgJzgnLCAnLW1hJywgJzIwMCcsICctbWV0YWxfYmluZGluZycsICctaW1hZScsICc8aW5maWxlLm1hZT4nLCAnLW9tYWUnLCAnPG91dGZpbGUubWFlPic=

> <r_lp_tautomer_probability>
1

> <r_epik_Ionization_Penalty>
0.000130618

> <r_epik_Ionization_Penalty_Charging>
0

> <r_epik_Ionization_Penalty_Neutral>
0.000130618

> <r_epik_State_Penalty>
-0

> <r_epik_Charging_Adjusted_Penalty>
0

> <i_epik_Tot_Q>
0

> <i_epik_Tot_abs_Q>
0

> <r_epik_Metal_State_Penalty>
-0

> <b_epik_Metal_Only>
0

> <s_lp_Force_Field>
OPLS_2005

> <r_lp_Energy>
59.7423

> <b_lp_Chiralities_Consistent>
1

> <s_lp_Variant>
AV-unprocessed.smi:240-13

> <Gold.Version>
5.8.1

> <Gold.Id.Protein>
6NUR|6NUR_protein|mol2

> <Gold.PLP.Fitness>
45.3761

> <Gold.PLP.PLP>
-37.2002

> <Gold.PLP.part.hbond>
-4.0000

> <Gold.PLP.part.metal>
0.0000

> <Gold.PLP.part.buried>
-2.6312

> <Gold.PLP.part.nonpolar>
-31.7601

> <Gold.PLP.part.repulsive>
0.5483

> <Gold.PLP.ligand.clash>
0.0000

> <Gold.PLP.ligand.torsion>
1.6954

> <Gold.PLP.Chemscore.Hbond>
3.7920

> <Gold.PLP.Chemscore.CHOScore>
0.0000

> <Gold.PLP.Chemscore.Metal>
0.0000

> <Gold.Chemscore.Hbonds>
donor molecule, donor type, donor heavy atom, donor atom, acceptor molecule, acceptor atom, score
      L1  H     1    29       P1  8028  0.78
      P1  H  7989  7998       L1    14  1.00
      P1  H 10752 10764       L1    16  0.88

> <Gold.PLP.Chemscore.Internal.Correction>
0.1906

> <Gold.Rescore>
     Score         DG    S(hbond)    S(metal)    S(lipo)     H(rot)  DE(clash)    DE(int)     intcor
     12.44     -18.11       3.24        0.00      81.14       3.00       1.77       3.90       ----

> <Gold.Chemscore.Fitness>
12.4437

> <Gold.Chemscore.DG>
-18.1107

> <Gold.Chemscore.ZeroCoef>
-5.4800

> <Gold.Chemscore.Hbond>
3.2417

> <Gold.Chemscore.Metal>
0.0000

> <Gold.Chemscore.Lipo>
81.1404

> <Gold.Chemscore.Internal_Hbond>
0.0000

> <Gold.Chemscore.DEClash>
1.7714

> <Gold.Chemscore.DEInternal>
3.8957

> <Gold.Chemscore.Rot>
3.0039

> <Gold.Chemscore.Internal.Correction>
   9.000000E+99

> <Gold.Chemscore.Hbonds>
donor molecule, donor type, donor heavy atom, donor atom, acceptor molecule, acceptor atom, score
      L1  H     1    29       P1  8028  0.57
      P1  H  7989  7998       L1    14  0.24
      P1  H 10752 10764       L1    16  0.64

> <Gold.Chemscore.Hbond.Weighted>
-10.8272

> <Gold.Chemscore.Metal.Weighted>
-0.0000

> <Gold.Chemscore.Lipo.Weighted>
-9.4934

> <Gold.Chemscore.Internal_Hbond.Weighted>
0.0000

> <Gold.Chemscore.DEClash.Weighted>
1.7714

> <Gold.Chemscore.DEInternal.Weighted>
3.8957

> <Gold.Chemscore.Rot.Weighted>
7.6899

> <Gold.Chemscore.Internal.Correction.Weighted>
   9.000000E+99

> <Gold.Protein.RotatedTorsions>
[ 6907 6896 6895 6894 ] final    1.82 input  -60.11 | X-H torsion
[ 7974 7965 7964 7962 ] final  177.16 input  175.53 | X-H torsion
[ 8008 7997 7996 7995 ] final   36.86 input   59.86 | X-H torsion
[ 10167 10162 10161 10158 ] final  156.86 input  -65.29 | X-H torsion
[ 10718 10713 10712 10709 ] final   54.07 input   66.30 | X-H torsion
[ 10763 10752 10751 10750 ] final  -77.23 input  -60.55 | X-H torsion
[ 11005 11000 10999 10996 ] final -117.89 input  -57.11 | X-H torsion

> <Gold.Protein.ActiveResidues>
 VAL166  LYS551  ARG553  GLY616  TRP617  ASP618  TYR619  PRO620  LYS621  CYS622 
 ASP623  PHE694  ASN695  SER759  ASP760  ASP761  ALA762  ILE779  LEU786  VAL792 
 PHE793  MET794  SER795  GLU796  ALA797  LYS798  CYS799  TRP800  GLU811  SER814 

> <Gold.Protein.RotatedAtoms>
  151.5989  135.1048  160.0055 H   0  0  0  0  0  0  0  0  0  0  0  0  # atno 6907 bound_to 6896
  152.4268  133.7205  159.6541 H   0  0  0  0  0  0  0  0  0  0  0  0  # atno 6908 bound_to 6896
  150.8158  133.8269  159.3183 H   0  0  0  0  0  0  0  0  0  0  0  0  # atno 6909 bound_to 6896
  144.7173  140.0205  143.6440 H   0  0  0  0  0  0  0  0  0  0  0  0  # atno 7974 bound_to 7965
  155.1944  140.3310  155.4353 H   0  0  0  0  0  0  0  0  0  0  0  0  # atno 8008 bound_to 7997
  156.2430  140.1904  156.6984 H   0  0  0  0  0  0  0  0  0  0  0  0  # atno 8009 bound_to 7997
  154.6184  140.0599  156.9569 H   0  0  0  0  0  0  0  0  0  0  0  0  # atno 8010 bound_to 7997
  139.4822  144.4971  151.8224 H   0  0  0  0  0  0  0  0  0  0  0  0  # atno 10167 bound_to 10162
  157.5224  130.8574  149.8576 H   0  0  0  0  0  0  0  0  0  0  0  0  # atno 10718 bound_to 10713
  154.5103  135.5771  153.6599 H   0  0  0  0  0  0  0  0  0  0  0  0  # atno 10763 bound_to 10752
  152.9895  135.6157  154.2888 H   0  0  0  0  0  0  0  0  0  0  0  0  # atno 10764 bound_to 10752
  154.2802  135.2851  155.2680 H   0  0  0  0  0  0  0  0  0  0  0  0  # atno 10765 bound_to 10752
  141.0323  133.9962  157.3124 H   0  0  0  0  0  0  0  0  0  0  0  0  # atno 11005 bound_to 11000
  146.0184  139.3230  143.0828 LP  0  0  0  0  0  0  0  0  0  0  0  0  # atno 17320 bound_to 7965
  145.8598  140.9482  143.0706 LP  0  0  0  0  0  0  0  0  0  0  0  0  # atno 17321 bound_to 7965
  140.4460  144.1921  150.5894 LP  0  0  0  0  0  0  0  0  0  0  0  0  # atno 17342 bound_to 10162
  140.4634  143.2440  151.9189 LP  0  0  0  0  0  0  0  0  0  0  0  0  # atno 17343 bound_to 10162
  156.0363  130.3750  150.1553 LP  0  0  0  0  0  0  0  0  0  0  0  0  # atno 17370 bound_to 10713
  156.9740  130.9843  151.3452 LP  0  0  0  0  0  0  0  0  0  0  0  0  # atno 17371 bound_to 10713
  139.9216  135.0200  156.8086 LP  0  0  0  0  0  0  0  0  0  0  0  0  # atno 17394 bound_to 11000
  140.6384  133.9841  155.7695 LP  0  0  0  0  0  0  0  0  0  0  0  0  # atno 17395 bound_to 11000

$$$$
