#       Name:                AV-unprocessed.smi:1078
#       Creating user name   scv26
#       Creation time:       Fri Mar 27 03:22:45 2020


#       File generated by GOLD software.
#

@<TRIPOS>MOLECULE
AV-unprocessed.smi:1078
    41    42     1
SMALL
NO_CHARGES


@<TRIPOS>ATOM
      1 ****        -2.0760  -1.5618  -1.6030 C.3            1 S1                 0.0000
      2 ****        -1.6167  -0.6576  -0.4463 C.3            1 S1                 0.0000
      3 ****        -2.1382  -1.1398   0.9281 C.3            1 S1                 0.0000
      4 ****        -3.5776  -1.3288   0.9596 N.pl3          1 S1                 0.0000
      5 ****        -4.2870  -2.4974   1.1435 C.2            1 S1                 0.0000
      6 ****        -5.6137  -2.1767   1.1068 C.2            1 S1                 0.0000
      7 ****        -5.6161  -0.7685   0.9019 C.2            1 S1                 0.0000
      8 ****        -4.3957  -0.2633   0.8188 N.2            1 S1                 0.0000
      9 ****        -0.1393  -0.5683  -0.4583 N.4            1 S1                 1.0000
     10 ****         0.4402   0.5441   0.3250 C.3            1 S1                 0.0000
     11 ****         1.9647   0.6359   0.1281 C.3            1 S1                 0.0000
     12 ****         2.5934   1.6151   1.1407 C.3            1 S1                 0.0000
     13 ****         4.1167   1.7199   0.9614 C.3            1 S1                 0.0000
     14 ****         4.4814   2.1262  -0.4742 C.3            1 S1                 0.0000
     15 ****         3.8621   1.1602  -1.4953 C.3            1 S1                 0.0000
     16 ****         2.3395   1.0547  -1.3111 C.3            1 S1                 0.0000
     17 ****        -3.1619  -1.5707  -1.7013 H              1 S1                 0.0000
     18 ****        -1.7466  -2.5909  -1.4560 H              1 S1                 0.0000
     19 ****        -1.6723  -1.2159  -2.5552 H              1 S1                 0.0000
     20 ****        -2.0098   0.3413  -0.6422 H              1 S1                 0.0000
     21 ****        -1.6646  -2.0849   1.1977 H              1 S1                 0.0000
     22 ****        -1.8828  -0.4280   1.7134 H              1 S1                 0.0000
     23 ****        -3.7961  -3.4497   1.2814 H              1 S1                 0.0000
     24 ****        -6.4549  -2.8459   1.2130 H              1 S1                 0.0000
     25 ****        -6.4624  -0.1032   0.8133 H              1 S1                 0.0000
     26 ****         0.2465  -1.4422  -0.1299 H              1 S1                 0.0000
     27 ****        -0.0322   1.4853   0.0401 H              1 S1                 0.0000
     28 ****         0.2203   0.3842   1.3805 H              1 S1                 0.0000
     29 ****         2.3897  -0.3510   0.3196 H              1 S1                 0.0000
     30 ****         2.1462   2.6036   1.0253 H              1 S1                 0.0000
     31 ****         2.3715   1.2945   2.1593 H              1 S1                 0.0000
     32 ****         4.5246   2.4446   1.6668 H              1 S1                 0.0000
     33 ****         4.5806   0.7617   1.1994 H              1 S1                 0.0000
     34 ****         4.1279   3.1396  -0.6685 H              1 S1                 0.0000
     35 ****         5.5652   2.1484  -0.5914 H              1 S1                 0.0000
     36 ****         4.0917   1.4943  -2.5075 H              1 S1                 0.0000
     37 ****         4.3136   0.1732  -1.3859 H              1 S1                 0.0000
     38 ****         1.9422   0.3392  -2.0314 H              1 S1                 0.0000
     39 ****         1.8797   2.0154  -1.5473 H              1 S1                 0.0000
     40 ****         0.1468  -0.4350  -1.4178 H              1 S1                 0.0000
     41 ****        -4.1372   0.6930   0.6823 LP             1 S1                 0.0000
@<TRIPOS>BOND
    1    1    2 1     
    2    1   17 1     
    3    1   18 1     
    4    1   19 1     
    5    2    3 1     
    6    2    9 1     
    7    2   20 1     
    8    3    4 1     
    9    3   21 1     
   10    3   22 1     
   11    4    8 1     
   12    4    5 1     
   13    5    6 2     
   14    5   23 1     
   15    6    7 1     
   16    6   24 1     
   17    7    8 2     
   18    7   25 1     
   19    9   10 1     
   20    9   26 1     
   21    9   40 1     
   22   10   11 1     
   23   10   27 1     
   24   10   28 1     
   25   11   16 1     
   26   11   12 1     
   27   11   29 1     
   28   12   13 1     
   29   12   30 1     
   30   12   31 1     
   31   13   14 1     
   32   13   32 1     
   33   13   33 1     
   34   14   15 1     
   35   14   34 1     
   36   14   35 1     
   37   15   16 1     
   38   15   36 1     
   39   15   37 1     
   40   16   38 1     
   41   16   39 1     
   42    8   41 1     
@<TRIPOS>SUBSTRUCTURE
      1 S1             1
@<TRIPOS>SET
LONE_PAIRS      STATIC     ATOMS    <user>   **** ""
1 41
DONOR_HYDROGENS      STATIC     ATOMS    <user>   **** ""
2 26 40
ATOM$BLUE        STATIC     ATOMS    COLORGROUP SYSTEM
1 41
ATOM$RED        STATIC     ATOMS    COLORGROUP SYSTEM
2 26 40
