AV-unprocessed.smi:2945|AV-procd|sdf|11279|dock10
  -GOLD-   2272016173D 1   1.00000     0.00000
 Structure written by MMmdl.
 36 37  0  0  0  0  0  0  0  0  1 V2000
  150.2293  134.2593  155.2203 C   0  0  0  0  0  0  0  0  0  0  0  0
  150.7080  135.5220  155.8506 C   0  0  0  0  0  0  0  0  0  0  0  0
  150.1821  136.7810  155.9269 C   0  0  0  0  0  0  0  0  0  0  0  0
  151.1607  137.4917  156.6713 C   0  0  0  0  0  0  0  0  0  0  0  0
  150.9860  138.8658  156.9754 N   0  0  0  0  0  0  0  0  0  0  0  0
  151.9044  139.7233  157.4521 C   0  0  0  0  0  0  0  0  0  0  0  0
  153.0767  139.4395  157.6996 O   0  0  0  0  0  0  0  0  0  0  0  0
  151.3796  140.9453  157.6280 N   0  0  0  0  0  0  0  0  0  0  0  0
  152.0942  142.1274  158.1097 C   0  0  1  0  0  0  0  0  0  0  0  0
  151.2997  143.3833  157.6999 C   0  0  0  0  0  0  0  0  0  0  0  0
  151.9507  144.6684  158.2305 C   0  0  0  0  0  0  0  0  0  0  0  0
  152.1207  144.6068  159.7540 C   0  0  0  0  0  0  0  0  0  0  0  0
  152.9307  143.3691  160.1670 C   0  0  0  0  0  0  0  0  0  0  0  0
  152.2962  142.0631  159.6459 C   0  0  2  0  0  0  0  0  0  0  0  0
  153.1329  140.8482  160.0851 C   0  0  0  0  0  0  0  0  0  0  0  0
  152.1903  136.7350  157.0193 N   0  0  0  0  0  0  0  0  0  0  0  0
  151.9052  135.4685  156.4952 O   0  0  0  0  0  0  0  0  0  0  0  0
  149.3254  134.4336  154.6365 H   0  0  0  0  0  0  0  0  0  0  0  0
  150.0027  133.5106  155.9795 H   0  0  0  0  0  0  0  0  0  0  0  0
  150.9878  133.8477  154.5541 H   0  0  0  0  0  0  0  0  0  0  0  0
  149.2483  137.1335  155.5149 H   0  0  0  0  0  0  0  0  0  0  0  0
  150.0617  139.2360  156.8111 H   0  0  0  0  0  0  0  0  0  0  0  0
  150.4047  141.0745  157.4005 H   0  0  0  0  0  0  0  0  0  0  0  0
  153.0769  142.1905  157.6385 H   0  0  0  0  0  0  0  0  0  0  0  0
  151.2209  143.4369  156.6134 H   0  0  0  0  0  0  0  0  0  0  0  0
  150.2791  143.3153  158.0798 H   0  0  0  0  0  0  0  0  0  0  0  0
  152.9233  144.8099  157.7572 H   0  0  0  0  0  0  0  0  0  0  0  0
  151.3442  145.5328  157.9587 H   0  0  0  0  0  0  0  0  0  0  0  0
  152.6154  145.5111  160.1097 H   0  0  0  0  0  0  0  0  0  0  0  0
  151.1407  144.5812  160.2322 H   0  0  0  0  0  0  0  0  0  0  0  0
  153.9490  143.4602  159.7863 H   0  0  0  0  0  0  0  0  0  0  0  0
  153.0118  143.3363  161.2542 H   0  0  0  0  0  0  0  0  0  0  0  0
  151.3139  141.9679  160.1115 H   0  0  0  0  0  0  0  0  0  0  0  0
  154.1202  140.8614  159.6222 H   0  0  0  0  0  0  0  0  0  0  0  0
  152.6522  139.9078  159.8160 H   0  0  0  0  0  0  0  0  0  0  0  0
  153.2732  140.8391  161.1662 H   0  0  0  0  0  0  0  0  0  0  0  0
  1  2  1  0  0  0  0
  1 18  1  0  0  0  0
  1 19  1  0  0  0  0
  1 20  1  0  0  0  0
  2 17  1  0  0  0  0
  2  3  2  0  0  0  0
  3  4  1  0  0  0  0
  3 21  1  0  0  0  0
  4  5  1  0  0  0  0
  4 16  2  0  0  0  0
  5  6  1  0  0  0  0
  5 22  1  0  0  0  0
  6  7  2  0  0  0  0
  6  8  1  0  0  0  0
  8  9  1  0  0  0  0
  8 23  1  0  0  0  0
  9 14  1  0  0  0  0
  9 10  1  0  0  0  0
  9 24  1  0  0  0  0
 10 11  1  0  0  0  0
 10 25  1  0  0  0  0
 10 26  1  0  0  0  0
 11 12  1  0  0  0  0
 11 27  1  0  0  0  0
 11 28  1  0  0  0  0
 12 13  1  0  0  0  0
 12 29  1  0  0  0  0
 12 30  1  0  0  0  0
 13 14  1  0  0  0  0
 13 31  1  0  0  0  0
 13 32  1  0  0  0  0
 14 15  1  0  0  0  0
 14 33  1  0  0  0  0
 15 34  1  0  0  0  0
 15 35  1  0  0  0  0
 15 36  1  0  0  0  0
 16 17  1  0  0  0  0
M  END
> <s_m_source_file>
AV-unprocessed.smi

> <i_m_source_file_index>
2945

> <i_lp_mmshare_version>
43012

> <i_f3d_flags>
0

> <s_epik_input>
W0NIM11jMVtjSF1jKG5vMSlbTkhdQyg9TylbTkhdW0NAQEhdMltDSDJdW0NIMl1bQ0gyXVtDSDJdW0NASF0yW0NIM10=

> <s_epik_cmdline>
J2VwaWtfcHl0aG9uJywgJy1waCcsICc3LjAnLCAnLXRuJywgJzgnLCAnLW1hJywgJzIwMCcsICctbWV0YWxfYmluZGluZycsICctaW1hZScsICc8aW5maWxlLm1hZT4nLCAnLW9tYWUnLCAnPG91dGZpbGUubWFlPic=

> <r_lp_tautomer_probability>
1

> <r_epik_Ionization_Penalty>
2.357e-05

> <r_epik_Ionization_Penalty_Charging>
0

> <r_epik_Ionization_Penalty_Neutral>
2.357e-05

> <r_epik_State_Penalty>
-0

> <r_epik_Charging_Adjusted_Penalty>
0

> <i_epik_Tot_Q>
0

> <i_epik_Tot_abs_Q>
0

> <r_epik_Metal_State_Penalty>
-0

> <b_epik_Metal_Only>
0

> <s_lp_Force_Field>
OPLS_2005

> <r_lp_Energy>
8.52615

> <b_lp_Chiralities_Consistent>
1

> <s_lp_Variant>
AV-unprocessed.smi:2945-4

> <Gold.Version>
5.8.1

> <Gold.Id.Protein>
6NUR|6NUR_protein|mol2

> <Gold.PLP.Fitness>
37.1437

> <Gold.PLP.PLP>
-31.7227

> <Gold.PLP.part.hbond>
-2.0000

> <Gold.PLP.part.metal>
0.0000

> <Gold.PLP.part.buried>
-4.9050

> <Gold.PLP.part.nonpolar>
-24.9252

> <Gold.PLP.part.repulsive>
0.0820

> <Gold.PLP.ligand.clash>
0.0000

> <Gold.PLP.ligand.torsion>
0.2914

> <Gold.PLP.Chemscore.Hbond>
2.0000

> <Gold.PLP.Chemscore.CHOScore>
0.0000

> <Gold.PLP.Chemscore.Metal>
0.0000

> <Gold.Chemscore.Hbonds>
donor molecule, donor type, donor heavy atom, donor atom, acceptor molecule, acceptor atom, score
      P1  H  7997  8008       L1     7  1.00
      P1  H 10752 10764       L1    17  1.00

> <Gold.PLP.Chemscore.Internal.Correction>
0.0038

> <Gold.Rescore>
     Score         DG    S(hbond)    S(metal)    S(lipo)     H(rot)  DE(clash)    DE(int)     intcor
     16.90     -19.84       1.87        0.00      91.26       1.00       0.03       2.91       ----

> <Gold.Chemscore.Fitness>
16.8980

> <Gold.Chemscore.DG>
-19.8406

> <Gold.Chemscore.ZeroCoef>
-5.4800

> <Gold.Chemscore.Hbond>
1.8692

> <Gold.Chemscore.Metal>
0.0000

> <Gold.Chemscore.Lipo>
91.2605

> <Gold.Chemscore.Internal_Hbond>
0.0000

> <Gold.Chemscore.DEClash>
0.0301

> <Gold.Chemscore.DEInternal>
2.9124

> <Gold.Chemscore.Rot>
1.0000

> <Gold.Chemscore.Internal.Correction>
   9.000000E+99

> <Gold.Chemscore.Hbonds>
donor molecule, donor type, donor heavy atom, donor atom, acceptor molecule, acceptor atom, score
      P1  H  7997  8008       L1     7  0.96
      P1  H 10752 10764       L1    17  0.08

> <Gold.Chemscore.Hbond.Weighted>
-6.2431

> <Gold.Chemscore.Metal.Weighted>
-0.0000

> <Gold.Chemscore.Lipo.Weighted>
-10.6775

> <Gold.Chemscore.Internal_Hbond.Weighted>
0.0000

> <Gold.Chemscore.DEClash.Weighted>
0.0301

> <Gold.Chemscore.DEInternal.Weighted>
2.9124

> <Gold.Chemscore.Rot.Weighted>
2.5600

> <Gold.Chemscore.Internal.Correction.Weighted>
   9.000000E+99

> <Gold.Protein.RotatedTorsions>
[ 6907 6896 6895 6894 ] final  -58.31 input  -60.11 | X-H torsion
[ 7974 7965 7964 7962 ] final -138.06 input  175.53 | X-H torsion
[ 8008 7997 7996 7995 ] final  -59.78 input   59.86 | X-H torsion
[ 10167 10162 10161 10158 ] final  -72.00 input  -65.29 | X-H torsion
[ 10718 10713 10712 10709 ] final   88.48 input   66.30 | X-H torsion
[ 10763 10752 10751 10750 ] final  -33.94 input  -60.55 | X-H torsion
[ 11005 11000 10999 10996 ] final  -70.64 input  -57.11 | X-H torsion

> <Gold.Protein.ActiveResidues>
 VAL166  LYS551  ARG553  GLY616  TRP617  ASP618  TYR619  PRO620  LYS621  CYS622 
 ASP623  PHE694  ASN695  SER759  ASP760  ASP761  ALA762  ILE779  LEU786  VAL792 
 PHE793  MET794  SER795  GLU796  ALA797  LYS798  CYS799  TRP800  GLU811  SER814 

> <Gold.Protein.RotatedAtoms>
  150.8017  134.7115  159.6606 H   0  0  0  0  0  0  0  0  0  0  0  0  # atno 6907 bound_to 6896
  152.4134  134.6081  160.0028 H   0  0  0  0  0  0  0  0  0  0  0  0  # atno 6908 bound_to 6896
  151.6317  133.3294  159.3146 H   0  0  0  0  0  0  0  0  0  0  0  0  # atno 6909 bound_to 6896
  144.8790  140.6479  143.5218 H   0  0  0  0  0  0  0  0  0  0  0  0  # atno 7974 bound_to 7965
  154.4368  140.1054  156.6170 H   0  0  0  0  0  0  0  0  0  0  0  0  # atno 8008 bound_to 7997
  155.5748  140.3490  155.4506 H   0  0  0  0  0  0  0  0  0  0  0  0  # atno 8009 bound_to 7997
  156.0362  140.1272  157.0194 H   0  0  0  0  0  0  0  0  0  0  0  0  # atno 8010 bound_to 7997
  140.5228  143.2330  151.7400 H   0  0  0  0  0  0  0  0  0  0  0  0  # atno 10167 bound_to 10162
  157.6949  131.0296  150.3281 H   0  0  0  0  0  0  0  0  0  0  0  0  # atno 10718 bound_to 10713
  153.8385  135.6860  153.4806 H   0  0  0  0  0  0  0  0  0  0  0  0  # atno 10763 bound_to 10752
  153.1468  135.4634  154.9576 H   0  0  0  0  0  0  0  0  0  0  0  0  # atno 10764 bound_to 10752
  154.7855  135.3283  154.7841 H   0  0  0  0  0  0  0  0  0  0  0  0  # atno 10765 bound_to 10752
  141.1578  133.6795  156.6784 H   0  0  0  0  0  0  0  0  0  0  0  0  # atno 11005 bound_to 11000
  145.3990  139.1601  143.4188 LP  0  0  0  0  0  0  0  0  0  0  0  0  # atno 17320 bound_to 7965
  146.2982  140.4085  142.8714 LP  0  0  0  0  0  0  0  0  0  0  0  0  # atno 17321 bound_to 7965
  139.4928  144.4230  151.9957 LP  0  0  0  0  0  0  0  0  0  0  0  0  # atno 17342 bound_to 10162
  140.3328  144.3296  150.5984 LP  0  0  0  0  0  0  0  0  0  0  0  0  # atno 17343 bound_to 10162
  156.3758  130.3871  149.7140 LP  0  0  0  0  0  0  0  0  0  0  0  0  # atno 17370 bound_to 10713
  156.4539  130.7919  151.2940 LP  0  0  0  0  0  0  0  0  0  0  0  0  # atno 17371 bound_to 10713
  140.3121  134.8077  157.4185 LP  0  0  0  0  0  0  0  0  0  0  0  0  # atno 17394 bound_to 11000
  140.1169  134.5271  155.8217 LP  0  0  0  0  0  0  0  0  0  0  0  0  # atno 17395 bound_to 11000

$$$$
