AV-unprocessed.smi:1059|AV-procd|sdf|4654|dock1
  -GOLD-   22720 3163D 1   1.00000     0.00000
 Structure written by MMmdl.
 55 56  0  0  0  0  0  0  0  0  2 V2000
  152.5726  142.5113  159.8327 C   0  0  0  0  0  0  0  0  0  0  0  0
  151.9671  142.9708  158.4973 C   0  0  0  0  0  0  0  0  0  0  0  0
  151.2049  144.2955  158.6894 C   0  0  0  0  0  0  0  0  0  0  0  0
  151.0815  141.8547  157.8907 C   0  0  0  0  0  0  0  0  0  0  0  0
  151.8345  140.7404  157.1362 C   0  0  0  0  0  0  0  0  0  0  0  0
  152.7712  140.1654  157.6927 O   0  0  0  0  0  0  0  0  0  0  0  0
  151.4408  140.4181  155.8793 N   0  0  0  0  0  0  0  0  0  0  0  0
  152.0905  139.3621  155.0925 C   0  0  0  0  0  0  0  0  0  0  0  0
  151.1385  138.1571  154.9891 C   0  0  0  0  0  0  0  0  0  0  0  0
  149.7785  138.5687  154.3866 C   0  0  0  0  0  0  0  0  0  0  0  0
  148.8489  137.4455  154.4606 N   0  0  0  0  0  0  0  0  0  0  0  0
  147.5434  137.5021  154.1612 C   0  0  0  0  0  0  0  0  0  0  0  0
  146.9752  138.5291  153.7908 O   0  0  0  0  0  0  0  0  0  0  0  0
  146.9591  136.2996  154.3018 N   0  0  0  0  0  0  0  0  0  0  0  0
  145.5956  135.9534  154.1007 C   0  0  0  0  0  0  0  0  0  0  0  0
  144.7643  136.8952  153.4566 C   0  0  0  0  0  0  0  0  0  0  0  0
  143.4071  136.5897  153.2268 C   0  0  0  0  0  0  0  0  0  0  0  0
  142.9003  135.3392  153.6376 C   0  0  0  0  0  0  0  0  0  0  0  0
  141.5575  134.9937  153.4323 N   0  0  0  0  0  0  0  0  0  0  0  0
  140.6923  136.1550  153.2911 C   0  0  0  0  0  0  0  0  0  0  0  0
  141.3874  133.9483  152.4340 C   0  0  0  0  0  0  0  0  0  0  0  0
  143.7313  134.4540  154.2372 N   0  3  0  0  0  0  0  0  0  0  0  0
  145.0361  134.7074  154.4767 C   0  0  0  0  0  0  0  0  0  0  0  0
  149.2012  139.8119  155.1024 C   0  0  0  0  0  0  0  0  0  0  0  0
  150.2478  140.9367  155.1964 C   0  0  0  0  0  0  0  0  0  0  0  0
  151.7959  142.2995  160.5684 H   0  0  0  0  0  0  0  0  0  0  0  0
  153.2277  143.2754  160.2518 H   0  0  0  0  0  0  0  0  0  0  0  0
  153.1671  141.6058  159.7064 H   0  0  0  0  0  0  0  0  0  0  0  0
  152.8026  143.1587  157.8209 H   0  0  0  0  0  0  0  0  0  0  0  0
  150.3568  144.1686  159.3627 H   0  0  0  0  0  0  0  0  0  0  0  0
  150.8223  144.6891  157.7484 H   0  0  0  0  0  0  0  0  0  0  0  0
  151.8532  145.0610  159.1163 H   0  0  0  0  0  0  0  0  0  0  0  0
  150.5148  141.3753  158.6901 H   0  0  0  0  0  0  0  0  0  0  0  0
  150.3560  142.3160  157.2199 H   0  0  0  0  0  0  0  0  0  0  0  0
  152.3213  139.7439  154.0968 H   0  0  0  0  0  0  0  0  0  0  0  0
  153.0454  139.0454  155.5140 H   0  0  0  0  0  0  0  0  0  0  0  0
  151.5955  137.3737  154.3834 H   0  0  0  0  0  0  0  0  0  0  0  0
  150.9917  137.7332  155.9839 H   0  0  0  0  0  0  0  0  0  0  0  0
  149.9445  138.8211  153.3375 H   0  0  0  0  0  0  0  0  0  0  0  0
  149.2330  136.5588  154.7527 H   0  0  0  0  0  0  0  0  0  0  0  0
  147.5734  135.5324  154.5326 H   0  0  0  0  0  0  0  0  0  0  0  0
  145.1597  137.8512  153.1449 H   0  0  0  0  0  0  0  0  0  0  0  0
  142.7645  137.3095  152.7410 H   0  0  0  0  0  0  0  0  0  0  0  0
  140.8740  136.8754  154.0896 H   0  0  0  0  0  0  0  0  0  0  0  0
  139.6458  135.8535  153.3419 H   0  0  0  0  0  0  0  0  0  0  0  0
  140.8579  136.6515  152.3341 H   0  0  0  0  0  0  0  0  0  0  0  0
  142.0567  133.1102  152.6318 H   0  0  0  0  0  0  0  0  0  0  0  0
  141.5938  134.3259  151.4319 H   0  0  0  0  0  0  0  0  0  0  0  0
  140.3641  133.5726  152.4524 H   0  0  0  0  0  0  0  0  0  0  0  0
  145.5749  133.8991  154.9476 H   0  0  0  0  0  0  0  0  0  0  0  0
  148.3177  140.1752  154.5763 H   0  0  0  0  0  0  0  0  0  0  0  0
  148.8730  139.5425  156.1076 H   0  0  0  0  0  0  0  0  0  0  0  0
  149.8040  141.8062  155.6774 H   0  0  0  0  0  0  0  0  0  0  0  0
  150.5251  141.2699  154.1952 H   0  0  0  0  0  0  0  0  0  0  0  0
  143.3552  133.5492  154.5211 H   0  0  0  0  0  0  0  0  0  0  0  0
  1  2  1  0  0  0  0
  1 26  1  0  0  0  0
  1 27  1  0  0  0  0
  1 28  1  0  0  0  0
  2  3  1  0  0  0  0
  2  4  1  0  0  0  0
  2 29  1  0  0  0  0
  3 30  1  0  0  0  0
  3 31  1  0  0  0  0
  3 32  1  0  0  0  0
  4  5  1  0  0  0  0
  4 33  1  0  0  0  0
  4 34  1  0  0  0  0
  5  6  2  0  0  0  0
  5  7  1  0  0  0  0
  7 25  1  0  0  0  0
  7  8  1  0  0  0  0
  8  9  1  0  0  0  0
  8 35  1  0  0  0  0
  8 36  1  0  0  0  0
  9 10  1  0  0  0  0
  9 37  1  0  0  0  0
  9 38  1  0  0  0  0
 10 11  1  0  0  0  0
 10 24  1  0  0  0  0
 10 39  1  0  0  0  0
 11 12  1  0  0  0  0
 11 40  1  0  0  0  0
 12 13  2  0  0  0  0
 12 14  1  0  0  0  0
 14 15  1  0  0  0  0
 14 41  1  0  0  0  0
 15 23  1  0  0  0  0
 15 16  2  0  0  0  0
 16 17  1  0  0  0  0
 16 42  1  0  0  0  0
 17 18  2  0  0  0  0
 17 43  1  0  0  0  0
 18 19  1  0  0  0  0
 18 22  1  0  0  0  0
 19 20  1  0  0  0  0
 19 21  1  0  0  0  0
 20 44  1  0  0  0  0
 20 45  1  0  0  0  0
 20 46  1  0  0  0  0
 21 47  1  0  0  0  0
 21 48  1  0  0  0  0
 21 49  1  0  0  0  0
 22 23  2  0  0  0  0
 22 55  1  0  0  0  0
 23 50  1  0  0  0  0
 24 25  1  0  0  0  0
 24 51  1  0  0  0  0
 24 52  1  0  0  0  0
 25 53  1  0  0  0  0
 25 54  1  0  0  0  0
M  CHG  1  22   1
M  END
> <s_m_source_file>
AV-unprocessed.smi

> <i_m_source_file_index>
1059

> <i_lp_mmshare_version>
43012

> <i_f3d_flags>
0

> <s_epik_input>
W0NIM11bQ0hdKFtDSDNdKVtDSDJdQyg9TylOMVtDSDJdW0NIMl1bQ0hdKFtDSDJdW0NIMl0xKVtOSF1DKD1PKVtOSF1jMltjSF1bY0hdYyhOKFtDSDNdKVtDSDNdKW5bY0hdMg==

> <s_epik_cmdline>
J2VwaWtfcHl0aG9uJywgJy1waCcsICc3LjAnLCAnLXRuJywgJzgnLCAnLW1hJywgJzIwMCcsICctbWV0YWxfYmluZGluZycsICctaW1hZScsICc8aW5maWxlLm1hZT4nLCAnLW9tYWUnLCAnPG91dGZpbGUubWFlPic=

> <r_lp_tautomer_probability>
0.999994

> <r_epik_Ionization_Penalty>
0.255783

> <r_epik_Ionization_Penalty_Charging>
0.255763

> <r_epik_Ionization_Penalty_Neutral>
1.99447e-05

> <r_epik_State_Penalty>
0.247288

> <r_epik_Charging_Adjusted_Penalty>
0.503051

> <i_epik_Tot_Q>
1

> <i_epik_Tot_abs_Q>
1

> <r_epik_Metal_State_Penalty>
0.537004

> <b_epik_Metal_Only>
0

> <s_lp_Force_Field>
OPLS_2005

> <r_lp_Energy>
38.2328

> <b_lp_Chiralities_Consistent>
1

> <s_lp_Variant>
AV-unprocessed.smi:1059-1

> <Gold.Version>
5.8.1

> <Gold.Id.Protein>
6NUR|6NUR_protein|mol2

> <Gold.PLP.Fitness>
50.0730

> <Gold.PLP.PLP>
-41.0648

> <Gold.PLP.part.hbond>
-3.8475

> <Gold.PLP.part.metal>
0.0000

> <Gold.PLP.part.buried>
-1.6327

> <Gold.PLP.part.nonpolar>
-35.3851

> <Gold.PLP.part.repulsive>
0.3189

> <Gold.PLP.ligand.clash>
0.0000

> <Gold.PLP.ligand.torsion>
0.8356

> <Gold.PLP.Chemscore.Hbond>
3.4602

> <Gold.PLP.Chemscore.CHOScore>
0.0000

> <Gold.PLP.Chemscore.Metal>
0.0000

> <Gold.Chemscore.Hbonds>
donor molecule, donor type, donor heavy atom, donor atom, acceptor molecule, acceptor atom, score
      L1  H    22    55       P1 10957  2.00
      P1  H  7997  8008       L1     6  1.00

> <Gold.PLP.Chemscore.Internal.Correction>
0.2988

> <Gold.Rescore>
     Score         DG    S(hbond)    S(metal)    S(lipo)     H(rot)  DE(clash)    DE(int)     intcor
     15.44     -19.08       1.90        0.00      95.88       1.55       0.24       3.40       ----

> <Gold.Chemscore.Fitness>
15.4398

> <Gold.Chemscore.DG>
-19.0812

> <Gold.Chemscore.ZeroCoef>
-5.4800

> <Gold.Chemscore.Hbond>
1.9027

> <Gold.Chemscore.Metal>
0.0000

> <Gold.Chemscore.Lipo>
95.8791

> <Gold.Chemscore.Internal_Hbond>
0.0000

> <Gold.Chemscore.DEClash>
0.2405

> <Gold.Chemscore.DEInternal>
3.4008

> <Gold.Chemscore.Rot>
1.5514

> <Gold.Chemscore.Internal.Correction>
   9.000000E+99

> <Gold.Chemscore.Hbonds>
donor molecule, donor type, donor heavy atom, donor atom, acceptor molecule, acceptor atom, score
      L1  H    22    55       P1 10957  0.99
      P1  H  7997  8008       L1     6  0.92

> <Gold.Chemscore.Hbond.Weighted>
-6.3549

> <Gold.Chemscore.Metal.Weighted>
-0.0000

> <Gold.Chemscore.Lipo.Weighted>
-11.2179

> <Gold.Chemscore.Internal_Hbond.Weighted>
0.0000

> <Gold.Chemscore.DEClash.Weighted>
0.2405

> <Gold.Chemscore.DEInternal.Weighted>
3.4008

> <Gold.Chemscore.Rot.Weighted>
3.9716

> <Gold.Chemscore.Internal.Correction.Weighted>
   9.000000E+99

> <Gold.Protein.RotatedTorsions>
[ 6907 6896 6895 6894 ] final  -41.00 input  -60.11 | X-H torsion
[ 7974 7965 7964 7962 ] final  114.00 input  175.53 | X-H torsion
[ 8008 7997 7996 7995 ] final  -71.14 input   59.86 | X-H torsion
[ 10167 10162 10161 10158 ] final  -81.47 input  -65.29 | X-H torsion
[ 10718 10713 10712 10709 ] final -167.22 input   66.30 | X-H torsion
[ 10763 10752 10751 10750 ] final  -36.71 input  -60.55 | X-H torsion
[ 11005 11000 10999 10996 ] final    5.68 input  -57.11 | X-H torsion

> <Gold.Protein.ActiveResidues>
 VAL166  LYS551  ARG553  GLY616  TRP617  ASP618  TYR619  PRO620  LYS621  CYS622 
 ASP623  PHE694  ASN695  SER759  ASP760  ASP761  ALA762  ILE779  LEU786  VAL792 
 PHE793  MET794  SER795  GLU796  ALA797  LYS798  CYS799  TRP800  GLU811  SER814 

> <Gold.Protein.RotatedAtoms>
  150.9718  134.9089  159.7792 H   0  0  0  0  0  0  0  0  0  0  0  0  # atno 6907 bound_to 6896
  152.5193  134.3531  159.9268 H   0  0  0  0  0  0  0  0  0  0  0  0  # atno 6908 bound_to 6896
  151.3540  133.3874  159.2717 H   0  0  0  0  0  0  0  0  0  0  0  0  # atno 6909 bound_to 6896
  145.2099  139.2911  143.4274 H   0  0  0  0  0  0  0  0  0  0  0  0  # atno 7974 bound_to 7965
  154.5065  140.0821  156.7905 H   0  0  0  0  0  0  0  0  0  0  0  0  # atno 8008 bound_to 7997
  155.3882  140.3431  155.4232 H   0  0  0  0  0  0  0  0  0  0  0  0  # atno 8009 bound_to 7997
  156.1522  140.1562  156.8739 H   0  0  0  0  0  0  0  0  0  0  0  0  # atno 8010 bound_to 7997
  140.4409  143.2515  151.8627 H   0  0  0  0  0  0  0  0  0  0  0  0  # atno 10167 bound_to 10162
  156.6791  130.9115  151.3054 H   0  0  0  0  0  0  0  0  0  0  0  0  # atno 10718 bound_to 10713
  153.8843  135.6818  153.4765 H   0  0  0  0  0  0  0  0  0  0  0  0  # atno 10763 bound_to 10752
  153.1216  135.4737  154.9203 H   0  0  0  0  0  0  0  0  0  0  0  0  # atno 10764 bound_to 10752
  154.7654  135.3222  154.8249 H   0  0  0  0  0  0  0  0  0  0  0  0  # atno 10765 bound_to 10752
  140.5680  134.0130  155.7997 H   0  0  0  0  0  0  0  0  0  0  0  0  # atno 11005 bound_to 11000
  146.3400  140.2371  142.8594 LP  0  0  0  0  0  0  0  0  0  0  0  0  # atno 17320 bound_to 7965
  144.9866  140.8509  143.5365 LP  0  0  0  0  0  0  0  0  0  0  0  0  # atno 17321 bound_to 7965
  139.4789  144.5230  151.8775 LP  0  0  0  0  0  0  0  0  0  0  0  0  # atno 17342 bound_to 10162
  140.4319  144.2104  150.5888 LP  0  0  0  0  0  0  0  0  0  0  0  0  # atno 17343 bound_to 10162
  157.7050  130.9375  150.0902 LP  0  0  0  0  0  0  0  0  0  0  0  0  # atno 17370 bound_to 10713
  156.1881  130.3653  149.8946 LP  0  0  0  0  0  0  0  0  0  0  0  0  # atno 17371 bound_to 10713
  141.1074  133.9672  157.2972 LP  0  0  0  0  0  0  0  0  0  0  0  0  # atno 17394 bound_to 11000
  139.9376  135.0195  156.8605 LP  0  0  0  0  0  0  0  0  0  0  0  0  # atno 17395 bound_to 11000

$$$$
