#       Name:                AV-unprocessed.smi:148
#       Creating user name   scv26
#       Creation time:       Thu Mar 26 18:37:46 2020


#       File generated by GOLD software.
#

@<TRIPOS>MOLECULE
AV-unprocessed.smi:148
    73    77     1
SMALL
NO_CHARGES


@<TRIPOS>ATOM
      1 ****        -1.2902  -1.8144   1.2992 O.3            1 S1                 0.0000
      2 ****        -1.4641  -3.1412   0.8455 C.3            1 S1                 0.0000
      3 ****        -1.4953  -3.2286  -0.7026 C.3            1 S1                 0.0000
      4 ****        -0.0764  -3.1193  -1.3249 C.3            1 S1                 0.0000
      5 ****         0.6094  -1.8828  -0.9980 N.pl3          1 S1                 0.0000
      6 ****         1.6666  -1.7245  -0.1302 C.2            1 S1                 0.0000
      7 ****         2.0920  -0.4984   0.0095 N.2            1 S1                 0.0000
      8 ****         1.2700   0.2412  -0.8326 C.ar           1 S1                 0.0000
      9 ****         1.1531   1.6243  -1.1479 C.ar           1 S1                 0.0000
     10 ****         1.9126   2.6021  -0.6095 N.3            1 S1                 0.0000
     11 ****         3.2659   2.5187  -1.1619 C.3            1 S1                 0.0000
     12 ****         4.0866   3.7668  -0.8235 C.3            1 S1                 0.0000
     13 ****         4.1061   3.9799   0.6905 C.3            1 S1                 0.0000
     14 ****         2.6708   4.0545   1.2264 C.3            1 S1                 0.0000
     15 ****         1.8205   2.8088   0.8522 C.3            1 S1                 0.0000
     16 ****         0.3529   2.9754   1.3837 C.3            1 S1                 0.0000
     17 ****        -0.5422   1.7159   1.3930 C.3            1 S1                 0.0000
     18 ****        -1.6282   1.9375   2.4552 C.3            1 S1                 0.0000
     19 ****        -1.2511   3.2285   3.1860 C.3            1 S1                 0.0000
     20 ****         0.2182   3.4721   2.8392 C.3            1 S1                 0.0000
     21 ****         1.0207   2.7079   3.7219 O.3            1 S1                 0.0000
     22 ****         0.2174   1.9962  -2.0560 N.ar           1 S1                 0.0000
     23 ****        -0.5797   1.0749  -2.6059 C.ar           1 S1                 0.0000
     24 ****        -0.6073  -0.2424  -2.3906 N.ar           1 S1                 0.0000
     25 ****         0.3444  -0.6173  -1.4879 C.ar           1 S1                 0.0000
     26 ****        -2.1923  -4.5284  -1.1847 C.3            1 S1                 0.0000
     27 ****        -2.3486  -4.6390  -2.7015 C.3            1 S1                 0.0000
     28 ****        -3.6846  -5.3580  -2.9124 C.3            1 S1                 0.0000
     29 ****        -4.1525  -5.6798  -1.6120 O.3            1 S1                 0.0000
     30 ****        -3.6404  -4.7065  -0.7197 C.3            1 S1                 0.0000
     31 ****        -1.2867  -1.8177   2.2443 H              1 S1                 0.0000
     32 ****        -0.6759  -3.7744   1.2540 H              1 S1                 0.0000
     33 ****        -2.3991  -3.4852   1.2835 H              1 S1                 0.0000
     34 ****        -2.0952  -2.3943  -1.0701 H              1 S1                 0.0000
     35 ****         0.5422  -3.9556  -0.9966 H              1 S1                 0.0000
     36 ****        -0.1213  -3.1811  -2.4121 H              1 S1                 0.0000
     37 ****         2.1044  -2.5499   0.4120 H              1 S1                 0.0000
     38 ****         3.7676   1.6349  -0.7654 H              1 S1                 0.0000
     39 ****         3.2231   2.3992  -2.2459 H              1 S1                 0.0000
     40 ****         5.1035   3.6625  -1.2025 H              1 S1                 0.0000
     41 ****         3.6546   4.6384  -1.3168 H              1 S1                 0.0000
     42 ****         4.6395   3.1607   1.1742 H              1 S1                 0.0000
     43 ****         4.6470   4.8947   0.9349 H              1 S1                 0.0000
     44 ****         2.7282   4.1805   2.3065 H              1 S1                 0.0000
     45 ****         2.1898   4.9532   0.8379 H              1 S1                 0.0000
     46 ****         2.2696   1.9433   1.3409 H              1 S1                 0.0000
     47 ****        -0.1409   3.7197   0.7561 H              1 S1                 0.0000
     48 ****        -1.0000   1.5193   0.4246 H              1 S1                 0.0000
     49 ****         0.0471   0.8390   1.6633 H              1 S1                 0.0000
     50 ****        -2.6183   2.0211   2.0058 H              1 S1                 0.0000
     51 ****        -1.6533   1.0935   3.1455 H              1 S1                 0.0000
     52 ****        -1.8519   4.0494   2.7916 H              1 S1                 0.0000
     53 ****        -1.4383   3.1780   4.2595 H              1 S1                 0.0000
     54 ****         0.4747   4.5269   2.9441 H              1 S1                 0.0000
     55 ****         0.7821   1.7982   3.6301 H              1 S1                 0.0000
     56 ****        -1.3042   1.4479  -3.3147 H              1 S1                 0.0000
     57 ****        -1.6225  -5.3918  -0.8373 H              1 S1                 0.0000
     58 ****        -2.3873  -3.6559  -3.1730 H              1 S1                 0.0000
     59 ****        -1.5178  -5.1878  -3.1460 H              1 S1                 0.0000
     60 ****        -4.4021  -4.6979  -3.4018 H              1 S1                 0.0000
     61 ****        -3.5830  -6.2584  -3.5183 H              1 S1                 0.0000
     62 ****        -3.7199  -5.0549   0.3101 H              1 S1                 0.0000
     63 ****        -4.2088  -3.7800  -0.8188 H              1 S1                 0.0000
     64 ****        -2.0409  -1.2434   0.9669 LP             1 S1                 0.0000
     65 ****        -0.4215  -1.4533   0.9602 LP             1 S1                 0.0000
     66 ****         2.8371  -0.1676   0.5886 LP             1 S1                 0.0000
     67 ****         1.5073   3.4701  -0.8966 LP             1 S1                 0.0000
     68 ****         0.8636   3.0048   4.6638 LP             1 S1                 0.0000
     69 ****         1.9861   2.8288   3.4909 LP             1 S1                 0.0000
     70 ****         0.1238   2.9579  -2.3138 LP             1 S1                 0.0000
     71 ****        -1.2439  -0.8733  -2.8341 LP             1 S1                 0.0000
     72 ****        -3.8286  -6.5883  -1.3482 LP             1 S1                 0.0000
     73 ****        -5.1523  -5.6647  -1.5959 LP             1 S1                 0.0000
@<TRIPOS>BOND
    1    1    2 1     
    2    1   31 1     
    3    2    3 1     
    4    2   32 1     
    5    2   33 1     
    6    3    4 1     
    7    3   26 1     
    8    3   34 1     
    9    4    5 1     
   10    4   35 1     
   11    4   36 1     
   12    5   25 1     
   13    5    6 1     
   14    6    7 2     
   15    6   37 1     
   16    7    8 1     
   17    8   25 ar    
   18    8    9 ar    
   19    9   10 1     
   20    9   22 ar    
   21   10   15 1     
   22   10   11 1     
   23   11   12 1     
   24   11   38 1     
   25   11   39 1     
   26   12   13 1     
   27   12   40 1     
   28   12   41 1     
   29   13   14 1     
   30   13   42 1     
   31   13   43 1     
   32   14   15 1     
   33   14   44 1     
   34   14   45 1     
   35   15   16 1     
   36   15   46 1     
   37   16   20 1     
   38   16   17 1     
   39   16   47 1     
   40   17   18 1     
   41   17   48 1     
   42   17   49 1     
   43   18   19 1     
   44   18   50 1     
   45   18   51 1     
   46   19   20 1     
   47   19   52 1     
   48   19   53 1     
   49   20   21 1     
   50   20   54 1     
   51   21   55 1     
   52   22   23 ar    
   53   23   24 ar    
   54   23   56 1     
   55   24   25 ar    
   56   26   30 1     
   57   26   27 1     
   58   26   57 1     
   59   27   28 1     
   60   27   58 1     
   61   27   59 1     
   62   28   29 1     
   63   28   60 1     
   64   28   61 1     
   65   29   30 1     
   66   30   62 1     
   67   30   63 1     
   68    1   64 1     
   69    1   65 1     
   70    7   66 1     
   71   10   67 1     
   72   21   68 1     
   73   21   69 1     
   74   22   70 1     
   75   24   71 1     
   76   29   72 1     
   77   29   73 1     
@<TRIPOS>SUBSTRUCTURE
      1 S1             1
@<TRIPOS>SET
LONE_PAIRS      STATIC     ATOMS    <user>   **** ""
10 64 65 66 67 68 69 70 71 72 73
DONOR_HYDROGENS      STATIC     ATOMS    <user>   **** ""
2 31 55
ATOM$BLUE        STATIC     ATOMS    COLORGROUP SYSTEM
10 64 65 66 67 68 69 70 71 72 73
ATOM$RED        STATIC     ATOMS    COLORGROUP SYSTEM
2 31 55
