#       Name:                AV-unprocessed.smi:101
#       Creating user name   scv26
#       Creation time:       Thu Mar 26 17:42:53 2020


#       File generated by GOLD software.
#

@<TRIPOS>MOLECULE
AV-unprocessed.smi:101
    56    58     1
SMALL
NO_CHARGES


@<TRIPOS>ATOM
      1 ****         0.9927   2.8539  -0.3171 C.3            1 S1                 0.0000
      2 ****         0.0612   2.2784   0.7376 C.2            1 S1                 0.0000
      3 ****        -0.8026   1.2657   0.4712 C.2            1 S1                 0.0000
      4 ****        -1.6563   0.7002   1.4135 N.am           1 S1                 0.0000
      5 ****        -2.6239  -0.4167   1.0413 C.3            1 S1                 0.0000
      6 ****        -2.2097  -0.9982  -0.1646 O.3            1 S1                 0.0000
      7 ****        -1.5390  -2.2348   0.0624 C.3            1 S1                 0.0000
      8 ****        -0.0476  -2.0025   0.3842 C.3            1 S1                 0.0000
      9 ****         0.6013  -1.4619  -0.7549 O.3            1 S1                 0.0000
     10 ****         1.8074  -0.8734  -0.6283 C.2            1 S1                 0.0000
     11 ****         2.4376  -0.8276   0.4300 O.2            1 S1                 0.0000
     12 ****         2.2872  -0.2574  -1.8980 C.ar           1 S1                 0.0000
     13 ****         3.5246   0.4275  -1.9107 C.ar           1 S1                 0.0000
     14 ****         3.9963   1.0340  -3.0908 C.ar           1 S1                 0.0000
     15 ****         3.2366   0.9621  -4.2729 C.ar           1 S1                 0.0000
     16 ****         2.0039   0.2836  -4.2731 C.ar           1 S1                 0.0000
     17 ****         1.5301  -0.3231  -3.0936 C.ar           1 S1                 0.0000
     18 ****        -2.3578  -2.8049   1.2213 C.3            1 S1                 0.0000
     19 ****        -1.6545  -3.7973   1.9441 O.3            1 S1                 0.0000
     20 ****        -2.6560  -1.5761   2.0743 C.3            1 S1                 0.0000
     21 ****        -3.9288  -1.7115   2.6746 O.3            1 S1                 0.0000
     22 ****        -1.7375   1.2978   2.6915 C.2            1 S1                 0.0000
     23 ****        -2.5584   0.9577   3.5420 O.2            1 S1                 0.0000
     24 ****        -0.8399   2.3260   2.9731 N.am           1 S1                 0.0000
     25 ****         0.0940   2.8577   2.0818 C.2            1 S1                 0.0000
     26 ****         0.8478   3.7554   2.4539 O.2            1 S1                 0.0000
     27 ****        -0.8775   2.7320   3.8968 H              1 S1                 0.0000
     28 ****         0.8487   2.3793  -1.2882 H              1 S1                 0.0000
     29 ****         2.0331   2.7054  -0.0257 H              1 S1                 0.0000
     30 ****         0.8191   3.9234  -0.4405 H              1 S1                 0.0000
     31 ****        -0.8159   0.8930  -0.5418 H              1 S1                 0.0000
     32 ****        -3.5800   0.0904   0.9000 H              1 S1                 0.0000
     33 ****        -1.6238  -2.8716  -0.8189 H              1 S1                 0.0000
     34 ****         0.0628  -1.3421   1.2449 H              1 S1                 0.0000
     35 ****         0.4380  -2.9447   0.6396 H              1 S1                 0.0000
     36 ****         4.1238   0.4990  -1.0143 H              1 S1                 0.0000
     37 ****         4.9419   1.5557  -3.0882 H              1 S1                 0.0000
     38 ****         3.5985   1.4272  -5.1780 H              1 S1                 0.0000
     39 ****         1.4196   0.2284  -5.1797 H              1 S1                 0.0000
     40 ****         0.5784  -0.8330  -3.1274 H              1 S1                 0.0000
     41 ****        -3.2828  -3.2290   0.8261 H              1 S1                 0.0000
     42 ****        -1.5208  -4.5432   1.3793 H              1 S1                 0.0000
     43 ****        -1.8777  -1.4466   2.8275 H              1 S1                 0.0000
     44 ****        -4.0954  -0.9398   3.1947 H              1 S1                 0.0000
     45 ****        -1.5872  -0.3707  -0.6323 LP             1 S1                 0.0000
     46 ****        -3.0112  -1.1627  -0.7395 LP             1 S1                 0.0000
     47 ****         2.0572  -1.2418   1.2568 LP             1 S1                 0.0000
     48 ****         3.3294  -0.3761   0.4618 LP             1 S1                 0.0000
     49 ****        -2.1869  -4.0719   2.7448 LP             1 S1                 0.0000
     50 ****        -0.7703  -3.4357   2.2399 LP             1 S1                 0.0000
     51 ****        -3.9423  -2.5226   3.2593 LP             1 S1                 0.0000
     52 ****        -4.6291  -1.7994   1.9662 LP             1 S1                 0.0000
     53 ****        -3.2101   0.2257   3.3434 LP             1 S1                 0.0000
     54 ****        -2.5741   1.4132   4.4321 LP             1 S1                 0.0000
     55 ****         1.5087   4.1501   1.8156 LP             1 S1                 0.0000
     56 ****         0.7999   4.0907   3.3948 LP             1 S1                 0.0000
@<TRIPOS>BOND
    1    1    2 1     
    2    1   28 1     
    3    1   29 1     
    4    1   30 1     
    5    2   25 1     
    6    2    3 2     
    7    3    4 1     
    8    3   31 1     
    9    4    5 1     
   10    4   22 1     
   11    5   20 1     
   12    5    6 1     
   13    5   32 1     
   14    6    7 1     
   15    7    8 1     
   16    7   18 1     
   17    7   33 1     
   18    8    9 1     
   19    8   34 1     
   20    8   35 1     
   21    9   10 1     
   22   10   11 2     
   23   10   12 1     
   24   12   17 ar    
   25   12   13 ar    
   26   13   14 ar    
   27   13   36 1     
   28   14   15 ar    
   29   14   37 1     
   30   15   16 ar    
   31   15   38 1     
   32   16   17 ar    
   33   16   39 1     
   34   17   40 1     
   35   18   19 1     
   36   18   20 1     
   37   18   41 1     
   38   19   42 1     
   39   20   21 1     
   40   20   43 1     
   41   21   44 1     
   42   22   23 2     
   43   22   24 1     
   44   24   27 1     
   45   24   25 1     
   46   25   26 2     
   47    6   45 1     
   48    6   46 1     
   49   11   47 1     
   50   11   48 1     
   51   19   49 1     
   52   19   50 1     
   53   21   51 1     
   54   21   52 1     
   55   23   53 1     
   56   23   54 1     
   57   26   55 1     
   58   26   56 1     
@<TRIPOS>SUBSTRUCTURE
      1 S1             1
@<TRIPOS>SET
LONE_PAIRS      STATIC     ATOMS    <user>   **** ""
12 45 46 47 48 49 50 51 52 53 54 55 56
DONOR_HYDROGENS      STATIC     ATOMS    <user>   **** ""
3 42 44 27
ATOM$BLUE        STATIC     ATOMS    COLORGROUP SYSTEM
12 45 46 47 48 49 50 51 52 53 54 55 56
ATOM$RED        STATIC     ATOMS    COLORGROUP SYSTEM
3 42 44 27
