AV-unprocessed.smi:21|AV-procd|sdf|146|dock4
  -GOLD-   2262015363D 1   1.00000     0.00000
 Structure written by MMmdl.
 62 65  0  0  0  0  0  0  0  0  2 V2000
  146.5093  129.9053  152.3219 C   0  0  0  0  0  0  0  0  0  0  0  0
  145.2613  130.5775  152.2633 O   0  0  0  0  0  0  0  0  0  0  0  0
  145.2578  131.7037  151.3954 C   0  0  2  0  0  0  0  0  0  0  0  0
  146.2105  132.7538  151.9498 C   0  0  0  0  0  0  0  0  0  0  0  0
  145.3930  133.4668  153.0359 C   0  0  1  0  0  0  0  0  0  0  0  0
  145.8891  134.8981  153.3619 C   0  0  0  0  0  0  0  0  0  0  0  0
  146.9014  134.9158  154.4203 N   0  0  0  0  0  0  0  0  0  0  0  0
  148.1670  134.2357  154.1746 C   0  0  0  0  0  0  0  0  0  0  0  0
  146.8130  135.8383  155.4187 C   0  0  0  0  0  0  0  0  0  0  0  0
  146.3209  137.0676  155.1101 N   0  0  0  0  0  0  0  0  0  0  0  0
  146.2208  138.0186  156.0419 C   0  0  0  0  0  0  0  0  0  0  0  0
  146.5540  137.9587  157.3307 N   0  0  0  0  0  0  0  0  0  0  0  0
  147.0483  136.7311  157.6559 C   0  0  0  0  0  0  0  0  0  0  0  0
  147.2134  135.6235  156.7734 C   0  0  0  0  0  0  0  0  0  0  0  0
  147.7715  134.5574  157.4721 N   0  0  0  0  0  0  0  0  0  0  0  0
  147.9155  135.0021  158.6897 C   0  0  0  0  0  0  0  0  0  0  0  0
  147.4899  136.2940  158.8926 N   0  0  0  0  0  0  0  0  0  0  0  0
  147.5448  137.0390  160.1381 C   0  0  0  0  0  0  0  0  0  0  0  0
  146.5301  136.5773  161.2173 C   0  0  2  0  0  0  0  0  0  0  0  0
  147.0974  136.8977  162.6198 C   0  0  0  0  0  0  0  0  0  0  0  0
  147.6517  138.1964  162.6752 O   0  0  0  0  0  0  0  0  0  0  0  0
  146.0753  135.0944  161.0810 C   0  0  1  0  0  0  0  0  0  0  0  0
  147.1092  134.0704  161.5231 C   0  0  0  0  0  0  0  0  0  0  0  0
  146.2639  132.8194  161.7099 C   0  0  0  0  0  0  0  0  0  0  0  0
  145.0455  133.2935  162.2627 O   0  0  0  0  0  0  0  0  0  0  0  0
  144.8824  134.6752  161.9560 C   0  0  0  0  0  0  0  0  0  0  0  0
  143.9690  133.3526  152.6036 N   0  3  1  0  0  0  0  0  0  0  0  0
  143.2108  134.6078  152.3879 C   0  0  0  0  0  0  0  0  0  0  0  0
  143.9113  132.4326  151.4430 C   0  0  0  0  0  0  0  0  0  0  0  0
  145.5429  131.4139  150.3824 H   0  0  0  0  0  0  0  0  0  0  0  0
  145.4584  132.8677  153.9452 H   0  0  0  0  0  0  0  0  0  0  0  0
  146.4326  129.0555  152.9998 H   0  0  0  0  0  0  0  0  0  0  0  0
  147.2921  130.5640  152.7000 H   0  0  0  0  0  0  0  0  0  0  0  0
  146.8134  129.5269  151.3460 H   0  0  0  0  0  0  0  0  0  0  0  0
  147.1392  132.3246  152.3280 H   0  0  0  0  0  0  0  0  0  0  0  0
  146.4689  133.4567  151.1566 H   0  0  0  0  0  0  0  0  0  0  0  0
  146.2474  135.3962  152.4613 H   0  0  0  0  0  0  0  0  0  0  0  0
  145.0533  135.5012  153.7166 H   0  0  0  0  0  0  0  0  0  0  0  0
  148.6173  133.8987  155.1089 H   0  0  0  0  0  0  0  0  0  0  0  0
  148.8675  134.8957  153.6626 H   0  0  0  0  0  0  0  0  0  0  0  0
  148.0157  133.3561  153.5479 H   0  0  0  0  0  0  0  0  0  0  0  0
  145.8163  138.9621  155.7064 H   0  0  0  0  0  0  0  0  0  0  0  0
  148.3311  134.3921  159.4788 H   0  0  0  0  0  0  0  0  0  0  0  0
  148.5611  136.9788  160.5295 H   0  0  0  0  0  0  0  0  0  0  0  0
  147.3742  138.0877  159.8922 H   0  0  0  0  0  0  0  0  0  0  0  0
  145.6386  137.1966  161.1149 H   0  0  0  0  0  0  0  0  0  0  0  0
  146.3129  136.8230  163.3731 H   0  0  0  0  0  0  0  0  0  0  0  0
  147.8615  136.1768  162.9099 H   0  0  0  0  0  0  0  0  0  0  0  0
  148.1009  138.2971  163.5004 H   0  0  0  0  0  0  0  0  0  0  0  0
  145.8264  134.8896  160.0384 H   0  0  0  0  0  0  0  0  0  0  0  0
  147.9089  133.9241  160.7965 H   0  0  0  0  0  0  0  0  0  0  0  0
  147.5570  134.3628  162.4741 H   0  0  0  0  0  0  0  0  0  0  0  0
  146.0569  132.3505  160.7470 H   0  0  0  0  0  0  0  0  0  0  0  0
  146.7384  132.0805  162.3560 H   0  0  0  0  0  0  0  0  0  0  0  0
  144.8678  135.2278  162.8961 H   0  0  0  0  0  0  0  0  0  0  0  0
  143.9281  134.8340  161.4557 H   0  0  0  0  0  0  0  0  0  0  0  0
  143.6667  135.2205  151.6092 H   0  0  0  0  0  0  0  0  0  0  0  0
  143.1452  135.1932  153.3049 H   0  0  0  0  0  0  0  0  0  0  0  0
  142.1902  134.3787  152.0793 H   0  0  0  0  0  0  0  0  0  0  0  0
  143.7995  133.0133  150.5257 H   0  0  0  0  0  0  0  0  0  0  0  0
  143.0537  131.7636  151.5088 H   0  0  0  0  0  0  0  0  0  0  0  0
  143.5029  132.8741  153.3613 H   0  0  0  0  0  0  0  0  0  0  0  0
  1  2  1  0  0  0  0
  1 32  1  0  0  0  0
  1 33  1  0  0  0  0
  1 34  1  0  0  0  0
  2  3  1  0  0  0  0
  3 30  1  0  0  0  0
  3 29  1  0  0  0  0
  3  4  1  0  0  0  0
  4  5  1  0  0  0  0
  4 35  1  0  0  0  0
  4 36  1  0  0  0  0
  5 31  1  0  0  0  0
  5  6  1  0  0  0  0
  5 27  1  0  0  0  0
  6  7  1  0  0  0  0
  6 37  1  0  0  0  0
  6 38  1  0  0  0  0
  7  8  1  0  0  0  0
  7  9  1  0  0  0  0
  8 39  1  0  0  0  0
  8 40  1  0  0  0  0
  8 41  1  0  0  0  0
  9 14  1  0  0  0  0
  9 10  2  0  0  0  0
 10 11  1  0  0  0  0
 11 12  2  0  0  0  0
 11 42  1  0  0  0  0
 12 13  1  0  0  0  0
 13 17  1  0  0  0  0
 13 14  2  0  0  0  0
 14 15  1  0  0  0  0
 15 16  2  0  0  0  0
 16 17  1  0  0  0  0
 16 43  1  0  0  0  0
 17 18  1  0  0  0  0
 18 19  1  0  0  0  0
 18 44  1  0  0  0  0
 18 45  1  0  0  0  0
 19 20  1  0  0  0  0
 19 22  1  0  0  0  0
 19 46  1  0  0  0  0
 20 21  1  0  0  0  0
 20 47  1  0  0  0  0
 20 48  1  0  0  0  0
 21 49  1  0  0  0  0
 22 26  1  0  0  0  0
 22 23  1  0  0  0  0
 22 50  1  0  0  0  0
 23 24  1  0  0  0  0
 23 51  1  0  0  0  0
 23 52  1  0  0  0  0
 24 25  1  0  0  0  0
 24 53  1  0  0  0  0
 24 54  1  0  0  0  0
 25 26  1  0  0  0  0
 26 55  1  0  0  0  0
 26 56  1  0  0  0  0
 27 28  1  0  0  0  0
 27 29  1  0  0  0  0
 27 62  1  0  0  0  0
 28 57  1  0  0  0  0
 28 58  1  0  0  0  0
 28 59  1  0  0  0  0
 29 60  1  0  0  0  0
 29 61  1  0  0  0  0
M  CHG  1  27   1
M  END
> <s_m_source_file>
AV-unprocessed.smi

> <i_m_source_file_index>
21

> <i_lp_mmshare_version>
43012

> <i_f3d_flags>
0

> <s_epik_input>
W0NIM11PW0NASF0xW0NIMl1bQ0BIXShOKFtDSDNdKVtDSDJdMSlbQ0gyXU4oW0NIM10pYyhuW2NIXW4yKWMoYzIzKW5bY0hdbjNbQ0gyXVtDQEhdKFtDSDJdW09IXSlbQ0BASF00W0NIMl1bQ0gyXU9bQ0gyXTQ=

> <s_epik_cmdline>
J2VwaWtfcHl0aG9uJywgJy1waCcsICc3LjAnLCAnLXRuJywgJzgnLCAnLW1hJywgJzIwMCcsICctbWV0YWxfYmluZGluZycsICctaW1hZScsICc8aW5maWxlLm1hZT4nLCAnLW9tYWUnLCAnPG91dGZpbGUubWFlPic=

> <r_lp_tautomer_probability>
1

> <r_epik_Ionization_Penalty>
0.0157465

> <r_epik_Ionization_Penalty_Charging>
0.015354

> <r_epik_Ionization_Penalty_Neutral>
0.000392529

> <r_epik_State_Penalty>
0.0120612

> <r_epik_Charging_Adjusted_Penalty>
0.0274152

> <i_epik_Tot_Q>
1

> <i_epik_Tot_abs_Q>
1

> <r_epik_Metal_State_Penalty>
0.0121253

> <b_epik_Metal_Only>
0

> <s_lp_Force_Field>
OPLS_2005

> <r_lp_Energy>
61.785

> <b_lp_Chiralities_Consistent>
1

> <s_lp_Variant>
AV-unprocessed.smi:21-26

> <Gold.Version>
5.8.1

> <Gold.Id.Protein>
6NUR|6NUR_protein|mol2

> <Gold.PLP.Fitness>
42.9018

> <Gold.PLP.PLP>
-37.8766

> <Gold.PLP.part.hbond>
-1.9664

> <Gold.PLP.part.metal>
0.0000

> <Gold.PLP.part.buried>
-5.8488

> <Gold.PLP.part.nonpolar>
-30.0812

> <Gold.PLP.part.repulsive>
0.3053

> <Gold.PLP.ligand.clash>
0.0000

> <Gold.PLP.ligand.torsion>
1.8963

> <Gold.PLP.Chemscore.Hbond>
2.7040

> <Gold.PLP.Chemscore.CHOScore>
0.0000

> <Gold.PLP.Chemscore.Metal>
0.0000

> <Gold.Chemscore.Hbonds>
donor molecule, donor type, donor heavy atom, donor atom, acceptor molecule, acceptor atom, score
      L1  H    27    62       P1 10957  2.00
      P1  H  6931  6943       L1    21  0.09
      P1  H  6934  6947       L1    21  0.06

> <Gold.PLP.Chemscore.Internal.Correction>
0.7058

> <Gold.Rescore>
     Score         DG    S(hbond)    S(metal)    S(lipo)     H(rot)  DE(clash)    DE(int)     intcor
     11.56     -13.72       1.58        0.00      92.70       3.08       0.03       2.13       ----

> <Gold.Chemscore.Fitness>
11.5636

> <Gold.Chemscore.DG>
-13.7151

> <Gold.Chemscore.ZeroCoef>
-5.4800

> <Gold.Chemscore.Hbond>
1.5760

> <Gold.Chemscore.Metal>
0.0000

> <Gold.Chemscore.Lipo>
92.6958

> <Gold.Chemscore.Internal_Hbond>
0.0000

> <Gold.Chemscore.DEClash>
0.0261

> <Gold.Chemscore.DEInternal>
2.1254

> <Gold.Chemscore.Rot>
3.0758

> <Gold.Chemscore.Internal.Correction>
   9.000000E+99

> <Gold.Chemscore.Hbonds>
donor molecule, donor type, donor heavy atom, donor atom, acceptor molecule, acceptor atom, score
      L1  H    27    62       P1 10957  0.64
      P1  H  6934  6947       L1    21  0.05

> <Gold.Chemscore.Hbond.Weighted>
-5.2638

> <Gold.Chemscore.Metal.Weighted>
-0.0000

> <Gold.Chemscore.Lipo.Weighted>
-10.8454

> <Gold.Chemscore.Internal_Hbond.Weighted>
0.0000

> <Gold.Chemscore.DEClash.Weighted>
0.0261

> <Gold.Chemscore.DEInternal.Weighted>
2.1254

> <Gold.Chemscore.Rot.Weighted>
7.8741

> <Gold.Chemscore.Internal.Correction.Weighted>
   9.000000E+99

> <Gold.Protein.RotatedTorsions>
[ 6907 6896 6895 6894 ] final   32.38 input  -60.11 | X-H torsion
[ 7974 7965 7964 7962 ] final  -52.95 input  175.53 | X-H torsion
[ 8008 7997 7996 7995 ] final   99.05 input   59.86 | X-H torsion
[ 10167 10162 10161 10158 ] final -174.30 input  -65.29 | X-H torsion
[ 10718 10713 10712 10709 ] final  -48.85 input   66.30 | X-H torsion
[ 10763 10752 10751 10750 ] final  -68.01 input  -60.55 | X-H torsion
[ 11005 11000 10999 10996 ] final  -43.82 input  -57.11 | X-H torsion

> <Gold.Protein.ActiveResidues>
 VAL166  LYS551  ARG553  GLY616  TRP617  ASP618  TYR619  PRO620  LYS621  CYS622 
 ASP623  PHE694  ASN695  SER759  ASP760  ASP761  ALA762  ILE779  LEU786  VAL792 
 PHE793  MET794  SER795  GLU796  ALA797  LYS798  CYS799  TRP800  GLU811  SER814 

> <Gold.Protein.RotatedAtoms>
  152.0736  134.9517  160.0574 H   0  0  0  0  0  0  0  0  0  0  0  0  # atno 6907 bound_to 6896
  152.0834  133.4159  159.4519 H   0  0  0  0  0  0  0  0  0  0  0  0  # atno 6908 bound_to 6896
  150.6836  134.2876  159.4696 H   0  0  0  0  0  0  0  0  0  0  0  0  # atno 6909 bound_to 6896
  145.9023  140.7984  142.9737 H   0  0  0  0  0  0  0  0  0  0  0  0  # atno 7974 bound_to 7965
  156.1066  140.3234  155.8014 H   0  0  0  0  0  0  0  0  0  0  0  0  # atno 8008 bound_to 7997
  155.4745  140.0549  157.2992 H   0  0  0  0  0  0  0  0  0  0  0  0  # atno 8009 bound_to 7997
  154.4732  140.2020  155.9958 H   0  0  0  0  0  0  0  0  0  0  0  0  # atno 8010 bound_to 7997
  139.5641  144.1798  152.1285 H   0  0  0  0  0  0  0  0  0  0  0  0  # atno 10167 bound_to 10162
  156.1949  130.4154  149.9320 H   0  0  0  0  0  0  0  0  0  0  0  0  # atno 10718 bound_to 10713
  154.3828  135.6070  153.5800 H   0  0  0  0  0  0  0  0  0  0  0  0  # atno 10763 bound_to 10752
  152.9788  135.5865  154.4390 H   0  0  0  0  0  0  0  0  0  0  0  0  # atno 10764 bound_to 10752
  154.4162  135.2845  155.1983 H   0  0  0  0  0  0  0  0  0  0  0  0  # atno 10765 bound_to 10752
  141.0409  133.6780  156.2786 H   0  0  0  0  0  0  0  0  0  0  0  0  # atno 11005 bound_to 11000
  144.6736  140.1696  143.7415 LP  0  0  0  0  0  0  0  0  0  0  0  0  # atno 17320 bound_to 7965
  145.8776  139.2305  143.1624 LP  0  0  0  0  0  0  0  0  0  0  0  0  # atno 17321 bound_to 7965
  140.1317  144.5282  150.6798 LP  0  0  0  0  0  0  0  0  0  0  0  0  # atno 17342 bound_to 10162
  140.6923  143.2383  151.5096 LP  0  0  0  0  0  0  0  0  0  0  0  0  # atno 17343 bound_to 10162
  156.7049  130.8947  151.3603 LP  0  0  0  0  0  0  0  0  0  0  0  0  # atno 17370 bound_to 10713
  157.6951  130.9274  150.0622 LP  0  0  0  0  0  0  0  0  0  0  0  0  # atno 17371 bound_to 10713
  140.6236  134.5336  157.5551 LP  0  0  0  0  0  0  0  0  0  0  0  0  # atno 17394 bound_to 11000
  139.9275  134.8027  156.1026 LP  0  0  0  0  0  0  0  0  0  0  0  0  # atno 17395 bound_to 11000

$$$$
