AV-unprocessed.smi:2446|AV-procd|sdf|9644|dock5
  -GOLD-   2272013273D 1   1.00000     0.00000
 Structure written by MMmdl.
 39 40  0  0  0  0  0  0  0  0  1 V2000
  150.7305  137.3854  154.7445 C   0  0  0  0  0  0  0  0  0  0  0  0
  150.1549  138.7909  154.7191 C   0  0  0  0  0  0  0  0  0  0  0  0
  150.9256  139.8758  155.1892 C   0  0  0  0  0  0  0  0  0  0  0  0
  150.4873  141.1513  155.2043 N   0  0  0  0  0  0  0  0  0  0  0  0
  149.2414  141.3935  154.7481 C   0  0  0  0  0  0  0  0  0  0  0  0
  148.3869  140.3879  154.2555 C   0  0  0  0  0  0  0  0  0  0  0  0
  148.8534  139.0514  154.2253 C   0  0  0  0  0  0  0  0  0  0  0  0
  148.0707  137.9563  153.7634 N   0  0  0  0  0  0  0  0  0  0  0  0
  146.7535  137.7207  153.9231 C   0  0  0  0  0  0  0  0  0  0  0  0
  145.9807  138.4412  154.5507 O   0  0  0  0  0  0  0  0  0  0  0  0
  146.3169  136.6048  153.3107 N   0  0  0  0  0  0  0  0  0  0  0  0
  144.9595  136.0488  153.2745 C   0  0  1  0  0  0  0  0  0  0  0  0
  144.0837  136.8580  152.2993 C   0  0  0  0  0  0  0  0  0  0  0  0
  144.4783  136.6230  150.8314 C   0  0  0  0  0  0  0  0  0  0  0  0
  144.4620  135.1277  150.4791 C   0  0  0  0  0  0  0  0  0  0  0  0
  145.3714  134.3104  151.4204 C   0  0  2  0  0  0  0  0  0  0  0  0
  145.3748  132.8100  151.0620 C   0  0  0  0  0  0  0  0  0  0  0  0
  144.1414  132.3064  151.1143 F   0  0  0  0  0  0  0  0  0  0  0  0
  145.8600  132.6350  149.8329 F   0  0  0  0  0  0  0  0  0  0  0  0
  146.1499  132.1396  151.9145 F   0  0  0  0  0  0  0  0  0  0  0  0
  144.9648  134.5512  152.8919 C   0  0  0  0  0  0  0  0  0  0  0  0
  151.7258  137.3735  155.1895 H   0  0  0  0  0  0  0  0  0  0  0  0
  150.8084  136.9880  153.7322 H   0  0  0  0  0  0  0  0  0  0  0  0
  150.0929  136.7218  155.3293 H   0  0  0  0  0  0  0  0  0  0  0  0
  151.9249  139.7178  155.5676 H   0  0  0  0  0  0  0  0  0  0  0  0
  148.9111  142.4210  154.7826 H   0  0  0  0  0  0  0  0  0  0  0  0
  147.3965  140.6611  153.9264 H   0  0  0  0  0  0  0  0  0  0  0  0
  148.5584  137.3051  153.1661 H   0  0  0  0  0  0  0  0  0  0  0  0
  147.0149  136.0724  152.8117 H   0  0  0  0  0  0  0  0  0  0  0  0
  144.5176  136.1552  154.2666 H   0  0  0  0  0  0  0  0  0  0  0  0
  143.0401  136.5718  152.4357 H   0  0  0  0  0  0  0  0  0  0  0  0
  144.1383  137.9215  152.5351 H   0  0  0  0  0  0  0  0  0  0  0  0
  143.7965  137.1642  150.1749 H   0  0  0  0  0  0  0  0  0  0  0  0
  145.4718  137.0323  150.6447 H   0  0  0  0  0  0  0  0  0  0  0  0
  143.4392  134.7531  150.5354 H   0  0  0  0  0  0  0  0  0  0  0  0
  144.7799  134.9982  149.4442 H   0  0  0  0  0  0  0  0  0  0  0  0
  146.3922  134.6732  151.2914 H   0  0  0  0  0  0  0  0  0  0  0  0
  145.6255  133.9953  153.5569 H   0  0  0  0  0  0  0  0  0  0  0  0
  143.9670  134.1435  153.0583 H   0  0  0  0  0  0  0  0  0  0  0  0
  1  2  1  0  0  0  0
  1 22  1  0  0  0  0
  1 23  1  0  0  0  0
  1 24  1  0  0  0  0
  2  7  1  0  0  0  0
  2  3  2  0  0  0  0
  3  4  1  0  0  0  0
  3 25  1  0  0  0  0
  4  5  2  0  0  0  0
  5  6  1  0  0  0  0
  5 26  1  0  0  0  0
  6  7  2  0  0  0  0
  6 27  1  0  0  0  0
  7  8  1  0  0  0  0
  8  9  1  0  0  0  0
  8 28  1  0  0  0  0
  9 10  2  0  0  0  0
  9 11  1  0  0  0  0
 11 12  1  0  0  0  0
 11 29  1  0  0  0  0
 12 21  1  0  0  0  0
 12 13  1  0  0  0  0
 12 30  1  0  0  0  0
 13 14  1  0  0  0  0
 13 31  1  0  0  0  0
 13 32  1  0  0  0  0
 14 15  1  0  0  0  0
 14 33  1  0  0  0  0
 14 34  1  0  0  0  0
 15 16  1  0  0  0  0
 15 35  1  0  0  0  0
 15 36  1  0  0  0  0
 16 17  1  0  0  0  0
 16 21  1  0  0  0  0
 16 37  1  0  0  0  0
 17 18  1  0  0  0  0
 17 19  1  0  0  0  0
 17 20  1  0  0  0  0
 21 38  1  0  0  0  0
 21 39  1  0  0  0  0
M  END
> <s_m_source_file>
AV-unprocessed.smi

> <i_m_source_file_index>
2446

> <i_lp_mmshare_version>
43012

> <i_f3d_flags>
0

> <s_epik_input>
W0NIM11jMVtjSF1uW2NIXVtjSF1jMVtOSF1DKD1PKVtOSF1bQ0BASF0yW0NIMl1bQ0gyXVtDSDJdW0NAQEhdKEMoRikoRilGKVtDSDJdMg==

> <s_epik_cmdline>
J2VwaWtfcHl0aG9uJywgJy1waCcsICc3LjAnLCAnLXRuJywgJzgnLCAnLW1hJywgJzIwMCcsICctbWV0YWxfYmluZGluZycsICctaW1hZScsICc8aW5maWxlLm1hZT4nLCAnLW9tYWUnLCAnPG91dGZpbGUubWFlPic=

> <r_epik_Ionization_Penalty>
0.20168

> <r_epik_Ionization_Penalty_Charging>
0

> <r_epik_Ionization_Penalty_Neutral>
0.20168

> <r_epik_State_Penalty>
0.191514

> <r_epik_Charging_Adjusted_Penalty>
0.191514

> <i_epik_Tot_Q>
0

> <i_epik_Tot_abs_Q>
0

> <r_epik_Metal_State_Penalty>
0.142371

> <b_epik_Metal_Only>
0

> <s_lp_Force_Field>
OPLS_2005

> <r_lp_Energy>
25.5489

> <b_lp_Chiralities_Consistent>
1

> <s_lp_Variant>
AV-unprocessed.smi:2446-4

> <Gold.Version>
5.8.1

> <Gold.Id.Protein>
6NUR|6NUR_protein|mol2

> <Gold.PLP.Fitness>
42.0945

> <Gold.PLP.PLP>
-34.6985

> <Gold.PLP.part.hbond>
-3.0000

> <Gold.PLP.part.metal>
0.0000

> <Gold.PLP.part.buried>
4.0356

> <Gold.PLP.part.nonpolar>
-33.9964

> <Gold.PLP.part.repulsive>
0.2009

> <Gold.PLP.ligand.clash>
0.0000

> <Gold.PLP.ligand.torsion>
0.5606

> <Gold.PLP.Chemscore.Hbond>
1.8320

> <Gold.PLP.Chemscore.CHOScore>
1.0000

> <Gold.PLP.Chemscore.Metal>
0.0000

> <Gold.Chemscore.Hbonds>
donor molecule, donor type, donor heavy atom, donor atom, acceptor molecule, acceptor atom, score
      L1  H     8    28       P1  7948  1.00
      L1  H    11    29       P1  7948  0.59
      L1  C     5    26       P1  8028  1.00

> <Gold.PLP.Chemscore.Internal.Correction>
0.0212

> <Gold.Rescore>
     Score         DG    S(hbond)    S(metal)    S(lipo)     H(rot)  DE(clash)    DE(int)     intcor
     14.95     -17.01       1.63        0.00      73.87       1.00       1.54       0.52       ----

> <Gold.Chemscore.Fitness>
14.9506

> <Gold.Chemscore.DG>
-17.0070

> <Gold.Chemscore.ZeroCoef>
-5.4800

> <Gold.Chemscore.Hbond>
1.6300

> <Gold.Chemscore.Metal>
0.0000

> <Gold.Chemscore.Lipo>
73.8717

> <Gold.Chemscore.Internal_Hbond>
0.0000

> <Gold.Chemscore.DEClash>
1.5361

> <Gold.Chemscore.DEInternal>
0.5203

> <Gold.Chemscore.Rot>
1.0000

> <Gold.Chemscore.Internal.Correction>
   9.000000E+99

> <Gold.Chemscore.Hbonds>
donor molecule, donor type, donor heavy atom, donor atom, acceptor molecule, acceptor atom, score
      L1  H     8    28       P1  7948  1.00
      L1  H    11    29       P1  7948  0.59

> <Gold.Chemscore.Hbond.Weighted>
-5.4440

> <Gold.Chemscore.Metal.Weighted>
-0.0000

> <Gold.Chemscore.Lipo.Weighted>
-8.6430

> <Gold.Chemscore.Internal_Hbond.Weighted>
0.0000

> <Gold.Chemscore.DEClash.Weighted>
1.5361

> <Gold.Chemscore.DEInternal.Weighted>
0.5203

> <Gold.Chemscore.Rot.Weighted>
2.5600

> <Gold.Chemscore.Internal.Correction.Weighted>
   9.000000E+99

> <Gold.Protein.RotatedTorsions>
[ 6907 6896 6895 6894 ] final   13.23 input  -60.11 | X-H torsion
[ 7974 7965 7964 7962 ] final  -89.64 input  175.53 | X-H torsion
[ 8008 7997 7996 7995 ] final   77.82 input   59.86 | X-H torsion
[ 10167 10162 10161 10158 ] final  136.04 input  -65.29 | X-H torsion
[ 10718 10713 10712 10709 ] final   22.80 input   66.30 | X-H torsion
[ 10763 10752 10751 10750 ] final  -92.99 input  -60.55 | X-H torsion
[ 11005 11000 10999 10996 ] final  -97.13 input  -57.11 | X-H torsion

> <Gold.Protein.ActiveResidues>
 VAL166  LYS551  ARG553  GLY616  TRP617  ASP618  TYR619  PRO620  LYS621  CYS622 
 ASP623  PHE694  ASN695  SER759  ASP760  ASP761  ALA762  ILE779  LEU786  VAL792 
 PHE793  MET794  SER795  GLU796  ALA797  LYS798  CYS799  TRP800  GLU811  SER814 

> <Gold.Protein.RotatedAtoms>
  151.7829  135.0756  160.0376 H   0  0  0  0  0  0  0  0  0  0  0  0  # atno 6907 bound_to 6896
  152.3210  133.5849  159.5753 H   0  0  0  0  0  0  0  0  0  0  0  0  # atno 6908 bound_to 6896
  150.7370  133.9927  159.3654 H   0  0  0  0  0  0  0  0  0  0  0  0  # atno 6909 bound_to 6896
  145.4371  140.9558  143.2095 H   0  0  0  0  0  0  0  0  0  0  0  0  # atno 7974 bound_to 7965
  155.8470  140.3460  155.5668 H   0  0  0  0  0  0  0  0  0  0  0  0  # atno 8008 bound_to 7997
  155.8079  140.0894  157.1940 H   0  0  0  0  0  0  0  0  0  0  0  0  # atno 8009 bound_to 7997
  154.4006  140.1453  156.3339 H   0  0  0  0  0  0  0  0  0  0  0  0  # atno 8010 bound_to 7997
  139.5194  144.6485  151.5370 H   0  0  0  0  0  0  0  0  0  0  0  0  # atno 10167 bound_to 10162
  157.1574  130.6701  149.6032 H   0  0  0  0  0  0  0  0  0  0  0  0  # atno 10718 bound_to 10713
  154.6915  135.5211  153.8399 H   0  0  0  0  0  0  0  0  0  0  0  0  # atno 10763 bound_to 10752
  153.0635  135.6577  154.0416 H   0  0  0  0  0  0  0  0  0  0  0  0  # atno 10764 bound_to 10752
  154.0289  135.2987  155.3351 H   0  0  0  0  0  0  0  0  0  0  0  0  # atno 10765 bound_to 10752
  141.1389  133.8148  157.0664 H   0  0  0  0  0  0  0  0  0  0  0  0  # atno 11005 bound_to 11000
  144.8145  139.5902  143.7014 LP  0  0  0  0  0  0  0  0  0  0  0  0  # atno 17320 bound_to 7965
  146.2576  139.6337  142.9384 LP  0  0  0  0  0  0  0  0  0  0  0  0  # atno 17321 bound_to 7965
  140.6280  143.9131  150.6581 LP  0  0  0  0  0  0  0  0  0  0  0  0  # atno 17342 bound_to 10162
  140.2426  143.3652  152.1474 LP  0  0  0  0  0  0  0  0  0  0  0  0  # atno 17343 bound_to 10162
  155.9760  130.4723  150.6496 LP  0  0  0  0  0  0  0  0  0  0  0  0  # atno 17370 bound_to 10713
  157.4165  131.0831  151.1172 LP  0  0  0  0  0  0  0  0  0  0  0  0  # atno 17371 bound_to 10713
  140.0539  134.9791  157.1185 LP  0  0  0  0  0  0  0  0  0  0  0  0  # atno 17394 bound_to 11000
  140.3949  134.2145  155.7165 LP  0  0  0  0  0  0  0  0  0  0  0  0  # atno 17395 bound_to 11000

$$$$
