AV-unprocessed.smi:2268|AV-procd|sdf|9150|dock4
  -GOLD-   2272012353D 1   1.00000     0.00000
 Structure written by MMmdl.
 37 38  0  0  0  0  0  0  0  0  1 V2000
  152.9493  140.3478  159.4533 C   0  0  0  0  0  0  0  0  0  0  0  0
  152.4538  141.5840  158.7228 C   0  0  0  0  0  0  0  0  0  0  0  0
  152.6733  142.8478  159.3129 C   0  0  0  0  0  0  0  0  0  0  0  0
  152.2205  144.0211  158.6829 C   0  0  0  0  0  0  0  0  0  0  0  0
  152.4369  145.2272  159.2592 F   0  0  0  0  0  0  0  0  0  0  0  0
  151.5396  143.9388  157.4562 C   0  0  0  0  0  0  0  0  0  0  0  0
  151.3174  142.6840  156.8600 C   0  0  0  0  0  0  0  0  0  0  0  0
  151.7758  141.4965  157.4771 C   0  0  0  0  0  0  0  0  0  0  0  0
  151.5091  140.1540  156.7957 C   0  0  2  0  0  0  0  0  0  0  0  0
  152.7092  139.4361  156.5794 O   0  0  0  0  0  0  0  0  0  0  0  0
  150.8049  140.3582  155.4354 C   0  0  0  0  0  0  0  0  0  0  0  0
  149.4031  140.7875  155.5842 N   0  0  0  0  0  0  0  0  0  0  0  0
  148.7441  140.3646  156.7506 C   0  0  0  0  0  0  0  0  0  0  0  0
  147.5142  140.6835  156.9904 N   0  0  0  0  0  0  0  0  0  0  0  0
  146.8079  141.4717  156.0776 C   0  0  0  0  0  0  0  0  0  0  0  0
  145.3730  141.7907  156.4589 C   0  0  0  0  0  0  0  0  0  0  0  0
  147.3881  141.9152  154.9292 C   0  0  0  0  0  0  0  0  0  0  0  0
  146.6691  142.7776  153.8993 C   0  0  0  0  0  0  0  0  0  0  0  0
  148.7868  141.5586  154.6420 C   0  0  0  0  0  0  0  0  0  0  0  0
  149.3734  141.9281  153.6234 O   0  0  0  0  0  0  0  0  0  0  0  0
  153.3733  140.6022  160.4251 H   0  0  0  0  0  0  0  0  0  0  0  0
  153.7239  139.8438  158.8749 H   0  0  0  0  0  0  0  0  0  0  0  0
  152.1292  139.6511  159.6247 H   0  0  0  0  0  0  0  0  0  0  0  0
  153.1902  142.9243  160.2583 H   0  0  0  0  0  0  0  0  0  0  0  0
  151.1863  144.8374  156.9724 H   0  0  0  0  0  0  0  0  0  0  0  0
  150.7868  142.6390  155.9202 H   0  0  0  0  0  0  0  0  0  0  0  0
  150.8960  139.5283  157.4421 H   0  0  0  0  0  0  0  0  0  0  0  0
  152.5856  138.8647  155.8368 H   0  0  0  0  0  0  0  0  0  0  0  0
  151.3372  141.1256  154.8698 H   0  0  0  0  0  0  0  0  0  0  0  0
  150.8971  139.4597  154.8215 H   0  0  0  0  0  0  0  0  0  0  0  0
  149.3407  139.7578  157.4339 H   0  0  0  0  0  0  0  0  0  0  0  0
  144.6828  141.4028  155.7094 H   0  0  0  0  0  0  0  0  0  0  0  0
  145.2304  142.8685  156.5408 H   0  0  0  0  0  0  0  0  0  0  0  0
  145.1088  141.3459  157.4189 H   0  0  0  0  0  0  0  0  0  0  0  0
  147.1907  143.7269  153.7743 H   0  0  0  0  0  0  0  0  0  0  0  0
  145.6392  143.0028  154.1711 H   0  0  0  0  0  0  0  0  0  0  0  0
  146.6502  142.2723  152.9330 H   0  0  0  0  0  0  0  0  0  0  0  0
  1  2  1  0  0  0  0
  1 21  1  0  0  0  0
  1 22  1  0  0  0  0
  1 23  1  0  0  0  0
  2  8  1  0  0  0  0
  2  3  2  0  0  0  0
  3  4  1  0  0  0  0
  3 24  1  0  0  0  0
  4  5  1  0  0  0  0
  4  6  2  0  0  0  0
  6  7  1  0  0  0  0
  6 25  1  0  0  0  0
  7  8  2  0  0  0  0
  7 26  1  0  0  0  0
  8  9  1  0  0  0  0
  9 10  1  0  0  0  0
  9 11  1  0  0  0  0
  9 27  1  0  0  0  0
 10 28  1  0  0  0  0
 11 12  1  0  0  0  0
 11 29  1  0  0  0  0
 11 30  1  0  0  0  0
 12 19  1  0  0  0  0
 12 13  1  0  0  0  0
 13 14  2  0  0  0  0
 13 31  1  0  0  0  0
 14 15  1  0  0  0  0
 15 16  1  0  0  0  0
 15 17  2  0  0  0  0
 16 32  1  0  0  0  0
 16 33  1  0  0  0  0
 16 34  1  0  0  0  0
 17 18  1  0  0  0  0
 17 19  1  0  0  0  0
 18 35  1  0  0  0  0
 18 36  1  0  0  0  0
 18 37  1  0  0  0  0
 19 20  2  0  0  0  0
M  END
> <s_m_source_file>
AV-unprocessed.smi

> <i_m_source_file_index>
2268

> <i_lp_mmshare_version>
43012

> <i_f3d_flags>
0

> <s_epik_input>
W0NIM11jMVtjSF1jKEYpW2NIXVtjSF1jMVtDQEhdKFtPSF0pW0NIMl1uMltjSF1uYyhbQ0gzXSljKFtDSDNdKWMyPU8=

> <s_epik_cmdline>
J2VwaWtfcHl0aG9uJywgJy1waCcsICc3LjAnLCAnLXRuJywgJzgnLCAnLW1hJywgJzIwMCcsICctbWV0YWxfYmluZGluZycsICctaW1hZScsICc8aW5maWxlLm1hZT4nLCAnLW9tYWUnLCAnPG91dGZpbGUubWFlPic=

> <r_lp_tautomer_probability>
1

> <r_epik_Ionization_Penalty>
5.07449e-05

> <r_epik_Ionization_Penalty_Charging>
7.56727e-08

> <r_epik_Ionization_Penalty_Neutral>
5.06692e-05

> <r_epik_State_Penalty>
-0

> <r_epik_Charging_Adjusted_Penalty>
7.56727e-08

> <i_epik_Tot_Q>
0

> <i_epik_Tot_abs_Q>
0

> <r_epik_Metal_State_Penalty>
-0

> <b_epik_Metal_Only>
0

> <s_lp_Force_Field>
OPLS_2005

> <r_lp_Energy>
19.9067

> <b_lp_Chiralities_Consistent>
1

> <s_lp_Variant>
AV-unprocessed.smi:2268-1

> <Gold.Version>
5.8.1

> <Gold.Id.Protein>
6NUR|6NUR_protein|mol2

> <Gold.PLP.Fitness>
45.8978

> <Gold.PLP.PLP>
-41.9300

> <Gold.PLP.part.hbond>
-2.9720

> <Gold.PLP.part.metal>
0.0000

> <Gold.PLP.part.buried>
-4.1532

> <Gold.PLP.part.nonpolar>
-34.8834

> <Gold.PLP.part.repulsive>
0.2241

> <Gold.PLP.ligand.clash>
0.0000

> <Gold.PLP.ligand.torsion>
0.4799

> <Gold.PLP.Chemscore.Hbond>
1.6400

> <Gold.PLP.Chemscore.CHOScore>
0.0000

> <Gold.PLP.Chemscore.Metal>
0.0000

> <Gold.Chemscore.Hbonds>
donor molecule, donor type, donor heavy atom, donor atom, acceptor molecule, acceptor atom, score
      P1  H  7997  8010       L1    10  1.00
      P1  H  8011  8017       L1    20  0.42

> <Gold.PLP.Chemscore.Internal.Correction>
0.0076

> <Gold.Rescore>
     Score         DG    S(hbond)    S(metal)    S(lipo)     H(rot)  DE(clash)    DE(int)     intcor
     16.02     -16.80       1.70        0.00      91.64       1.98       0.26       0.52       ----

> <Gold.Chemscore.Fitness>
16.0193

> <Gold.Chemscore.DG>
-16.8007

> <Gold.Chemscore.ZeroCoef>
-5.4800

> <Gold.Chemscore.Hbond>
1.6989

> <Gold.Chemscore.Metal>
0.0000

> <Gold.Chemscore.Lipo>
91.6354

> <Gold.Chemscore.Internal_Hbond>
0.0000

> <Gold.Chemscore.DEClash>
0.2604

> <Gold.Chemscore.DEInternal>
0.5211

> <Gold.Chemscore.Rot>
1.9823

> <Gold.Chemscore.Internal.Correction>
   9.000000E+99

> <Gold.Chemscore.Hbonds>
donor molecule, donor type, donor heavy atom, donor atom, acceptor molecule, acceptor atom, score
      P1  H  7997  8010       L1    10  0.60
      P1  H  8011  8017       L1    20  0.41

> <Gold.Chemscore.Hbond.Weighted>
-5.6742

> <Gold.Chemscore.Metal.Weighted>
-0.0000

> <Gold.Chemscore.Lipo.Weighted>
-10.7213

> <Gold.Chemscore.Internal_Hbond.Weighted>
0.0000

> <Gold.Chemscore.DEClash.Weighted>
0.2604

> <Gold.Chemscore.DEInternal.Weighted>
0.5211

> <Gold.Chemscore.Rot.Weighted>
5.0748

> <Gold.Chemscore.Internal.Correction.Weighted>
   9.000000E+99

> <Gold.Protein.RotatedTorsions>
[ 6907 6896 6895 6894 ] final  109.73 input  -60.11 | X-H torsion
[ 7974 7965 7964 7962 ] final -127.10 input  175.53 | X-H torsion
[ 8008 7997 7996 7995 ] final   70.26 input   59.86 | X-H torsion
[ 10167 10162 10161 10158 ] final -179.04 input  -65.29 | X-H torsion
[ 10718 10713 10712 10709 ] final  133.84 input   66.30 | X-H torsion
[ 10763 10752 10751 10750 ] final  159.50 input  -60.55 | X-H torsion
[ 11005 11000 10999 10996 ] final -167.39 input  -57.11 | X-H torsion

> <Gold.Protein.ActiveResidues>
 VAL166  LYS551  ARG553  GLY616  TRP617  ASP618  TYR619  PRO620  LYS621  CYS622 
 ASP623  PHE694  ASN695  SER759  ASP760  ASP761  ALA762  ILE779  LEU786  VAL792 
 PHE793  MET794  SER795  GLU796  ALA797  LYS798  CYS799  TRP800  GLU811  SER814 

> <Gold.Protein.RotatedAtoms>
  152.5053  133.8902  159.7389 H   0  0  0  0  0  0  0  0  0  0  0  0  # atno 6907 bound_to 6896
  150.9343  133.6722  159.2811 H   0  0  0  0  0  0  0  0  0  0  0  0  # atno 6908 bound_to 6896
  151.4055  135.0982  159.9622 H   0  0  0  0  0  0  0  0  0  0  0  0  # atno 6909 bound_to 6896
  144.9805  140.7635  143.4615 H   0  0  0  0  0  0  0  0  0  0  0  0  # atno 7974 bound_to 7965
  155.7361  140.3491  155.5082 H   0  0  0  0  0  0  0  0  0  0  0  0  # atno 8008 bound_to 7997
  155.9137  140.1055  157.1281 H   0  0  0  0  0  0  0  0  0  0  0  0  # atno 8009 bound_to 7997
  154.4059  140.1263  156.4577 H   0  0  0  0  0  0  0  0  0  0  0  0  # atno 8010 bound_to 7997
  139.5404  144.2378  152.0884 H   0  0  0  0  0  0  0  0  0  0  0  0  # atno 10167 bound_to 10162
  157.4733  131.1081  150.9775 H   0  0  0  0  0  0  0  0  0  0  0  0  # atno 10718 bound_to 10713
  154.2328  135.2777  155.2883 H   0  0  0  0  0  0  0  0  0  0  0  0  # atno 10763 bound_to 10752
  154.5610  135.5647  153.7010 H   0  0  0  0  0  0  0  0  0  0  0  0  # atno 10764 bound_to 10752
  153.0016  135.6298  154.2470 H   0  0  0  0  0  0  0  0  0  0  0  0  # atno 10765 bound_to 10752
  140.5538  134.5402  157.5128 H   0  0  0  0  0  0  0  0  0  0  0  0  # atno 11005 bound_to 11000
  145.2428  139.2065  143.4983 LP  0  0  0  0  0  0  0  0  0  0  0  0  # atno 17320 bound_to 7965
  146.3407  140.2327  142.8593 LP  0  0  0  0  0  0  0  0  0  0  0  0  # atno 17321 bound_to 7965
  140.1855  144.4802  150.6506 LP  0  0  0  0  0  0  0  0  0  0  0  0  # atno 17342 bound_to 10162
  140.6632  143.2259  151.5806 LP  0  0  0  0  0  0  0  0  0  0  0  0  # atno 17343 bound_to 10162
  157.0533  130.5796  149.5374 LP  0  0  0  0  0  0  0  0  0  0  0  0  # atno 17370 bound_to 10713
  156.0084  130.5173  150.7908 LP  0  0  0  0  0  0  0  0  0  0  0  0  # atno 17371 bound_to 10713
  139.9442  134.7732  156.0603 LP  0  0  0  0  0  0  0  0  0  0  0  0  # atno 17394 bound_to 11000
  141.1156  133.6629  156.3085 LP  0  0  0  0  0  0  0  0  0  0  0  0  # atno 17395 bound_to 11000

$$$$
