AV-unprocessed.smi:34|AV-procd|sdf|217|dock8
  -GOLD-   2262015533D 1   1.00000     0.00000
 Structure written by MMmdl.
 55 59  0  0  0  0  0  0  0  0  1 V2000
  152.7681  139.9968  157.7817 O   0  0  0  0  0  0  0  0  0  0  0  0
  151.9479  140.8948  157.5894 C   0  0  0  0  0  0  0  0  0  0  0  0
  150.8962  140.7801  156.5940 N   0  0  0  0  0  0  0  0  0  0  0  0
  150.6024  139.7183  155.8067 C   0  0  0  0  0  0  0  0  0  0  0  0
  151.4348  139.2866  154.8230 N   0  0  0  0  0  0  0  0  0  0  0  0
  151.0983  138.2356  154.0702 C   0  0  0  0  0  0  0  0  0  0  0  0
  149.9958  137.4864  154.1310 N   0  0  0  0  0  0  0  0  0  0  0  0
  149.1547  137.9103  155.1170 C   0  0  0  0  0  0  0  0  0  0  0  0
  149.3865  139.0093  155.9909 C   0  0  0  0  0  0  0  0  0  0  0  0
  148.3188  139.1456  156.8680 N   0  0  0  0  0  0  0  0  0  0  0  0
  147.5067  138.1807  156.5290 C   0  0  0  0  0  0  0  0  0  0  0  0
  147.9274  137.3933  155.4800 N   0  0  0  0  0  0  0  0  0  0  0  0
  147.2110  136.2267  154.8806 C   0  0  2  0  0  0  0  0  0  0  0  0
  145.9659  136.1084  155.5032 O   0  0  0  0  0  0  0  0  0  0  0  0
  145.6714  134.7359  155.7761 C   0  0  2  0  0  0  0  0  0  0  0  0
  145.5958  134.5245  157.2949 C   0  0  0  0  0  0  0  0  0  0  0  0
  144.7580  133.4154  157.5778 O   0  0  0  0  0  0  0  0  0  0  0  0
  143.6564  133.5796  158.3368 C   0  0  0  0  0  0  0  0  0  0  0  0
  143.3099  134.6636  158.8105 O   0  0  0  0  0  0  0  0  0  0  0  0
  142.9007  132.3108  158.5461 C   0  0  0  0  0  0  0  0  0  0  0  0
  141.6730  132.3434  159.2481 C   0  0  0  0  0  0  0  0  0  0  0  0
  140.9379  131.1612  159.4632 C   0  0  0  0  0  0  0  0  0  0  0  0
  141.4219  129.9319  158.9793 C   0  0  0  0  0  0  0  0  0  0  0  0
  142.6419  129.8860  158.2798 C   0  0  0  0  0  0  0  0  0  0  0  0
  143.3783  131.0672  158.0635 C   0  0  0  0  0  0  0  0  0  0  0  0
  146.7960  133.9373  155.1101 C   0  0  1  0  0  0  0  0  0  0  0  0
  146.4193  133.6767  153.8548 F   0  0  0  0  0  0  0  0  0  0  0  0
  147.9568  134.9174  155.1348 C   0  0  1  0  0  0  0  0  0  0  0  0
  148.9033  134.5957  154.1354 O   0  0  0  0  0  0  0  0  0  0  0  0
  152.0299  142.2061  158.3160 C   0  0  0  0  0  0  0  0  0  0  0  0
  151.5436  143.3839  157.7048 C   0  0  0  0  0  0  0  0  0  0  0  0
  151.6330  144.6220  158.3700 C   0  0  0  0  0  0  0  0  0  0  0  0
  152.2148  144.6945  159.6497 C   0  0  0  0  0  0  0  0  0  0  0  0
  152.7114  143.5283  160.2618 C   0  0  0  0  0  0  0  0  0  0  0  0
  152.6236  142.2896  159.5971 C   0  0  0  0  0  0  0  0  0  0  0  0
  150.3006  141.5881  156.4864 H   0  0  0  0  0  0  0  0  0  0  0  0
  151.8132  137.9558  153.3105 H   0  0  0  0  0  0  0  0  0  0  0  0
  146.5675  138.0182  157.0375 H   0  0  0  0  0  0  0  0  0  0  0  0
  147.0812  136.4619  153.8230 H   0  0  0  0  0  0  0  0  0  0  0  0
  144.7036  134.4930  155.3346 H   0  0  0  0  0  0  0  0  0  0  0  0
  146.5893  134.3583  157.7117 H   0  0  0  0  0  0  0  0  0  0  0  0
  145.1813  135.4132  157.7728 H   0  0  0  0  0  0  0  0  0  0  0  0
  141.2816  133.2755  159.6294 H   0  0  0  0  0  0  0  0  0  0  0  0
  140.0018  131.1984  160.0007 H   0  0  0  0  0  0  0  0  0  0  0  0
  140.8580  129.0255  159.1443 H   0  0  0  0  0  0  0  0  0  0  0  0
  143.0149  128.9429  157.9083 H   0  0  0  0  0  0  0  0  0  0  0  0
  144.3111  130.9962  157.5232 H   0  0  0  0  0  0  0  0  0  0  0  0
  147.0130  132.9846  155.5945 H   0  0  0  0  0  0  0  0  0  0  0  0
  148.4233  134.9302  156.1204 H   0  0  0  0  0  0  0  0  0  0  0  0
  148.6575  135.0381  153.3372 H   0  0  0  0  0  0  0  0  0  0  0  0
  151.0949  143.3457  156.7224 H   0  0  0  0  0  0  0  0  0  0  0  0
  151.2553  145.5167  157.8974 H   0  0  0  0  0  0  0  0  0  0  0  0
  152.2833  145.6441  160.1598 H   0  0  0  0  0  0  0  0  0  0  0  0
  153.1639  143.5846  161.2410 H   0  0  0  0  0  0  0  0  0  0  0  0
  153.0205  141.4092  160.0812 H   0  0  0  0  0  0  0  0  0  0  0  0
  1  2  2  0  0  0  0
  2  3  1  0  0  0  0
  2 30  1  0  0  0  0
  3  4  1  0  0  0  0
  3 36  1  0  0  0  0
  4  9  1  0  0  0  0
  4  5  2  0  0  0  0
  5  6  1  0  0  0  0
  6  7  2  0  0  0  0
  6 37  1  0  0  0  0
  7  8  1  0  0  0  0
  8 12  1  0  0  0  0
  8  9  2  0  0  0  0
  9 10  1  0  0  0  0
 10 11  2  0  0  0  0
 11 12  1  0  0  0  0
 11 38  1  0  0  0  0
 12 13  1  0  0  0  0
 13 28  1  0  0  0  0
 13 14  1  0  0  0  0
 13 39  1  0  0  0  0
 14 15  1  0  0  0  0
 15 16  1  0  0  0  0
 15 26  1  0  0  0  0
 15 40  1  0  0  0  0
 16 17  1  0  0  0  0
 16 41  1  0  0  0  0
 16 42  1  0  0  0  0
 17 18  1  0  0  0  0
 18 19  2  0  0  0  0
 18 20  1  0  0  0  0
 20 25  1  0  0  0  0
 20 21  2  0  0  0  0
 21 22  1  0  0  0  0
 21 43  1  0  0  0  0
 22 23  2  0  0  0  0
 22 44  1  0  0  0  0
 23 24  1  0  0  0  0
 23 45  1  0  0  0  0
 24 25  2  0  0  0  0
 24 46  1  0  0  0  0
 25 47  1  0  0  0  0
 26 27  1  0  0  0  0
 26 28  1  0  0  0  0
 26 48  1  0  0  0  0
 28 29  1  0  0  0  0
 28 49  1  0  0  0  0
 29 50  1  0  0  0  0
 30 35  1  0  0  0  0
 30 31  2  0  0  0  0
 31 32  1  0  0  0  0
 31 51  1  0  0  0  0
 32 33  2  0  0  0  0
 32 52  1  0  0  0  0
 33 34  1  0  0  0  0
 33 53  1  0  0  0  0
 34 35  2  0  0  0  0
 34 54  1  0  0  0  0
 35 55  1  0  0  0  0
M  END
> <s_m_source_file>
AV-unprocessed.smi

> <i_m_source_file_index>
34

> <i_lp_mmshare_version>
43012

> <i_f3d_flags>
0

> <s_epik_input>
W2NIXTFbY0hdW2NIXVtjSF1bY0hdYzFDKD1PKVtOSF1jKG5bY0hdbjIpYyhjMjMpbltjSF1uM1tDQEBIXTRPW0NASF0oW0NAQEhdKEYpW0NASF00W09IXSlbQ0gyXU9DKD1PKWM1W2NIXVtjSF1bY0hdW2NIXVtjSF01

> <s_epik_cmdline>
J2VwaWtfcHl0aG9uJywgJy1waCcsICc3LjAnLCAnLXRuJywgJzgnLCAnLW1hJywgJzIwMCcsICctbWV0YWxfYmluZGluZycsICctaW1hZScsICc8aW5maWxlLm1hZT4nLCAnLW9tYWUnLCAnPG91dGZpbGUubWFlPic=

> <r_lp_tautomer_probability>
1

> <r_epik_Ionization_Penalty>
0.00257489

> <r_epik_Ionization_Penalty_Charging>
0

> <r_epik_Ionization_Penalty_Neutral>
0.00257489

> <r_epik_State_Penalty>
0.00519398

> <r_epik_Charging_Adjusted_Penalty>
0.00519398

> <i_epik_Tot_Q>
0

> <i_epik_Tot_abs_Q>
0

> <r_epik_Metal_State_Penalty>
0.335891

> <b_epik_Metal_Only>
0

> <s_epik_Chemistry_Notes>
This compound has an ester and may undergo hydrolysis at high or low pH. This compound contains an acetal/aminal-like group ( X-CH(R)-Y where X, Y are N, S, or O) that may be acid/base labile, releasing an aldehyde.

> <s_lp_Force_Field>
OPLS_2005

> <r_lp_Energy>
51.1648

> <b_lp_Chiralities_Consistent>
1

> <s_lp_Variant>
AV-unprocessed.smi:34-3

> <Gold.Version>
5.8.1

> <Gold.Id.Protein>
6NUR|6NUR_protein|mol2

> <Gold.PLP.Fitness>
52.1737

> <Gold.PLP.PLP>
-45.4109

> <Gold.PLP.part.hbond>
-3.0000

> <Gold.PLP.part.metal>
0.0000

> <Gold.PLP.part.buried>
-9.1225

> <Gold.PLP.part.nonpolar>
-35.6365

> <Gold.PLP.part.repulsive>
2.7690

> <Gold.PLP.ligand.clash>
0.0000

> <Gold.PLP.ligand.torsion>
1.7135

> <Gold.PLP.Chemscore.Hbond>
2.9913

> <Gold.PLP.Chemscore.CHOScore>
0.3292

> <Gold.PLP.Chemscore.Metal>
0.0000

> <Gold.Chemscore.Hbonds>
donor molecule, donor type, donor heavy atom, donor atom, acceptor molecule, acceptor atom, score
      L1  H    29    50       P1  7948  1.00
      P1  H  7989  7998       L1     5  0.91
      P1  H  7997  8010       L1     1  1.00
      L1  C     6    37       P1  7949  0.36

> <Gold.PLP.Chemscore.Internal.Correction>
0.2285

> <Gold.Rescore>
     Score         DG    S(hbond)    S(metal)    S(lipo)     H(rot)  DE(clash)    DE(int)     intcor
     15.71     -18.82       2.43        0.00     104.22       2.72       1.29       1.82       ----

> <Gold.Chemscore.Fitness>
15.7143

> <Gold.Chemscore.DG>
-18.8197

> <Gold.Chemscore.ZeroCoef>
-5.4800

> <Gold.Chemscore.Hbond>
2.4292

> <Gold.Chemscore.Metal>
0.0000

> <Gold.Chemscore.Lipo>
104.2168

> <Gold.Chemscore.Internal_Hbond>
0.0000

> <Gold.Chemscore.DEClash>
1.2878

> <Gold.Chemscore.DEInternal>
1.8176

> <Gold.Chemscore.Rot>
2.7215

> <Gold.Chemscore.Internal.Correction>
   9.000000E+99

> <Gold.Chemscore.Hbonds>
donor molecule, donor type, donor heavy atom, donor atom, acceptor molecule, acceptor atom, score
      L1  H    29    50       P1  7948  0.68
      P1  H  7989  7998       L1     5  0.26
      P1  H  7997  8010       L1     1  0.89

> <Gold.Chemscore.Hbond.Weighted>
-8.1134

> <Gold.Chemscore.Metal.Weighted>
-0.0000

> <Gold.Chemscore.Lipo.Weighted>
-12.1934

> <Gold.Chemscore.Internal_Hbond.Weighted>
0.0000

> <Gold.Chemscore.DEClash.Weighted>
1.2878

> <Gold.Chemscore.DEInternal.Weighted>
1.8176

> <Gold.Chemscore.Rot.Weighted>
6.9670

> <Gold.Chemscore.Internal.Correction.Weighted>
   9.000000E+99

> <Gold.Protein.RotatedTorsions>
[ 6907 6896 6895 6894 ] final   18.98 input  -60.11 | X-H torsion
[ 7974 7965 7964 7962 ] final  -64.39 input  175.53 | X-H torsion
[ 8008 7997 7996 7995 ] final   54.93 input   59.86 | X-H torsion
[ 10167 10162 10161 10158 ] final  148.79 input  -65.29 | X-H torsion
[ 10718 10713 10712 10709 ] final    0.16 input   66.30 | X-H torsion
[ 10763 10752 10751 10750 ] final   91.03 input  -60.55 | X-H torsion
[ 11005 11000 10999 10996 ] final  173.11 input  -57.11 | X-H torsion

> <Gold.Protein.ActiveResidues>
 VAL166  LYS551  ARG553  GLY616  TRP617  ASP618  TYR619  PRO620  LYS621  CYS622 
 ASP623  PHE694  ASN695  SER759  ASP760  ASP761  ALA762  ILE779  LEU786  VAL792 
 PHE793  MET794  SER795  GLU796  ALA797  LYS798  CYS799  TRP800  GLU811  SER814 

> <Gold.Protein.RotatedAtoms>
  151.8738  135.0479  160.0481 H   0  0  0  0  0  0  0  0  0  0  0  0  # atno 6907 bound_to 6896
  152.2567  133.5257  159.5366 H   0  0  0  0  0  0  0  0  0  0  0  0  # atno 6908 bound_to 6896
  150.7102  134.0802  159.3937 H   0  0  0  0  0  0  0  0  0  0  0  0  # atno 6909 bound_to 6896
  145.7672  140.8831  143.0399 H   0  0  0  0  0  0  0  0  0  0  0  0  # atno 7974 bound_to 7965
  155.4927  140.3472  155.4357 H   0  0  0  0  0  0  0  0  0  0  0  0  # atno 8008 bound_to 7997
  156.0966  140.1424  156.9551 H   0  0  0  0  0  0  0  0  0  0  0  0  # atno 8009 bound_to 7997
  154.4667  140.0915  156.7017 H   0  0  0  0  0  0  0  0  0  0  0  0  # atno 8010 bound_to 7997
  139.4870  144.5652  151.7158 H   0  0  0  0  0  0  0  0  0  0  0  0  # atno 10167 bound_to 10162
  156.8293  130.5483  149.5688 H   0  0  0  0  0  0  0  0  0  0  0  0  # atno 10718 bound_to 10713
  153.2039  135.4412  155.0299 H   0  0  0  0  0  0  0  0  0  0  0  0  # atno 10763 bound_to 10752
  154.8162  135.3316  154.7171 H   0  0  0  0  0  0  0  0  0  0  0  0  # atno 10764 bound_to 10752
  153.7614  135.6991  153.4980 H   0  0  0  0  0  0  0  0  0  0  0  0  # atno 10765 bound_to 10752
  140.3369  134.7309  157.4175 H   0  0  0  0  0  0  0  0  0  0  0  0  # atno 11005 bound_to 11000
  144.6819  139.9805  143.7483 LP  0  0  0  0  0  0  0  0  0  0  0  0  # atno 17320 bound_to 7965
  146.0205  139.3247  143.0815 LP  0  0  0  0  0  0  0  0  0  0  0  0  # atno 17321 bound_to 7965
  140.5229  144.0851  150.6028 LP  0  0  0  0  0  0  0  0  0  0  0  0  # atno 17342 bound_to 10162
  140.3815  143.2800  152.0165 LP  0  0  0  0  0  0  0  0  0  0  0  0  # atno 17343 bound_to 10162
  156.0943  130.5920  150.9787 LP  0  0  0  0  0  0  0  0  0  0  0  0  # atno 17370 bound_to 10713
  157.6415  131.0909  150.8241 LP  0  0  0  0  0  0  0  0  0  0  0  0  # atno 17371 bound_to 10713
  140.0813  134.5727  155.8537 LP  0  0  0  0  0  0  0  0  0  0  0  0  # atno 17394 bound_to 11000
  141.2049  133.6642  156.6146 LP  0  0  0  0  0  0  0  0  0  0  0  0  # atno 17395 bound_to 11000

$$$$
