AV-unprocessed.smi:3185|AV-procd|sdf|12172|dock7
  -GOLD-   2272018 13D 1   1.00000     0.00000
 Structure written by MMmdl.
 37 38  0  0  0  0  0  0  0  0  1 V2000
  151.6887  137.2258  154.4899 N   0  0  0  0  0  0  0  0  0  0  0  0
  151.0002  138.1420  154.6480 C   0  0  0  0  0  0  0  0  0  0  0  0
  150.1251  139.3064  154.8497 C   0  0  0  0  0  0  0  0  0  0  0  0
  150.8555  140.4825  155.5106 C   0  0  0  0  0  0  0  0  0  0  0  0
  150.8337  140.4184  157.0435 C   0  0  0  0  0  0  0  0  0  0  0  0
  151.5547  141.5582  157.5911 N   0  0  0  0  0  0  0  0  0  0  0  0
  152.1343  141.2657  158.8993 C   0  0  1  0  0  0  0  0  0  0  0  0
  152.9710  139.9672  158.8351 C   0  0  0  0  0  0  0  0  0  0  0  0
  153.6915  139.6902  160.1635 C   0  0  0  0  0  0  0  0  0  0  0  0
  154.5686  140.8788  160.5802 C   0  0  0  0  0  0  0  0  0  0  0  0
  153.7395  142.1680  160.6657 C   0  0  0  0  0  0  0  0  0  0  0  0
  153.0174  142.4646  159.3349 C   0  0  2  0  0  0  0  0  0  0  0  0
  152.2571  143.7058  159.4272 N   0  0  0  0  0  0  0  0  0  0  0  0
  152.1873  144.5816  160.4909 C   0  0  0  0  0  0  0  0  0  0  0  0
  151.3589  145.6037  160.1262 C   0  0  0  0  0  0  0  0  0  0  0  0
  150.9611  145.2604  158.8043 C   0  0  0  0  0  0  0  0  0  0  0  0
  151.4996  144.1260  158.3883 N   0  0  0  0  0  0  0  0  0  0  0  0
  149.7279  139.5997  153.8776 H   0  0  0  0  0  0  0  0  0  0  0  0
  149.2821  138.9832  155.4608 H   0  0  0  0  0  0  0  0  0  0  0  0
  151.8848  140.5330  155.1528 H   0  0  0  0  0  0  0  0  0  0  0  0
  150.3795  141.4105  155.1928 H   0  0  0  0  0  0  0  0  0  0  0  0
  149.7993  140.4502  157.3878 H   0  0  0  0  0  0  0  0  0  0  0  0
  151.2642  139.4785  157.3879 H   0  0  0  0  0  0  0  0  0  0  0  0
  150.9049  142.3248  157.6951 H   0  0  0  0  0  0  0  0  0  0  0  0
  151.3332  141.1431  159.6301 H   0  0  0  0  0  0  0  0  0  0  0  0
  152.3408  139.1116  158.5951 H   0  0  0  0  0  0  0  0  0  0  0  0
  153.7090  140.0410  158.0348 H   0  0  0  0  0  0  0  0  0  0  0  0
  152.9555  139.4876  160.9423 H   0  0  0  0  0  0  0  0  0  0  0  0
  154.3024  138.7915  160.0745 H   0  0  0  0  0  0  0  0  0  0  0  0
  155.0379  140.6746  161.5432 H   0  0  0  0  0  0  0  0  0  0  0  0
  155.3784  141.0087  159.8612 H   0  0  0  0  0  0  0  0  0  0  0  0
  153.0128  142.0716  161.4736 H   0  0  0  0  0  0  0  0  0  0  0  0
  154.3882  143.0031  160.9321 H   0  0  0  0  0  0  0  0  0  0  0  0
  153.7843  142.6167  158.5728 H   0  0  0  0  0  0  0  0  0  0  0  0
  152.7292  144.4080  161.4091 H   0  0  0  0  0  0  0  0  0  0  0  0
  151.0791  146.4651  160.7146 H   0  0  0  0  0  0  0  0  0  0  0  0
  150.3021  145.7983  158.1389 H   0  0  0  0  0  0  0  0  0  0  0  0
  1  2  3  0  0  0  0
  2  3  1  0  0  0  0
  3  4  1  0  0  0  0
  3 18  1  0  0  0  0
  3 19  1  0  0  0  0
  4  5  1  0  0  0  0
  4 20  1  0  0  0  0
  4 21  1  0  0  0  0
  5  6  1  0  0  0  0
  5 22  1  0  0  0  0
  5 23  1  0  0  0  0
  6  7  1  0  0  0  0
  6 24  1  0  0  0  0
  7 12  1  0  0  0  0
  7  8  1  0  0  0  0
  7 25  1  0  0  0  0
  8  9  1  0  0  0  0
  8 26  1  0  0  0  0
  8 27  1  0  0  0  0
  9 10  1  0  0  0  0
  9 28  1  0  0  0  0
  9 29  1  0  0  0  0
 10 11  1  0  0  0  0
 10 30  1  0  0  0  0
 10 31  1  0  0  0  0
 11 12  1  0  0  0  0
 11 32  1  0  0  0  0
 11 33  1  0  0  0  0
 12 13  1  0  0  0  0
 12 34  1  0  0  0  0
 13 17  1  0  0  0  0
 13 14  1  0  0  0  0
 14 15  2  0  0  0  0
 14 35  1  0  0  0  0
 15 16  1  0  0  0  0
 15 36  1  0  0  0  0
 16 17  2  0  0  0  0
 16 37  1  0  0  0  0
M  END
> <s_m_source_file>
AV-unprocessed.smi

> <i_m_source_file_index>
3185

> <i_lp_mmshare_version>
43012

> <i_f3d_flags>
0

> <s_epik_input>
TiNDW0NIMl1bQ0gyXVtDSDJdW05IXVtDQEBIXTFbQ0gyXVtDSDJdW0NIMl1bQ0gyXVtDQEhdMW4yW2NIXVtjSF1bY0hdbjI=

> <s_epik_cmdline>
J2VwaWtfcHl0aG9uJywgJy1waCcsICc3LjAnLCAnLXRuJywgJzgnLCAnLW1hJywgJzIwMCcsICctbWV0YWxfYmluZGluZycsICctaW1hZScsICc8aW5maWxlLm1hZT4nLCAnLW9tYWUnLCAnPG91dGZpbGUubWFlPic=

> <r_lp_tautomer_probability>
1

> <r_epik_Ionization_Penalty>
2.21326

> <r_epik_Ionization_Penalty_Charging>
0

> <r_epik_Ionization_Penalty_Neutral>
2.21326

> <r_epik_State_Penalty>
2.35651

> <r_epik_Charging_Adjusted_Penalty>
2.35651

> <i_epik_Tot_Q>
0

> <i_epik_Tot_abs_Q>
0

> <r_epik_Metal_State_Penalty>
2.3555

> <b_epik_Metal_Only>
0

> <s_lp_Force_Field>
OPLS_2005

> <r_lp_Energy>
16.6477

> <b_lp_Chiralities_Consistent>
1

> <s_lp_Variant>
AV-unprocessed.smi:3185-8

> <Gold.Version>
5.8.1

> <Gold.Id.Protein>
6NUR|6NUR_protein|mol2

> <Gold.PLP.Fitness>
48.1184

> <Gold.PLP.PLP>
-43.0114

> <Gold.PLP.part.hbond>
-1.0000

> <Gold.PLP.part.metal>
0.0000

> <Gold.PLP.part.buried>
-4.3394

> <Gold.PLP.part.nonpolar>
-37.0584

> <Gold.PLP.part.repulsive>
0.2525

> <Gold.PLP.ligand.clash>
0.0000

> <Gold.PLP.ligand.torsion>
0.4192

> <Gold.PLP.Chemscore.Hbond>
1.0000

> <Gold.PLP.Chemscore.CHOScore>
0.9664

> <Gold.PLP.Chemscore.Metal>
0.0000

> <Gold.Chemscore.Hbonds>
donor molecule, donor type, donor heavy atom, donor atom, acceptor molecule, acceptor atom, score
      P1  H 10752 10765       L1     1  1.00
      L1  C    16    37       P1  8029  1.00

> <Gold.PLP.Chemscore.Internal.Correction>
0.0463

> <Gold.Rescore>
     Score         DG    S(hbond)    S(metal)    S(lipo)     H(rot)  DE(clash)    DE(int)     intcor
     14.76     -16.60       0.99        0.00     106.45       1.81       0.00       1.84       ----

> <Gold.Chemscore.Fitness>
14.7571

> <Gold.Chemscore.DG>
-16.5969

> <Gold.Chemscore.ZeroCoef>
-5.4800

> <Gold.Chemscore.Hbond>
0.9874

> <Gold.Chemscore.Metal>
0.0000

> <Gold.Chemscore.Lipo>
106.4535

> <Gold.Chemscore.Internal_Hbond>
0.0000

> <Gold.Chemscore.DEClash>
0.0009

> <Gold.Chemscore.DEInternal>
1.8388

> <Gold.Chemscore.Rot>
1.8110

> <Gold.Chemscore.Internal.Correction>
   9.000000E+99

> <Gold.Chemscore.Hbonds>
donor molecule, donor type, donor heavy atom, donor atom, acceptor molecule, acceptor atom, score
      P1  H 10752 10765       L1     1  0.93

> <Gold.Chemscore.Hbond.Weighted>
-3.2980

> <Gold.Chemscore.Metal.Weighted>
-0.0000

> <Gold.Chemscore.Lipo.Weighted>
-12.4551

> <Gold.Chemscore.Internal_Hbond.Weighted>
0.0000

> <Gold.Chemscore.DEClash.Weighted>
0.0009

> <Gold.Chemscore.DEInternal.Weighted>
1.8388

> <Gold.Chemscore.Rot.Weighted>
4.6362

> <Gold.Chemscore.Internal.Correction.Weighted>
   9.000000E+99

> <Gold.Protein.RotatedTorsions>
[ 6907 6896 6895 6894 ] final -153.63 input  -60.11 | X-H torsion
[ 7974 7965 7964 7962 ] final -177.39 input  175.53 | X-H torsion
[ 8008 7997 7996 7995 ] final   53.05 input   59.86 | X-H torsion
[ 10167 10162 10161 10158 ] final -129.87 input  -65.29 | X-H torsion
[ 10718 10713 10712 10709 ] final -153.80 input   66.30 | X-H torsion
[ 10763 10752 10751 10750 ] final  168.12 input  -60.55 | X-H torsion
[ 11005 11000 10999 10996 ] final    1.97 input  -57.11 | X-H torsion

> <Gold.Protein.ActiveResidues>
 VAL166  LYS551  ARG553  GLY616  TRP617  ASP618  TYR619  PRO620  LYS621  CYS622 
 ASP623  PHE694  ASN695  SER759  ASP760  ASP761  ALA762  ILE779  LEU786  VAL792 
 PHE793  MET794  SER795  GLU796  ALA797  LYS798  CYS799  TRP800  GLU811  SER814 

> <Gold.Protein.RotatedAtoms>
  151.2455  133.4377  159.2608 H   0  0  0  0  0  0  0  0  0  0  0  0  # atno 6907 bound_to 6896
  151.0666  134.9771  159.8297 H   0  0  0  0  0  0  0  0  0  0  0  0  # atno 6908 bound_to 6896
  152.5406  134.2402  159.8912 H   0  0  0  0  0  0  0  0  0  0  0  0  # atno 6909 bound_to 6896
  144.7127  140.1026  143.6415 H   0  0  0  0  0  0  0  0  0  0  0  0  # atno 7974 bound_to 7965
  155.4619  140.3462  155.4314 H   0  0  0  0  0  0  0  0  0  0  0  0  # atno 8008 bound_to 7997
  156.1155  140.1473  156.9307 H   0  0  0  0  0  0  0  0  0  0  0  0  # atno 8009 bound_to 7997
  154.4786  140.0877  156.7302 H   0  0  0  0  0  0  0  0  0  0  0  0  # atno 8010 bound_to 7997
  139.9352  143.6226  152.2519 H   0  0  0  0  0  0  0  0  0  0  0  0  # atno 10167 bound_to 10162
  156.4907  130.8346  151.2569 H   0  0  0  0  0  0  0  0  0  0  0  0  # atno 10718 bound_to 10713
  154.3638  135.2753  155.2305 H   0  0  0  0  0  0  0  0  0  0  0  0  # atno 10763 bound_to 10752
  154.4481  135.5937  153.6177 H   0  0  0  0  0  0  0  0  0  0  0  0  # atno 10764 bound_to 10752
  152.9842  135.6035  154.3862 H   0  0  0  0  0  0  0  0  0  0  0  0  # atno 10765 bound_to 10752
  140.6095  133.9762  155.8170 H   0  0  0  0  0  0  0  0  0  0  0  0  # atno 11005 bound_to 11000
  145.9525  139.2743  143.1204 LP  0  0  0  0  0  0  0  0  0  0  0  0  # atno 17320 bound_to 7965
  145.9308  140.9050  143.0357 LP  0  0  0  0  0  0  0  0  0  0  0  0  # atno 17321 bound_to 7965
  139.6749  144.7659  151.1714 LP  0  0  0  0  0  0  0  0  0  0  0  0  # atno 17342 bound_to 10162
  140.7626  143.5809  150.8895 LP  0  0  0  0  0  0  0  0  0  0  0  0  # atno 17343 bound_to 10162
  157.7474  131.0014  150.2963 LP  0  0  0  0  0  0  0  0  0  0  0  0  # atno 17370 bound_to 10713
  156.3430  130.3818  149.7393 LP  0  0  0  0  0  0  0  0  0  0  0  0  # atno 17371 bound_to 10713
  141.0818  134.0051  157.3374 LP  0  0  0  0  0  0  0  0  0  0  0  0  # atno 17394 bound_to 11000
  139.9198  135.0200  156.8022 LP  0  0  0  0  0  0  0  0  0  0  0  0  # atno 17395 bound_to 11000

$$$$
