AV-unprocessed.smi:1959|AV-procd|sdf|7915|dock5
  -GOLD-   2272010 83D 1   1.00000     0.00000
 Structure written by MMmdl.
 45 46  0  0  0  0  0  0  0  0  2 V2000
  153.9761  140.8493  160.5179 C   0  0  0  0  0  0  0  0  0  0  0  0
  153.2258  142.0059  159.9262 C   0  0  0  0  0  0  0  0  0  0  0  0
  152.9656  143.2788  160.5068 C   0  0  0  0  0  0  0  0  0  0  0  0
  152.2542  143.9474  159.5507 C   0  0  0  0  0  0  0  0  0  0  0  0
  151.6942  145.3323  159.5576 C   0  0  0  0  0  0  0  0  0  0  0  0
  152.1186  143.0852  158.4765 N   0  0  0  0  0  0  0  0  0  0  0  0
  151.4580  143.3051  157.1978 C   0  0  0  0  0  0  0  0  0  0  0  0
  150.8060  142.0331  156.6427 C   0  0  0  0  0  0  0  0  0  0  0  0
  151.3461  140.9335  156.7720 O   0  0  0  0  0  0  0  0  0  0  0  0
  149.6413  142.2057  155.9974 N   0  0  0  0  0  0  0  0  0  0  0  0
  148.8335  141.1497  155.3844 C   0  0  1  0  0  0  0  0  0  0  0  0
  147.6148  141.7837  154.7007 C   0  0  0  0  0  0  0  0  0  0  0  0
  149.6661  140.3105  154.3872 C   0  0  0  0  0  0  0  0  0  0  0  0
  150.4847  139.2641  155.0507 N   0  3  0  0  0  0  0  0  0  0  0  0
  149.9081  137.9022  154.9454 C   0  0  0  0  0  0  0  0  0  0  0  0
  150.7634  136.9069  155.7460 C   0  0  0  0  0  0  0  0  0  0  0  0
  152.1000  136.9337  155.2592 O   0  0  0  0  0  0  0  0  0  0  0  0
  152.6990  138.2155  155.4098 C   0  0  0  0  0  0  0  0  0  0  0  0
  151.8997  139.2611  154.6127 C   0  0  0  0  0  0  0  0  0  0  0  0
  152.7149  141.8962  158.7110 N   0  0  0  0  0  0  0  0  0  0  0  0
  154.3904  141.1057  161.4932 H   0  0  0  0  0  0  0  0  0  0  0  0
  154.8035  140.5474  159.8753 H   0  0  0  0  0  0  0  0  0  0  0  0
  153.3239  139.9857  160.6509 H   0  0  0  0  0  0  0  0  0  0  0  0
  153.2598  143.6462  161.4788 H   0  0  0  0  0  0  0  0  0  0  0  0
  151.9471  145.8497  160.4833 H   0  0  0  0  0  0  0  0  0  0  0  0
  150.6077  145.3124  159.4720 H   0  0  0  0  0  0  0  0  0  0  0  0
  152.0913  145.9181  158.7282 H   0  0  0  0  0  0  0  0  0  0  0  0
  150.7031  144.0844  157.3165 H   0  0  0  0  0  0  0  0  0  0  0  0
  152.1897  143.6788  156.4810 H   0  0  0  0  0  0  0  0  0  0  0  0
  149.2730  143.1448  155.9415 H   0  0  0  0  0  0  0  0  0  0  0  0
  148.4479  140.4942  156.1665 H   0  0  0  0  0  0  0  0  0  0  0  0
  146.9700  141.0206  154.2639 H   0  0  0  0  0  0  0  0  0  0  0  0
  147.9136  142.4636  153.9019 H   0  0  0  0  0  0  0  0  0  0  0  0
  147.0146  142.3506  155.4135 H   0  0  0  0  0  0  0  0  0  0  0  0
  149.0231  139.8515  153.6347 H   0  0  0  0  0  0  0  0  0  0  0  0
  150.3278  140.9891  153.8464 H   0  0  0  0  0  0  0  0  0  0  0  0
  148.8861  137.8893  155.3230 H   0  0  0  0  0  0  0  0  0  0  0  0
  149.8645  137.6000  153.8979 H   0  0  0  0  0  0  0  0  0  0  0  0
  150.7444  137.1456  156.8111 H   0  0  0  0  0  0  0  0  0  0  0  0
  150.3669  135.8973  155.6381 H   0  0  0  0  0  0  0  0  0  0  0  0
  152.7460  138.4845  156.4665 H   0  0  0  0  0  0  0  0  0  0  0  0
  153.7257  138.1701  155.0466 H   0  0  0  0  0  0  0  0  0  0  0  0
  151.9531  139.0441  153.5446 H   0  0  0  0  0  0  0  0  0  0  0  0
  152.3387  140.2481  154.7639 H   0  0  0  0  0  0  0  0  0  0  0  0
  150.4963  139.4996  156.0332 H   0  0  0  0  0  0  0  0  0  0  0  0
  1  2  1  0  0  0  0
  1 21  1  0  0  0  0
  1 22  1  0  0  0  0
  1 23  1  0  0  0  0
  2 20  2  0  0  0  0
  2  3  1  0  0  0  0
  3  4  2  0  0  0  0
  3 24  1  0  0  0  0
  4  5  1  0  0  0  0
  4  6  1  0  0  0  0
  5 25  1  0  0  0  0
  5 26  1  0  0  0  0
  5 27  1  0  0  0  0
  6  7  1  0  0  0  0
  6 20  1  0  0  0  0
  7  8  1  0  0  0  0
  7 28  1  0  0  0  0
  7 29  1  0  0  0  0
  8  9  2  0  0  0  0
  8 10  1  0  0  0  0
 10 11  1  0  0  0  0
 10 30  1  0  0  0  0
 11 12  1  0  0  0  0
 11 13  1  0  0  0  0
 11 31  1  0  0  0  0
 12 32  1  0  0  0  0
 12 33  1  0  0  0  0
 12 34  1  0  0  0  0
 13 14  1  0  0  0  0
 13 35  1  0  0  0  0
 13 36  1  0  0  0  0
 14 19  1  0  0  0  0
 14 15  1  0  0  0  0
 14 45  1  0  0  0  0
 15 16  1  0  0  0  0
 15 37  1  0  0  0  0
 15 38  1  0  0  0  0
 16 17  1  0  0  0  0
 16 39  1  0  0  0  0
 16 40  1  0  0  0  0
 17 18  1  0  0  0  0
 18 19  1  0  0  0  0
 18 41  1  0  0  0  0
 18 42  1  0  0  0  0
 19 43  1  0  0  0  0
 19 44  1  0  0  0  0
M  CHG  1  14   1
M  END
> <s_m_source_file>
AV-unprocessed.smi

> <i_m_source_file_index>
1959

> <i_lp_mmshare_version>
43012

> <i_f3d_flags>
0

> <s_epik_input>
W0NIM11jMVtjSF1jKFtDSDNdKW4objEpW0NIMl1DKD1PKVtOSF1bQ0BIXShbQ0gzXSlbQ0gyXU4yW0NIMl1bQ0gyXU9bQ0gyXVtDSDJdMg==

> <s_epik_cmdline>
J2VwaWtfcHl0aG9uJywgJy1waCcsICc3LjAnLCAnLXRuJywgJzgnLCAnLW1hJywgJzIwMCcsICctbWV0YWxfYmluZGluZycsICctaW1hZScsICc8aW5maWxlLm1hZT4nLCAnLW9tYWUnLCAnPG91dGZpbGUubWFlPic=

> <r_lp_tautomer_probability>
1

> <r_epik_Ionization_Penalty>
0.748605

> <r_epik_Ionization_Penalty_Charging>
0.748396

> <r_epik_Ionization_Penalty_Neutral>
0.000208859

> <r_epik_State_Penalty>
0.775162

> <r_epik_Charging_Adjusted_Penalty>
1.52356

> <i_epik_Tot_Q>
1

> <i_epik_Tot_abs_Q>
1

> <r_epik_Metal_State_Penalty>
0.775281

> <b_epik_Metal_Only>
0

> <s_lp_Force_Field>
OPLS_2005

> <r_lp_Energy>
20.6749

> <b_lp_Chiralities_Consistent>
1

> <s_lp_Variant>
AV-unprocessed.smi:1959-4

> <Gold.Version>
5.8.1

> <Gold.Id.Protein>
6NUR|6NUR_protein|mol2

> <Gold.PLP.Fitness>
47.6378

> <Gold.PLP.PLP>
-44.7346

> <Gold.PLP.part.hbond>
-2.0000

> <Gold.PLP.part.metal>
0.0000

> <Gold.PLP.part.buried>
-4.4086

> <Gold.PLP.part.nonpolar>
-39.1017

> <Gold.PLP.part.repulsive>
0.2669

> <Gold.PLP.ligand.clash>
0.0000

> <Gold.PLP.ligand.torsion>
1.5800

> <Gold.PLP.Chemscore.Hbond>
2.0000

> <Gold.PLP.Chemscore.CHOScore>
0.0000

> <Gold.PLP.Chemscore.Metal>
0.0000

> <Gold.Chemscore.Hbonds>
donor molecule, donor type, donor heavy atom, donor atom, acceptor molecule, acceptor atom, score
      L1  H    10    30       P1  8028  1.00
      P1  H 10752 10763       L1    17  0.94

> <Gold.PLP.Chemscore.Internal.Correction>
0.0631

> <Gold.Rescore>
     Score         DG    S(hbond)    S(metal)    S(lipo)     H(rot)  DE(clash)    DE(int)     intcor
     16.60     -19.77       1.87        0.00     107.59       1.77       0.31       2.86       ----

> <Gold.Chemscore.Fitness>
16.5982

> <Gold.Chemscore.DG>
-19.7683

> <Gold.Chemscore.ZeroCoef>
-5.4800

> <Gold.Chemscore.Hbond>
1.8692

> <Gold.Chemscore.Metal>
0.0000

> <Gold.Chemscore.Lipo>
107.5870

> <Gold.Chemscore.Internal_Hbond>
0.0000

> <Gold.Chemscore.DEClash>
0.3090

> <Gold.Chemscore.DEInternal>
2.8611

> <Gold.Chemscore.Rot>
1.7744

> <Gold.Chemscore.Internal.Correction>
   9.000000E+99

> <Gold.Chemscore.Hbonds>
donor molecule, donor type, donor heavy atom, donor atom, acceptor molecule, acceptor atom, score
      L1  H    10    30       P1  8028  1.00
      P1  H 10752 10763       L1    17  0.91

> <Gold.Chemscore.Hbond.Weighted>
-6.2430

> <Gold.Chemscore.Metal.Weighted>
-0.0000

> <Gold.Chemscore.Lipo.Weighted>
-12.5877

> <Gold.Chemscore.Internal_Hbond.Weighted>
0.0000

> <Gold.Chemscore.DEClash.Weighted>
0.3090

> <Gold.Chemscore.DEInternal.Weighted>
2.8611

> <Gold.Chemscore.Rot.Weighted>
4.5424

> <Gold.Chemscore.Internal.Correction.Weighted>
   9.000000E+99

> <Gold.Protein.RotatedTorsions>
[ 6907 6896 6895 6894 ] final   50.71 input  -60.11 | X-H torsion
[ 7974 7965 7964 7962 ] final   55.99 input  175.53 | X-H torsion
[ 8008 7997 7996 7995 ] final  -39.18 input   59.86 | X-H torsion
[ 10167 10162 10161 10158 ] final -179.61 input  -65.29 | X-H torsion
[ 10718 10713 10712 10709 ] final -107.19 input   66.30 | X-H torsion
[ 10763 10752 10751 10750 ] final   63.13 input  -60.55 | X-H torsion
[ 11005 11000 10999 10996 ] final  158.71 input  -57.11 | X-H torsion

> <Gold.Protein.ActiveResidues>
 VAL166  LYS551  ARG553  GLY616  TRP617  ASP618  TYR619  PRO620  LYS621  CYS622 
 ASP623  PHE694  ASN695  SER759  ASP760  ASP761  ALA762  ILE779  LEU786  VAL792 
 PHE793  MET794  SER795  GLU796  ALA797  LYS798  CYS799  TRP800  GLU811  SER814 

> <Gold.Protein.RotatedAtoms>
  152.3048  134.7568  160.0349 H   0  0  0  0  0  0  0  0  0  0  0  0  # atno 6907 bound_to 6896
  151.8069  133.3371  159.3551 H   0  0  0  0  0  0  0  0  0  0  0  0  # atno 6908 bound_to 6896
  150.7291  134.5631  159.5897 H   0  0  0  0  0  0  0  0  0  0  0  0  # atno 6909 bound_to 6896
  145.9445  139.3918  143.0343 H   0  0  0  0  0  0  0  0  0  0  0  0  # atno 7974 bound_to 7965
  154.4026  140.1558  156.2821 H   0  0  0  0  0  0  0  0  0  0  0  0  # atno 8008 bound_to 7997
  155.8860  140.3441  155.5900 H   0  0  0  0  0  0  0  0  0  0  0  0  # atno 8009 bound_to 7997
  155.7613  140.0818  157.2144 H   0  0  0  0  0  0  0  0  0  0  0  0  # atno 8010 bound_to 7997
  139.5378  144.2447  152.0832 H   0  0  0  0  0  0  0  0  0  0  0  0  # atno 10167 bound_to 10162
  156.0425  130.5650  150.7787 H   0  0  0  0  0  0  0  0  0  0  0  0  # atno 10718 bound_to 10713
  153.0007  135.5440  154.6303 H   0  0  0  0  0  0  0  0  0  0  0  0  # atno 10763 bound_to 10752
  154.5582  135.2832  155.0946 H   0  0  0  0  0  0  0  0  0  0  0  0  # atno 10764 bound_to 10752
  154.2159  135.6459  153.5182 H   0  0  0  0  0  0  0  0  0  0  0  0  # atno 10765 bound_to 10752
  140.1892  134.8420  157.2892 H   0  0  0  0  0  0  0  0  0  0  0  0  # atno 11005 bound_to 11000
  145.8254  140.9658  143.0876 LP  0  0  0  0  0  0  0  0  0  0  0  0  # atno 17320 bound_to 7965
  144.6785  140.0095  143.7484 LP  0  0  0  0  0  0  0  0  0  0  0  0  # atno 17321 bound_to 7965
  140.1921  144.4742  150.6474 LP  0  0  0  0  0  0  0  0  0  0  0  0  # atno 17342 bound_to 10162
  140.6594  143.2247  151.5892 LP  0  0  0  0  0  0  0  0  0  0  0  0  # atno 17343 bound_to 10162
  157.5260  131.0934  151.0017 LP  0  0  0  0  0  0  0  0  0  0  0  0  # atno 17370 bound_to 10713
  157.0335  130.5721  149.5346 LP  0  0  0  0  0  0  0  0  0  0  0  0  # atno 17371 bound_to 10713
  140.2179  134.4059  155.7580 LP  0  0  0  0  0  0  0  0  0  0  0  0  # atno 17394 bound_to 11000
  141.2226  133.7151  156.8443 LP  0  0  0  0  0  0  0  0  0  0  0  0  # atno 17395 bound_to 11000

$$$$
