AV-unprocessed.smi:767|AV-procd|sdf|3671|dock7
  -GOLD-   22720 1 83D 1   1.00000     0.00000
 Structure written by MMmdl.
 48 50  0  0  0  0  0  0  0  0  2 V2000
  151.3091  143.6249  158.0128 C   0  0  0  0  0  0  0  0  0  0  0  0
  151.0425  142.3974  157.1673 C   0  0  0  0  0  0  0  0  0  0  0  0
  151.6332  141.1481  157.4535 C   0  0  0  0  0  0  0  0  0  0  0  0
  151.3469  140.0438  156.6242 C   0  0  0  0  0  0  0  0  0  0  0  0
  150.4787  140.2118  155.5232 C   0  0  0  0  0  0  0  0  0  0  0  0
  150.1595  139.0469  154.6010 C   0  0  0  0  0  0  0  0  0  0  0  0
  149.5350  137.8307  155.3183 C   0  0  0  0  0  0  0  0  0  0  0  0
  148.7497  136.9681  154.4388 N   0  0  0  0  0  0  0  0  0  0  0  0
  147.5564  136.4361  154.7366 C   0  0  0  0  0  0  0  0  0  0  0  0
  146.9642  136.6197  155.7998 O   0  0  0  0  0  0  0  0  0  0  0  0
  147.0737  135.7021  153.7261 N   0  0  0  0  0  0  0  0  0  0  0  0
  145.7626  135.0453  153.7340 C   0  0  2  0  0  0  0  0  0  0  0  0
  145.7154  133.8031  152.8406 C   0  0  2  0  0  0  0  0  0  0  0  0
  146.7172  132.9001  152.2170 C   0  0  0  0  0  0  0  0  0  0  0  0
  146.0170  132.7587  150.8380 C   0  0  0  0  0  0  0  0  0  0  0  0
  144.9530  133.7456  150.8261 O   0  0  0  0  0  0  0  0  0  0  0  0
  145.4155  134.7549  151.7011 C   0  0  1  0  0  0  0  0  0  0  0  0
  144.6973  135.6505  152.7353 C   0  0  0  0  0  0  0  0  0  0  0  0
  143.2150  135.3487  153.0202 C   0  0  0  0  0  0  0  0  0  0  0  0
  144.7723  137.1569  152.4617 C   0  0  0  0  0  0  0  0  0  0  0  0
  149.9153  141.4845  155.2873 C   0  0  0  0  0  0  0  0  0  0  0  0
  150.2145  142.5170  156.1052 N   0  3  0  0  0  0  0  0  0  0  0  0
  151.4793  143.3456  159.0530 H   0  0  0  0  0  0  0  0  0  0  0  0
  150.4641  144.3136  157.9815 H   0  0  0  0  0  0  0  0  0  0  0  0
  152.1937  144.1481  157.6489 H   0  0  0  0  0  0  0  0  0  0  0  0
  152.2983  141.0361  158.2975 H   0  0  0  0  0  0  0  0  0  0  0  0
  151.7930  139.0816  156.8289 H   0  0  0  0  0  0  0  0  0  0  0  0
  149.4873  139.3941  153.8155 H   0  0  0  0  0  0  0  0  0  0  0  0
  151.0743  138.7396  154.0926 H   0  0  0  0  0  0  0  0  0  0  0  0
  150.3313  137.2139  155.7356 H   0  0  0  0  0  0  0  0  0  0  0  0
  148.9270  138.1579  156.1630 H   0  0  0  0  0  0  0  0  0  0  0  0
  149.1501  136.7562  153.5365 H   0  0  0  0  0  0  0  0  0  0  0  0
  147.6328  135.6022  152.8917 H   0  0  0  0  0  0  0  0  0  0  0  0
  145.3643  134.8608  154.7333 H   0  0  0  0  0  0  0  0  0  0  0  0
  144.8476  133.2068  153.1327 H   0  0  0  0  0  0  0  0  0  0  0  0
  147.6994  133.3669  152.1319 H   0  0  0  0  0  0  0  0  0  0  0  0
  146.8155  131.9478  152.7385 H   0  0  0  0  0  0  0  0  0  0  0  0
  146.7198  132.9459  150.0250 H   0  0  0  0  0  0  0  0  0  0  0  0
  145.5931  131.7641  150.6965 H   0  0  0  0  0  0  0  0  0  0  0  0
  146.3016  135.2426  151.2819 H   0  0  0  0  0  0  0  0  0  0  0  0
  142.5950  135.5565  152.1477 H   0  0  0  0  0  0  0  0  0  0  0  0
  142.8385  135.9612  153.8399 H   0  0  0  0  0  0  0  0  0  0  0  0
  143.0271  134.3130  153.2973 H   0  0  0  0  0  0  0  0  0  0  0  0
  144.0594  137.4634  151.6955 H   0  0  0  0  0  0  0  0  0  0  0  0
  145.7584  137.4578  152.1082 H   0  0  0  0  0  0  0  0  0  0  0  0
  144.5595  137.7352  153.3614 H   0  0  0  0  0  0  0  0  0  0  0  0
  149.2458  141.7089  154.4697 H   0  0  0  0  0  0  0  0  0  0  0  0
  149.7972  143.4278  155.9120 H   0  0  0  0  0  0  0  0  0  0  0  0
  1  2  1  0  0  0  0
  1 23  1  0  0  0  0
  1 24  1  0  0  0  0
  1 25  1  0  0  0  0
  2 22  1  0  0  0  0
  2  3  2  0  0  0  0
  3  4  1  0  0  0  0
  3 26  1  0  0  0  0
  4  5  2  0  0  0  0
  4 27  1  0  0  0  0
  5  6  1  0  0  0  0
  5 21  1  0  0  0  0
  6  7  1  0  0  0  0
  6 28  1  0  0  0  0
  6 29  1  0  0  0  0
  7  8  1  0  0  0  0
  7 30  1  0  0  0  0
  7 31  1  0  0  0  0
  8  9  1  0  0  0  0
  8 32  1  0  0  0  0
  9 10  2  0  0  0  0
  9 11  1  0  0  0  0
 11 12  1  0  0  0  0
 11 33  1  0  0  0  0
 12 18  1  0  0  0  0
 12 13  1  0  0  0  0
 12 34  1  0  0  0  0
 13 17  1  0  0  0  0
 13 14  1  0  0  0  0
 13 35  1  0  0  0  0
 14 15  1  0  0  0  0
 14 36  1  0  0  0  0
 14 37  1  0  0  0  0
 15 16  1  0  0  0  0
 15 38  1  0  0  0  0
 15 39  1  0  0  0  0
 16 17  1  0  0  0  0
 17 18  1  0  0  0  0
 17 40  1  0  0  0  0
 18 19  1  0  0  0  0
 18 20  1  0  0  0  0
 19 41  1  0  0  0  0
 19 42  1  0  0  0  0
 19 43  1  0  0  0  0
 20 44  1  0  0  0  0
 20 45  1  0  0  0  0
 20 46  1  0  0  0  0
 21 22  2  0  0  0  0
 21 47  1  0  0  0  0
 22 48  1  0  0  0  0
M  CHG  1  22   1
M  END
> <s_m_source_file>
AV-unprocessed.smi

> <i_m_source_file_index>
767

> <i_lp_mmshare_version>
43012

> <i_f3d_flags>
0

> <s_epik_input>
W0NIM11jMVtjSF1bY0hdYyhbY0hdbjEpW0NIMl1bQ0gyXVtOSF1DKD1PKVtOSF1bQ0BIXTJDKFtDSDNdKShbQ0gzXSlbQ0BIXShbQ0BASF0yMylPW0NIMl1bQ0gyXTM=

> <s_epik_cmdline>
J2VwaWtfcHl0aG9uJywgJy1waCcsICc3LjAnLCAnLXRuJywgJzgnLCAnLW1hJywgJzIwMCcsICctbWV0YWxfYmluZGluZycsICctaW1hZScsICc8aW5maWxlLm1hZT4nLCAnLW9tYWUnLCAnPG91dGZpbGUubWFlPic=

> <r_epik_Ionization_Penalty>
1.41853

> <r_epik_Ionization_Penalty_Charging>
1.41848

> <r_epik_Ionization_Penalty_Neutral>
5.17407e-05

> <r_epik_State_Penalty>
1.50205

> <r_epik_Charging_Adjusted_Penalty>
2.92053

> <i_epik_Tot_Q>
1

> <i_epik_Tot_abs_Q>
1

> <r_epik_Metal_State_Penalty>
1.5544

> <b_epik_Metal_Only>
0

> <s_lp_Force_Field>
OPLS_2005

> <r_lp_Energy>
65.9861

> <b_lp_Chiralities_Consistent>
1

> <s_lp_Variant>
AV-unprocessed.smi:767-15

> <Gold.Version>
5.8.1

> <Gold.Id.Protein>
6NUR|6NUR_protein|mol2

> <Gold.PLP.Fitness>
45.8422

> <Gold.PLP.PLP>
-34.5718

> <Gold.PLP.part.hbond>
-3.0000

> <Gold.PLP.part.metal>
0.0000

> <Gold.PLP.part.buried>
-4.9398

> <Gold.PLP.part.nonpolar>
-27.5626

> <Gold.PLP.part.repulsive>
0.2772

> <Gold.PLP.ligand.clash>
0.0000

> <Gold.PLP.ligand.torsion>
0.4589

> <Gold.PLP.Chemscore.Hbond>
3.9760

> <Gold.PLP.Chemscore.CHOScore>
0.0000

> <Gold.PLP.Chemscore.Metal>
0.0000

> <Gold.Chemscore.Hbonds>
donor molecule, donor type, donor heavy atom, donor atom, acceptor molecule, acceptor atom, score
      L1  H     8    32       P1  7948  1.00
      L1  H    11    33       P1  7948  0.99
      L1  H    22    48       P1  8028  2.00

> <Gold.PLP.Chemscore.Internal.Correction>
0.2603

> <Gold.Rescore>
     Score         DG    S(hbond)    S(metal)    S(lipo)     H(rot)  DE(clash)    DE(int)     intcor
     21.57     -22.07       2.86        0.00      93.58       1.52       0.05       0.44       ----

> <Gold.Chemscore.Fitness>
21.5715

> <Gold.Chemscore.DG>
-22.0665

> <Gold.Chemscore.ZeroCoef>
-5.4800

> <Gold.Chemscore.Hbond>
2.8555

> <Gold.Chemscore.Metal>
0.0000

> <Gold.Chemscore.Lipo>
93.5791

> <Gold.Chemscore.Internal_Hbond>
0.0000

> <Gold.Chemscore.DEClash>
0.0513

> <Gold.Chemscore.DEInternal>
0.4437

> <Gold.Chemscore.Rot>
1.5233

> <Gold.Chemscore.Internal.Correction>
   9.000000E+99

> <Gold.Chemscore.Hbonds>
donor molecule, donor type, donor heavy atom, donor atom, acceptor molecule, acceptor atom, score
      L1  H     8    32       P1  7948  0.94
      L1  H    11    33       P1  7948  0.93
      L1  H    22    48       P1  8028  0.99

> <Gold.Chemscore.Hbond.Weighted>
-9.5373

> <Gold.Chemscore.Metal.Weighted>
-0.0000

> <Gold.Chemscore.Lipo.Weighted>
-10.9488

> <Gold.Chemscore.Internal_Hbond.Weighted>
0.0000

> <Gold.Chemscore.DEClash.Weighted>
0.0513

> <Gold.Chemscore.DEInternal.Weighted>
0.4437

> <Gold.Chemscore.Rot.Weighted>
3.8995

> <Gold.Chemscore.Internal.Correction.Weighted>
   9.000000E+99

> <Gold.Protein.RotatedTorsions>
[ 6907 6896 6895 6894 ] final   -4.80 input  -60.11 | X-H torsion
[ 7974 7965 7964 7962 ] final -146.47 input  175.53 | X-H torsion
[ 8008 7997 7996 7995 ] final -161.09 input   59.86 | X-H torsion
[ 10167 10162 10161 10158 ] final -169.56 input  -65.29 | X-H torsion
[ 10718 10713 10712 10709 ] final -116.88 input   66.30 | X-H torsion
[ 10763 10752 10751 10750 ] final  -72.19 input  -60.55 | X-H torsion
[ 11005 11000 10999 10996 ] final   42.70 input  -57.11 | X-H torsion

> <Gold.Protein.ActiveResidues>
 VAL166  LYS551  ARG553  GLY616  TRP617  ASP618  TYR619  PRO620  LYS621  CYS622 
 ASP623  PHE694  ASN695  SER759  ASP760  ASP761  ALA762  ILE779  LEU786  VAL792 
 PHE793  MET794  SER795  GLU796  ALA797  LYS798  CYS799  TRP800  GLU811  SER814 

> <Gold.Protein.RotatedAtoms>
  151.4919  135.1058  159.9805 H   0  0  0  0  0  0  0  0  0  0  0  0  # atno 6907 bound_to 6896
  152.4737  133.8085  159.7001 H   0  0  0  0  0  0  0  0  0  0  0  0  # atno 6908 bound_to 6896
  150.8762  133.7373  159.2972 H   0  0  0  0  0  0  0  0  0  0  0  0  # atno 6909 bound_to 6896
  144.8157  140.5452  143.5612 H   0  0  0  0  0  0  0  0  0  0  0  0  # atno 7974 bound_to 7965
  155.7871  140.0873  157.2029 H   0  0  0  0  0  0  0  0  0  0  0  0  # atno 8008 bound_to 7997
  154.3987  140.1497  156.3177 H   0  0  0  0  0  0  0  0  0  0  0  0  # atno 8009 bound_to 7997
  155.8596  140.3431  155.5750 H   0  0  0  0  0  0  0  0  0  0  0  0  # atno 8010 bound_to 7997
  139.5915  144.1203  152.1640 H   0  0  0  0  0  0  0  0  0  0  0  0  # atno 10167 bound_to 10162
  156.0995  130.6160  150.9093 H   0  0  0  0  0  0  0  0  0  0  0  0  # atno 10718 bound_to 10713
  154.4423  135.5938  153.6137 H   0  0  0  0  0  0  0  0  0  0  0  0  # atno 10763 bound_to 10752
  152.9806  135.6001  154.3707 H   0  0  0  0  0  0  0  0  0  0  0  0  # atno 10764 bound_to 10752
  154.3558  135.2841  155.2326 H   0  0  0  0  0  0  0  0  0  0  0  0  # atno 10765 bound_to 10752
  140.1714  134.4217  155.8255 H   0  0  0  0  0  0  0  0  0  0  0  0  # atno 11005 bound_to 11000
  145.5220  139.1476  143.3547 LP  0  0  0  0  0  0  0  0  0  0  0  0  # atno 17320 bound_to 7965
  146.2460  140.5361  142.8914 LP  0  0  0  0  0  0  0  0  0  0  0  0  # atno 17321 bound_to 7965
  140.0778  144.5725  150.7144 LP  0  0  0  0  0  0  0  0  0  0  0  0  # atno 17342 bound_to 10162
  140.7177  143.2559  151.4381 LP  0  0  0  0  0  0  0  0  0  0  0  0  # atno 17343 bound_to 10162
  157.6162  131.0933  150.8706 LP  0  0  0  0  0  0  0  0  0  0  0  0  # atno 17370 bound_to 10713
  156.8837  130.5188  149.5289 LP  0  0  0  0  0  0  0  0  0  0  0  0  # atno 17371 bound_to 10713
  141.2217  133.6958  156.7770 LP  0  0  0  0  0  0  0  0  0  0  0  0  # atno 17394 bound_to 11000
  140.2373  134.8640  157.3538 LP  0  0  0  0  0  0  0  0  0  0  0  0  # atno 17395 bound_to 11000

$$$$
