AV-unprocessed.smi:2563|AV-procd|sdf|10056|dock7
  -GOLD-   2272014 93D 1   1.00000     0.00000
 Structure written by MMmdl.
 35 36  0  0  0  0  0  0  0  0  2 V2000
  151.3635  137.7478  159.1902 C   0  0  0  0  0  0  0  0  0  0  0  0
  151.0037  139.2134  158.9140 C   0  0  0  0  0  0  0  0  0  0  0  0
  151.7619  139.7658  157.7936 N   0  0  0  0  0  0  0  0  0  0  0  0
  152.6200  140.9278  158.0294 C   0  0  0  0  0  0  0  0  0  0  0  0
  151.8353  142.1409  158.5603 C   0  0  2  0  0  0  0  0  0  0  0  0
  150.9454  142.7658  157.4683 C   0  0  0  0  0  0  0  0  0  0  0  0
  150.2630  143.9648  157.9937 N   0  3  0  0  0  0  0  0  0  0  0  0
  151.2241  144.9389  158.5464 C   0  0  0  0  0  0  0  0  0  0  0  0
  152.1251  144.2570  159.5897 C   0  0  0  0  0  0  0  0  0  0  0  0
  152.7640  143.1297  159.0002 O   0  0  0  0  0  0  0  0  0  0  0  0
  151.6689  139.1962  156.5002 C   0  0  0  0  0  0  0  0  0  0  0  0
  150.8183  138.0977  156.2239 C   0  0  0  0  0  0  0  0  0  0  0  0
  150.7828  137.6004  154.9098 C   0  0  0  0  0  0  0  0  0  0  0  0
  151.5993  138.2317  153.9565 C   0  0  0  0  0  0  0  0  0  0  0  0
  152.3977  139.2760  154.2647 N   0  0  0  0  0  0  0  0  0  0  0  0
  152.4293  139.7449  155.5162 N   0  0  0  0  0  0  0  0  0  0  0  0
  150.7970  137.3656  160.0394 H   0  0  0  0  0  0  0  0  0  0  0  0
  152.4231  137.6383  159.4230 H   0  0  0  0  0  0  0  0  0  0  0  0
  151.1425  137.1131  158.3320 H   0  0  0  0  0  0  0  0  0  0  0  0
  149.9317  139.3280  158.7548 H   0  0  0  0  0  0  0  0  0  0  0  0
  151.2240  139.8010  159.8055 H   0  0  0  0  0  0  0  0  0  0  0  0
  153.4028  140.6589  158.7396 H   0  0  0  0  0  0  0  0  0  0  0  0
  153.1430  141.1888  157.1085 H   0  0  0  0  0  0  0  0  0  0  0  0
  151.2076  141.8317  159.3979 H   0  0  0  0  0  0  0  0  0  0  0  0
  151.5444  143.0443  156.5999 H   0  0  0  0  0  0  0  0  0  0  0  0
  150.1961  142.0508  157.1272 H   0  0  0  0  0  0  0  0  0  0  0  0
  149.7289  144.3996  157.2547 H   0  0  0  0  0  0  0  0  0  0  0  0
  151.8289  145.3452  157.7346 H   0  0  0  0  0  0  0  0  0  0  0  0
  150.6810  145.7725  158.9923 H   0  0  0  0  0  0  0  0  0  0  0  0
  152.8875  144.9526  159.9404 H   0  0  0  0  0  0  0  0  0  0  0  0
  151.5490  143.9480  160.4632 H   0  0  0  0  0  0  0  0  0  0  0  0
  150.2081  137.6284  156.9801 H   0  0  0  0  0  0  0  0  0  0  0  0
  150.1535  136.7646  154.6427 H   0  0  0  0  0  0  0  0  0  0  0  0
  151.6144  137.8942  152.9307 H   0  0  0  0  0  0  0  0  0  0  0  0
  149.6335  143.6793  158.7305 H   0  0  0  0  0  0  0  0  0  0  0  0
  1  2  1  0  0  0  0
  1 17  1  0  0  0  0
  1 18  1  0  0  0  0
  1 19  1  0  0  0  0
  2  3  1  0  0  0  0
  2 20  1  0  0  0  0
  2 21  1  0  0  0  0
  3  4  1  0  0  0  0
  3 11  1  0  0  0  0
  4  5  1  0  0  0  0
  4 22  1  0  0  0  0
  4 23  1  0  0  0  0
  5 10  1  0  0  0  0
  5  6  1  0  0  0  0
  5 24  1  0  0  0  0
  6  7  1  0  0  0  0
  6 25  1  0  0  0  0
  6 26  1  0  0  0  0
  7  8  1  0  0  0  0
  7 27  1  0  0  0  0
  7 35  1  0  0  0  0
  8  9  1  0  0  0  0
  8 28  1  0  0  0  0
  8 29  1  0  0  0  0
  9 10  1  0  0  0  0
  9 30  1  0  0  0  0
  9 31  1  0  0  0  0
 11 16  1  0  0  0  0
 11 12  2  0  0  0  0
 12 13  1  0  0  0  0
 12 32  1  0  0  0  0
 13 14  2  0  0  0  0
 13 33  1  0  0  0  0
 14 15  1  0  0  0  0
 14 34  1  0  0  0  0
 15 16  2  0  0  0  0
M  CHG  1   7   1
M  END
> <s_m_source_file>
AV-unprocessed.smi

> <i_m_source_file_index>
2563

> <i_lp_mmshare_version>
43012

> <i_f3d_flags>
0

> <s_epik_input>
bjFuW2NIXVtjSF1bY0hdYzFOKFtDSDJdW0NIM10pW0NIMl1bQ0BASF0yW0NIMl1bTkhdW0NIMl1bQ0gyXU8y

> <s_epik_cmdline>
J2VwaWtfcHl0aG9uJywgJy1waCcsICc3LjAnLCAnLXRuJywgJzgnLCAnLW1hJywgJzIwMCcsICctbWV0YWxfYmluZGluZycsICctaW1hZScsICc8aW5maWxlLm1hZT4nLCAnLW9tYWUnLCAnPG91dGZpbGUubWFlPic=

> <r_lp_tautomer_probability>
1

> <r_epik_Ionization_Penalty>
0.0472862

> <r_epik_Ionization_Penalty_Charging>
0.0127794

> <r_epik_Ionization_Penalty_Neutral>
0.0345068

> <r_epik_State_Penalty>
0.0614045

> <r_epik_Charging_Adjusted_Penalty>
0.0741839

> <i_epik_Tot_Q>
1

> <i_epik_Tot_abs_Q>
1

> <r_epik_Metal_State_Penalty>
0.0547208

> <b_epik_Metal_Only>
0

> <s_lp_Force_Field>
OPLS_2005

> <r_lp_Energy>
24.8207

> <b_lp_Chiralities_Consistent>
1

> <s_lp_Variant>
AV-unprocessed.smi:2563-1

> <Gold.Version>
5.8.1

> <Gold.Id.Protein>
6NUR|6NUR_protein|mol2

> <Gold.PLP.Fitness>
40.8704

> <Gold.PLP.PLP>
-27.3050

> <Gold.PLP.part.hbond>
-3.4303

> <Gold.PLP.part.metal>
0.0000

> <Gold.PLP.part.buried>
-3.7703

> <Gold.PLP.part.nonpolar>
-19.9634

> <Gold.PLP.part.repulsive>
0.1192

> <Gold.PLP.ligand.clash>
0.0000

> <Gold.PLP.ligand.torsion>
0.0653

> <Gold.PLP.Chemscore.Hbond>
3.5624

> <Gold.PLP.Chemscore.CHOScore>
0.9982

> <Gold.PLP.Chemscore.Metal>
0.0000

> <Gold.Chemscore.Hbonds>
donor molecule, donor type, donor heavy atom, donor atom, acceptor molecule, acceptor atom, score
      L1  H     7    27       P1  8028  2.00
      P1  H  7989  7998       L1    15  0.50
      P1  H  7997  8009       L1    16  0.91
      L1  C    14    34       P1  7949  1.00

> <Gold.PLP.Chemscore.Internal.Correction>
0.0141

> <Gold.Rescore>
     Score         DG    S(hbond)    S(metal)    S(lipo)     H(rot)  DE(clash)    DE(int)     intcor
     16.38     -16.46       1.58        0.00      79.57       1.40       0.05       0.03       ----

> <Gold.Chemscore.Fitness>
16.3836

> <Gold.Chemscore.DG>
-16.4609

> <Gold.Chemscore.ZeroCoef>
-5.4800

> <Gold.Chemscore.Hbond>
1.5759

> <Gold.Chemscore.Metal>
0.0000

> <Gold.Chemscore.Lipo>
79.5702

> <Gold.Chemscore.Internal_Hbond>
0.0000

> <Gold.Chemscore.DEClash>
0.0473

> <Gold.Chemscore.DEInternal>
0.0300

> <Gold.Chemscore.Rot>
1.4033

> <Gold.Chemscore.Internal.Correction>
   9.000000E+99

> <Gold.Chemscore.Hbonds>
donor molecule, donor type, donor heavy atom, donor atom, acceptor molecule, acceptor atom, score
      L1  H     7    27       P1  8028  0.26
      P1  H  7989  7998       L1    15  0.05
      P1  H  7997  8009       L1    16  0.60

> <Gold.Chemscore.Hbond.Weighted>
-5.2637

> <Gold.Chemscore.Metal.Weighted>
-0.0000

> <Gold.Chemscore.Lipo.Weighted>
-9.3097

> <Gold.Chemscore.Internal_Hbond.Weighted>
0.0000

> <Gold.Chemscore.DEClash.Weighted>
0.0473

> <Gold.Chemscore.DEInternal.Weighted>
0.0300

> <Gold.Chemscore.Rot.Weighted>
3.5924

> <Gold.Chemscore.Internal.Correction.Weighted>
   9.000000E+99

> <Gold.Protein.RotatedTorsions>
[ 6907 6896 6895 6894 ] final  155.76 input  -60.11 | X-H torsion
[ 7974 7965 7964 7962 ] final  156.58 input  175.53 | X-H torsion
[ 8008 7997 7996 7995 ] final -146.87 input   59.86 | X-H torsion
[ 10167 10162 10161 10158 ] final  -99.36 input  -65.29 | X-H torsion
[ 10718 10713 10712 10709 ] final  -81.64 input   66.30 | X-H torsion
[ 10763 10752 10751 10750 ] final  -23.01 input  -60.55 | X-H torsion
[ 11005 11000 10999 10996 ] final -169.54 input  -57.11 | X-H torsion

> <Gold.Protein.ActiveResidues>
 VAL166  LYS551  ARG553  GLY616  TRP617  ASP618  TYR619  PRO620  LYS621  CYS622 
 ASP623  PHE694  ASN695  SER759  ASP760  ASP761  ALA762  ILE779  LEU786  VAL792 
 PHE793  MET794  SER795  GLU796  ALA797  LYS798  CYS799  TRP800  GLU811  SER814 

> <Gold.Protein.RotatedAtoms>
  152.0395  133.3971  159.4330 H   0  0  0  0  0  0  0  0  0  0  0  0  # atno 6907 bound_to 6896
  150.6876  134.3431  159.4885 H   0  0  0  0  0  0  0  0  0  0  0  0  # atno 6908 bound_to 6896
  152.1227  134.9193  160.0613 H   0  0  0  0  0  0  0  0  0  0  0  0  # atno 6909 bound_to 6896
  144.7954  139.7223  143.6204 H   0  0  0  0  0  0  0  0  0  0  0  0  # atno 7974 bound_to 7965
  155.5663  140.0630  157.2817 H   0  0  0  0  0  0  0  0  0  0  0  0  # atno 8008 bound_to 7997
  154.4374  140.1877  156.0879 H   0  0  0  0  0  0  0  0  0  0  0  0  # atno 8009 bound_to 7997
  156.0409  140.3295  155.7247 H   0  0  0  0  0  0  0  0  0  0  0  0  # atno 8010 bound_to 7997
  140.2633  143.3393  152.0605 H   0  0  0  0  0  0  0  0  0  0  0  0  # atno 10167 bound_to 10162
  156.0047  130.4610  150.3983 H   0  0  0  0  0  0  0  0  0  0  0  0  # atno 10718 bound_to 10713
  153.6611  135.6976  153.5177 H   0  0  0  0  0  0  0  0  0  0  0  0  # atno 10763 bound_to 10752
  153.2631  135.4238  155.0913 H   0  0  0  0  0  0  0  0  0  0  0  0  # atno 10764 bound_to 10752
  154.8452  135.3560  154.6155 H   0  0  0  0  0  0  0  0  0  0  0  0  # atno 10765 bound_to 10752
  140.5295  134.5630  157.5071 H   0  0  0  0  0  0  0  0  0  0  0  0  # atno 11005 bound_to 11000
  146.2221  139.5654  142.9612 LP  0  0  0  0  0  0  0  0  0  0  0  0  # atno 17320 bound_to 7965
  145.5686  141.0396  143.2186 LP  0  0  0  0  0  0  0  0  0  0  0  0  # atno 17321 bound_to 7965
  139.5010  144.6704  151.6255 LP  0  0  0  0  0  0  0  0  0  0  0  0  # atno 17342 bound_to 10162
  140.5948  143.9715  150.6347 LP  0  0  0  0  0  0  0  0  0  0  0  0  # atno 17343 bound_to 10162
  157.2053  131.0448  151.2628 LP  0  0  0  0  0  0  0  0  0  0  0  0  # atno 17370 bound_to 10713
  157.3938  130.7296  149.6717 LP  0  0  0  0  0  0  0  0  0  0  0  0  # atno 17371 bound_to 10713
  139.9562  134.7531  156.0337 LP  0  0  0  0  0  0  0  0  0  0  0  0  # atno 17394 bound_to 11000
  141.1289  133.6591  156.3411 LP  0  0  0  0  0  0  0  0  0  0  0  0  # atno 17395 bound_to 11000

$$$$
