AV-unprocessed.smi:686|AV-procd|sdf|3338|dock5
  -GOLD-   22720 0313D 1   1.00000     0.00000
 Structure written by MMmdl.
 41 42  0  0  0  0  0  0  0  0  2 V2000
  150.4031  133.5384  156.1179 C   0  0  0  0  0  0  0  0  0  0  0  0
  149.5239  134.4257  155.2205 C   0  0  1  0  0  0  0  0  0  0  0  0
  148.8291  133.6971  154.0728 C   0  0  0  0  0  0  0  0  0  0  0  0
  147.7863  134.6323  153.5939 N   0  3  1  0  0  0  0  0  0  0  0  0
  146.6419  134.0048  152.8738 C   0  0  0  0  0  0  0  0  0  0  0  0
  147.1176  132.9960  151.8104 C   0  0  0  0  0  0  0  0  0  0  0  0
  145.7555  135.0727  152.2040 C   0  0  0  0  0  0  0  0  0  0  0  0
  147.4112  135.4945  154.7453 C   0  0  0  0  0  0  0  0  0  0  0  0
  148.3667  135.1608  155.9062 C   0  0  1  0  0  0  0  0  0  0  0  0
  147.7000  134.2952  156.8862 N   0  0  0  0  0  0  0  0  0  0  0  0
  148.3983  134.0922  158.4508 S   0  0  0  0  0  0  0  0  0  0  0  0
  148.9082  132.7145  158.5195 O   0  0  0  0  0  0  0  0  0  0  0  0
  149.3053  135.2269  158.6830 O   0  0  0  0  0  0  0  0  0  0  0  0
  146.9285  134.2376  159.5556 C   0  0  0  0  0  0  0  0  0  0  0  0
  147.1736  135.2923  160.5980 C   0  0  0  0  0  0  0  0  0  0  0  0
  147.3111  135.1308  162.0043 C   0  0  0  0  0  0  0  0  0  0  0  0
  147.5225  136.4030  162.4522 C   0  0  0  0  0  0  0  0  0  0  0  0
  147.5166  137.2788  161.4158 O   0  0  0  0  0  0  0  0  0  0  0  0
  147.2900  136.5611  160.2361 N   0  0  0  0  0  0  0  0  0  0  0  0
  149.8426  132.7053  156.5428 H   0  0  0  0  0  0  0  0  0  0  0  0
  150.8243  134.1138  156.9427 H   0  0  0  0  0  0  0  0  0  0  0  0
  151.2331  133.1169  155.5505 H   0  0  0  0  0  0  0  0  0  0  0  0
  150.1716  135.1858  154.7798 H   0  0  0  0  0  0  0  0  0  0  0  0
  149.5237  133.4267  153.2769 H   0  0  0  0  0  0  0  0  0  0  0  0
  148.3629  132.7823  154.4437 H   0  0  0  0  0  0  0  0  0  0  0  0
  146.0381  133.4639  153.6044 H   0  0  0  0  0  0  0  0  0  0  0  0
  146.2720  132.5849  151.2584 H   0  0  0  0  0  0  0  0  0  0  0  0
  147.6435  132.1496  152.2523 H   0  0  0  0  0  0  0  0  0  0  0  0
  147.7854  133.4662  151.0878 H   0  0  0  0  0  0  0  0  0  0  0  0
  144.9296  134.6104  151.6627 H   0  0  0  0  0  0  0  0  0  0  0  0
  146.3251  135.6672  151.4888 H   0  0  0  0  0  0  0  0  0  0  0  0
  145.3136  135.7580  152.9267 H   0  0  0  0  0  0  0  0  0  0  0  0
  147.5251  136.5358  154.4427 H   0  0  0  0  0  0  0  0  0  0  0  0
  146.3690  135.3569  155.0344 H   0  0  0  0  0  0  0  0  0  0  0  0
  148.7202  136.0611  156.4107 H   0  0  0  0  0  0  0  0  0  0  0  0
  146.6987  134.4809  156.9464 H   0  0  0  0  0  0  0  0  0  0  0  0
  146.0501  134.4582  158.9485 H   0  0  0  0  0  0  0  0  0  0  0  0
  146.7683  133.2677  160.0267 H   0  0  0  0  0  0  0  0  0  0  0  0
  147.2643  134.2257  162.5915 H   0  0  0  0  0  0  0  0  0  0  0  0
  147.6873  136.8276  163.4316 H   0  0  0  0  0  0  0  0  0  0  0  0
  148.2488  135.2410  152.9336 H   0  0  0  0  0  0  0  0  0  0  0  0
  1  2  1  0  0  0  0
  1 20  1  0  0  0  0
  1 21  1  0  0  0  0
  1 22  1  0  0  0  0
  2  9  1  0  0  0  0
  2  3  1  0  0  0  0
  2 23  1  0  0  0  0
  3  4  1  0  0  0  0
  3 24  1  0  0  0  0
  3 25  1  0  0  0  0
  4  5  1  0  0  0  0
  4  8  1  0  0  0  0
  4 41  1  0  0  0  0
  5  6  1  0  0  0  0
  5  7  1  0  0  0  0
  5 26  1  0  0  0  0
  6 27  1  0  0  0  0
  6 28  1  0  0  0  0
  6 29  1  0  0  0  0
  7 30  1  0  0  0  0
  7 31  1  0  0  0  0
  7 32  1  0  0  0  0
  8  9  1  0  0  0  0
  8 33  1  0  0  0  0
  8 34  1  0  0  0  0
  9 10  1  0  0  0  0
  9 35  1  0  0  0  0
 10 11  1  0  0  0  0
 10 36  1  0  0  0  0
 11 12  2  0  0  0  0
 11 13  2  0  0  0  0
 11 14  1  0  0  0  0
 14 15  1  0  0  0  0
 14 37  1  0  0  0  0
 14 38  1  0  0  0  0
 15 19  2  0  0  0  0
 15 16  1  0  0  0  0
 16 17  2  0  0  0  0
 16 39  1  0  0  0  0
 17 18  1  0  0  0  0
 17 40  1  0  0  0  0
 18 19  1  0  0  0  0
M  CHG  1   4   1
M  END
> <s_m_source_file>
AV-unprocessed.smi

> <i_m_source_file_index>
686

> <i_lp_mmshare_version>
43012

> <i_f3d_flags>
0

> <s_epik_input>
W0NIM11bQ0BASF0xW0NIMl1OKFtDSF0oW0NIM10pW0NIM10pW0NIMl1bQ0BIXTFbTkhdUyg9TykoPU8pW0NIMl1jMltjSF1bY0hdb24y

> <s_epik_cmdline>
J2VwaWtfcHl0aG9uJywgJy1waCcsICc3LjAnLCAnLXRuJywgJzgnLCAnLW1hJywgJzIwMCcsICctbWV0YWxfYmluZGluZycsICctaW1hZScsICc8aW5maWxlLm1hZT4nLCAnLW9tYWUnLCAnPG91dGZpbGUubWFlPic=

> <r_epik_Ionization_Penalty>
0.00200818

> <r_epik_Ionization_Penalty_Charging>
0.000701289

> <r_epik_Ionization_Penalty_Neutral>
0.00130689

> <r_epik_State_Penalty>
0.00131314

> <r_epik_Charging_Adjusted_Penalty>
0.00201443

> <i_epik_Tot_Q>
1

> <i_epik_Tot_abs_Q>
1

> <r_epik_Metal_State_Penalty>
0.310831

> <b_epik_Metal_Only>
0

> <s_lp_Force_Field>
OPLS_2005

> <r_lp_Energy>
21.3818

> <b_lp_Chiralities_Consistent>
1

> <s_lp_Variant>
AV-unprocessed.smi:686-2

> <Gold.Version>
5.8.1

> <Gold.Id.Protein>
6NUR|6NUR_protein|mol2

> <Gold.PLP.Fitness>
41.4190

> <Gold.PLP.PLP>
-28.1009

> <Gold.PLP.part.hbond>
-4.2549

> <Gold.PLP.part.metal>
0.0000

> <Gold.PLP.part.buried>
-3.2395

> <Gold.PLP.part.nonpolar>
-20.8062

> <Gold.PLP.part.repulsive>
0.0000

> <Gold.PLP.ligand.clash>
0.0000

> <Gold.PLP.ligand.torsion>
0.6522

> <Gold.PLP.Chemscore.Hbond>
4.8160

> <Gold.PLP.Chemscore.CHOScore>
0.0000

> <Gold.PLP.Chemscore.Metal>
0.0000

> <Gold.Chemscore.Hbonds>
donor molecule, donor type, donor heavy atom, donor atom, acceptor molecule, acceptor atom, score
      L1  H     4    41       P1  7948  2.00
      P1  H  6896  6907       L1    13  0.85
      P1  H  6931  6943       L1    18  0.81
      P1  H  6934  6947       L1    18  0.86

> <Gold.PLP.Chemscore.Internal.Correction>
0.1744

> <Gold.Rescore>
     Score         DG    S(hbond)    S(metal)    S(lipo)     H(rot)  DE(clash)    DE(int)     intcor
     15.52     -17.24       2.94        0.00      58.32       1.91       0.00       1.73       ----

> <Gold.Chemscore.Fitness>
15.5184

> <Gold.Chemscore.DG>
-17.2447

> <Gold.Chemscore.ZeroCoef>
-5.4800

> <Gold.Chemscore.Hbond>
2.9444

> <Gold.Chemscore.Metal>
0.0000

> <Gold.Chemscore.Lipo>
58.3241

> <Gold.Chemscore.Internal_Hbond>
0.0000

> <Gold.Chemscore.DEClash>
0.0000

> <Gold.Chemscore.DEInternal>
1.7263

> <Gold.Chemscore.Rot>
1.9115

> <Gold.Chemscore.Internal.Correction>
   9.000000E+99

> <Gold.Chemscore.Hbonds>
donor molecule, donor type, donor heavy atom, donor atom, acceptor molecule, acceptor atom, score
      L1  H     4    41       P1  7948  0.95
      P1  H  6896  6907       L1    13  0.15
      P1  H  6931  6943       L1    18  0.16
      P1  H  6934  6947       L1    18  0.38

> <Gold.Chemscore.Hbond.Weighted>
-9.8342

> <Gold.Chemscore.Metal.Weighted>
-0.0000

> <Gold.Chemscore.Lipo.Weighted>
-6.8239

> <Gold.Chemscore.Internal_Hbond.Weighted>
0.0000

> <Gold.Chemscore.DEClash.Weighted>
0.0000

> <Gold.Chemscore.DEInternal.Weighted>
1.7263

> <Gold.Chemscore.Rot.Weighted>
4.8935

> <Gold.Chemscore.Internal.Correction.Weighted>
   9.000000E+99

> <Gold.Protein.RotatedTorsions>
[ 6907 6896 6895 6894 ] final  -88.59 input  -60.11 | X-H torsion
[ 7974 7965 7964 7962 ] final  145.36 input  175.53 | X-H torsion
[ 8008 7997 7996 7995 ] final  -16.44 input   59.86 | X-H torsion
[ 10167 10162 10161 10158 ] final  179.74 input  -65.29 | X-H torsion
[ 10718 10713 10712 10709 ] final -121.33 input   66.30 | X-H torsion
[ 10763 10752 10751 10750 ] final -111.46 input  -60.55 | X-H torsion
[ 11005 11000 10999 10996 ] final  -22.58 input  -57.11 | X-H torsion

> <Gold.Protein.ActiveResidues>
 VAL166  LYS551  ARG553  GLY616  TRP617  ASP618  TYR619  PRO620  LYS621  CYS622 
 ASP623  PHE694  ASN695  SER759  ASP760  ASP761  ALA762  ILE779  LEU786  VAL792 
 PHE793  MET794  SER795  GLU796  ALA797  LYS798  CYS799  TRP800  GLU811  SER814 

> <Gold.Protein.RotatedAtoms>
  150.6869  134.2718  159.4591 H   0  0  0  0  0  0  0  0  0  0  0  0  # atno 6907 bound_to 6896
  152.0640  134.9574  160.0584 H   0  0  0  0  0  0  0  0  0  0  0  0  # atno 6908 bound_to 6896
  152.0990  133.4205  159.4615 H   0  0  0  0  0  0  0  0  0  0  0  0  # atno 6909 bound_to 6896
  144.8759  139.5773  143.5865 H   0  0  0  0  0  0  0  0  0  0  0  0  # atno 7974 bound_to 7965
  154.5053  140.2169  155.9264 H   0  0  0  0  0  0  0  0  0  0  0  0  # atno 8008 bound_to 7997
  156.1485  140.3166  155.8577 H   0  0  0  0  0  0  0  0  0  0  0  0  # atno 8009 bound_to 7997
  155.3984  140.0482  157.3028 H   0  0  0  0  0  0  0  0  0  0  0  0  # atno 8010 bound_to 7997
  139.5350  144.2524  152.0773 H   0  0  0  0  0  0  0  0  0  0  0  0  # atno 10167 bound_to 10162
  156.1329  130.6409  150.9650 H   0  0  0  0  0  0  0  0  0  0  0  0  # atno 10718 bound_to 10713
  154.8301  135.4526  154.1043 H   0  0  0  0  0  0  0  0  0  0  0  0  # atno 10763 bound_to 10752
  153.2323  135.6907  153.7882 H   0  0  0  0  0  0  0  0  0  0  0  0  # atno 10764 bound_to 10752
  153.7260  135.3334  155.3252 H   0  0  0  0  0  0  0  0  0  0  0  0  # atno 10765 bound_to 10752
  140.8671  133.7747  156.0142 H   0  0  0  0  0  0  0  0  0  0  0  0  # atno 11005 bound_to 11000
  146.2962  139.7286  142.9125 LP  0  0  0  0  0  0  0  0  0  0  0  0  # atno 17320 bound_to 7965
  145.4043  141.0389  143.3053 LP  0  0  0  0  0  0  0  0  0  0  0  0  # atno 17321 bound_to 7965
  140.1994  144.4673  150.6439 LP  0  0  0  0  0  0  0  0  0  0  0  0  # atno 17342 bound_to 10162
  140.6551  143.2235  151.5988 LP  0  0  0  0  0  0  0  0  0  0  0  0  # atno 17343 bound_to 10162
  157.6505  131.0897  150.8061 LP  0  0  0  0  0  0  0  0  0  0  0  0  # atno 17370 bound_to 10713
  156.8144  130.4963  149.5351 LP  0  0  0  0  0  0  0  0  0  0  0  0  # atno 17371 bound_to 10713
  140.8617  134.2833  157.5231 LP  0  0  0  0  0  0  0  0  0  0  0  0  # atno 17394 bound_to 11000
  139.8710  134.9521  156.4105 LP  0  0  0  0  0  0  0  0  0  0  0  0  # atno 17395 bound_to 11000

$$$$
