AV-unprocessed.smi:2898|AV-procd|sdf|11141|dock2
  -GOLD-   2272016 13D 1   1.00000     0.00000
 Structure written by MMmdl.
 44 45  0  0  0  0  0  0  0  0  1 V2000
  148.7587  134.1714  157.2349 C   0  0  0  0  0  0  0  0  0  0  0  0
  149.6598  132.9700  157.2295 C   0  0  0  0  0  0  0  0  0  0  0  0
  150.6772  132.9163  158.0710 N   0  0  0  0  0  0  0  0  0  0  0  0
  151.3283  131.7094  157.8045 O   0  0  0  0  0  0  0  0  0  0  0  0
  150.6717  131.0765  156.7992 C   0  0  0  0  0  0  0  0  0  0  0  0
  151.2447  129.7707  156.3611 C   0  0  0  0  0  0  0  0  0  0  0  0
  149.5945  131.8190  156.3911 C   0  0  0  0  0  0  0  0  0  0  0  0
  148.5831  131.5458  155.2962 C   0  0  2  0  0  0  0  0  0  0  0  0
  148.7897  130.1618  154.6617 C   0  0  0  0  0  0  0  0  0  0  0  0
  148.5615  132.6600  154.2274 C   0  0  0  0  0  0  0  0  0  0  0  0
  147.7010  132.3109  153.0992 N   0  0  0  0  0  0  0  0  0  0  0  0
  146.5458  132.9172  152.7733 C   0  0  0  0  0  0  0  0  0  0  0  0
  146.1381  133.9212  153.3598 O   0  0  0  0  0  0  0  0  0  0  0  0
  145.7010  132.2931  151.6405 C   0  0  0  0  0  0  0  0  0  0  0  0
  145.4728  130.8509  151.8719 C   0  0  0  0  0  0  0  0  0  0  0  0
  145.2950  129.7211  152.0528 N   0  0  0  0  0  0  0  0  0  0  0  0
  144.3341  133.0211  151.5732 C   0  0  0  0  0  0  0  0  0  0  0  0
  143.4747  132.5397  150.3909 C   0  0  0  0  0  0  0  0  0  0  0  0
  144.2246  132.7066  149.0607 C   0  0  0  0  0  0  0  0  0  0  0  0
  145.5905  132.0048  149.0953 C   0  0  0  0  0  0  0  0  0  0  0  0
  146.4316  132.4912  150.2889 C   0  0  0  0  0  0  0  0  0  0  0  0
  148.7881  134.6818  156.2719 H   0  0  0  0  0  0  0  0  0  0  0  0
  149.0489  134.8933  157.9994 H   0  0  0  0  0  0  0  0  0  0  0  0
  147.7254  133.8829  157.4277 H   0  0  0  0  0  0  0  0  0  0  0  0
  151.2187  129.6777  155.2759 H   0  0  0  0  0  0  0  0  0  0  0  0
  150.6826  128.9403  156.7878 H   0  0  0  0  0  0  0  0  0  0  0  0
  152.2831  129.6734  156.6782 H   0  0  0  0  0  0  0  0  0  0  0  0
  147.5866  131.5261  155.7392 H   0  0  0  0  0  0  0  0  0  0  0  0
  148.7562  129.3754  155.4163 H   0  0  0  0  0  0  0  0  0  0  0  0
  149.7471  130.0902  154.1465 H   0  0  0  0  0  0  0  0  0  0  0  0
  148.0093  129.9485  153.9308 H   0  0  0  0  0  0  0  0  0  0  0  0
  148.2520  133.6074  154.6710 H   0  0  0  0  0  0  0  0  0  0  0  0
  149.5694  132.8237  153.8450 H   0  0  0  0  0  0  0  0  0  0  0  0
  147.9726  131.4999  152.5623 H   0  0  0  0  0  0  0  0  0  0  0  0
  143.7836  132.8679  152.5025 H   0  0  0  0  0  0  0  0  0  0  0  0
  144.4789  134.0989  151.4819 H   0  0  0  0  0  0  0  0  0  0  0  0
  143.1996  131.4937  150.5296 H   0  0  0  0  0  0  0  0  0  0  0  0
  142.5401  133.1002  150.3606 H   0  0  0  0  0  0  0  0  0  0  0  0
  143.6232  132.3110  148.2419 H   0  0  0  0  0  0  0  0  0  0  0  0
  144.3666  133.7682  148.8545 H   0  0  0  0  0  0  0  0  0  0  0  0
  145.4482  130.9252  149.1531 H   0  0  0  0  0  0  0  0  0  0  0  0
  146.1260  132.1934  148.1644 H   0  0  0  0  0  0  0  0  0  0  0  0
  146.6746  133.5443  150.1376 H   0  0  0  0  0  0  0  0  0  0  0  0
  147.3835  131.9585  150.2987 H   0  0  0  0  0  0  0  0  0  0  0  0
  1  2  1  0  0  0  0
  1 22  1  0  0  0  0
  1 23  1  0  0  0  0
  1 24  1  0  0  0  0
  2  7  1  0  0  0  0
  2  3  2  0  0  0  0
  3  4  1  0  0  0  0
  4  5  1  0  0  0  0
  5  6  1  0  0  0  0
  5  7  2  0  0  0  0
  6 25  1  0  0  0  0
  6 26  1  0  0  0  0
  6 27  1  0  0  0  0
  7  8  1  0  0  0  0
  8  9  1  0  0  0  0
  8 10  1  0  0  0  0
  8 28  1  0  0  0  0
  9 29  1  0  0  0  0
  9 30  1  0  0  0  0
  9 31  1  0  0  0  0
 10 11  1  0  0  0  0
 10 32  1  0  0  0  0
 10 33  1  0  0  0  0
 11 12  1  0  0  0  0
 11 34  1  0  0  0  0
 12 13  2  0  0  0  0
 12 14  1  0  0  0  0
 14 21  1  0  0  0  0
 14 15  1  0  0  0  0
 14 17  1  0  0  0  0
 15 16  3  0  0  0  0
 17 18  1  0  0  0  0
 17 35  1  0  0  0  0
 17 36  1  0  0  0  0
 18 19  1  0  0  0  0
 18 37  1  0  0  0  0
 18 38  1  0  0  0  0
 19 20  1  0  0  0  0
 19 39  1  0  0  0  0
 19 40  1  0  0  0  0
 20 21  1  0  0  0  0
 20 41  1  0  0  0  0
 20 42  1  0  0  0  0
 21 43  1  0  0  0  0
 21 44  1  0  0  0  0
M  END
> <s_m_source_file>
AV-unprocessed.smi

> <i_m_source_file_index>
2898

> <i_lp_mmshare_version>
43012

> <i_f3d_flags>
0

> <s_epik_input>
W0NIM11jMW5vYyhbQ0gzXSljMVtDQEhdKFtDSDNdKVtDSDJdW05IXUMoPU8pQzIoQyNOKVtDSDJdW0NIMl1bQ0gyXVtDSDJdW0NIMl0y

> <s_epik_cmdline>
J2VwaWtfcHl0aG9uJywgJy1waCcsICc3LjAnLCAnLXRuJywgJzgnLCAnLW1hJywgJzIwMCcsICctbWV0YWxfYmluZGluZycsICctaW1hZScsICc8aW5maWxlLm1hZT4nLCAnLW9tYWUnLCAnPG91dGZpbGUubWFlPic=

> <r_lp_tautomer_probability>
1

> <r_epik_Ionization_Penalty>
4.33734e-07

> <r_epik_Ionization_Penalty_Charging>
0

> <r_epik_Ionization_Penalty_Neutral>
4.33734e-07

> <r_epik_State_Penalty>
-0

> <r_epik_Charging_Adjusted_Penalty>
0

> <i_epik_Tot_Q>
0

> <i_epik_Tot_abs_Q>
0

> <r_epik_Metal_State_Penalty>
-0

> <b_epik_Metal_Only>
0

> <s_lp_Force_Field>
OPLS_2005

> <r_lp_Energy>
7.89046

> <b_lp_Chiralities_Consistent>
1

> <s_lp_Variant>
AV-unprocessed.smi:2898-1

> <Gold.Version>
5.8.1

> <Gold.Id.Protein>
6NUR|6NUR_protein|mol2

> <Gold.PLP.Fitness>
45.8183

> <Gold.PLP.PLP>
-40.4564

> <Gold.PLP.part.hbond>
-2.0000

> <Gold.PLP.part.metal>
0.0000

> <Gold.PLP.part.buried>
-3.9731

> <Gold.PLP.part.nonpolar>
-34.4112

> <Gold.PLP.part.repulsive>
0.2253

> <Gold.PLP.ligand.clash>
0.0000

> <Gold.PLP.ligand.torsion>
0.3006

> <Gold.PLP.Chemscore.Hbond>
1.9600

> <Gold.PLP.Chemscore.CHOScore>
0.0000

> <Gold.PLP.Chemscore.Metal>
0.0000

> <Gold.Chemscore.Hbonds>
donor molecule, donor type, donor heavy atom, donor atom, acceptor molecule, acceptor atom, score
      P1  H  6896  6907       L1     3  0.49

> <Gold.PLP.Chemscore.Internal.Correction>
0.0830

> <Gold.Rescore>
     Score         DG    S(hbond)    S(metal)    S(lipo)     H(rot)  DE(clash)    DE(int)     intcor
     16.27     -18.57       1.92        0.00      90.42       1.52       1.15       1.14       ----

> <Gold.Chemscore.Fitness>
16.2740

> <Gold.Chemscore.DG>
-18.5695

> <Gold.Chemscore.ZeroCoef>
-5.4800

> <Gold.Chemscore.Hbond>
1.9201

> <Gold.Chemscore.Metal>
0.0000

> <Gold.Chemscore.Lipo>
90.4161

> <Gold.Chemscore.Internal_Hbond>
0.0000

> <Gold.Chemscore.DEClash>
1.1519

> <Gold.Chemscore.DEInternal>
1.1436

> <Gold.Chemscore.Rot>
1.5243

> <Gold.Chemscore.Internal.Correction>
   9.000000E+99

> <Gold.Chemscore.Hbonds>
donor molecule, donor type, donor heavy atom, donor atom, acceptor molecule, acceptor atom, score
      P1  H  6896  6907       L1     3  0.07

> <Gold.Chemscore.Hbond.Weighted>
-6.4131

> <Gold.Chemscore.Metal.Weighted>
-0.0000

> <Gold.Chemscore.Lipo.Weighted>
-10.5787

> <Gold.Chemscore.Internal_Hbond.Weighted>
0.0000

> <Gold.Chemscore.DEClash.Weighted>
1.1519

> <Gold.Chemscore.DEInternal.Weighted>
1.1436

> <Gold.Chemscore.Rot.Weighted>
3.9022

> <Gold.Chemscore.Internal.Correction.Weighted>
   9.000000E+99

> <Gold.Protein.RotatedTorsions>
[ 6907 6896 6895 6894 ] final -177.51 input  -60.11 | X-H torsion
[ 7974 7965 7964 7962 ] final -162.35 input  175.53 | X-H torsion
[ 8008 7997 7996 7995 ] final    7.82 input   59.86 | X-H torsion
[ 10167 10162 10161 10158 ] final -136.57 input  -65.29 | X-H torsion
[ 10718 10713 10712 10709 ] final  143.24 input   66.30 | X-H torsion
[ 10763 10752 10751 10750 ] final   36.82 input  -60.55 | X-H torsion
[ 11005 11000 10999 10996 ] final   81.25 input  -57.11 | X-H torsion

> <Gold.Protein.ActiveResidues>
 VAL166  LYS551  ARG553  GLY616  TRP617  ASP618  TYR619  PRO620  LYS621  CYS622 
 ASP623  PHE694  ASN695  SER759  ASP760  ASP761  ALA762  ILE779  LEU786  VAL792 
 PHE793  MET794  SER795  GLU796  ALA797  LYS798  CYS799  TRP800  GLU811  SER814 

> <Gold.Protein.RotatedAtoms>
  151.6221  133.3338  159.3090 H   0  0  0  0  0  0  0  0  0  0  0  0  # atno 6907 bound_to 6896
  150.8100  134.7253  159.6691 H   0  0  0  0  0  0  0  0  0  0  0  0  # atno 6908 bound_to 6896
  152.4197  134.5983  160.0044 H   0  0  0  0  0  0  0  0  0  0  0  0  # atno 6909 bound_to 6896
  144.7360  140.3266  143.6161 H   0  0  0  0  0  0  0  0  0  0  0  0  # atno 7974 bound_to 7965
  154.7589  140.2781  155.6231 H   0  0  0  0  0  0  0  0  0  0  0  0  # atno 8008 bound_to 7997
  156.2911  140.2664  156.2289 H   0  0  0  0  0  0  0  0  0  0  0  0  # atno 8009 bound_to 7997
  155.0043  140.0372  157.2363 H   0  0  0  0  0  0  0  0  0  0  0  0  # atno 8010 bound_to 7997
  139.8665  143.7011  152.2644 H   0  0  0  0  0  0  0  0  0  0  0  0  # atno 10167 bound_to 10162
  157.3713  131.0979  151.0826 H   0  0  0  0  0  0  0  0  0  0  0  0  # atno 10718 bound_to 10713
  153.0061  135.6295  154.2047 H   0  0  0  0  0  0  0  0  0  0  0  0  # atno 10763 bound_to 10752
  154.1790  135.2814  155.3059 H   0  0  0  0  0  0  0  0  0  0  0  0  # atno 10764 bound_to 10752
  154.5849  135.5635  153.7281 H   0  0  0  0  0  0  0  0  0  0  0  0  # atno 10765 bound_to 10752
  139.9105  134.7982  156.2017 H   0  0  0  0  0  0  0  0  0  0  0  0  # atno 11005 bound_to 11000
  145.7514  139.1795  143.2319 LP  0  0  0  0  0  0  0  0  0  0  0  0  # atno 17320 bound_to 7965
  146.1057  140.7489  142.9527 LP  0  0  0  0  0  0  0  0  0  0  0  0  # atno 17321 bound_to 7965
  139.7324  144.7579  151.0781 LP  0  0  0  0  0  0  0  0  0  0  0  0  # atno 17342 bound_to 10162
  140.7767  143.5072  150.9698 LP  0  0  0  0  0  0  0  0  0  0  0  0  # atno 17343 bound_to 10162
  157.1929  130.6360  149.5711 LP  0  0  0  0  0  0  0  0  0  0  0  0  # atno 17370 bound_to 10713
  155.9756  130.4716  150.6471 LP  0  0  0  0  0  0  0  0  0  0  0  0  # atno 17371 bound_to 10713
  141.0521  133.6883  156.1791 LP  0  0  0  0  0  0  0  0  0  0  0  0  # atno 17394 bound_to 11000
  140.6794  134.4783  157.5589 LP  0  0  0  0  0  0  0  0  0  0  0  0  # atno 17395 bound_to 11000

$$$$
