#       Name:                AV-unprocessed.smi:679
#       Creating user name   scv26
#       Creation time:       Fri Mar 27 00:29:05 2020


#       File generated by GOLD software.
#

@<TRIPOS>MOLECULE
AV-unprocessed.smi:679
    48    50     1
SMALL
NO_CHARGES


@<TRIPOS>ATOM
      1 ****        -4.9198   1.7572  -0.4630 C.3            1 S1                 0.0000
      2 ****        -3.4022   1.9252  -0.3622 C.3            1 S1                 0.0000
      3 ****        -2.8113   0.6458  -0.2117 O.3            1 S1                 0.0000
      4 ****        -1.3952   0.6940  -0.1351 C.3            1 S1                 0.0000
      5 ****        -0.8383   1.1427   1.2196 C.3            1 S1                 0.0000
      6 ****         0.2264   0.0500   1.0660 C.3            1 S1                 0.0000
      7 ****         1.4247   0.5712   0.4064 N.am           1 S1                 0.0000
      8 ****         2.6164  -0.0430   0.3915 C.2            1 S1                 0.0000
      9 ****         2.8242  -1.1240   0.9442 O.2            1 S1                 0.0000
     10 ****         3.7319   0.6721  -0.3772 C.3            1 S1                 0.0000
     11 ****         5.0409   0.4311   0.2041 N.pl3          1 S1                 0.0000
     12 ****         5.5947   0.8740   1.3350 C.2            1 S1                 0.0000
     13 ****         6.8274   0.4152   1.4883 N.2            1 S1                 0.0000
     14 ****         7.0175  -0.3599   0.3565 N.2            1 S1                 0.0000
     15 ****         5.9619  -0.3522  -0.4103 N.2            1 S1                 0.0000
     16 ****        -0.7407  -0.6888   0.1023 C.3            1 S1                 0.0000
     17 ****        -1.6229  -1.7745   0.7241 C.3            1 S1                 0.0000
     18 ****        -2.2199  -2.5890  -0.4283 C.3            1 S1                 0.0000
     19 ****        -1.3175  -2.3231  -1.6373 C.3            1 S1                 0.0000
     20 ****        -0.1944  -1.4210  -1.1221 C.3            1 S1                 0.0000
     21 ****        -5.4118   2.7220  -0.5887 H              1 S1                 0.0000
     22 ****        -5.3222   1.2902   0.4363 H              1 S1                 0.0000
     23 ****        -5.1875   1.1314  -1.3146 H              1 S1                 0.0000
     24 ****        -3.0218   2.4119  -1.2615 H              1 S1                 0.0000
     25 ****        -3.1541   2.5610   0.4887 H              1 S1                 0.0000
     26 ****        -0.9405   1.2258  -0.9738 H              1 S1                 0.0000
     27 ****        -0.4616   2.1661   1.2427 H              1 S1                 0.0000
     28 ****        -1.5239   0.9495   2.0462 H              1 S1                 0.0000
     29 ****         0.4233  -0.4845   1.9970 H              1 S1                 0.0000
     30 ****         1.3356   1.4542  -0.0751 H              1 S1                 0.0000
     31 ****         3.7265   0.3336  -1.4144 H              1 S1                 0.0000
     32 ****         3.5555   1.7486  -0.3868 H              1 S1                 0.0000
     33 ****         5.0989   1.5256   2.0393 H              1 S1                 0.0000
     34 ****        -1.0142  -2.4312   1.3473 H              1 S1                 0.0000
     35 ****        -2.4023  -1.3706   1.3713 H              1 S1                 0.0000
     36 ****        -2.2680  -3.6497  -0.1804 H              1 S1                 0.0000
     37 ****        -3.2359  -2.2553  -0.6434 H              1 S1                 0.0000
     38 ****        -0.9274  -3.2437  -2.0723 H              1 S1                 0.0000
     39 ****        -1.8848  -1.8069  -2.4128 H              1 S1                 0.0000
     40 ****         0.1549  -0.7399  -1.8987 H              1 S1                 0.0000
     41 ****         0.6576  -2.0394  -0.8366 H              1 S1                 0.0000
     42 ****        -3.0689   0.0816  -0.9962 LP             1 S1                 0.0000
     43 ****        -3.1617   0.2297   0.6274 LP             1 S1                 0.0000
     44 ****         2.0845  -1.5856   1.4340 LP             1 S1                 0.0000
     45 ****         3.7326  -1.5401   0.9031 LP             1 S1                 0.0000
     46 ****         7.4657   0.5867   2.2387 LP             1 S1                 0.0000
     47 ****         7.8578  -0.8622   0.1526 LP             1 S1                 0.0000
     48 ****         5.8531  -0.8308  -1.2816 LP             1 S1                 0.0000
@<TRIPOS>BOND
    1    1    2 1     
    2    1   21 1     
    3    1   22 1     
    4    1   23 1     
    5    2    3 1     
    6    2   24 1     
    7    2   25 1     
    8    3    4 1     
    9    4   16 1     
   10    4    5 1     
   11    4   26 1     
   12    5    6 1     
   13    5   27 1     
   14    5   28 1     
   15    6    7 1     
   16    6   16 1     
   17    6   29 1     
   18    7    8 am    
   19    7   30 1     
   20    8    9 2     
   21    8   10 1     
   22   10   11 1     
   23   10   31 1     
   24   10   32 1     
   25   11   15 1     
   26   11   12 1     
   27   12   13 2     
   28   12   33 1     
   29   13   14 1     
   30   14   15 2     
   31   16   20 1     
   32   16   17 1     
   33   17   18 1     
   34   17   34 1     
   35   17   35 1     
   36   18   19 1     
   37   18   36 1     
   38   18   37 1     
   39   19   20 1     
   40   19   38 1     
   41   19   39 1     
   42   20   40 1     
   43   20   41 1     
   44    3   42 1     
   45    3   43 1     
   46    9   44 1     
   47    9   45 1     
   48   13   46 1     
   49   14   47 1     
   50   15   48 1     
@<TRIPOS>SUBSTRUCTURE
      1 S1             1
@<TRIPOS>SET
LONE_PAIRS      STATIC     ATOMS    <user>   **** ""
7 42 43 44 45 46 47 48
DONOR_HYDROGENS      STATIC     ATOMS    <user>   **** ""
1 30
ATOM$BLUE        STATIC     ATOMS    COLORGROUP SYSTEM
7 42 43 44 45 46 47 48
ATOM$RED        STATIC     ATOMS    COLORGROUP SYSTEM
1 30
