AV-unprocessed.smi:21|AV-procd|sdf|166|dock6
  -GOLD-   2262015413D 1   1.00000     0.00000
 Structure written by MMmdl.
 61 64  0  0  0  0  0  0  0  0  1 V2000
  152.8588  142.7825  161.0663 C   0  0  0  0  0  0  0  0  0  0  0  0
  151.9212  142.6775  160.0065 O   0  0  0  0  0  0  0  0  0  0  0  0
  152.4696  142.1248  158.8183 C   0  0  2  0  0  0  0  0  0  0  0  0
  151.3945  141.7286  157.7891 C   0  0  0  0  0  0  0  0  0  0  0  0
  151.5504  140.2083  157.6325 C   0  0  1  0  0  0  0  0  0  0  0  0
  151.1367  139.6834  156.2390 C   0  0  0  0  0  0  0  0  0  0  0  0
  151.6743  138.3559  155.9392 N   0  0  0  0  0  0  0  0  0  0  0  0
  152.4596  138.1996  154.7159 C   0  0  0  0  0  0  0  0  0  0  0  0
  151.1097  137.2476  156.5031 C   0  0  0  0  0  0  0  0  0  0  0  0
  151.5343  136.0223  156.0891 N   0  0  0  0  0  0  0  0  0  0  0  0
  151.0003  134.9045  156.5863 C   0  0  0  0  0  0  0  0  0  0  0  0
  150.0395  134.7768  157.5003 N   0  0  0  0  0  0  0  0  0  0  0  0
  149.6116  135.9943  157.9375 C   0  0  0  0  0  0  0  0  0  0  0  0
  150.0865  137.2669  157.5023 C   0  0  0  0  0  0  0  0  0  0  0  0
  149.4072  138.2681  158.1900 N   0  0  0  0  0  0  0  0  0  0  0  0
  148.5780  137.6304  158.9683 C   0  0  0  0  0  0  0  0  0  0  0  0
  148.6387  136.2599  158.8853 N   0  0  0  0  0  0  0  0  0  0  0  0
  147.8301  135.3115  159.6322 C   0  0  0  0  0  0  0  0  0  0  0  0
  148.0041  135.4269  161.1664 C   0  0  1  0  0  0  0  0  0  0  0  0
  147.5204  136.8106  161.6612 C   0  0  0  0  0  0  0  0  0  0  0  0
  147.6285  136.9013  163.0666 O   0  0  0  0  0  0  0  0  0  0  0  0
  147.3631  134.2363  161.9339 C   0  0  1  0  0  0  0  0  0  0  0  0
  145.8359  134.1620  161.8688 C   0  0  0  0  0  0  0  0  0  0  0  0
  145.5494  132.7367  161.3984 C   0  0  0  0  0  0  0  0  0  0  0  0
  146.7024  132.0117  161.7917 O   0  0  0  0  0  0  0  0  0  0  0  0
  147.8174  132.8361  161.4964 C   0  0  0  0  0  0  0  0  0  0  0  0
  152.9310  139.9368  157.9959 N   0  0  0  0  0  0  0  0  0  0  0  0
  153.1920  138.5356  158.2988 C   0  0  0  0  0  0  0  0  0  0  0  0
  153.1599  140.7958  159.1411 C   0  0  0  0  0  0  0  0  0  0  0  0
  153.1933  142.8070  158.3683 H   0  0  0  0  0  0  0  0  0  0  0  0
  150.9125  139.7438  158.3863 H   0  0  0  0  0  0  0  0  0  0  0  0
  152.3719  143.2115  161.9415 H   0  0  0  0  0  0  0  0  0  0  0  0
  153.6977  143.4272  160.8023 H   0  0  0  0  0  0  0  0  0  0  0  0
  153.2473  141.8027  161.3465 H   0  0  0  0  0  0  0  0  0  0  0  0
  150.3841  141.9865  158.1070 H   0  0  0  0  0  0  0  0  0  0  0  0
  151.5869  142.2410  156.8455 H   0  0  0  0  0  0  0  0  0  0  0  0
  150.0482  139.6469  156.1857 H   0  0  0  0  0  0  0  0  0  0  0  0
  151.4260  140.3748  155.4507 H   0  0  0  0  0  0  0  0  0  0  0  0
  153.2486  137.4595  154.8542 H   0  0  0  0  0  0  0  0  0  0  0  0
  152.9375  139.1373  154.4319 H   0  0  0  0  0  0  0  0  0  0  0  0
  151.8264  137.8813  153.8872 H   0  0  0  0  0  0  0  0  0  0  0  0
  151.3980  133.9809  156.1923 H   0  0  0  0  0  0  0  0  0  0  0  0
  147.8984  138.1450  159.6322 H   0  0  0  0  0  0  0  0  0  0  0  0
  146.7893  135.4794  159.3537 H   0  0  0  0  0  0  0  0  0  0  0  0
  148.0749  134.3019  159.3005 H   0  0  0  0  0  0  0  0  0  0  0  0
  149.0744  135.3718  161.3727 H   0  0  0  0  0  0  0  0  0  0  0  0
  148.1041  137.6154  161.2140 H   0  0  0  0  0  0  0  0  0  0  0  0
  146.4788  136.9906  161.3992 H   0  0  0  0  0  0  0  0  0  0  0  0
  146.8946  137.3998  163.3930 H   0  0  0  0  0  0  0  0  0  0  0  0
  147.6038  134.3337  162.9931 H   0  0  0  0  0  0  0  0  0  0  0  0
  145.4186  134.3177  162.8646 H   0  0  0  0  0  0  0  0  0  0  0  0
  145.3801  134.9034  161.2129 H   0  0  0  0  0  0  0  0  0  0  0  0
  144.6425  132.3216  161.8383 H   0  0  0  0  0  0  0  0  0  0  0  0
  145.4514  132.7006  160.3120 H   0  0  0  0  0  0  0  0  0  0  0  0
  148.0188  132.7782  160.4270 H   0  0  0  0  0  0  0  0  0  0  0  0
  148.7086  132.4996  162.0254 H   0  0  0  0  0  0  0  0  0  0  0  0
  154.2233  138.4005  158.6263 H   0  0  0  0  0  0  0  0  0  0  0  0
  153.0429  137.9106  157.4188 H   0  0  0  0  0  0  0  0  0  0  0  0
  152.5344  138.1714  159.0892 H   0  0  0  0  0  0  0  0  0  0  0  0
  154.2234  140.9189  159.3469 H   0  0  0  0  0  0  0  0  0  0  0  0
  152.7011  140.3562  160.0288 H   0  0  0  0  0  0  0  0  0  0  0  0
  1  2  1  0  0  0  0
  1 32  1  0  0  0  0
  1 33  1  0  0  0  0
  1 34  1  0  0  0  0
  2  3  1  0  0  0  0
  3 30  1  0  0  0  0
  3 29  1  0  0  0  0
  3  4  1  0  0  0  0
  4  5  1  0  0  0  0
  4 35  1  0  0  0  0
  4 36  1  0  0  0  0
  5 31  1  0  0  0  0
  5  6  1  0  0  0  0
  5 27  1  0  0  0  0
  6  7  1  0  0  0  0
  6 37  1  0  0  0  0
  6 38  1  0  0  0  0
  7  8  1  0  0  0  0
  7  9  1  0  0  0  0
  8 39  1  0  0  0  0
  8 40  1  0  0  0  0
  8 41  1  0  0  0  0
  9 14  1  0  0  0  0
  9 10  2  0  0  0  0
 10 11  1  0  0  0  0
 11 12  2  0  0  0  0
 11 42  1  0  0  0  0
 12 13  1  0  0  0  0
 13 17  1  0  0  0  0
 13 14  2  0  0  0  0
 14 15  1  0  0  0  0
 15 16  2  0  0  0  0
 16 17  1  0  0  0  0
 16 43  1  0  0  0  0
 17 18  1  0  0  0  0
 18 19  1  0  0  0  0
 18 44  1  0  0  0  0
 18 45  1  0  0  0  0
 19 20  1  0  0  0  0
 19 22  1  0  0  0  0
 19 46  1  0  0  0  0
 20 21  1  0  0  0  0
 20 47  1  0  0  0  0
 20 48  1  0  0  0  0
 21 49  1  0  0  0  0
 22 26  1  0  0  0  0
 22 23  1  0  0  0  0
 22 50  1  0  0  0  0
 23 24  1  0  0  0  0
 23 51  1  0  0  0  0
 23 52  1  0  0  0  0
 24 25  1  0  0  0  0
 24 53  1  0  0  0  0
 24 54  1  0  0  0  0
 25 26  1  0  0  0  0
 26 55  1  0  0  0  0
 26 56  1  0  0  0  0
 27 28  1  0  0  0  0
 27 29  1  0  0  0  0
 28 57  1  0  0  0  0
 28 58  1  0  0  0  0
 28 59  1  0  0  0  0
 29 60  1  0  0  0  0
 29 61  1  0  0  0  0
M  END
> <s_m_source_file>
AV-unprocessed.smi

> <i_m_source_file_index>
21

> <i_lp_mmshare_version>
43012

> <i_f3d_flags>
0

> <s_epik_input>
W0NIM11PW0NASF0xW0NIMl1bQ0BIXShOKFtDSDNdKVtDSDJdMSlbQ0gyXU4oW0NIM10pYyhuW2NIXW4yKWMoYzIzKW5bY0hdbjNbQ0gyXVtDQEhdKFtDSDJdW09IXSlbQ0BASF00W0NIMl1bQ0gyXU9bQ0gyXTQ=

> <s_epik_cmdline>
J2VwaWtfcHl0aG9uJywgJy1waCcsICc3LjAnLCAnLXRuJywgJzgnLCAnLW1hJywgJzIwMCcsICctbWV0YWxfYmluZGluZycsICctaW1hZScsICc8aW5maWxlLm1hZT4nLCAnLW9tYWUnLCAnPG91dGZpbGUubWFlPic=

> <r_lp_tautomer_probability>
1

> <r_epik_Ionization_Penalty>
2.17574

> <r_epik_Ionization_Penalty_Charging>
0

> <r_epik_Ionization_Penalty_Neutral>
2.17574

> <r_epik_State_Penalty>
2.31336

> <r_epik_Charging_Adjusted_Penalty>
2.31336

> <i_epik_Tot_Q>
0

> <i_epik_Tot_abs_Q>
0

> <r_epik_Metal_State_Penalty>
2.31025

> <b_epik_Metal_Only>
0

> <s_lp_Force_Field>
OPLS_2005

> <r_lp_Energy>
69.2807

> <b_lp_Chiralities_Consistent>
1

> <s_lp_Variant>
AV-unprocessed.smi:21-46

> <Gold.Version>
5.8.1

> <Gold.Id.Protein>
6NUR|6NUR_protein|mol2

> <Gold.PLP.Fitness>
49.5597

> <Gold.PLP.PLP>
-43.1726

> <Gold.PLP.part.hbond>
-3.2827

> <Gold.PLP.part.metal>
0.0000

> <Gold.PLP.part.buried>
-7.0183

> <Gold.PLP.part.nonpolar>
-34.2243

> <Gold.PLP.part.repulsive>
0.0667

> <Gold.PLP.ligand.clash>
0.0000

> <Gold.PLP.ligand.torsion>
0.4849

> <Gold.PLP.Chemscore.Hbond>
2.2064

> <Gold.PLP.Chemscore.CHOScore>
0.0000

> <Gold.PLP.Chemscore.Metal>
0.0000

> <Gold.Chemscore.Hbonds>
donor molecule, donor type, donor heavy atom, donor atom, acceptor molecule, acceptor atom, score
      P1  H  6896  6908       L1    12  0.30
      P1  H  7997  8009       L1    27  0.70
      P1  H 10752 10763       L1    10  1.00

> <Gold.PLP.Chemscore.Internal.Correction>
0.7380

> <Gold.Rescore>
     Score         DG    S(hbond)    S(metal)    S(lipo)     H(rot)  DE(clash)    DE(int)     intcor
      9.23     -14.63       1.19        0.00     109.85       3.00       0.33       5.06       ----

> <Gold.Chemscore.Fitness>
9.2344

> <Gold.Chemscore.DG>
-14.6262

> <Gold.Chemscore.ZeroCoef>
-5.4800

> <Gold.Chemscore.Hbond>
1.1922

> <Gold.Chemscore.Metal>
0.0000

> <Gold.Chemscore.Lipo>
109.8491

> <Gold.Chemscore.Internal_Hbond>
0.0000

> <Gold.Chemscore.DEClash>
0.3296

> <Gold.Chemscore.DEInternal>
5.0622

> <Gold.Chemscore.Rot>
3.0031

> <Gold.Chemscore.Internal.Correction>
   9.000000E+99

> <Gold.Chemscore.Hbonds>
donor molecule, donor type, donor heavy atom, donor atom, acceptor molecule, acceptor atom, score
      P1  H  6896  6908       L1    12  0.12
      P1  H  7997  8009       L1    27  0.05
      P1  H 10752 10763       L1    10  0.63

> <Gold.Chemscore.Hbond.Weighted>
-3.9818

> <Gold.Chemscore.Metal.Weighted>
-0.0000

> <Gold.Chemscore.Lipo.Weighted>
-12.8523

> <Gold.Chemscore.Internal_Hbond.Weighted>
0.0000

> <Gold.Chemscore.DEClash.Weighted>
0.3296

> <Gold.Chemscore.DEInternal.Weighted>
5.0622

> <Gold.Chemscore.Rot.Weighted>
7.6880

> <Gold.Chemscore.Internal.Correction.Weighted>
   9.000000E+99

> <Gold.Protein.RotatedTorsions>
[ 6907 6896 6895 6894 ] final  111.58 input  -60.11 | X-H torsion
[ 7974 7965 7964 7962 ] final -125.43 input  175.53 | X-H torsion
[ 8008 7997 7996 7995 ] final  173.27 input   59.86 | X-H torsion
[ 10167 10162 10161 10158 ] final   43.37 input  -65.29 | X-H torsion
[ 10718 10713 10712 10709 ] final -170.40 input   66.30 | X-H torsion
[ 10763 10752 10751 10750 ] final   74.81 input  -60.55 | X-H torsion
[ 11005 11000 10999 10996 ] final -133.62 input  -57.11 | X-H torsion

> <Gold.Protein.ActiveResidues>
 VAL166  LYS551  ARG553  GLY616  TRP617  ASP618  TYR619  PRO620  LYS621  CYS622 
 ASP623  PHE694  ASN695  SER759  ASP760  ASP761  ALA762  ILE779  LEU786  VAL792 
 PHE793  MET794  SER795  GLU796  ALA797  LYS798  CYS799  TRP800  GLU811  SER814 

> <Gold.Protein.RotatedAtoms>
  152.4962  133.8637  159.7263 H   0  0  0  0  0  0  0  0  0  0  0  0  # atno 6907 bound_to 6896
  150.9142  133.6951  159.2854 H   0  0  0  0  0  0  0  0  0  0  0  0  # atno 6908 bound_to 6896
  151.4350  135.1018  159.9706 H   0  0  0  0  0  0  0  0  0  0  0  0  # atno 6909 bound_to 6896
  144.9976  140.7791  143.4516 H   0  0  0  0  0  0  0  0  0  0  0  0  # atno 7974 bound_to 7965
  156.1092  140.1464  156.9361 H   0  0  0  0  0  0  0  0  0  0  0  0  # atno 8008 bound_to 7997
  154.4755  140.0896  156.7295 H   0  0  0  0  0  0  0  0  0  0  0  0  # atno 8009 bound_to 7997
  155.4625  140.3439  155.4317 H   0  0  0  0  0  0  0  0  0  0  0  0  # atno 8010 bound_to 7997
  140.3451  144.2421  150.6151 H   0  0  0  0  0  0  0  0  0  0  0  0  # atno 10167 bound_to 10162
  156.7257  130.9287  151.3101 H   0  0  0  0  0  0  0  0  0  0  0  0  # atno 10718 bound_to 10713
  153.0611  135.5012  154.8096 H   0  0  0  0  0  0  0  0  0  0  0  0  # atno 10763 bound_to 10752
  154.6885  135.2980  154.9516 H   0  0  0  0  0  0  0  0  0  0  0  0  # atno 10764 bound_to 10752
  154.0279  135.6733  153.4831 H   0  0  0  0  0  0  0  0  0  0  0  0  # atno 10765 bound_to 10752
  140.9064  134.1624  157.4422 H   0  0  0  0  0  0  0  0  0  0  0  0  # atno 11005 bound_to 11000
  145.2198  139.2165  143.5099 LP  0  0  0  0  0  0  0  0  0  0  0  0  # atno 17320 bound_to 7965
  146.3445  140.2053  142.8589 LP  0  0  0  0  0  0  0  0  0  0  0  0  # atno 17321 bound_to 7965
  140.5272  143.2251  151.8295 LP  0  0  0  0  0  0  0  0  0  0  0  0  # atno 17342 bound_to 10162
  139.4834  144.4764  151.9361 LP  0  0  0  0  0  0  0  0  0  0  0  0  # atno 17343 bound_to 10162
  157.6880  130.9204  150.0436 LP  0  0  0  0  0  0  0  0  0  0  0  0  # atno 17370 bound_to 10713
  156.1563  130.3643  149.9363 LP  0  0  0  0  0  0  0  0  0  0  0  0  # atno 17371 bound_to 10713
  139.8750  134.9918  156.5569 LP  0  0  0  0  0  0  0  0  0  0  0  0  # atno 17394 bound_to 11000
  140.8165  133.8387  155.8857 LP  0  0  0  0  0  0  0  0  0  0  0  0  # atno 17395 bound_to 11000

$$$$
