AV-unprocessed.smi:2224|AV-procd|sdf|8992|dock5
  -GOLD-   2272012203D 1   1.00000     0.00000
 Structure written by MMmdl.
 44 46  0  0  0  0  0  0  0  0  1 V2000
  141.6206  134.8564  153.1895 C   0  0  0  0  0  0  0  0  0  0  0  0
  142.9659  134.5229  152.5794 C   0  0  0  0  0  0  0  0  0  0  0  0
  143.0987  133.4694  151.6548 C   0  0  0  0  0  0  0  0  0  0  0  0
  144.3767  133.2093  151.1227 C   0  0  0  0  0  0  0  0  0  0  0  0
  144.5917  132.0899  150.1258 C   0  0  0  0  0  0  0  0  0  0  0  0
  145.4738  133.9207  151.4597 N   0  0  0  0  0  0  0  0  0  0  0  0
  145.3581  134.9382  152.3488 C   0  0  0  0  0  0  0  0  0  0  0  0
  146.4490  135.7445  152.7697 N   0  0  0  0  0  0  0  0  0  0  0  0
  146.5463  136.4958  153.8807 C   0  0  0  0  0  0  0  0  0  0  0  0
  145.6824  136.5962  154.7526 O   0  0  0  0  0  0  0  0  0  0  0  0
  147.7181  137.1444  153.9281 N   0  0  0  0  0  0  0  0  0  0  0  0
  148.1213  138.0504  155.0093 C   0  0  1  0  0  0  0  0  0  0  0  0
  149.6367  138.0745  155.2270 C   0  0  1  0  0  0  0  0  0  0  0  0
  150.7806  137.2014  154.8567 C   0  0  0  0  0  0  0  0  0  0  0  0
  151.7692  138.3334  154.4650 C   0  0  0  0  0  0  0  0  0  0  0  0
  150.9863  139.5545  154.4320 O   0  0  0  0  0  0  0  0  0  0  0  0
  149.6792  139.1120  154.1244 C   0  0  2  0  0  0  0  0  0  0  0  0
  148.2829  139.5695  154.6026 C   0  0  0  0  0  0  0  0  0  0  0  0
  147.3573  140.1052  153.5044 C   0  0  0  0  0  0  0  0  0  0  0  0
  148.2348  140.6111  155.7351 C   0  0  0  0  0  0  0  0  0  0  0  0
  144.1117  135.2659  152.9287 C   0  0  0  0  0  0  0  0  0  0  0  0
  140.8566  134.1428  152.8793 H   0  0  0  0  0  0  0  0  0  0  0  0
  141.3028  135.8525  152.8808 H   0  0  0  0  0  0  0  0  0  0  0  0
  141.6832  134.8364  154.2777 H   0  0  0  0  0  0  0  0  0  0  0  0
  142.2445  132.8766  151.3614 H   0  0  0  0  0  0  0  0  0  0  0  0
  143.6415  131.6946  149.7655 H   0  0  0  0  0  0  0  0  0  0  0  0
  145.1475  131.2744  150.5892 H   0  0  0  0  0  0  0  0  0  0  0  0
  145.1581  132.4472  149.2652 H   0  0  0  0  0  0  0  0  0  0  0  0
  147.2428  135.7590  152.1467 H   0  0  0  0  0  0  0  0  0  0  0  0
  148.3751  137.0082  153.1741 H   0  0  0  0  0  0  0  0  0  0  0  0
  147.5640  137.9077  155.9368 H   0  0  0  0  0  0  0  0  0  0  0  0
  149.8326  138.4998  156.2143 H   0  0  0  0  0  0  0  0  0  0  0  0
  151.1415  136.5972  155.6895 H   0  0  0  0  0  0  0  0  0  0  0  0
  150.5485  136.5500  154.0132 H   0  0  0  0  0  0  0  0  0  0  0  0
  152.5771  138.4384  155.1897 H   0  0  0  0  0  0  0  0  0  0  0  0
  152.2142  138.1399  153.4881 H   0  0  0  0  0  0  0  0  0  0  0  0
  149.6489  138.6913  153.1140 H   0  0  0  0  0  0  0  0  0  0  0  0
  147.6150  141.1275  153.2262 H   0  0  0  0  0  0  0  0  0  0  0  0
  146.3155  140.1036  153.8260 H   0  0  0  0  0  0  0  0  0  0  0  0
  147.4149  139.5090  152.5936 H   0  0  0  0  0  0  0  0  0  0  0  0
  148.6806  141.5551  155.4208 H   0  0  0  0  0  0  0  0  0  0  0  0
  148.7605  140.2996  156.6360 H   0  0  0  0  0  0  0  0  0  0  0  0
  147.2079  140.8214  156.0359 H   0  0  0  0  0  0  0  0  0  0  0  0
  144.0324  136.0788  153.6362 H   0  0  0  0  0  0  0  0  0  0  0  0
  1  2  1  0  0  0  0
  1 22  1  0  0  0  0
  1 23  1  0  0  0  0
  1 24  1  0  0  0  0
  2 21  1  0  0  0  0
  2  3  2  0  0  0  0
  3  4  1  0  0  0  0
  3 25  1  0  0  0  0
  4  5  1  0  0  0  0
  4  6  2  0  0  0  0
  5 26  1  0  0  0  0
  5 27  1  0  0  0  0
  5 28  1  0  0  0  0
  6  7  1  0  0  0  0
  7  8  1  0  0  0  0
  7 21  2  0  0  0  0
  8  9  1  0  0  0  0
  8 29  1  0  0  0  0
  9 10  2  0  0  0  0
  9 11  1  0  0  0  0
 11 12  1  0  0  0  0
 11 30  1  0  0  0  0
 12 18  1  0  0  0  0
 12 13  1  0  0  0  0
 12 31  1  0  0  0  0
 13 17  1  0  0  0  0
 13 14  1  0  0  0  0
 13 32  1  0  0  0  0
 14 15  1  0  0  0  0
 14 33  1  0  0  0  0
 14 34  1  0  0  0  0
 15 16  1  0  0  0  0
 15 35  1  0  0  0  0
 15 36  1  0  0  0  0
 16 17  1  0  0  0  0
 17 18  1  0  0  0  0
 17 37  1  0  0  0  0
 18 19  1  0  0  0  0
 18 20  1  0  0  0  0
 19 38  1  0  0  0  0
 19 39  1  0  0  0  0
 19 40  1  0  0  0  0
 20 41  1  0  0  0  0
 20 42  1  0  0  0  0
 20 43  1  0  0  0  0
 21 44  1  0  0  0  0
M  END
> <s_m_source_file>
AV-unprocessed.smi

> <i_m_source_file_index>
2224

> <i_lp_mmshare_version>
43012

> <i_f3d_flags>
0

> <s_epik_input>
W0NIM11jMVtjSF1jKFtDSDNdKW5jKFtjSF0xKVtOSF1DKD1PKVtOSF1bQ0BIXTJDKFtDSDNdKShbQ0gzXSlbQ0BIXShbQ0BASF0yMylPW0NIMl1bQ0gyXTM=

> <s_epik_cmdline>
J2VwaWtfcHl0aG9uJywgJy1waCcsICc3LjAnLCAnLXRuJywgJzgnLCAnLW1hJywgJzIwMCcsICctbWV0YWxfYmluZGluZycsICctaW1hZScsICc8aW5maWxlLm1hZT4nLCAnLW9tYWUnLCAnPG91dGZpbGUubWFlPic=

> <r_lp_tautomer_probability>
1

> <r_epik_Ionization_Penalty>
0.000276544

> <r_epik_Ionization_Penalty_Charging>
0

> <r_epik_Ionization_Penalty_Neutral>
0.000276544

> <r_epik_State_Penalty>
-0

> <r_epik_Charging_Adjusted_Penalty>
0

> <i_epik_Tot_Q>
0

> <i_epik_Tot_abs_Q>
0

> <r_epik_Metal_State_Penalty>
-0

> <b_epik_Metal_Only>
0

> <s_lp_Force_Field>
OPLS_2005

> <r_lp_Energy>
64.3875

> <b_lp_Chiralities_Consistent>
1

> <s_lp_Variant>
AV-unprocessed.smi:2224-2

> <Gold.Version>
5.8.1

> <Gold.Id.Protein>
6NUR|6NUR_protein|mol2

> <Gold.PLP.Fitness>
41.5076

> <Gold.PLP.PLP>
-32.8479

> <Gold.PLP.part.hbond>
-3.0000

> <Gold.PLP.part.metal>
0.0000

> <Gold.PLP.part.buried>
-3.6246

> <Gold.PLP.part.nonpolar>
-25.4563

> <Gold.PLP.part.repulsive>
0.2697

> <Gold.PLP.ligand.clash>
0.0000

> <Gold.PLP.ligand.torsion>
0.2996

> <Gold.PLP.Chemscore.Hbond>
3.0000

> <Gold.PLP.Chemscore.CHOScore>
0.0000

> <Gold.PLP.Chemscore.Metal>
0.0000

> <Gold.Chemscore.Hbonds>
donor molecule, donor type, donor heavy atom, donor atom, acceptor molecule, acceptor atom, score
      L1  H     8    29       P1  7948  0.99
      L1  H    11    30       P1  7948  1.00
      P1  H  7989  7998       L1    16  1.00

> <Gold.PLP.Chemscore.Internal.Correction>
0.2588

> <Gold.Rescore>
     Score         DG    S(hbond)    S(metal)    S(lipo)     H(rot)  DE(clash)    DE(int)     intcor
     20.15     -22.04       2.85        0.00      81.99       1.00       0.14       1.74       ----

> <Gold.Chemscore.Fitness>
20.1515

> <Gold.Chemscore.DG>
-22.0390

> <Gold.Chemscore.ZeroCoef>
-5.4800

> <Gold.Chemscore.Hbond>
2.8522

> <Gold.Chemscore.Metal>
0.0000

> <Gold.Chemscore.Lipo>
81.9900

> <Gold.Chemscore.Internal_Hbond>
0.0000

> <Gold.Chemscore.DEClash>
0.1447

> <Gold.Chemscore.DEInternal>
1.7428

> <Gold.Chemscore.Rot>
1.0000

> <Gold.Chemscore.Internal.Correction>
   9.000000E+99

> <Gold.Chemscore.Hbonds>
donor molecule, donor type, donor heavy atom, donor atom, acceptor molecule, acceptor atom, score
      L1  H     8    29       P1  7948  0.94
      L1  H    11    30       P1  7948  0.97
      P1  H  7989  7998       L1    16  0.89

> <Gold.Chemscore.Hbond.Weighted>
-9.5262

> <Gold.Chemscore.Metal.Weighted>
-0.0000

> <Gold.Chemscore.Lipo.Weighted>
-9.5928

> <Gold.Chemscore.Internal_Hbond.Weighted>
0.0000

> <Gold.Chemscore.DEClash.Weighted>
0.1447

> <Gold.Chemscore.DEInternal.Weighted>
1.7428

> <Gold.Chemscore.Rot.Weighted>
2.5600

> <Gold.Chemscore.Internal.Correction.Weighted>
   9.000000E+99

> <Gold.Protein.RotatedTorsions>
[ 6907 6896 6895 6894 ] final -176.74 input  -60.11 | X-H torsion
[ 7974 7965 7964 7962 ] final  -54.09 input  175.53 | X-H torsion
[ 8008 7997 7996 7995 ] final   28.86 input   59.86 | X-H torsion
[ 10167 10162 10161 10158 ] final -174.11 input  -65.29 | X-H torsion
[ 10718 10713 10712 10709 ] final  -76.90 input   66.30 | X-H torsion
[ 10763 10752 10751 10750 ] final    2.00 input  -60.55 | X-H torsion
[ 11005 11000 10999 10996 ] final  -38.35 input  -57.11 | X-H torsion

> <Gold.Protein.ActiveResidues>
 VAL166  LYS551  ARG553  GLY616  TRP617  ASP618  TYR619  PRO620  LYS621  CYS622 
 ASP623  PHE694  ASN695  SER759  ASP760  ASP761  ALA762  ILE779  LEU786  VAL792 
 PHE793  MET794  SER795  GLU796  ALA797  LYS798  CYS799  TRP800  GLU811  SER814 

> <Gold.Protein.RotatedAtoms>
  151.6097  133.3348  159.3064 H   0  0  0  0  0  0  0  0  0  0  0  0  # atno 6907 bound_to 6896
  150.8163  134.7350  159.6744 H   0  0  0  0  0  0  0  0  0  0  0  0  # atno 6908 bound_to 6896
  152.4258  134.5875  160.0016 H   0  0  0  0  0  0  0  0  0  0  0  0  # atno 6909 bound_to 6896
  145.8895  140.8082  142.9799 H   0  0  0  0  0  0  0  0  0  0  0  0  # atno 7974 bound_to 7965
  155.0653  140.3194  155.4647 H   0  0  0  0  0  0  0  0  0  0  0  0  # atno 8008 bound_to 7997
  156.2803  140.2121  156.5725 H   0  0  0  0  0  0  0  0  0  0  0  0  # atno 8009 bound_to 7997
  154.7099  140.0499  157.0527 H   0  0  0  0  0  0  0  0  0  0  0  0  # atno 8010 bound_to 7997
  139.5651  144.1774  152.1300 H   0  0  0  0  0  0  0  0  0  0  0  0  # atno 10167 bound_to 10162
  156.0161  130.4477  150.3263 H   0  0  0  0  0  0  0  0  0  0  0  0  # atno 10718 bound_to 10713
  153.3010  135.6956  153.7203 H   0  0  0  0  0  0  0  0  0  0  0  0  # atno 10763 bound_to 10752
  153.6118  135.3443  155.2982 H   0  0  0  0  0  0  0  0  0  0  0  0  # atno 10764 bound_to 10752
  154.8550  135.4365  154.2120 H   0  0  0  0  0  0  0  0  0  0  0  0  # atno 10765 bound_to 10752
  141.0021  133.6950  156.2041 H   0  0  0  0  0  0  0  0  0  0  0  0  # atno 11005 bound_to 11000
  144.6730  140.1507  143.7430 LP  0  0  0  0  0  0  0  0  0  0  0  0  # atno 17320 bound_to 7965
  145.8926  139.2384  143.1541 LP  0  0  0  0  0  0  0  0  0  0  0  0  # atno 17321 bound_to 7965
  140.1296  144.5300  150.6811 LP  0  0  0  0  0  0  0  0  0  0  0  0  # atno 17342 bound_to 10162
  140.6934  143.2389  151.5067 LP  0  0  0  0  0  0  0  0  0  0  0  0  # atno 17343 bound_to 10162
  157.1363  131.0285  151.2947 LP  0  0  0  0  0  0  0  0  0  0  0  0  # atno 17370 bound_to 10713
  157.4509  130.7598  149.7150 LP  0  0  0  0  0  0  0  0  0  0  0  0  # atno 17371 bound_to 10713
  140.6873  134.4703  157.5589 LP  0  0  0  0  0  0  0  0  0  0  0  0  # atno 17394 bound_to 11000
  139.9044  134.8483  156.1765 LP  0  0  0  0  0  0  0  0  0  0  0  0  # atno 17395 bound_to 11000

$$$$
