#       Name:                AV-unprocessed.smi:3276
#       Creating user name   scv26
#       Creation time:       Fri Mar 27 18:45:10 2020


#       File generated by GOLD software.
#

@<TRIPOS>MOLECULE
AV-unprocessed.smi:3276
    45    46     1
SMALL
NO_CHARGES


@<TRIPOS>ATOM
      1 ****         0.1350   5.0507  -1.4978 C.3            1 S1                 0.0000
      2 ****        -0.6544   3.7592  -1.4801 C.ar           1 S1                 0.0000
      3 ****        -2.0451   3.7454  -1.2420 C.ar           1 S1                 0.0000
      4 ****        -2.7479   2.5924  -1.2228 N.ar           1 S1                 0.0000
      5 ****        -2.0548   1.4509  -1.4418 C.ar           1 S1                 0.0000
      6 ****        -2.8594   0.1638  -1.4100 C.3            1 S1                 0.0000
      7 ****        -0.6566   1.4576  -1.6799 C.ar           1 S1                 0.0000
      8 ****         0.0285   0.2528  -1.9037 N.pl3          1 S1                 0.0000
      9 ****         1.4782   0.1771  -1.7646 C.3            1 S1                 0.0000
     10 ****         1.9276   0.2411  -0.2977 C.3            1 S1                 0.0000
     11 ****         1.4619  -0.9177   0.3722 O.3            1 S1                 0.0000
     12 ****         1.7969  -0.9324   1.7502 C.3            1 S1                 0.0000
     13 ****         1.2074  -2.1863   2.4107 C.3            1 S1                 0.0000
     14 ****        -0.3084  -2.3481   2.2627 C.3            1 S1                 0.0000
     15 ****        -0.4610  -3.8518   2.3031 C.3            1 S1                 0.0000
     16 ****         0.7760  -4.3038   1.5341 C.3            1 S1                 0.0000
     17 ****         1.7951  -3.3692   1.8732 O.3            1 S1                 0.0000
     18 ****         0.0395   2.6208  -1.6994 N.ar           1 S1                 0.0000
     19 ****        -0.5280   5.9162  -1.4871 H              1 S1                 0.0000
     20 ****         0.7536   5.1079  -2.3940 H              1 S1                 0.0000
     21 ****         0.7859   5.1073  -0.6250 H              1 S1                 0.0000
     22 ****        -2.5960   4.6577  -1.0662 H              1 S1                 0.0000
     23 ****        -2.4791  -0.5011  -0.6339 H              1 S1                 0.0000
     24 ****        -2.7911  -0.3499  -2.3693 H              1 S1                 0.0000
     25 ****        -3.9132   0.3557  -1.2038 H              1 S1                 0.0000
     26 ****        -0.4907  -0.6103  -1.8320 H              1 S1                 0.0000
     27 ****         1.8182  -0.7571  -2.2120 H              1 S1                 0.0000
     28 ****         1.9468   0.9770  -2.3388 H              1 S1                 0.0000
     29 ****         3.0169   0.2745  -0.2499 H              1 S1                 0.0000
     30 ****         1.5536   1.1446   0.1863 H              1 S1                 0.0000
     31 ****         2.8807  -0.9162   1.8747 H              1 S1                 0.0000
     32 ****         1.3975  -0.0420   2.2379 H              1 S1                 0.0000
     33 ****         1.4533  -2.1755   3.4734 H              1 S1                 0.0000
     34 ****        -0.8688  -1.8392   3.0474 H              1 S1                 0.0000
     35 ****        -0.6559  -1.9716   1.2997 H              1 S1                 0.0000
     36 ****        -0.4163  -4.2080   3.3333 H              1 S1                 0.0000
     37 ****        -1.3924  -4.2015   1.8569 H              1 S1                 0.0000
     38 ****         1.0724  -5.3249   1.7752 H              1 S1                 0.0000
     39 ****         0.5954  -4.2464   0.4599 H              1 S1                 0.0000
     40 ****        -3.7337   2.5826  -1.0547 LP             1 S1                 0.0000
     41 ****         1.8668  -1.7219  -0.0629 LP             1 S1                 0.0000
     42 ****         0.4664  -0.9576   0.2857 LP             1 S1                 0.0000
     43 ****         2.4049  -3.7755   2.5537 LP             1 S1                 0.0000
     44 ****         2.3183  -3.1367   1.0533 LP             1 S1                 0.0000
     45 ****         1.0249   2.6356  -1.8689 LP             1 S1                 0.0000
@<TRIPOS>BOND
    1    1    2 1     
    2    1   19 1     
    3    1   20 1     
    4    1   21 1     
    5    2   18 ar    
    6    2    3 ar    
    7    3    4 ar    
    8    3   22 1     
    9    4    5 ar    
   10    5    6 1     
   11    5    7 ar    
   12    6   23 1     
   13    6   24 1     
   14    6   25 1     
   15    7    8 1     
   16    7   18 ar    
   17    8    9 1     
   18    8   26 1     
   19    9   10 1     
   20    9   27 1     
   21    9   28 1     
   22   10   11 1     
   23   10   29 1     
   24   10   30 1     
   25   11   12 1     
   26   12   13 1     
   27   12   31 1     
   28   12   32 1     
   29   13   17 1     
   30   13   14 1     
   31   13   33 1     
   32   14   15 1     
   33   14   34 1     
   34   14   35 1     
   35   15   16 1     
   36   15   36 1     
   37   15   37 1     
   38   16   17 1     
   39   16   38 1     
   40   16   39 1     
   41    4   40 1     
   42   11   41 1     
   43   11   42 1     
   44   17   43 1     
   45   17   44 1     
   46   18   45 1     
@<TRIPOS>SUBSTRUCTURE
      1 S1             1
@<TRIPOS>SET
LONE_PAIRS      STATIC     ATOMS    <user>   **** ""
6 40 41 42 43 44 45
DONOR_HYDROGENS      STATIC     ATOMS    <user>   **** ""
1 26
ATOM$BLUE        STATIC     ATOMS    COLORGROUP SYSTEM
6 40 41 42 43 44 45
ATOM$RED        STATIC     ATOMS    COLORGROUP SYSTEM
1 26
