AV-unprocessed.smi:1215|AV-procd|sdf|5096|dock2
  -GOLD-   22720 4143D 1   1.00000     0.00000
 Structure written by MMmdl.
 46 47  0  0  0  0  0  0  0  0  2 V2000
  151.6380  142.0182  158.5957 C   0  0  0  0  0  0  0  0  0  0  0  0
  150.9914  142.5640  157.3168 C   0  0  0  0  0  0  0  0  0  0  0  0
  150.5272  141.4972  156.4516 N   0  0  0  0  0  0  0  0  0  0  0  0
  149.8371  141.6039  155.2602 C   0  0  0  0  0  0  0  0  0  0  0  0
  149.6360  140.3213  154.8339 C   0  0  0  0  0  0  0  0  0  0  0  0
  148.9806  139.8529  153.6671 N   0  0  0  0  0  0  0  0  0  0  0  0
  147.7882  139.2396  153.5924 C   0  0  0  0  0  0  0  0  0  0  0  0
  147.0578  138.9887  154.5514 O   0  0  0  0  0  0  0  0  0  0  0  0
  147.4802  138.9206  152.3272 N   0  0  0  0  0  0  0  0  0  0  0  0
  146.2544  138.2489  151.9116 C   0  0  0  0  0  0  0  0  0  0  0  0
  145.8500  137.1430  152.9070 C   0  0  0  0  0  0  0  0  0  0  0  0
  146.2812  135.7822  152.4858 N   0  3  2  0  0  0  0  0  0  0  0  0
  145.5247  135.3012  151.2977 C   0  0  0  0  0  0  0  0  0  0  0  0
  146.1237  134.0012  150.7379 C   0  0  0  0  0  0  0  0  0  0  0  0
  146.1925  132.9161  151.8171 C   0  0  0  0  0  0  0  0  0  0  0  0
  146.9619  133.4428  153.0361 C   0  0  0  0  0  0  0  0  0  0  0  0
  146.3674  134.7606  153.5772 C   0  0  2  0  0  0  0  0  0  0  0  0
  145.0343  134.5356  154.3225 C   0  0  0  0  0  0  0  0  0  0  0  0
  150.2320  139.4888  155.8168 C   0  0  0  0  0  0  0  0  0  0  0  0
  150.7674  140.2067  156.7923 N   0  0  0  0  0  0  0  0  0  0  0  0
  151.9949  142.8318  159.2272 H   0  0  0  0  0  0  0  0  0  0  0  0
  152.4898  141.3786  158.3632 H   0  0  0  0  0  0  0  0  0  0  0  0
  150.9273  141.4321  159.1791 H   0  0  0  0  0  0  0  0  0  0  0  0
  150.1475  143.2100  157.5631 H   0  0  0  0  0  0  0  0  0  0  0  0
  151.7073  143.1743  156.7650 H   0  0  0  0  0  0  0  0  0  0  0  0
  149.5631  142.5604  154.8402 H   0  0  0  0  0  0  0  0  0  0  0  0
  149.4760  139.9956  152.7990 H   0  0  0  0  0  0  0  0  0  0  0  0
  148.1371  139.1660  151.6004 H   0  0  0  0  0  0  0  0  0  0  0  0
  145.4492  138.9765  151.7957 H   0  0  0  0  0  0  0  0  0  0  0  0
  146.4455  137.8307  150.9240 H   0  0  0  0  0  0  0  0  0  0  0  0
  146.2222  137.3682  153.9066 H   0  0  0  0  0  0  0  0  0  0  0  0
  144.7624  137.1391  152.9898 H   0  0  0  0  0  0  0  0  0  0  0  0
  144.4749  135.1568  151.5542 H   0  0  0  0  0  0  0  0  0  0  0  0
  145.5495  136.0613  150.5160 H   0  0  0  0  0  0  0  0  0  0  0  0
  145.5292  133.6499  149.8939 H   0  0  0  0  0  0  0  0  0  0  0  0
  147.1248  134.1964  150.3514 H   0  0  0  0  0  0  0  0  0  0  0  0
  145.1857  132.6146  152.1078 H   0  0  0  0  0  0  0  0  0  0  0  0
  146.6804  132.0248  151.4215 H   0  0  0  0  0  0  0  0  0  0  0  0
  146.9825  132.6852  153.8204 H   0  0  0  0  0  0  0  0  0  0  0  0
  148.0021  133.6097  152.7525 H   0  0  0  0  0  0  0  0  0  0  0  0
  147.0841  135.1217  154.3141 H   0  0  0  0  0  0  0  0  0  0  0  0
  145.1477  133.7674  155.0878 H   0  0  0  0  0  0  0  0  0  0  0  0
  144.2351  134.2115  153.6567 H   0  0  0  0  0  0  0  0  0  0  0  0
  144.6979  135.4374  154.8335 H   0  0  0  0  0  0  0  0  0  0  0  0
  150.2928  138.4111  155.8553 H   0  0  0  0  0  0  0  0  0  0  0  0
  147.2296  135.8987  152.1581 H   0  0  0  0  0  0  0  0  0  0  0  0
  1  2  1  0  0  0  0
  1 21  1  0  0  0  0
  1 22  1  0  0  0  0
  1 23  1  0  0  0  0
  2  3  1  0  0  0  0
  2 24  1  0  0  0  0
  2 25  1  0  0  0  0
  3 20  1  0  0  0  0
  3  4  1  0  0  0  0
  4  5  2  0  0  0  0
  4 26  1  0  0  0  0
  5  6  1  0  0  0  0
  5 19  1  0  0  0  0
  6  7  1  0  0  0  0
  6 27  1  0  0  0  0
  7  8  2  0  0  0  0
  7  9  1  0  0  0  0
  9 10  1  0  0  0  0
  9 28  1  0  0  0  0
 10 11  1  0  0  0  0
 10 29  1  0  0  0  0
 10 30  1  0  0  0  0
 11 12  1  0  0  0  0
 11 31  1  0  0  0  0
 11 32  1  0  0  0  0
 12 17  1  0  0  0  0
 12 13  1  0  0  0  0
 12 46  1  0  0  0  0
 13 14  1  0  0  0  0
 13 33  1  0  0  0  0
 13 34  1  0  0  0  0
 14 15  1  0  0  0  0
 14 35  1  0  0  0  0
 14 36  1  0  0  0  0
 15 16  1  0  0  0  0
 15 37  1  0  0  0  0
 15 38  1  0  0  0  0
 16 17  1  0  0  0  0
 16 39  1  0  0  0  0
 16 40  1  0  0  0  0
 17 18  1  0  0  0  0
 17 41  1  0  0  0  0
 18 42  1  0  0  0  0
 18 43  1  0  0  0  0
 18 44  1  0  0  0  0
 19 20  2  0  0  0  0
 19 45  1  0  0  0  0
M  CHG  1  12   1
M  END
> <s_m_source_file>
AV-unprocessed.smi

> <i_m_source_file_index>
1215

> <i_lp_mmshare_version>
43012

> <i_f3d_flags>
0

> <s_epik_input>
W0NIM11bQ0gyXW4xW2NIXWMoW2NIXW4xKVtOSF1DKD1PKVtOSF1bQ0gyXVtDSDJdTjJbQ0gyXVtDSDJdW0NIMl1bQ0gyXVtDQEhdMltDSDNd

> <s_epik_cmdline>
J2VwaWtfcHl0aG9uJywgJy1waCcsICc3LjAnLCAnLXRuJywgJzgnLCAnLW1hJywgJzIwMCcsICctbWV0YWxfYmluZGluZycsICctaW1hZScsICc8aW5maWxlLm1hZT4nLCAnLW9tYWUnLCAnPG91dGZpbGUubWFlPic=

> <r_lp_tautomer_probability>
1

> <r_epik_Ionization_Penalty>
0.00247187

> <r_epik_Ionization_Penalty_Charging>
0.00232067

> <r_epik_Ionization_Penalty_Neutral>
0.000151201

> <r_epik_State_Penalty>
0.00160128

> <r_epik_Charging_Adjusted_Penalty>
0.00392194

> <i_epik_Tot_Q>
1

> <i_epik_Tot_abs_Q>
1

> <r_epik_Metal_State_Penalty>
-0

> <b_epik_Metal_Only>
0

> <s_lp_Force_Field>
OPLS_2005

> <r_lp_Energy>
24.1958

> <b_lp_Chiralities_Consistent>
1

> <s_lp_Variant>
AV-unprocessed.smi:1215-3

> <Gold.Version>
5.8.1

> <Gold.Id.Protein>
6NUR|6NUR_protein|mol2

> <Gold.PLP.Fitness>
46.2158

> <Gold.PLP.PLP>
-33.5547

> <Gold.PLP.part.hbond>
-3.9703

> <Gold.PLP.part.metal>
0.0000

> <Gold.PLP.part.buried>
-3.8697

> <Gold.PLP.part.nonpolar>
-27.0163

> <Gold.PLP.part.repulsive>
0.3193

> <Gold.PLP.ligand.clash>
0.0000

> <Gold.PLP.ligand.torsion>
1.2212

> <Gold.PLP.Chemscore.Hbond>
3.9920

> <Gold.PLP.Chemscore.CHOScore>
1.0000

> <Gold.PLP.Chemscore.Metal>
0.0000

> <Gold.Chemscore.Hbonds>
donor molecule, donor type, donor heavy atom, donor atom, acceptor molecule, acceptor atom, score
      L1  H     6    27       P1  7957  1.00
      L1  H     9    28       P1  7957  0.99
      L1  H    12    46       P1  7948  2.00
      L1  C     4    26       P1  8028  1.00

> <Gold.PLP.Chemscore.Internal.Correction>
0.1274

> <Gold.Rescore>
     Score         DG    S(hbond)    S(metal)    S(lipo)     H(rot)  DE(clash)    DE(int)     intcor
     17.61     -20.21       2.93        0.00      77.04       1.59       0.09       2.50       ----

> <Gold.Chemscore.Fitness>
17.6067

> <Gold.Chemscore.DG>
-20.2058

> <Gold.Chemscore.ZeroCoef>
-5.4800

> <Gold.Chemscore.Hbond>
2.9295

> <Gold.Chemscore.Metal>
0.0000

> <Gold.Chemscore.Lipo>
77.0434

> <Gold.Chemscore.Internal_Hbond>
0.0000

> <Gold.Chemscore.DEClash>
0.0946

> <Gold.Chemscore.DEInternal>
2.5045

> <Gold.Chemscore.Rot>
1.5909

> <Gold.Chemscore.Internal.Correction>
   9.000000E+99

> <Gold.Chemscore.Hbonds>
donor molecule, donor type, donor heavy atom, donor atom, acceptor molecule, acceptor atom, score
      L1  H     6    27       P1  7957  0.97
      L1  H     9    28       P1  7957  0.87
      L1  H    12    46       P1  7948  1.00

> <Gold.Chemscore.Hbond.Weighted>
-9.7845

> <Gold.Chemscore.Metal.Weighted>
-0.0000

> <Gold.Chemscore.Lipo.Weighted>
-9.0141

> <Gold.Chemscore.Internal_Hbond.Weighted>
0.0000

> <Gold.Chemscore.DEClash.Weighted>
0.0946

> <Gold.Chemscore.DEInternal.Weighted>
2.5045

> <Gold.Chemscore.Rot.Weighted>
4.0728

> <Gold.Chemscore.Internal.Correction.Weighted>
   9.000000E+99

> <Gold.Protein.RotatedTorsions>
[ 6907 6896 6895 6894 ] final  168.37 input  -60.11 | X-H torsion
[ 7974 7965 7964 7962 ] final   81.37 input  175.53 | X-H torsion
[ 8008 7997 7996 7995 ] final -103.64 input   59.86 | X-H torsion
[ 10167 10162 10161 10158 ] final   -8.28 input  -65.29 | X-H torsion
[ 10718 10713 10712 10709 ] final  -38.85 input   66.30 | X-H torsion
[ 10763 10752 10751 10750 ] final   53.29 input  -60.55 | X-H torsion
[ 11005 11000 10999 10996 ] final -179.76 input  -57.11 | X-H torsion

> <Gold.Protein.ActiveResidues>
 VAL166  LYS551  ARG553  GLY616  TRP617  ASP618  TYR619  PRO620  LYS621  CYS622 
 ASP623  PHE694  ASN695  SER759  ASP760  ASP761  ALA762  ILE779  LEU786  VAL792 
 PHE793  MET794  SER795  GLU796  ALA797  LYS798  CYS799  TRP800  GLU811  SER814 

> <Gold.Protein.RotatedAtoms>
  151.8487  133.3436  159.3665 H   0  0  0  0  0  0  0  0  0  0  0  0  # atno 6907 bound_to 6896
  150.7213  134.5320  159.5714 H   0  0  0  0  0  0  0  0  0  0  0  0  # atno 6908 bound_to 6896
  152.2809  134.7830  160.0447 H   0  0  0  0  0  0  0  0  0  0  0  0  # atno 6909 bound_to 6896
  145.6391  139.2421  143.2041 H   0  0  0  0  0  0  0  0  0  0  0  0  # atno 7974 bound_to 7965
  154.8738  140.0422  157.1741 H   0  0  0  0  0  0  0  0  0  0  0  0  # atno 8008 bound_to 7997
  154.8711  140.2958  155.5460 H   0  0  0  0  0  0  0  0  0  0  0  0  # atno 8009 bound_to 7997
  156.2999  140.2429  156.3699 H   0  0  0  0  0  0  0  0  0  0  0  0  # atno 8010 bound_to 7997
  140.7054  143.5986  150.8820 H   0  0  0  0  0  0  0  0  0  0  0  0  # atno 10167 bound_to 10162
  156.2991  130.4238  149.8161 H   0  0  0  0  0  0  0  0  0  0  0  0  # atno 10718 bound_to 10713
  152.9794  135.5784  154.4717 H   0  0  0  0  0  0  0  0  0  0  0  0  # atno 10763 bound_to 10752
  154.4279  135.2773  155.1934 H   0  0  0  0  0  0  0  0  0  0  0  0  # atno 10764 bound_to 10752
  154.3655  135.6179  153.5766 H   0  0  0  0  0  0  0  0  0  0  0  0  # atno 10765 bound_to 10752
  140.4151  134.6657  157.4634 H   0  0  0  0  0  0  0  0  0  0  0  0  # atno 11005 bound_to 11000
  146.1296  140.7203  142.9419 LP  0  0  0  0  0  0  0  0  0  0  0  0  # atno 17320 bound_to 7965
  144.7164  140.4225  143.7041 LP  0  0  0  0  0  0  0  0  0  0  0  0  # atno 17321 bound_to 7965
  139.9711  143.6056  152.2973 LP  0  0  0  0  0  0  0  0  0  0  0  0  # atno 17342 bound_to 10162
  139.6643  144.7662  151.1904 LP  0  0  0  0  0  0  0  0  0  0  0  0  # atno 17343 bound_to 10162
  156.5547  130.8357  151.3310 LP  0  0  0  0  0  0  0  0  0  0  0  0  # atno 17370 bound_to 10713
  157.7363  130.9776  150.2129 LP  0  0  0  0  0  0  0  0  0  0  0  0  # atno 17371 bound_to 10713
  140.0240  134.6505  155.9199 LP  0  0  0  0  0  0  0  0  0  0  0  0  # atno 17394 bound_to 11000
  141.1806  133.6546  156.5005 LP  0  0  0  0  0  0  0  0  0  0  0  0  # atno 17395 bound_to 11000

$$$$
