AV-unprocessed.smi:2229|AV-procd|sdf|9031|dock1
  -GOLD-   2272012233D 1   1.00000     0.00000
 Structure written by MMmdl.
 43 44  0  0  0  0  0  0  0  0  2 V2000
  152.2685  144.0236  161.5716 C   0  0  0  0  0  0  0  0  0  0  0  0
  152.6121  142.7792  160.7389 C   0  0  0  0  0  0  0  0  0  0  0  0
  153.6712  141.9292  161.4636 C   0  0  0  0  0  0  0  0  0  0  0  0
  153.0545  143.1812  159.3168 C   0  0  0  0  0  0  0  0  0  0  0  0
  151.8935  143.3206  158.3166 C   0  0  0  0  0  0  0  0  0  0  0  0
  151.4731  141.9823  157.6813 C   0  0  2  0  0  0  0  0  0  0  0  0
  150.3477  142.0803  156.6483 C   0  0  0  0  0  0  0  0  0  0  0  0
  149.8360  140.6468  156.5330 C   0  0  0  0  0  0  0  0  0  0  0  0
  149.9342  140.0770  157.9519 C   0  0  0  0  0  0  0  0  0  0  0  0
  150.9657  140.9427  158.7013 C   0  0  1  0  0  0  0  0  0  0  0  0
  152.0704  140.1331  159.2072 N   0  0  0  0  0  0  0  0  0  0  0  0
  152.9113  139.4155  158.4470 C   0  0  0  0  0  0  0  0  0  0  0  0
  152.9085  139.4469  157.2158 O   0  0  0  0  0  0  0  0  0  0  0  0
  153.9144  138.5321  159.1967 C   0  0  0  0  0  0  0  0  0  0  0  0
  154.4746  137.4786  158.3460 N   0  0  0  0  0  0  0  0  0  0  0  0
  153.7486  136.3929  157.9251 C   0  0  0  0  0  0  0  0  0  0  0  0
  154.4651  135.6248  157.1855 N   0  0  0  0  0  0  0  0  0  0  0  0
  155.7588  136.2319  157.1033 N   0  5  0  0  0  0  0  0  0  0  0  0
  155.7032  137.3659  157.8362 C   0  0  0  0  0  0  0  0  0  0  0  0
  156.5942  138.1915  158.0342 O   0  0  0  0  0  0  0  0  0  0  0  0
  153.1378  144.6706  161.6939 H   0  0  0  0  0  0  0  0  0  0  0  0
  151.9169  143.7475  162.5661 H   0  0  0  0  0  0  0  0  0  0  0  0
  151.4806  144.6101  161.0981 H   0  0  0  0  0  0  0  0  0  0  0  0
  151.7014  142.1844  160.6565 H   0  0  0  0  0  0  0  0  0  0  0  0
  154.6248  142.4540  161.5284 H   0  0  0  0  0  0  0  0  0  0  0  0
  153.8489  140.9809  160.9575 H   0  0  0  0  0  0  0  0  0  0  0  0
  153.3553  141.6925  162.4798 H   0  0  0  0  0  0  0  0  0  0  0  0
  153.5814  144.1348  159.3649 H   0  0  0  0  0  0  0  0  0  0  0  0
  153.7784  142.4553  158.9441 H   0  0  0  0  0  0  0  0  0  0  0  0
  151.0288  143.7367  158.8308 H   0  0  0  0  0  0  0  0  0  0  0  0
  152.1580  144.0372  157.5383 H   0  0  0  0  0  0  0  0  0  0  0  0
  152.3405  141.5613  157.1685 H   0  0  0  0  0  0  0  0  0  0  0  0
  149.5518  142.7289  157.0173 H   0  0  0  0  0  0  0  0  0  0  0  0
  150.6881  142.4764  155.6911 H   0  0  0  0  0  0  0  0  0  0  0  0
  148.8246  140.5938  156.1288 H   0  0  0  0  0  0  0  0  0  0  0  0
  150.4889  140.0811  155.8671 H   0  0  0  0  0  0  0  0  0  0  0  0
  148.9669  140.1504  158.4501 H   0  0  0  0  0  0  0  0  0  0  0  0
  150.2011  139.0194  157.9303 H   0  0  0  0  0  0  0  0  0  0  0  0
  150.4476  141.4475  159.5193 H   0  0  0  0  0  0  0  0  0  0  0  0
  152.1548  140.0527  160.2101 H   0  0  0  0  0  0  0  0  0  0  0  0
  154.7028  139.1699  159.5991 H   0  0  0  0  0  0  0  0  0  0  0  0
  153.4292  138.0631  160.0545 H   0  0  0  0  0  0  0  0  0  0  0  0
  152.7065  136.2765  158.2272 H   0  0  0  0  0  0  0  0  0  0  0  0
  1  2  1  0  0  0  0
  1 21  1  0  0  0  0
  1 22  1  0  0  0  0
  1 23  1  0  0  0  0
  2  3  1  0  0  0  0
  2  4  1  0  0  0  0
  2 24  1  0  0  0  0
  3 25  1  0  0  0  0
  3 26  1  0  0  0  0
  3 27  1  0  0  0  0
  4  5  1  0  0  0  0
  4 28  1  0  0  0  0
  4 29  1  0  0  0  0
  5  6  1  0  0  0  0
  5 30  1  0  0  0  0
  5 31  1  0  0  0  0
  6 10  1  0  0  0  0
  6  7  1  0  0  0  0
  6 32  1  0  0  0  0
  7  8  1  0  0  0  0
  7 33  1  0  0  0  0
  7 34  1  0  0  0  0
  8  9  1  0  0  0  0
  8 35  1  0  0  0  0
  8 36  1  0  0  0  0
  9 10  1  0  0  0  0
  9 37  1  0  0  0  0
  9 38  1  0  0  0  0
 10 11  1  0  0  0  0
 10 39  1  0  0  0  0
 11 12  1  0  0  0  0
 11 40  1  0  0  0  0
 12 13  2  0  0  0  0
 12 14  1  0  0  0  0
 14 15  1  0  0  0  0
 14 41  1  0  0  0  0
 14 42  1  0  0  0  0
 15 19  1  0  0  0  0
 15 16  1  0  0  0  0
 16 17  2  0  0  0  0
 16 43  1  0  0  0  0
 17 18  1  0  0  0  0
 18 19  1  0  0  0  0
 19 20  2  0  0  0  0
M  CHG  1  18  -1
M  END
> <s_m_source_file>
AV-unprocessed.smi

> <i_m_source_file_index>
2229

> <i_lp_mmshare_version>
43012

> <i_f3d_flags>
0

> <s_epik_input>
W0NIM11bQ0hdKFtDSDNdKVtDSDJdW0NIMl1bQ0BASF0xW0NIMl1bQ0gyXVtDSDJdW0NASF0xW05IXUMoPU8pW0NIMl1uMltjSF1uW25IXWMyPU8=

> <s_epik_cmdline>
J2VwaWtfcHl0aG9uJywgJy1waCcsICc3LjAnLCAnLXRuJywgJzgnLCAnLW1hJywgJzIwMCcsICctbWV0YWxfYmluZGluZycsICctaW1hZScsICc8aW5maWxlLm1hZT4nLCAnLW9tYWUnLCAnPG91dGZpbGUubWFlPic=

> <r_lp_tautomer_probability>
1

> <r_epik_Ionization_Penalty>
13.6733

> <r_epik_Ionization_Penalty_Charging>
13.6725

> <r_epik_Ionization_Penalty_Neutral>
0.000837689

> <r_epik_State_Penalty>
5.67062

> <r_epik_Charging_Adjusted_Penalty>
19.3431

> <i_epik_Tot_Q>
-1

> <i_epik_Tot_abs_Q>
1

> <r_epik_Metal_State_Penalty>
1.61781

> <b_epik_Metal_Only>
1

> <s_lp_Force_Field>
OPLS_2005

> <r_lp_Energy>
25.828

> <b_lp_Chiralities_Consistent>
1

> <s_lp_Variant>
AV-unprocessed.smi:2229-5

> <Gold.Version>
5.8.1

> <Gold.Id.Protein>
6NUR|6NUR_protein|mol2

> <Gold.PLP.Fitness>
40.9883

> <Gold.PLP.PLP>
-33.8401

> <Gold.PLP.part.hbond>
-3.0000

> <Gold.PLP.part.metal>
0.0000

> <Gold.PLP.part.buried>
-3.0649

> <Gold.PLP.part.nonpolar>
-27.0653

> <Gold.PLP.part.repulsive>
0.2269

> <Gold.PLP.ligand.clash>
0.0000

> <Gold.PLP.ligand.torsion>
0.8948

> <Gold.PLP.Chemscore.Hbond>
2.9675

> <Gold.PLP.Chemscore.CHOScore>
0.0000

> <Gold.PLP.Chemscore.Metal>
0.0000

> <Gold.Chemscore.Hbonds>
donor molecule, donor type, donor heavy atom, donor atom, acceptor molecule, acceptor atom, score
      P1  H  7997  8009       L1    20  0.64
      P1  H  7997  8010       L1    13  1.00
      P1  H 10752 10763       L1    17  0.95

> <Gold.PLP.Chemscore.Internal.Correction>
0.0355

> <Gold.Rescore>
     Score         DG    S(hbond)    S(metal)    S(lipo)     H(rot)  DE(clash)    DE(int)     intcor
     14.62     -16.58       2.15        0.00      90.26       2.59       0.04       1.93       ----

> <Gold.Chemscore.Fitness>
14.6158

> <Gold.Chemscore.DG>
-16.5830

> <Gold.Chemscore.ZeroCoef>
-5.4800

> <Gold.Chemscore.Hbond>
2.1507

> <Gold.Chemscore.Metal>
0.0000

> <Gold.Chemscore.Lipo>
90.2568

> <Gold.Chemscore.Internal_Hbond>
0.0000

> <Gold.Chemscore.DEClash>
0.0391

> <Gold.Chemscore.DEInternal>
1.9281

> <Gold.Chemscore.Rot>
2.5939

> <Gold.Chemscore.Internal.Correction>
   9.000000E+99

> <Gold.Chemscore.Hbonds>
donor molecule, donor type, donor heavy atom, donor atom, acceptor molecule, acceptor atom, score
      P1  H  7997  8009       L1    20  0.37
      P1  H  7997  8010       L1    13  0.92
      P1  H 10752 10763       L1    17  0.22

> <Gold.Chemscore.Hbond.Weighted>
-7.1834

> <Gold.Chemscore.Metal.Weighted>
-0.0000

> <Gold.Chemscore.Lipo.Weighted>
-10.5600

> <Gold.Chemscore.Internal_Hbond.Weighted>
0.0000

> <Gold.Chemscore.DEClash.Weighted>
0.0391

> <Gold.Chemscore.DEInternal.Weighted>
1.9281

> <Gold.Chemscore.Rot.Weighted>
6.6405

> <Gold.Chemscore.Internal.Correction.Weighted>
   9.000000E+99

> <Gold.Protein.RotatedTorsions>
[ 6907 6896 6895 6894 ] final  102.80 input  -60.11 | X-H torsion
[ 7974 7965 7964 7962 ] final -167.44 input  175.53 | X-H torsion
[ 8008 7997 7996 7995 ] final   71.00 input   59.86 | X-H torsion
[ 10167 10162 10161 10158 ] final -108.39 input  -65.29 | X-H torsion
[ 10718 10713 10712 10709 ] final  111.45 input   66.30 | X-H torsion
[ 10763 10752 10751 10750 ] final  156.08 input  -60.55 | X-H torsion
[ 11005 11000 10999 10996 ] final  -20.37 input  -57.11 | X-H torsion

> <Gold.Protein.ActiveResidues>
 VAL166  LYS551  ARG553  GLY616  TRP617  ASP618  TYR619  PRO620  LYS621  CYS622 
 ASP623  PHE694  ASN695  SER759  ASP760  ASP761  ALA762  ILE779  LEU786  VAL792 
 PHE793  MET794  SER795  GLU796  ALA797  LYS798  CYS799  TRP800  GLU811  SER814 

> <Gold.Protein.RotatedAtoms>
  152.5313  133.9920  159.7855 H   0  0  0  0  0  0  0  0  0  0  0  0  # atno 6907 bound_to 6896
  151.0155  133.5917  159.2684 H   0  0  0  0  0  0  0  0  0  0  0  0  # atno 6908 bound_to 6896
  151.2976  135.0766  159.9280 H   0  0  0  0  0  0  0  0  0  0  0  0  # atno 6909 bound_to 6896
  144.7223  140.2518  143.6277 H   0  0  0  0  0  0  0  0  0  0  0  0  # atno 7974 bound_to 7965
  155.7473  140.3489  155.5133 H   0  0  0  0  0  0  0  0  0  0  0  0  # atno 8008 bound_to 7997
  155.9038  140.1038  157.1352 H   0  0  0  0  0  0  0  0  0  0  0  0  # atno 8009 bound_to 7997
  154.4047  140.1281  156.4456 H   0  0  0  0  0  0  0  0  0  0  0  0  # atno 8010 bound_to 7997
  140.1667  143.4076  152.1385 H   0  0  0  0  0  0  0  0  0  0  0  0  # atno 10167 bound_to 10162
  157.6444  131.0951  150.6750 H   0  0  0  0  0  0  0  0  0  0  0  0  # atno 10718 bound_to 10713
  154.1786  135.2800  155.3059 H   0  0  0  0  0  0  0  0  0  0  0  0  # atno 10763 bound_to 10752
  154.6020  135.5526  153.7387 H   0  0  0  0  0  0  0  0  0  0  0  0  # atno 10764 bound_to 10752
  153.0144  135.6394  154.1926 H   0  0  0  0  0  0  0  0  0  0  0  0  # atno 10765 bound_to 10752
  140.8457  133.7893  155.9910 H   0  0  0  0  0  0  0  0  0  0  0  0  # atno 11005 bound_to 11000
  145.8220  139.2048  143.1932 LP  0  0  0  0  0  0  0  0  0  0  0  0  # atno 17320 bound_to 7965
  146.0505  140.8074  142.9784 LP  0  0  0  0  0  0  0  0  0  0  0  0  # atno 17321 bound_to 7965
  139.5356  144.7206  151.4904 LP  0  0  0  0  0  0  0  0  0  0  0  0  # atno 17342 bound_to 10162
  140.6608  143.8501  150.6886 LP  0  0  0  0  0  0  0  0  0  0  0  0  # atno 17343 bound_to 10162
  156.7069  130.4640  149.5557 LP  0  0  0  0  0  0  0  0  0  0  0  0  # atno 17370 bound_to 10713
  156.1757  130.6466  151.0891 LP  0  0  0  0  0  0  0  0  0  0  0  0  # atno 17371 bound_to 10713
  140.8846  134.2570  157.5127 LP  0  0  0  0  0  0  0  0  0  0  0  0  # atno 17394 bound_to 11000
  139.8703  134.9631  156.4453 LP  0  0  0  0  0  0  0  0  0  0  0  0  # atno 17395 bound_to 11000

$$$$
