AV-unprocessed.smi:3231|AV-procd|sdf|12336|dock2
  -GOLD-   2272018193D 1   1.00000     0.00000
 Structure written by MMmdl.
 42 43  0  0  0  0  0  0  0  0  3 V2000
  147.0876  142.6101  155.3934 O   0  0  0  0  0  0  0  0  0  0  0  0
  147.2382  141.5280  154.4964 C   0  0  1  0  0  0  0  0  0  0  0  0
  148.6972  141.0459  154.6054 C   0  0  0  0  0  0  0  0  0  0  0  0
  149.5678  142.0658  155.2250 N   0  3  0  0  0  0  0  0  0  0  0  0
  150.0938  141.6789  156.5484 C   0  0  0  0  0  0  0  0  0  0  0  0
  151.3439  140.7985  156.4086 C   0  0  0  0  0  0  0  0  0  0  0  0
  151.0506  139.5553  155.7228 N   0  0  0  0  0  0  0  0  0  0  0  0
  150.0694  138.6283  156.0054 C   0  0  0  0  0  0  0  0  0  0  0  0
  150.1853  137.6234  155.0883 C   0  0  0  0  0  0  0  0  0  0  0  0
  151.2820  138.0293  154.2776 C   0  0  0  0  0  0  0  0  0  0  0  0
  151.7981  139.1862  154.6608 N   0  0  0  0  0  0  0  0  0  0  0  0
  146.2230  140.4260  154.8747 C   0  0  0  0  0  0  0  0  0  0  0  0
  145.8709  139.5320  153.7405 N   0  3  0  0  0  0  0  0  0  0  0  0
  147.0098  139.2355  152.8355 C   0  0  0  0  0  0  0  0  0  0  0  0
  146.5588  138.3249  151.6800 C   0  0  0  0  0  0  0  0  0  0  0  0
  145.9917  137.1319  152.2055 O   0  0  0  0  0  0  0  0  0  0  0  0
  144.8411  137.3954  152.9976 C   0  0  0  0  0  0  0  0  0  0  0  0
  145.2341  138.2732  154.1982 C   0  0  0  0  0  0  0  0  0  0  0  0
  147.9069  143.0763  155.4575 H   0  0  0  0  0  0  0  0  0  0  0  0
  147.0658  141.9007  153.4871 H   0  0  0  0  0  0  0  0  0  0  0  0
  148.7459  140.1471  155.2224 H   0  0  0  0  0  0  0  0  0  0  0  0
  149.0836  140.7763  153.6211 H   0  0  0  0  0  0  0  0  0  0  0  0
  150.3519  142.2388  154.6127 H   0  0  0  0  0  0  0  0  0  0  0  0
  150.3324  142.5769  157.1201 H   0  0  0  0  0  0  0  0  0  0  0  0
  149.3168  141.1441  157.0964 H   0  0  0  0  0  0  0  0  0  0  0  0
  152.1232  141.3234  155.8537 H   0  0  0  0  0  0  0  0  0  0  0  0
  151.7563  140.5639  157.3909 H   0  0  0  0  0  0  0  0  0  0  0  0
  149.3779  138.7581  156.8250 H   0  0  0  0  0  0  0  0  0  0  0  0
  149.5799  136.7326  155.0092 H   0  0  0  0  0  0  0  0  0  0  0  0
  151.7153  137.5214  153.4286 H   0  0  0  0  0  0  0  0  0  0  0  0
  146.6047  139.8174  155.6959 H   0  0  0  0  0  0  0  0  0  0  0  0
  145.3176  140.9056  155.2511 H   0  0  0  0  0  0  0  0  0  0  0  0
  147.4233  140.1548  152.4231 H   0  0  0  0  0  0  0  0  0  0  0  0
  147.8088  138.7497  153.3979 H   0  0  0  0  0  0  0  0  0  0  0  0
  145.8375  138.8347  151.0391 H   0  0  0  0  0  0  0  0  0  0  0  0
  147.4118  138.0638  151.0533 H   0  0  0  0  0  0  0  0  0  0  0  0
  144.0707  137.8789  152.3949 H   0  0  0  0  0  0  0  0  0  0  0  0
  144.4266  136.4487  153.3443 H   0  0  0  0  0  0  0  0  0  0  0  0
  145.9217  137.7296  154.8480 H   0  0  0  0  0  0  0  0  0  0  0  0
  144.3458  138.4999  154.7889 H   0  0  0  0  0  0  0  0  0  0  0  0
  149.0402  142.9211  155.3277 H   0  0  0  0  0  0  0  0  0  0  0  0
  145.1726  140.0149  153.1933 H   0  0  0  0  0  0  0  0  0  0  0  0
  1  2  1  0  0  0  0
  1 19  1  0  0  0  0
  2  3  1  0  0  0  0
  2 12  1  0  0  0  0
  2 20  1  0  0  0  0
  3  4  1  0  0  0  0
  3 21  1  0  0  0  0
  3 22  1  0  0  0  0
  4  5  1  0  0  0  0
  4 23  1  0  0  0  0
  4 41  1  0  0  0  0
  5  6  1  0  0  0  0
  5 24  1  0  0  0  0
  5 25  1  0  0  0  0
  6  7  1  0  0  0  0
  6 26  1  0  0  0  0
  6 27  1  0  0  0  0
  7 11  1  0  0  0  0
  7  8  1  0  0  0  0
  8  9  2  0  0  0  0
  8 28  1  0  0  0  0
  9 10  1  0  0  0  0
  9 29  1  0  0  0  0
 10 11  2  0  0  0  0
 10 30  1  0  0  0  0
 12 13  1  0  0  0  0
 12 31  1  0  0  0  0
 12 32  1  0  0  0  0
 13 18  1  0  0  0  0
 13 14  1  0  0  0  0
 13 42  1  0  0  0  0
 14 15  1  0  0  0  0
 14 33  1  0  0  0  0
 14 34  1  0  0  0  0
 15 16  1  0  0  0  0
 15 35  1  0  0  0  0
 15 36  1  0  0  0  0
 16 17  1  0  0  0  0
 17 18  1  0  0  0  0
 17 37  1  0  0  0  0
 17 38  1  0  0  0  0
 18 39  1  0  0  0  0
 18 40  1  0  0  0  0
M  CHG  1   4   1
M  CHG  1  13   1
M  END
> <s_m_source_file>
AV-unprocessed.smi

> <i_m_source_file_index>
3231

> <i_lp_mmshare_version>
43012

> <i_f3d_flags>
0

> <s_epik_input>
W0NIMl0xW0NIMl1PW0NIMl1bQ0gyXU4xW0NIMl1bQ0BIXShbT0hdKVtDSDJdW05IXVtDSDJdW0NIMl1uMltjSF1bY0hdW2NIXW4y

> <s_epik_cmdline>
J2VwaWtfcHl0aG9uJywgJy1waCcsICc3LjAnLCAnLXRuJywgJzgnLCAnLW1hJywgJzIwMCcsICctbWV0YWxfYmluZGluZycsICctaW1hZScsICc8aW5maWxlLm1hZT4nLCAnLW9tYWUnLCAnPG91dGZpbGUubWFlPic=

> <r_lp_tautomer_probability>
1

> <r_epik_Ionization_Penalty>
2.09881

> <r_epik_Ionization_Penalty_Charging>
2.09628

> <r_epik_Ionization_Penalty_Neutral>
0.0025303

> <r_epik_State_Penalty>
1.58657

> <r_epik_Charging_Adjusted_Penalty>
3.68285

> <i_epik_Tot_Q>
2

> <i_epik_Tot_abs_Q>
2

> <r_epik_Metal_State_Penalty>
1.58685

> <b_epik_Metal_Only>
0

> <s_lp_Force_Field>
OPLS_2005

> <r_lp_Energy>
27.3068

> <b_lp_Chiralities_Consistent>
1

> <s_lp_Variant>
AV-unprocessed.smi:3231-6

> <Gold.Version>
5.8.1

> <Gold.Id.Protein>
6NUR|6NUR_protein|mol2

> <Gold.PLP.Fitness>
47.9760

> <Gold.PLP.PLP>
-29.9486

> <Gold.PLP.part.hbond>
-4.0000

> <Gold.PLP.part.metal>
0.0000

> <Gold.PLP.part.buried>
-1.6465

> <Gold.PLP.part.nonpolar>
-24.9238

> <Gold.PLP.part.repulsive>
0.5790

> <Gold.PLP.ligand.clash>
0.0000

> <Gold.PLP.ligand.torsion>
1.6103

> <Gold.PLP.Chemscore.Hbond>
5.9920

> <Gold.PLP.Chemscore.CHOScore>
1.0000

> <Gold.PLP.Chemscore.Metal>
0.0000

> <Gold.Chemscore.Hbonds>
donor molecule, donor type, donor heavy atom, donor atom, acceptor molecule, acceptor atom, score
      L1  H     1    19       P1  8028  0.98
      L1  H     4    41       P1  8028  2.00
      L1  H    13    42       P1 10175  2.00
      P1  H  7989  7998       L1    11  0.98
      L1  C    10    30       P1  7949  1.00

> <Gold.PLP.Chemscore.Internal.Correction>
0.2720

> <Gold.Rescore>
     Score         DG    S(hbond)    S(metal)    S(lipo)     H(rot)  DE(clash)    DE(int)     intcor
     15.49     -17.39       3.33        0.00      71.07       2.94       0.24       1.66       ----

> <Gold.Chemscore.Fitness>
15.4861

> <Gold.Chemscore.DG>
-17.3913

> <Gold.Chemscore.ZeroCoef>
-5.4800

> <Gold.Chemscore.Hbond>
3.3330

> <Gold.Chemscore.Metal>
0.0000

> <Gold.Chemscore.Lipo>
71.0683

> <Gold.Chemscore.Internal_Hbond>
0.0000

> <Gold.Chemscore.DEClash>
0.2407

> <Gold.Chemscore.DEInternal>
1.6645

> <Gold.Chemscore.Rot>
2.9437

> <Gold.Chemscore.Internal.Correction>
   9.000000E+99

> <Gold.Chemscore.Hbonds>
donor molecule, donor type, donor heavy atom, donor atom, acceptor molecule, acceptor atom, score
      L1  H     1    19       P1  8028  0.65
      L1  H     4    41       P1  8028  0.98
      L1  H    13    42       P1 10175  1.00
      P1  H  7989  7998       L1    11  0.26

> <Gold.Chemscore.Hbond.Weighted>
-11.1321

> <Gold.Chemscore.Metal.Weighted>
-0.0000

> <Gold.Chemscore.Lipo.Weighted>
-8.3150

> <Gold.Chemscore.Internal_Hbond.Weighted>
0.0000

> <Gold.Chemscore.DEClash.Weighted>
0.2407

> <Gold.Chemscore.DEInternal.Weighted>
1.6645

> <Gold.Chemscore.Rot.Weighted>
7.5359

> <Gold.Chemscore.Internal.Correction.Weighted>
   9.000000E+99

> <Gold.Protein.RotatedTorsions>
[ 6907 6896 6895 6894 ] final  108.11 input  -60.11 | X-H torsion
[ 7974 7965 7964 7962 ] final -110.66 input  175.53 | X-H torsion
[ 8008 7997 7996 7995 ] final  -24.38 input   59.86 | X-H torsion
[ 10167 10162 10161 10158 ] final   14.71 input  -65.29 | X-H torsion
[ 10718 10713 10712 10709 ] final   47.34 input   66.30 | X-H torsion
[ 10763 10752 10751 10750 ] final  170.14 input  -60.55 | X-H torsion
[ 11005 11000 10999 10996 ] final -174.74 input  -57.11 | X-H torsion

> <Gold.Protein.ActiveResidues>
 VAL166  LYS551  ARG553  GLY616  TRP617  ASP618  TYR619  PRO620  LYS621  CYS622 
 ASP623  PHE694  ASN695  SER759  ASP760  ASP761  ALA762  ILE779  LEU786  VAL792 
 PHE793  MET794  SER795  GLU796  ALA797  LYS798  CYS799  TRP800  GLU811  SER814 

> <Gold.Protein.RotatedAtoms>
  152.5126  133.9136  159.7499 H   0  0  0  0  0  0  0  0  0  0  0  0  # atno 6907 bound_to 6896
  150.9524  133.6526  159.2776 H   0  0  0  0  0  0  0  0  0  0  0  0  # atno 6908 bound_to 6896
  151.3800  135.0943  159.9546 H   0  0  0  0  0  0  0  0  0  0  0  0  # atno 6909 bound_to 6896
  145.1656  140.8900  143.3565 H   0  0  0  0  0  0  0  0  0  0  0  0  # atno 7974 bound_to 7965
  154.4532  140.1955  156.0456 H   0  0  0  0  0  0  0  0  0  0  0  0  # atno 8008 bound_to 7997
  156.0692  140.3286  155.7528 H   0  0  0  0  0  0  0  0  0  0  0  0  # atno 8009 bound_to 7997
  155.5290  140.0576  157.2883 H   0  0  0  0  0  0  0  0  0  0  0  0  # atno 8010 bound_to 7997
  140.5917  143.8782  150.6880 H   0  0  0  0  0  0  0  0  0  0  0  0  # atno 10167 bound_to 10162
  157.4574  130.8176  149.7851 H   0  0  0  0  0  0  0  0  0  0  0  0  # atno 10718 bound_to 10713
  154.3933  135.2754  155.2141 H   0  0  0  0  0  0  0  0  0  0  0  0  # atno 10763 bound_to 10752
  154.4198  135.6003  153.6006 H   0  0  0  0  0  0  0  0  0  0  0  0  # atno 10764 bound_to 10752
  152.9832  135.5969  154.4191 H   0  0  0  0  0  0  0  0  0  0  0  0  # atno 10765 bound_to 10752
  140.4711  134.6165  157.4882 H   0  0  0  0  0  0  0  0  0  0  0  0  # atno 11005 bound_to 11000
  145.0286  139.3361  143.6036 LP  0  0  0  0  0  0  0  0  0  0  0  0  # atno 17320 bound_to 7965
  146.3476  139.9614  142.8717 LP  0  0  0  0  0  0  0  0  0  0  0  0  # atno 17321 bound_to 7965
  140.2307  143.3738  152.1568 LP  0  0  0  0  0  0  0  0  0  0  0  0  # atno 17342 bound_to 10162
  139.5232  144.7068  151.5330 LP  0  0  0  0  0  0  0  0  0  0  0  0  # atno 17343 bound_to 10162
  156.0013  130.3878  150.2594 LP  0  0  0  0  0  0  0  0  0  0  0  0  # atno 17370 bound_to 10713
  157.0769  131.0132  151.3170 LP  0  0  0  0  0  0  0  0  0  0  0  0  # atno 17371 bound_to 10713
  139.9885  134.7023  155.9732 LP  0  0  0  0  0  0  0  0  0  0  0  0  # atno 17394 bound_to 11000
  141.1576  133.6541  156.4214 LP  0  0  0  0  0  0  0  0  0  0  0  0  # atno 17395 bound_to 11000

$$$$
