AV-unprocessed.smi:2635|AV-procd|sdf|10255|dock2
  -GOLD-   2272014263D 1   1.00000     0.00000
 Structure written by MMmdl.
 32 33  0  0  0  0  0  0  0  0  1 V2000
  146.8164  142.0719  153.8281 C   0  0  0  0  0  0  0  0  0  0  0  0
  147.9241  141.0471  154.0060 C   0  0  0  0  0  0  0  0  0  0  0  0
  148.9969  141.2679  154.8086 C   0  0  0  0  0  0  0  0  0  0  0  0
  150.0219  140.3526  154.9824 N   0  0  0  0  0  0  0  0  0  0  0  0
  151.1342  140.5817  155.8870 C   0  0  0  0  0  0  0  0  0  0  0  0
  150.6545  140.6241  157.1917 O   0  0  0  0  0  0  0  0  0  0  0  0
  151.6760  140.8099  158.1573 C   0  0  0  0  0  0  0  0  0  0  0  0
  151.8100  142.2699  158.5375 C   0  0  0  0  0  0  0  0  0  0  0  0
  151.3721  143.2762  157.6513 C   0  0  0  0  0  0  0  0  0  0  0  0
  151.4934  144.6336  158.0077 C   0  0  0  0  0  0  0  0  0  0  0  0
  152.0513  144.9886  159.2511 C   0  0  0  0  0  0  0  0  0  0  0  0
  152.4866  143.9859  160.1392 C   0  0  0  0  0  0  0  0  0  0  0  0
  152.3651  142.6282  159.7837 C   0  0  0  0  0  0  0  0  0  0  0  0
  149.9685  139.1051  154.3265 C   0  0  0  0  0  0  0  0  0  0  0  0
  150.8339  138.2388  154.4553 O   0  0  0  0  0  0  0  0  0  0  0  0
  148.8687  138.8802  153.4999 N   0  0  0  0  0  0  0  0  0  0  0  0
  147.8191  139.7772  153.2799 C   0  0  0  0  0  0  0  0  0  0  0  0
  146.9021  139.4641  152.5225 O   0  0  0  0  0  0  0  0  0  0  0  0
  148.8240  137.9916  153.0228 H   0  0  0  0  0  0  0  0  0  0  0  0
  146.9824  142.9566  154.4433 H   0  0  0  0  0  0  0  0  0  0  0  0
  145.8522  141.6465  154.1087 H   0  0  0  0  0  0  0  0  0  0  0  0
  146.7601  142.3937  152.7878 H   0  0  0  0  0  0  0  0  0  0  0  0
  149.0584  142.2069  155.3400 H   0  0  0  0  0  0  0  0  0  0  0  0
  151.8719  139.7862  155.7553 H   0  0  0  0  0  0  0  0  0  0  0  0
  151.6087  141.5314  155.6329 H   0  0  0  0  0  0  0  0  0  0  0  0
  151.4559  140.2266  159.0529 H   0  0  0  0  0  0  0  0  0  0  0  0
  152.6305  140.4515  157.7683 H   0  0  0  0  0  0  0  0  0  0  0  0
  150.9410  143.0097  156.6972 H   0  0  0  0  0  0  0  0  0  0  0  0
  151.1576  145.4023  157.3275 H   0  0  0  0  0  0  0  0  0  0  0  0
  152.1437  146.0294  159.5244 H   0  0  0  0  0  0  0  0  0  0  0  0
  152.9128  144.2578  161.0935 H   0  0  0  0  0  0  0  0  0  0  0  0
  152.6974  141.8630  160.4699 H   0  0  0  0  0  0  0  0  0  0  0  0
  1  2  1  0  0  0  0
  1 20  1  0  0  0  0
  1 21  1  0  0  0  0
  1 22  1  0  0  0  0
  2 17  1  0  0  0  0
  2  3  2  0  0  0  0
  3  4  1  0  0  0  0
  3 23  1  0  0  0  0
  4  5  1  0  0  0  0
  4 14  1  0  0  0  0
  5  6  1  0  0  0  0
  5 24  1  0  0  0  0
  5 25  1  0  0  0  0
  6  7  1  0  0  0  0
  7  8  1  0  0  0  0
  7 26  1  0  0  0  0
  7 27  1  0  0  0  0
  8 13  1  0  0  0  0
  8  9  2  0  0  0  0
  9 10  1  0  0  0  0
  9 28  1  0  0  0  0
 10 11  2  0  0  0  0
 10 29  1  0  0  0  0
 11 12  1  0  0  0  0
 11 30  1  0  0  0  0
 12 13  2  0  0  0  0
 12 31  1  0  0  0  0
 13 32  1  0  0  0  0
 14 15  2  0  0  0  0
 14 16  1  0  0  0  0
 16 19  1  0  0  0  0
 16 17  1  0  0  0  0
 17 18  2  0  0  0  0
M  END
> <s_m_source_file>
AV-unprocessed.smi

> <i_m_source_file_index>
2635

> <i_lp_mmshare_version>
43012

> <i_f3d_flags>
0

> <s_epik_input>
Tz1jMVtuSF1jKD1PKW4oW2NIXWMxW0NIM10pW0NIMl1PW0NIMl1jMltjSF1bY0hdW2NIXVtjSF1bY0hdMg==

> <s_epik_cmdline>
J2VwaWtfcHl0aG9uJywgJy1waCcsICc3LjAnLCAnLXRuJywgJzgnLCAnLW1hJywgJzIwMCcsICctbWV0YWxfYmluZGluZycsICctaW1hZScsICc8aW5maWxlLm1hZT4nLCAnLW9tYWUnLCAnPG91dGZpbGUubWFlPic=

> <r_lp_tautomer_probability>
0.999537

> <r_epik_Ionization_Penalty>
0.00186109

> <r_epik_Ionization_Penalty_Charging>
0.00186109

> <r_epik_Ionization_Penalty_Neutral>
6.96075e-13

> <r_epik_State_Penalty>
0.00126512

> <r_epik_Charging_Adjusted_Penalty>
0.00312622

> <i_epik_Tot_Q>
0

> <i_epik_Tot_abs_Q>
0

> <r_epik_Metal_State_Penalty>
0.842611

> <b_epik_Metal_Only>
0

> <s_epik_Chemistry_Notes>
This compound contains an acetal/aminal-like group ( X-CH(R)-Y where X, Y are N, S, or O) that may be acid/base labile, releasing an aldehyde.

> <s_lp_Force_Field>
OPLS_2005

> <r_lp_Energy>
3.09653

> <b_lp_Chiralities_Consistent>
1

> <s_lp_Variant>
AV-unprocessed.smi:2635-1

> <Gold.Version>
5.8.1

> <Gold.Id.Protein>
6NUR|6NUR_protein|mol2

> <Gold.PLP.Fitness>
48.1682

> <Gold.PLP.PLP>
-43.8274

> <Gold.PLP.part.hbond>
-1.8063

> <Gold.PLP.part.metal>
0.0000

> <Gold.PLP.part.buried>
-3.6933

> <Gold.PLP.part.nonpolar>
-39.3850

> <Gold.PLP.part.repulsive>
1.0536

> <Gold.PLP.ligand.clash>
0.0000

> <Gold.PLP.ligand.torsion>
0.6372

> <Gold.PLP.Chemscore.Hbond>
0.8613

> <Gold.PLP.Chemscore.CHOScore>
0.9940

> <Gold.PLP.Chemscore.Metal>
0.0000

> <Gold.Chemscore.Hbonds>
donor molecule, donor type, donor heavy atom, donor atom, acceptor molecule, acceptor atom, score
      L1  H    16    19       P1  7948  0.86
      L1  C     3    23       P1  8028  0.99

> <Gold.PLP.Chemscore.Internal.Correction>
0.0494

> <Gold.Rescore>
     Score         DG    S(hbond)    S(metal)    S(lipo)     H(rot)  DE(clash)    DE(int)     intcor
     14.38     -15.44       0.93        0.00     100.95       1.94       0.52       0.54       ----

> <Gold.Chemscore.Fitness>
14.3766

> <Gold.Chemscore.DG>
-15.4374

> <Gold.Chemscore.ZeroCoef>
-5.4800

> <Gold.Chemscore.Hbond>
0.9333

> <Gold.Chemscore.Metal>
0.0000

> <Gold.Chemscore.Lipo>
100.9546

> <Gold.Chemscore.Internal_Hbond>
0.0000

> <Gold.Chemscore.DEClash>
0.5171

> <Gold.Chemscore.DEInternal>
0.5437

> <Gold.Chemscore.Rot>
1.9420

> <Gold.Chemscore.Internal.Correction>
   9.000000E+99

> <Gold.Chemscore.Hbonds>
donor molecule, donor type, donor heavy atom, donor atom, acceptor molecule, acceptor atom, score
      L1  H    16    19       P1  7948  0.84

> <Gold.Chemscore.Hbond.Weighted>
-3.1173

> <Gold.Chemscore.Metal.Weighted>
-0.0000

> <Gold.Chemscore.Lipo.Weighted>
-11.8117

> <Gold.Chemscore.Internal_Hbond.Weighted>
0.0000

> <Gold.Chemscore.DEClash.Weighted>
0.5171

> <Gold.Chemscore.DEInternal.Weighted>
0.5437

> <Gold.Chemscore.Rot.Weighted>
4.9716

> <Gold.Chemscore.Internal.Correction.Weighted>
   9.000000E+99

> <Gold.Protein.RotatedTorsions>
[ 6907 6896 6895 6894 ] final -121.98 input  -60.11 | X-H torsion
[ 7974 7965 7964 7962 ] final   41.91 input  175.53 | X-H torsion
[ 8008 7997 7996 7995 ] final  -33.78 input   59.86 | X-H torsion
[ 10167 10162 10161 10158 ] final -127.89 input  -65.29 | X-H torsion
[ 10718 10713 10712 10709 ] final -111.62 input   66.30 | X-H torsion
[ 10763 10752 10751 10750 ] final -178.02 input  -60.55 | X-H torsion
[ 11005 11000 10999 10996 ] final -101.46 input  -57.11 | X-H torsion

> <Gold.Protein.ActiveResidues>
 VAL166  LYS551  ARG553  GLY616  TRP617  ASP618  TYR619  PRO620  LYS621  CYS622 
 ASP623  PHE694  ASN695  SER759  ASP760  ASP761  ALA762  ILE779  LEU786  VAL792 
 PHE793  MET794  SER795  GLU796  ALA797  LYS798  CYS799  TRP800  GLU811  SER814 

> <Gold.Protein.RotatedAtoms>
  150.8533  133.7753  159.3017 H   0  0  0  0  0  0  0  0  0  0  0  0  # atno 6907 bound_to 6896
  151.5418  135.1067  159.9938 H   0  0  0  0  0  0  0  0  0  0  0  0  # atno 6908 bound_to 6896
  152.4570  133.7700  159.6849 H   0  0  0  0  0  0  0  0  0  0  0  0  # atno 6909 bound_to 6896
  146.0784  139.5361  142.9552 H   0  0  0  0  0  0  0  0  0  0  0  0  # atno 7974 bound_to 7965
  154.4139  140.1701  156.1944 H   0  0  0  0  0  0  0  0  0  0  0  0  # atno 8008 bound_to 7997
  155.9576  140.3396  155.6439 H   0  0  0  0  0  0  0  0  0  0  0  0  # atno 8009 bound_to 7997
  155.6789  140.0720  157.2483 H   0  0  0  0  0  0  0  0  0  0  0  0  # atno 8010 bound_to 7997
  139.9561  143.6002  152.2460 H   0  0  0  0  0  0  0  0  0  0  0  0  # atno 10167 bound_to 10162
  156.0658  130.5877  150.8399 H   0  0  0  0  0  0  0  0  0  0  0  0  # atno 10718 bound_to 10713
  154.5529  135.2814  155.0991 H   0  0  0  0  0  0  0  0  0  0  0  0  # atno 10763 bound_to 10752
  154.2430  135.6353  153.5217 H   0  0  0  0  0  0  0  0  0  0  0  0  # atno 10764 bound_to 10752
  153.0008  135.5564  154.6101 H   0  0  0  0  0  0  0  0  0  0  0  0  # atno 10765 bound_to 10752
  141.1230  133.8479  157.1234 H   0  0  0  0  0  0  0  0  0  0  0  0  # atno 11005 bound_to 11000
  145.6263  141.0313  143.1887 LP  0  0  0  0  0  0  0  0  0  0  0  0  # atno 17320 bound_to 7965
  144.7277  139.7824  143.7359 LP  0  0  0  0  0  0  0  0  0  0  0  0  # atno 17321 bound_to 7965
  139.6590  144.7662  151.1999 LP  0  0  0  0  0  0  0  0  0  0  0  0  # atno 17342 bound_to 10162
  140.7568  143.6040  150.8672 LP  0  0  0  0  0  0  0  0  0  0  0  0  # atno 17343 bound_to 10162
  157.5698  131.0946  150.9435 LP  0  0  0  0  0  0  0  0  0  0  0  0  # atno 17370 bound_to 10713
  156.9653  130.5470  149.5288 LP  0  0  0  0  0  0  0  0  0  0  0  0  # atno 17371 bound_to 10713
  140.0203  134.9949  157.0578 LP  0  0  0  0  0  0  0  0  0  0  0  0  # atno 17394 bound_to 11000
  140.4451  134.1641  155.7177 LP  0  0  0  0  0  0  0  0  0  0  0  0  # atno 17395 bound_to 11000

$$$$
