AV-unprocessed.smi:1352|AV-procd|sdf|5529|dock2
  -GOLD-   22720 5113D 1   1.00000     0.00000
 Structure written by MMmdl.
 47 48  0  0  0  0  0  0  0  0  2 V2000
  145.1136  134.8553  152.5643 C   0  0  0  0  0  0  0  0  0  0  0  0
  144.9865  133.5786  151.7211 C   0  0  1  0  0  0  0  0  0  0  0  0
  144.3293  133.8702  150.3604 C   0  0  0  0  0  0  0  0  0  0  0  0
  144.2499  132.5968  149.5004 C   0  0  1  0  0  0  0  0  0  0  0  0
  143.6195  132.8852  148.1308 C   0  0  0  0  0  0  0  0  0  0  0  0
  145.6526  131.9709  149.3533 C   0  0  0  0  0  0  0  0  0  0  0  0
  146.2771  131.6802  150.6707 N   0  3  2  0  0  0  0  0  0  0  0  0
  145.7084  130.4830  151.3456 C   0  0  0  0  0  0  0  0  0  0  0  0
  146.5064  130.0838  152.6017 C   0  0  0  0  0  0  0  0  0  0  0  0
  147.6642  129.2640  152.2641 N   0  0  0  0  0  0  0  0  0  0  0  0
  147.7712  127.9485  152.5041 C   0  0  0  0  0  0  0  0  0  0  0  0
  146.8910  127.2951  153.0660 O   0  0  0  0  0  0  0  0  0  0  0  0
  149.0827  127.2869  152.0564 C   0  0  0  0  0  0  0  0  0  0  0  0
  148.8819  126.0204  151.3326 N   0  0  0  0  0  0  0  0  0  0  0  0
  149.2929  125.9786  149.9852 C   0  0  0  0  0  0  0  0  0  0  0  0
  149.1557  124.8741  149.2350 C   0  0  0  0  0  0  0  0  0  0  0  0
  148.5674  123.7043  149.8434 C   0  0  0  0  0  0  0  0  0  0  0  0
  148.1742  123.7322  151.1324 C   0  0  0  0  0  0  0  0  0  0  0  0
  148.3253  124.9366  151.9572 C   0  0  0  0  0  0  0  0  0  0  0  0
  147.9740  124.9698  153.1370 O   0  0  0  0  0  0  0  0  0  0  0  0
  146.3598  132.8997  151.5209 C   0  0  0  0  0  0  0  0  0  0  0  0
  145.7520  135.5925  152.0760 H   0  0  0  0  0  0  0  0  0  0  0  0
  145.5436  134.6387  153.5426 H   0  0  0  0  0  0  0  0  0  0  0  0
  144.1391  135.3160  152.7284 H   0  0  0  0  0  0  0  0  0  0  0  0
  144.3362  132.8985  152.2716 H   0  0  0  0  0  0  0  0  0  0  0  0
  143.3296  134.2797  150.5115 H   0  0  0  0  0  0  0  0  0  0  0  0
  144.9001  134.6353  149.8318 H   0  0  0  0  0  0  0  0  0  0  0  0
  143.6026  131.8814  150.0094 H   0  0  0  0  0  0  0  0  0  0  0  0
  144.2161  133.5983  147.5608 H   0  0  0  0  0  0  0  0  0  0  0  0
  142.6177  133.3021  148.2396 H   0  0  0  0  0  0  0  0  0  0  0  0
  143.5335  131.9740  147.5379 H   0  0  0  0  0  0  0  0  0  0  0  0
  145.6093  131.0625  148.7510 H   0  0  0  0  0  0  0  0  0  0  0  0
  146.3041  132.6585  148.8119 H   0  0  0  0  0  0  0  0  0  0  0  0
  144.6584  130.6378  151.5923 H   0  0  0  0  0  0  0  0  0  0  0  0
  145.7323  129.6462  150.6468 H   0  0  0  0  0  0  0  0  0  0  0  0
  146.8267  130.9715  153.1499 H   0  0  0  0  0  0  0  0  0  0  0  0
  145.8897  129.5022  153.2856 H   0  0  0  0  0  0  0  0  0  0  0  0
  148.4337  129.7256  151.8005 H   0  0  0  0  0  0  0  0  0  0  0  0
  149.6473  127.9856  151.4359 H   0  0  0  0  0  0  0  0  0  0  0  0
  149.7008  127.1277  152.9409 H   0  0  0  0  0  0  0  0  0  0  0  0
  149.7284  126.8921  149.6071 H   0  0  0  0  0  0  0  0  0  0  0  0
  149.4797  124.8595  148.2046 H   0  0  0  0  0  0  0  0  0  0  0  0
  148.4430  122.8021  149.2630 H   0  0  0  0  0  0  0  0  0  0  0  0
  147.7370  122.8472  151.5710 H   0  0  0  0  0  0  0  0  0  0  0  0
  147.0400  133.5997  151.0337 H   0  0  0  0  0  0  0  0  0  0  0  0
  146.8140  132.6677  152.4834 H   0  0  0  0  0  0  0  0  0  0  0  0
  147.2307  131.4236  150.4583 H   0  0  0  0  0  0  0  0  0  0  0  0
  1  2  1  0  0  0  0
  1 22  1  0  0  0  0
  1 23  1  0  0  0  0
  1 24  1  0  0  0  0
  2 21  1  0  0  0  0
  2  3  1  0  0  0  0
  2 25  1  0  0  0  0
  3  4  1  0  0  0  0
  3 26  1  0  0  0  0
  3 27  1  0  0  0  0
  4  5  1  0  0  0  0
  4  6  1  0  0  0  0
  4 28  1  0  0  0  0
  5 29  1  0  0  0  0
  5 30  1  0  0  0  0
  5 31  1  0  0  0  0
  6  7  1  0  0  0  0
  6 32  1  0  0  0  0
  6 33  1  0  0  0  0
  7  8  1  0  0  0  0
  7 21  1  0  0  0  0
  7 47  1  0  0  0  0
  8  9  1  0  0  0  0
  8 34  1  0  0  0  0
  8 35  1  0  0  0  0
  9 10  1  0  0  0  0
  9 36  1  0  0  0  0
  9 37  1  0  0  0  0
 10 11  1  0  0  0  0
 10 38  1  0  0  0  0
 11 12  2  0  0  0  0
 11 13  1  0  0  0  0
 13 14  1  0  0  0  0
 13 39  1  0  0  0  0
 13 40  1  0  0  0  0
 14 19  1  0  0  0  0
 14 15  1  0  0  0  0
 15 16  2  0  0  0  0
 15 41  1  0  0  0  0
 16 17  1  0  0  0  0
 16 42  1  0  0  0  0
 17 18  2  0  0  0  0
 17 43  1  0  0  0  0
 18 19  1  0  0  0  0
 18 44  1  0  0  0  0
 19 20  2  0  0  0  0
 21 45  1  0  0  0  0
 21 46  1  0  0  0  0
M  CHG  1   7   1
M  END
> <s_m_source_file>
AV-unprocessed.smi

> <i_m_source_file_index>
1352

> <i_lp_mmshare_version>
43012

> <i_f3d_flags>
0

> <s_epik_input>
W0NIM11bQ0BASF0xW0NIMl1bQ0BASF0oW0NIM10pW0NIMl1OKFtDSDJdMSlbQ0gyXVtDSDJdW05IXUMoPU8pW0NIMl1uMltjSF1bY0hdW2NIXVtjSF1jMj1P

> <s_epik_cmdline>
J2VwaWtfcHl0aG9uJywgJy1waCcsICc3LjAnLCAnLXRuJywgJzgnLCAnLW1hJywgJzIwMCcsICctbWV0YWxfYmluZGluZycsICctaW1hZScsICc8aW5maWxlLm1hZT4nLCAnLW9tYWUnLCAnPG91dGZpbGUubWFlPic=

> <r_lp_tautomer_probability>
1

> <r_epik_Ionization_Penalty>
0.00156146

> <r_epik_Ionization_Penalty_Charging>
0.00156138

> <r_epik_Ionization_Penalty_Neutral>
8.12891e-08

> <r_epik_State_Penalty>
0.00104868

> <r_epik_Charging_Adjusted_Penalty>
0.00261006

> <i_epik_Tot_Q>
1

> <i_epik_Tot_abs_Q>
1

> <r_epik_Metal_State_Penalty>
-0

> <b_epik_Metal_Only>
0

> <s_lp_Force_Field>
OPLS_2005

> <r_lp_Energy>
27.4422

> <b_lp_Chiralities_Consistent>
1

> <s_lp_Variant>
AV-unprocessed.smi:1352-2

> <Gold.Version>
5.8.1

> <Gold.Id.Protein>
6NUR|6NUR_protein|mol2

> <Gold.PLP.Fitness>
49.3219

> <Gold.PLP.PLP>
-42.7695

> <Gold.PLP.part.hbond>
-3.2911

> <Gold.PLP.part.metal>
0.0000

> <Gold.PLP.part.buried>
-3.2493

> <Gold.PLP.part.nonpolar>
-36.9248

> <Gold.PLP.part.repulsive>
0.1110

> <Gold.PLP.ligand.clash>
0.0000

> <Gold.PLP.ligand.torsion>
0.3850

> <Gold.PLP.Chemscore.Hbond>
1.9280

> <Gold.PLP.Chemscore.CHOScore>
0.4947

> <Gold.PLP.Chemscore.Metal>
0.0000

> <Gold.Chemscore.Hbonds>
donor molecule, donor type, donor heavy atom, donor atom, acceptor molecule, acceptor atom, score
      L1  H     7    47       P1 10747  1.00
      L1  H    10    38       P1 10747  0.94
      L1  C    15    41       P1 10769  0.49

> <Gold.PLP.Chemscore.Internal.Correction>
0.0544

> <Gold.Rescore>
     Score         DG    S(hbond)    S(metal)    S(lipo)     H(rot)  DE(clash)    DE(int)     intcor
     16.01     -19.72       1.65        0.00     114.78       1.83       1.25       2.46       ----

> <Gold.Chemscore.Fitness>
16.0122

> <Gold.Chemscore.DG>
-19.7222

> <Gold.Chemscore.ZeroCoef>
-5.4800

> <Gold.Chemscore.Hbond>
1.6481

> <Gold.Chemscore.Metal>
0.0000

> <Gold.Chemscore.Lipo>
114.7835

> <Gold.Chemscore.Internal_Hbond>
0.0000

> <Gold.Chemscore.DEClash>
1.2462

> <Gold.Chemscore.DEInternal>
2.4638

> <Gold.Chemscore.Rot>
1.8329

> <Gold.Chemscore.Internal.Correction>
   9.000000E+99

> <Gold.Chemscore.Hbonds>
donor molecule, donor type, donor heavy atom, donor atom, acceptor molecule, acceptor atom, score
      L1  H     7    47       P1 10747  1.00
      L1  H    10    38       P1 10747  0.36

> <Gold.Chemscore.Hbond.Weighted>
-5.5047

> <Gold.Chemscore.Metal.Weighted>
-0.0000

> <Gold.Chemscore.Lipo.Weighted>
-13.4297

> <Gold.Chemscore.Internal_Hbond.Weighted>
0.0000

> <Gold.Chemscore.DEClash.Weighted>
1.2462

> <Gold.Chemscore.DEInternal.Weighted>
2.4638

> <Gold.Chemscore.Rot.Weighted>
4.6922

> <Gold.Chemscore.Internal.Correction.Weighted>
   9.000000E+99

> <Gold.Protein.RotatedTorsions>
[ 6907 6896 6895 6894 ] final  -69.43 input  -60.11 | X-H torsion
[ 7974 7965 7964 7962 ] final   14.15 input  175.53 | X-H torsion
[ 8008 7997 7996 7995 ] final -144.91 input   59.86 | X-H torsion
[ 10167 10162 10161 10158 ] final   81.27 input  -65.29 | X-H torsion
[ 10718 10713 10712 10709 ] final  -20.85 input   66.30 | X-H torsion
[ 10763 10752 10751 10750 ] final  -65.72 input  -60.55 | X-H torsion
[ 11005 11000 10999 10996 ] final -125.78 input  -57.11 | X-H torsion

> <Gold.Protein.ActiveResidues>
 VAL166  LYS551  ARG553  GLY616  TRP617  ASP618  TYR619  PRO620  LYS621  CYS622 
 ASP623  PHE694  ASN695  SER759  ASP760  ASP761  ALA762  ILE779  LEU786  VAL792 
 PHE793  MET794  SER795  GLU796  ALA797  LYS798  CYS799  TRP800  GLU811  SER814 

> <Gold.Protein.RotatedAtoms>
  150.7306  134.5598  159.5836 H   0  0  0  0  0  0  0  0  0  0  0  0  # atno 6907 bound_to 6896
  152.3064  134.7546  160.0355 H   0  0  0  0  0  0  0  0  0  0  0  0  # atno 6908 bound_to 6896
  151.8109  133.3346  159.3592 H   0  0  0  0  0  0  0  0  0  0  0  0  # atno 6909 bound_to 6896
  146.2312  139.9083  142.8528 H   0  0  0  0  0  0  0  0  0  0  0  0  # atno 7974 bound_to 7965
  155.5345  140.0602  157.2882 H   0  0  0  0  0  0  0  0  0  0  0  0  # atno 8008 bound_to 7997
  154.4473  140.1930  156.0573 H   0  0  0  0  0  0  0  0  0  0  0  0  # atno 8009 bound_to 7997
  156.0628  140.3270  155.7486 H   0  0  0  0  0  0  0  0  0  0  0  0  # atno 8010 bound_to 7997
  139.9410  144.6090  150.8252 H   0  0  0  0  0  0  0  0  0  0  0  0  # atno 10167 bound_to 10162
  156.5262  130.4644  149.6571 H   0  0  0  0  0  0  0  0  0  0  0  0  # atno 10718 bound_to 10713
  154.3491  135.6140  153.5634 H   0  0  0  0  0  0  0  0  0  0  0  0  # atno 10763 bound_to 10752
  152.9799  135.5788  154.4764 H   0  0  0  0  0  0  0  0  0  0  0  0  # atno 10764 bound_to 10752
  154.4482  135.2852  155.1777 H   0  0  0  0  0  0  0  0  0  0  0  0  # atno 10765 bound_to 10752
  140.9734  134.0774  157.3845 H   0  0  0  0  0  0  0  0  0  0  0  0  # atno 11005 bound_to 11000
  145.2255  140.9952  143.4021 LP  0  0  0  0  0  0  0  0  0  0  0  0  # atno 17320 bound_to 7965
  144.9574  139.4016  143.6372 LP  0  0  0  0  0  0  0  0  0  0  0  0  # atno 17321 bound_to 7965
  140.7611  143.3166  151.2719 LP  0  0  0  0  0  0  0  0  0  0  0  0  # atno 17342 bound_to 10162
  139.6705  144.0029  152.2750 LP  0  0  0  0  0  0  0  0  0  0  0  0  # atno 17343 bound_to 10162
  156.3103  130.7225  151.2116 LP  0  0  0  0  0  0  0  0  0  0  0  0  # atno 17370 bound_to 10713
  157.7429  131.0483  150.4988 LP  0  0  0  0  0  0  0  0  0  0  0  0  # atno 17371 bound_to 10713
  139.8921  135.0122  156.6827 LP  0  0  0  0  0  0  0  0  0  0  0  0  # atno 17394 bound_to 11000
  140.7295  133.9071  155.8201 LP  0  0  0  0  0  0  0  0  0  0  0  0  # atno 17395 bound_to 11000

$$$$
