AV-unprocessed.smi:1636|AV-procd|sdf|6543|dock3
  -GOLD-   22720 7223D 1   1.00000     0.00000
 Structure written by MMmdl.
 43 44  0  0  0  0  0  0  0  0  1 V2000
  153.0689  142.6163  162.1543 C   0  0  0  0  0  0  0  0  0  0  0  0
  153.0343  142.9701  160.6637 C   0  0  1  0  0  0  0  0  0  0  0  0
  152.3232  141.8881  159.8290 C   0  0  0  0  0  0  0  0  0  0  0  0
  152.1978  142.3070  158.4353 N   0  0  0  0  0  0  0  0  0  0  0  0
  151.8387  141.3411  157.4666 C   0  0  0  0  0  0  0  0  0  0  0  0
  150.6693  141.4643  156.6731 C   0  0  0  0  0  0  0  0  0  0  0  0
  150.3677  140.4624  155.7309 C   0  0  0  0  0  0  0  0  0  0  0  0
  151.2361  139.3626  155.5965 C   0  0  0  0  0  0  0  0  0  0  0  0
  150.9335  138.2611  154.5910 C   0  0  0  0  0  0  0  0  0  0  0  0
  149.7948  138.5418  153.7224 N   0  0  0  0  0  0  0  0  0  0  0  0
  148.5105  138.4678  154.0987 C   0  0  0  0  0  0  0  0  0  0  0  0
  148.1404  138.1531  155.2299 O   0  0  0  0  0  0  0  0  0  0  0  0
  147.6786  138.7768  153.0946 N   0  0  0  0  0  0  0  0  0  0  0  0
  146.2237  138.7869  153.1900 C   0  0  0  0  0  0  0  0  0  0  0  0
  145.6083  137.5192  152.5774 C   0  0  0  0  0  0  0  0  0  0  0  0
  146.0029  137.4008  151.2280 O   0  0  0  0  0  0  0  0  0  0  0  0
  152.3717  139.3178  156.4317 C   0  0  0  0  0  0  0  0  0  0  0  0
  152.6649  140.2745  157.3369 N   0  0  0  0  0  0  0  0  0  0  0  0
  151.6293  143.6443  158.2676 C   0  0  0  0  0  0  0  0  0  0  0  0
  152.3578  144.6594  159.1633 C   0  0  0  0  0  0  0  0  0  0  0  0
  152.3464  144.2076  160.5125 O   0  0  0  0  0  0  0  0  0  0  0  0
  153.6022  141.6803  162.3227 H   0  0  0  0  0  0  0  0  0  0  0  0
  152.0619  142.5056  162.5581 H   0  0  0  0  0  0  0  0  0  0  0  0
  153.5743  143.3940  162.7274 H   0  0  0  0  0  0  0  0  0  0  0  0
  154.0613  143.0874  160.3131 H   0  0  0  0  0  0  0  0  0  0  0  0
  152.8999  140.9652  159.8944 H   0  0  0  0  0  0  0  0  0  0  0  0
  151.3300  141.6880  160.2332 H   0  0  0  0  0  0  0  0  0  0  0  0
  150.0014  142.3079  156.7571 H   0  0  0  0  0  0  0  0  0  0  0  0
  149.4817  140.5430  155.1186 H   0  0  0  0  0  0  0  0  0  0  0  0
  151.8132  138.1230  153.9623 H   0  0  0  0  0  0  0  0  0  0  0  0
  150.7744  137.3145  155.1107 H   0  0  0  0  0  0  0  0  0  0  0  0
  150.0005  138.8078  152.7705 H   0  0  0  0  0  0  0  0  0  0  0  0
  148.0782  139.0254  152.2018 H   0  0  0  0  0  0  0  0  0  0  0  0
  145.9150  138.9014  154.2308 H   0  0  0  0  0  0  0  0  0  0  0  0
  145.8622  139.6684  152.6598 H   0  0  0  0  0  0  0  0  0  0  0  0
  145.9361  136.6310  153.1182 H   0  0  0  0  0  0  0  0  0  0  0  0
  144.5196  137.5499  152.6277 H   0  0  0  0  0  0  0  0  0  0  0  0
  145.2611  137.6043  150.6789 H   0  0  0  0  0  0  0  0  0  0  0  0
  153.0660  138.4923  156.3792 H   0  0  0  0  0  0  0  0  0  0  0  0
  151.6939  143.9847  157.2345 H   0  0  0  0  0  0  0  0  0  0  0  0
  150.5706  143.6098  158.5266 H   0  0  0  0  0  0  0  0  0  0  0  0
  153.3845  144.8095  158.8258 H   0  0  0  0  0  0  0  0  0  0  0  0
  151.8622  145.6285  159.1099 H   0  0  0  0  0  0  0  0  0  0  0  0
  1  2  1  0  0  0  0
  1 22  1  0  0  0  0
  1 23  1  0  0  0  0
  1 24  1  0  0  0  0
  2 21  1  0  0  0  0
  2  3  1  0  0  0  0
  2 25  1  0  0  0  0
  3  4  1  0  0  0  0
  3 26  1  0  0  0  0
  3 27  1  0  0  0  0
  4  5  1  0  0  0  0
  4 19  1  0  0  0  0
  5 18  1  0  0  0  0
  5  6  2  0  0  0  0
  6  7  1  0  0  0  0
  6 28  1  0  0  0  0
  7  8  2  0  0  0  0
  7 29  1  0  0  0  0
  8  9  1  0  0  0  0
  8 17  1  0  0  0  0
  9 10  1  0  0  0  0
  9 30  1  0  0  0  0
  9 31  1  0  0  0  0
 10 11  1  0  0  0  0
 10 32  1  0  0  0  0
 11 12  2  0  0  0  0
 11 13  1  0  0  0  0
 13 14  1  0  0  0  0
 13 33  1  0  0  0  0
 14 15  1  0  0  0  0
 14 34  1  0  0  0  0
 14 35  1  0  0  0  0
 15 16  1  0  0  0  0
 15 36  1  0  0  0  0
 15 37  1  0  0  0  0
 16 38  1  0  0  0  0
 17 18  2  0  0  0  0
 17 39  1  0  0  0  0
 19 20  1  0  0  0  0
 19 40  1  0  0  0  0
 19 41  1  0  0  0  0
 20 21  1  0  0  0  0
 20 42  1  0  0  0  0
 20 43  1  0  0  0  0
M  END
> <s_m_source_file>
AV-unprocessed.smi

> <i_m_source_file_index>
1636

> <i_lp_mmshare_version>
43012

> <i_f3d_flags>
0

> <s_epik_input>
W0NIM11bQ0BASF0xW0NIMl1OKFtDSDJdW0NIMl1PMSljMltjSF1bY0hdYyhbY0hdbjIpW0NIMl1bTkhdQyg9TylbTkhdW0NIMl1bQ0gyXVtPSF0=

> <s_epik_cmdline>
J2VwaWtfcHl0aG9uJywgJy1waCcsICc3LjAnLCAnLXRuJywgJzgnLCAnLW1hJywgJzIwMCcsICctbWV0YWxfYmluZGluZycsICctaW1hZScsICc8aW5maWxlLm1hZT4nLCAnLW9tYWUnLCAnPG91dGZpbGUubWFlPic=

> <r_lp_tautomer_probability>
1

> <r_epik_Ionization_Penalty>
0.00695222

> <r_epik_Ionization_Penalty_Charging>
0

> <r_epik_Ionization_Penalty_Neutral>
0.00695222

> <r_epik_State_Penalty>
0.00513345

> <r_epik_Charging_Adjusted_Penalty>
0.00513345

> <i_epik_Tot_Q>
0

> <i_epik_Tot_abs_Q>
0

> <r_epik_Metal_State_Penalty>
-0

> <b_epik_Metal_Only>
0

> <s_lp_Force_Field>
OPLS_2005

> <r_lp_Energy>
12.451

> <b_lp_Chiralities_Consistent>
1

> <s_lp_Variant>
AV-unprocessed.smi:1636-2

> <Gold.Version>
5.8.1

> <Gold.Id.Protein>
6NUR|6NUR_protein|mol2

> <Gold.PLP.Fitness>
57.4109

> <Gold.PLP.PLP>
-46.5414

> <Gold.PLP.part.hbond>
-7.9871

> <Gold.PLP.part.metal>
0.0000

> <Gold.PLP.part.buried>
-0.5567

> <Gold.PLP.part.nonpolar>
-37.5996

> <Gold.PLP.part.repulsive>
0.3251

> <Gold.PLP.ligand.clash>
0.0000

> <Gold.PLP.ligand.torsion>
0.5746

> <Gold.PLP.Chemscore.Hbond>
3.8460

> <Gold.PLP.Chemscore.CHOScore>
0.0000

> <Gold.PLP.Chemscore.Metal>
0.0000

> <Gold.Chemscore.Hbonds>
donor molecule, donor type, donor heavy atom, donor atom, acceptor molecule, acceptor atom, score
      L1  H    10    32       P1  7957  0.95
      L1  H    13    33       P1  7957  0.84
      L1  H    16    38       P1 10171  1.00
      P1  H  7997  8010       L1    18  0.15

> <Gold.PLP.Chemscore.Internal.Correction>
0.4807

> <Gold.Rescore>
     Score         DG    S(hbond)    S(metal)    S(lipo)     H(rot)  DE(clash)    DE(int)     intcor
     18.75     -19.89       2.74        0.00     105.76       2.78       0.59       0.55       ----

> <Gold.Chemscore.Fitness>
18.7465

> <Gold.Chemscore.DG>
-19.8895

> <Gold.Chemscore.ZeroCoef>
-5.4800

> <Gold.Chemscore.Hbond>
2.7426

> <Gold.Chemscore.Metal>
0.0000

> <Gold.Chemscore.Lipo>
105.7551

> <Gold.Chemscore.Internal_Hbond>
0.0000

> <Gold.Chemscore.DEClash>
0.5919

> <Gold.Chemscore.DEInternal>
0.5510

> <Gold.Chemscore.Rot>
2.7828

> <Gold.Chemscore.Internal.Correction>
   9.000000E+99

> <Gold.Chemscore.Hbonds>
donor molecule, donor type, donor heavy atom, donor atom, acceptor molecule, acceptor atom, score
      L1  H    10    32       P1  7957  0.52
      L1  H    13    33       P1  7957  0.78
      L1  H    16    38       P1 10171  0.99

> <Gold.Chemscore.Hbond.Weighted>
-9.1602

> <Gold.Chemscore.Metal.Weighted>
-0.0000

> <Gold.Chemscore.Lipo.Weighted>
-12.3733

> <Gold.Chemscore.Internal_Hbond.Weighted>
0.0000

> <Gold.Chemscore.DEClash.Weighted>
0.5919

> <Gold.Chemscore.DEInternal.Weighted>
0.5510

> <Gold.Chemscore.Rot.Weighted>
7.1241

> <Gold.Chemscore.Internal.Correction.Weighted>
   9.000000E+99

> <Gold.Protein.RotatedTorsions>
[ 6907 6896 6895 6894 ] final   55.66 input  -60.11 | X-H torsion
[ 7974 7965 7964 7962 ] final  140.22 input  175.53 | X-H torsion
[ 8008 7997 7996 7995 ] final   61.57 input   59.86 | X-H torsion
[ 10167 10162 10161 10158 ] final -111.17 input  -65.29 | X-H torsion
[ 10718 10713 10712 10709 ] final  -25.21 input   66.30 | X-H torsion
[ 10763 10752 10751 10750 ] final  -41.86 input  -60.55 | X-H torsion
[ 11005 11000 10999 10996 ] final  125.15 input  -57.11 | X-H torsion

> <Gold.Protein.ActiveResidues>
 VAL166  LYS551  ARG553  GLY616  TRP617  ASP618  TYR619  PRO620  LYS621  CYS622 
 ASP623  PHE694  ASN695  SER759  ASP760  ASP761  ALA762  ILE779  LEU786  VAL792 
 PHE793  MET794  SER795  GLU796  ALA797  LYS798  CYS799  TRP800  GLU811  SER814 

> <Gold.Protein.RotatedAtoms>
  152.3560  134.6939  160.0221 H   0  0  0  0  0  0  0  0  0  0  0  0  # atno 6907 bound_to 6896
  151.7278  133.3311  159.3340 H   0  0  0  0  0  0  0  0  0  0  0  0  # atno 6908 bound_to 6896
  150.7572  134.6324  159.6238 H   0  0  0  0  0  0  0  0  0  0  0  0  # atno 6909 bound_to 6896
  144.9207  139.5172  143.5665 H   0  0  0  0  0  0  0  0  0  0  0  0  # atno 7974 bound_to 7965
  155.6005  140.3494  155.4592 H   0  0  0  0  0  0  0  0  0  0  0  0  # atno 8008 bound_to 7997
  156.0232  140.1258  157.0360 H   0  0  0  0  0  0  0  0  0  0  0  0  # atno 8009 bound_to 7997
  154.4323  140.1058  156.5979 H   0  0  0  0  0  0  0  0  0  0  0  0  # atno 8010 bound_to 7997
  140.1365  143.4315  152.1591 H   0  0  0  0  0  0  0  0  0  0  0  0  # atno 10167 bound_to 10162
  156.4673  130.4517  149.6891 H   0  0  0  0  0  0  0  0  0  0  0  0  # atno 10718 bound_to 10713
  153.9695  135.6730  153.4747 H   0  0  0  0  0  0  0  0  0  0  0  0  # atno 10763 bound_to 10752
  153.0799  135.4928  154.8479 H   0  0  0  0  0  0  0  0  0  0  0  0  # atno 10764 bound_to 10752
  154.7227  135.3120  154.8982 H   0  0  0  0  0  0  0  0  0  0  0  0  # atno 10765 bound_to 10752
  139.9392  134.9637  156.8515 H   0  0  0  0  0  0  0  0  0  0  0  0  # atno 11005 bound_to 11000
  146.3203  139.8083  142.8951 LP  0  0  0  0  0  0  0  0  0  0  0  0  # atno 17320 bound_to 7965
  145.3302  141.0264  143.3451 LP  0  0  0  0  0  0  0  0  0  0  0  0  # atno 17321 bound_to 7965
  139.5493  144.7324  151.4485 LP  0  0  0  0  0  0  0  0  0  0  0  0  # atno 17342 bound_to 10162
  140.6786  143.8134  150.7091 LP  0  0  0  0  0  0  0  0  0  0  0  0  # atno 17343 bound_to 10162
  156.3654  130.7503  151.2480 LP  0  0  0  0  0  0  0  0  0  0  0  0  # atno 17370 bound_to 10713
  157.7494  131.0338  150.4289 LP  0  0  0  0  0  0  0  0  0  0  0  0  # atno 17371 bound_to 10713
  140.5995  134.0186  155.7531 LP  0  0  0  0  0  0  0  0  0  0  0  0  # atno 17394 bound_to 11000
  141.1020  133.9753  157.3063 LP  0  0  0  0  0  0  0  0  0  0  0  0  # atno 17395 bound_to 11000

$$$$
