AV-unprocessed.smi:3303|AV-procd|sdf|12675|dock5
  -GOLD-   2272019 13D 1   1.00000     0.00000
 Structure written by MMmdl.
 44 45  0  0  0  0  0  0  0  0  2 V2000
  150.7116  137.7385  154.3846 C   0  0  0  0  0  0  0  0  0  0  0  0
  150.2585  139.2062  154.3077 C   0  0  2  0  0  0  0  0  0  0  0  0
  150.7741  139.9794  155.5392 C   0  0  0  0  0  0  0  0  0  0  0  0
  150.3524  141.3792  155.4881 N   0  0  0  0  0  0  0  0  0  0  0  0
  151.0009  142.1456  156.5449 C   0  0  0  0  0  0  0  0  0  0  0  0
  148.8907  141.5397  155.4827 C   0  0  2  0  0  0  0  0  0  0  0  0
  148.1896  141.1063  156.7907 C   0  0  0  0  0  0  0  0  0  0  0  0
  148.3235  140.8217  154.2414 C   0  0  0  0  0  0  0  0  0  0  0  0
  148.7249  139.3365  154.1815 C   0  0  1  0  0  0  0  0  0  0  0  0
  148.2527  138.7474  152.9085 N   0  3  0  0  0  0  0  0  0  0  0  0
  146.7863  138.6303  152.7851 C   0  0  0  0  0  0  0  0  0  0  0  0
  146.4003  137.8916  151.4966 C   0  0  0  0  0  0  0  0  0  0  0  0
  145.4994  136.7014  151.7661 C   0  0  0  0  0  0  0  0  0  0  0  0
  145.2832  135.7217  150.7736 C   0  0  0  0  0  0  0  0  0  0  0  0
  144.4439  134.6325  151.0785 C   0  0  0  0  0  0  0  0  0  0  0  0
  143.8567  134.5659  152.3566 C   0  0  0  0  0  0  0  0  0  0  0  0
  144.1376  135.5942  153.2782 C   0  0  0  0  0  0  0  0  0  0  0  0
  144.9429  136.6420  152.9968 N   0  0  0  0  0  0  0  0  0  0  0  0
  150.2709  137.2333  155.2447 H   0  0  0  0  0  0  0  0  0  0  0  0
  151.7956  137.6694  154.4804 H   0  0  0  0  0  0  0  0  0  0  0  0
  150.4298  137.1819  153.4906 H   0  0  0  0  0  0  0  0  0  0  0  0
  150.7156  139.6511  153.4220 H   0  0  0  0  0  0  0  0  0  0  0  0
  150.4363  139.5101  156.4634 H   0  0  0  0  0  0  0  0  0  0  0  0
  151.8642  139.9395  155.5522 H   0  0  0  0  0  0  0  0  0  0  0  0
  150.6911  143.1904  156.5095 H   0  0  0  0  0  0  0  0  0  0  0  0
  152.0838  142.1182  156.4198 H   0  0  0  0  0  0  0  0  0  0  0  0
  150.7703  141.7488  157.5338 H   0  0  0  0  0  0  0  0  0  0  0  0
  148.6910  142.6045  155.3546 H   0  0  0  0  0  0  0  0  0  0  0  0
  147.1119  141.2488  156.7091 H   0  0  0  0  0  0  0  0  0  0  0  0
  148.5171  141.7012  157.6428 H   0  0  0  0  0  0  0  0  0  0  0  0
  148.3564  140.0575  157.0334 H   0  0  0  0  0  0  0  0  0  0  0  0
  147.2370  140.9173  154.2210 H   0  0  0  0  0  0  0  0  0  0  0  0
  148.6868  141.3305  153.3468 H   0  0  0  0  0  0  0  0  0  0  0  0
  148.2604  138.8143  155.0194 H   0  0  0  0  0  0  0  0  0  0  0  0
  148.5986  139.3116  152.1454 H   0  0  0  0  0  0  0  0  0  0  0  0
  146.3952  138.0921  153.6496 H   0  0  0  0  0  0  0  0  0  0  0  0
  146.3455  139.6283  152.7967 H   0  0  0  0  0  0  0  0  0  0  0  0
  145.8915  138.5722  150.8120 H   0  0  0  0  0  0  0  0  0  0  0  0
  147.2979  137.5505  150.9787 H   0  0  0  0  0  0  0  0  0  0  0  0
  145.7480  135.7995  149.8015 H   0  0  0  0  0  0  0  0  0  0  0  0
  144.2548  133.8617  150.3457 H   0  0  0  0  0  0  0  0  0  0  0  0
  143.2067  133.7460  152.6242 H   0  0  0  0  0  0  0  0  0  0  0  0
  143.7055  135.5740  154.2679 H   0  0  0  0  0  0  0  0  0  0  0  0
  148.6499  137.8224  152.8273 H   0  0  0  0  0  0  0  0  0  0  0  0
  1  2  1  0  0  0  0
  1 19  1  0  0  0  0
  1 20  1  0  0  0  0
  1 21  1  0  0  0  0
  2  9  1  0  0  0  0
  2  3  1  0  0  0  0
  2 22  1  0  0  0  0
  3  4  1  0  0  0  0
  3 23  1  0  0  0  0
  3 24  1  0  0  0  0
  4  5  1  0  0  0  0
  4  6  1  0  0  0  0
  5 25  1  0  0  0  0
  5 26  1  0  0  0  0
  5 27  1  0  0  0  0
  6  7  1  0  0  0  0
  6  8  1  0  0  0  0
  6 28  1  0  0  0  0
  7 29  1  0  0  0  0
  7 30  1  0  0  0  0
  7 31  1  0  0  0  0
  8  9  1  0  0  0  0
  8 32  1  0  0  0  0
  8 33  1  0  0  0  0
  9 10  1  0  0  0  0
  9 34  1  0  0  0  0
 10 11  1  0  0  0  0
 10 35  1  0  0  0  0
 10 44  1  0  0  0  0
 11 12  1  0  0  0  0
 11 36  1  0  0  0  0
 11 37  1  0  0  0  0
 12 13  1  0  0  0  0
 12 38  1  0  0  0  0
 12 39  1  0  0  0  0
 13 18  1  0  0  0  0
 13 14  2  0  0  0  0
 14 15  1  0  0  0  0
 14 40  1  0  0  0  0
 15 16  2  0  0  0  0
 15 41  1  0  0  0  0
 16 17  1  0  0  0  0
 16 42  1  0  0  0  0
 17 18  2  0  0  0  0
 17 43  1  0  0  0  0
M  CHG  1  10   1
M  END
> <s_m_source_file>
AV-unprocessed.smi

> <i_m_source_file_index>
3303

> <i_lp_mmshare_version>
43012

> <i_f3d_flags>
0

> <s_epik_input>
W0NIM11bQ0BASF0xW0NIMl1OKFtDSDNdKVtDQEBIXShbQ0gzXSlbQ0gyXVtDQEhdMVtOSF1bQ0gyXVtDSDJdYzJbY0hdW2NIXVtjSF1bY0hdbjI=

> <s_epik_cmdline>
J2VwaWtfcHl0aG9uJywgJy1waCcsICc3LjAnLCAnLXRuJywgJzgnLCAnLW1hJywgJzIwMCcsICctbWV0YWxfYmluZGluZycsICctaW1hZScsICc8aW5maWxlLm1hZT4nLCAnLW9tYWUnLCAnPG91dGZpbGUubWFlPic=

> <r_epik_Ionization_Penalty>
1.37325

> <r_epik_Ionization_Penalty_Charging>
0.000251572

> <r_epik_Ionization_Penalty_Neutral>
1.373

> <r_epik_State_Penalty>
1.46343

> <r_epik_Charging_Adjusted_Penalty>
1.46368

> <i_epik_Tot_Q>
1

> <i_epik_Tot_abs_Q>
1

> <r_epik_Metal_State_Penalty>
1.46331

> <b_epik_Metal_Only>
0

> <s_lp_Force_Field>
OPLS_2005

> <r_lp_Energy>
23.1884

> <b_lp_Chiralities_Consistent>
1

> <s_lp_Variant>
AV-unprocessed.smi:3303-19

> <Gold.Version>
5.8.1

> <Gold.Id.Protein>
6NUR|6NUR_protein|mol2

> <Gold.PLP.Fitness>
43.1595

> <Gold.PLP.PLP>
-35.3235

> <Gold.PLP.part.hbond>
-2.7116

> <Gold.PLP.part.metal>
0.0000

> <Gold.PLP.part.buried>
-0.4789

> <Gold.PLP.part.nonpolar>
-33.1747

> <Gold.PLP.part.repulsive>
0.3091

> <Gold.PLP.ligand.clash>
0.0000

> <Gold.PLP.ligand.torsion>
0.5853

> <Gold.PLP.Chemscore.Hbond>
3.0000

> <Gold.PLP.Chemscore.CHOScore>
0.0000

> <Gold.PLP.Chemscore.Metal>
0.0000

> <Gold.Chemscore.Hbonds>
donor molecule, donor type, donor heavy atom, donor atom, acceptor molecule, acceptor atom, score
      L1  H    10    35       P1  7957  1.00
      L1  H    10    44       P1  7948  2.00

> <Gold.PLP.Chemscore.Internal.Correction>
0.0067

> <Gold.Rescore>
     Score         DG    S(hbond)    S(metal)    S(lipo)     H(rot)  DE(clash)    DE(int)     intcor
     18.81     -19.61       1.96        0.00      93.82       1.33       0.27       0.53       ----

> <Gold.Chemscore.Fitness>
18.8138

> <Gold.Chemscore.DG>
-19.6057

> <Gold.Chemscore.ZeroCoef>
-5.4800

> <Gold.Chemscore.Hbond>
1.9618

> <Gold.Chemscore.Metal>
0.0000

> <Gold.Chemscore.Lipo>
93.8238

> <Gold.Chemscore.Internal_Hbond>
0.0000

> <Gold.Chemscore.DEClash>
0.2659

> <Gold.Chemscore.DEInternal>
0.5259

> <Gold.Chemscore.Rot>
1.3298

> <Gold.Chemscore.Internal.Correction>
   9.000000E+99

> <Gold.Chemscore.Hbonds>
donor molecule, donor type, donor heavy atom, donor atom, acceptor molecule, acceptor atom, score
      L1  H    10    35       P1  7957  0.96
      L1  H    10    44       P1  7948  0.95

> <Gold.Chemscore.Hbond.Weighted>
-6.5526

> <Gold.Chemscore.Metal.Weighted>
-0.0000

> <Gold.Chemscore.Lipo.Weighted>
-10.9774

> <Gold.Chemscore.Internal_Hbond.Weighted>
0.0000

> <Gold.Chemscore.DEClash.Weighted>
0.2659

> <Gold.Chemscore.DEInternal.Weighted>
0.5259

> <Gold.Chemscore.Rot.Weighted>
3.4043

> <Gold.Chemscore.Internal.Correction.Weighted>
   9.000000E+99

> <Gold.Protein.RotatedTorsions>
[ 6907 6896 6895 6894 ] final -105.16 input  -60.11 | X-H torsion
[ 7974 7965 7964 7962 ] final  -28.63 input  175.53 | X-H torsion
[ 8008 7997 7996 7995 ] final  136.57 input   59.86 | X-H torsion
[ 10167 10162 10161 10158 ] final  -16.92 input  -65.29 | X-H torsion
[ 10718 10713 10712 10709 ] final  -78.72 input   66.30 | X-H torsion
[ 10763 10752 10751 10750 ] final   57.72 input  -60.55 | X-H torsion
[ 11005 11000 10999 10996 ] final  -85.38 input  -57.11 | X-H torsion

> <Gold.Protein.ActiveResidues>
 VAL166  LYS551  ARG553  GLY616  TRP617  ASP618  TYR619  PRO620  LYS621  CYS622 
 ASP623  PHE694  ASN695  SER759  ASP760  ASP761  ALA762  ILE779  LEU786  VAL792 
 PHE793  MET794  SER795  GLU796  ALA797  LYS798  CYS799  TRP800  GLU811  SER814 

> <Gold.Protein.RotatedAtoms>
  150.7323  134.0168  159.3687 H   0  0  0  0  0  0  0  0  0  0  0  0  # atno 6907 bound_to 6896
  151.8130  135.0673  160.0425 H   0  0  0  0  0  0  0  0  0  0  0  0  # atno 6908 bound_to 6896
  152.3059  133.5666  159.5685 H   0  0  0  0  0  0  0  0  0  0  0  0  # atno 6909 bound_to 6896
  146.1274  140.5308  142.8708 H   0  0  0  0  0  0  0  0  0  0  0  0  # atno 7974 bound_to 7965
  156.3004  140.2441  156.3767 H   0  0  0  0  0  0  0  0  0  0  0  0  # atno 8008 bound_to 7997
  154.8738  140.0415  157.1760 H   0  0  0  0  0  0  0  0  0  0  0  0  # atno 8009 bound_to 7997
  154.8767  140.2943  155.5453 H   0  0  0  0  0  0  0  0  0  0  0  0  # atno 8010 bound_to 7997
  140.7240  143.5068  150.9800 H   0  0  0  0  0  0  0  0  0  0  0  0  # atno 10167 bound_to 10162
  156.0110  130.4526  150.3540 H   0  0  0  0  0  0  0  0  0  0  0  0  # atno 10718 bound_to 10713
  152.9855  135.5632  154.5436 H   0  0  0  0  0  0  0  0  0  0  0  0  # atno 10763 bound_to 10752
  154.4886  135.2792  155.1516 H   0  0  0  0  0  0  0  0  0  0  0  0  # atno 10764 bound_to 10752
  154.2995  135.6310  153.5472 H   0  0  0  0  0  0  0  0  0  0  0  0  # atno 10765 bound_to 10752
  141.1642  133.7396  156.9007 H   0  0  0  0  0  0  0  0  0  0  0  0  # atno 11005 bound_to 11000
  144.7656  140.5523  143.6705 LP  0  0  0  0  0  0  0  0  0  0  0  0  # atno 17320 bound_to 7965
  145.5335  139.1475  143.3486 LP  0  0  0  0  0  0  0  0  0  0  0  0  # atno 17321 bound_to 7965
  139.8780  143.7108  152.3160 LP  0  0  0  0  0  0  0  0  0  0  0  0  # atno 17342 bound_to 10162
  139.7380  144.7566  151.0696 LP  0  0  0  0  0  0  0  0  0  0  0  0  # atno 17343 bound_to 10162
  157.1631  131.0350  151.2831 LP  0  0  0  0  0  0  0  0  0  0  0  0  # atno 17370 bound_to 10713
  157.4294  130.7482  149.6977 LP  0  0  0  0  0  0  0  0  0  0  0  0  # atno 17371 bound_to 10713
  140.1585  134.9182  157.2684 LP  0  0  0  0  0  0  0  0  0  0  0  0  # atno 17394 bound_to 11000
  140.2639  134.3538  155.7396 LP  0  0  0  0  0  0  0  0  0  0  0  0  # atno 17395 bound_to 11000

$$$$
