AV-unprocessed.smi:1709|AV-procd|sdf|6893|dock10
  -GOLD-   22720 8 93D 1   1.00000     0.00000
 Structure written by MMmdl.
 43 45  0  0  0  0  0  0  0  0  2 V2000
  147.8120  132.9788  152.3357 C   0  0  0  0  0  0  0  0  0  0  0  0
  146.3464  133.1931  151.9906 C   0  0  0  0  0  0  0  0  0  0  0  0
  145.5719  132.0906  151.5713 C   0  0  0  0  0  0  0  0  0  0  0  0
  144.2179  132.2857  151.2507 C   0  0  0  0  0  0  0  0  0  0  0  0
  143.6928  133.5836  151.3638 C   0  0  0  0  0  0  0  0  0  0  0  0
  144.4266  134.6426  151.7626 N   0  0  0  0  0  0  0  0  0  0  0  0
  145.7369  134.4742  152.0784 C   0  0  0  0  0  0  0  0  0  0  0  0
  146.5905  135.5397  152.5035 N   0  0  0  0  0  0  0  0  0  0  0  0
  146.4143  136.5324  153.4016 C   0  0  0  0  0  0  0  0  0  0  0  0
  145.3648  136.6358  154.0344 O   0  0  0  0  0  0  0  0  0  0  0  0
  147.4418  137.3819  153.5612 N   0  0  0  0  0  0  0  0  0  0  0  0
  147.4868  138.4955  154.5025 C   0  0  2  0  0  0  0  0  0  0  0  0
  146.4977  139.6198  154.1480 C   0  0  0  0  0  0  0  0  0  0  0  0
  147.2357  140.9327  154.4773 C   0  0  0  0  0  0  0  0  0  0  0  0
  148.5211  140.5202  155.0727 N   0  3  2  0  0  0  0  0  0  0  0  0
  149.6439  141.4791  154.9842 C   0  0  0  0  0  0  0  0  0  0  0  0
  150.8641  140.9033  155.7307 C   0  0  0  0  0  0  0  0  0  0  0  0
  151.2218  139.4866  155.2363 C   0  0  0  0  0  0  0  0  0  0  0  0
  149.9908  138.5600  155.2638 C   0  0  0  0  0  0  0  0  0  0  0  0
  148.8387  139.2119  154.4812 C   0  0  1  0  0  0  0  0  0  0  0  0
  148.1079  131.9400  152.1863 H   0  0  0  0  0  0  0  0  0  0  0  0
  147.9996  133.2335  153.3791 H   0  0  0  0  0  0  0  0  0  0  0  0
  148.4488  133.6011  151.7061 H   0  0  0  0  0  0  0  0  0  0  0  0
  146.0080  131.1053  151.4948 H   0  0  0  0  0  0  0  0  0  0  0  0
  143.5991  131.4621  150.9265 H   0  0  0  0  0  0  0  0  0  0  0  0
  142.6571  133.7785  151.1273 H   0  0  0  0  0  0  0  0  0  0  0  0
  147.4697  135.5827  152.0090 H   0  0  0  0  0  0  0  0  0  0  0  0
  148.2661  137.2252  152.9977 H   0  0  0  0  0  0  0  0  0  0  0  0
  147.2697  138.1541  155.5170 H   0  0  0  0  0  0  0  0  0  0  0  0
  146.2360  139.6012  153.0889 H   0  0  0  0  0  0  0  0  0  0  0  0
  145.5715  139.5214  154.7151 H   0  0  0  0  0  0  0  0  0  0  0  0
  147.4100  141.5023  153.5631 H   0  0  0  0  0  0  0  0  0  0  0  0
  146.6748  141.5633  155.1678 H   0  0  0  0  0  0  0  0  0  0  0  0
  149.8903  141.6684  153.9383 H   0  0  0  0  0  0  0  0  0  0  0  0
  149.3480  142.4317  155.4247 H   0  0  0  0  0  0  0  0  0  0  0  0
  151.7212  141.5674  155.6142 H   0  0  0  0  0  0  0  0  0  0  0  0
  150.6479  140.8658  156.7992 H   0  0  0  0  0  0  0  0  0  0  0  0
  151.6079  139.5452  154.2177 H   0  0  0  0  0  0  0  0  0  0  0  0
  152.0223  139.0664  155.8459 H   0  0  0  0  0  0  0  0  0  0  0  0
  150.2449  137.5921  154.8312 H   0  0  0  0  0  0  0  0  0  0  0  0
  149.6879  138.3730  156.2951 H   0  0  0  0  0  0  0  0  0  0  0  0
  149.1458  139.3651  153.4436 H   0  0  0  0  0  0  0  0  0  0  0  0
  148.3435  140.3529  156.0527 H   0  0  0  0  0  0  0  0  0  0  0  0
  1  2  1  0  0  0  0
  1 21  1  0  0  0  0
  1 22  1  0  0  0  0
  1 23  1  0  0  0  0
  2  7  1  0  0  0  0
  2  3  2  0  0  0  0
  3  4  1  0  0  0  0
  3 24  1  0  0  0  0
  4  5  2  0  0  0  0
  4 25  1  0  0  0  0
  5  6  1  0  0  0  0
  5 26  1  0  0  0  0
  6  7  2  0  0  0  0
  7  8  1  0  0  0  0
  8  9  1  0  0  0  0
  8 27  1  0  0  0  0
  9 10  2  0  0  0  0
  9 11  1  0  0  0  0
 11 12  1  0  0  0  0
 11 28  1  0  0  0  0
 12 20  1  0  0  0  0
 12 13  1  0  0  0  0
 12 29  1  0  0  0  0
 13 14  1  0  0  0  0
 13 30  1  0  0  0  0
 13 31  1  0  0  0  0
 14 15  1  0  0  0  0
 14 32  1  0  0  0  0
 14 33  1  0  0  0  0
 15 20  1  0  0  0  0
 15 16  1  0  0  0  0
 15 43  1  0  0  0  0
 16 17  1  0  0  0  0
 16 34  1  0  0  0  0
 16 35  1  0  0  0  0
 17 18  1  0  0  0  0
 17 36  1  0  0  0  0
 17 37  1  0  0  0  0
 18 19  1  0  0  0  0
 18 38  1  0  0  0  0
 18 39  1  0  0  0  0
 19 20  1  0  0  0  0
 19 40  1  0  0  0  0
 19 41  1  0  0  0  0
 20 42  1  0  0  0  0
M  CHG  1  15   1
M  END
> <s_m_source_file>
AV-unprocessed.smi

> <i_m_source_file_index>
1709

> <i_lp_mmshare_version>
43012

> <i_f3d_flags>
0

> <s_epik_input>
W0NIM11jMVtjSF1bY0hdW2NIXW5jMVtOSF1DKD1PKVtOSF1bQ0BIXShbQ0gyXVtDSDJdMilbQ0BASF0oTjIzKVtDSDJdW0NIMl1bQ0gyXVtDSDJdMw==

> <s_epik_cmdline>
J2VwaWtfcHl0aG9uJywgJy1waCcsICc3LjAnLCAnLXRuJywgJzgnLCAnLW1hJywgJzIwMCcsICctbWV0YWxfYmluZGluZycsICctaW1hZScsICc8aW5maWxlLm1hZT4nLCAnLW9tYWUnLCAnPG91dGZpbGUubWFlPic=

> <r_epik_Ionization_Penalty>
0.00101524

> <r_epik_Ionization_Penalty_Charging>
0.000974069

> <r_epik_Ionization_Penalty_Neutral>
4.11757e-05

> <r_epik_State_Penalty>
0.000633842

> <r_epik_Charging_Adjusted_Penalty>
0.00160791

> <i_epik_Tot_Q>
1

> <i_epik_Tot_abs_Q>
1

> <r_epik_Metal_State_Penalty>
-0

> <b_epik_Metal_Only>
0

> <s_lp_Force_Field>
OPLS_2005

> <r_lp_Energy>
38.5282

> <b_lp_Chiralities_Consistent>
1

> <s_lp_Variant>
AV-unprocessed.smi:1709-3

> <Gold.Version>
5.8.1

> <Gold.Id.Protein>
6NUR|6NUR_protein|mol2

> <Gold.PLP.Fitness>
37.0791

> <Gold.PLP.PLP>
-29.1694

> <Gold.PLP.part.hbond>
-1.9777

> <Gold.PLP.part.metal>
0.0000

> <Gold.PLP.part.buried>
-1.5551

> <Gold.PLP.part.nonpolar>
-26.3825

> <Gold.PLP.part.repulsive>
0.2925

> <Gold.PLP.ligand.clash>
0.0000

> <Gold.PLP.ligand.torsion>
0.4182

> <Gold.PLP.Chemscore.Hbond>
1.9120

> <Gold.PLP.Chemscore.CHOScore>
1.0000

> <Gold.PLP.Chemscore.Metal>
0.0000

> <Gold.Chemscore.Hbonds>
donor molecule, donor type, donor heavy atom, donor atom, acceptor molecule, acceptor atom, score
      L1  H     8    27       P1  7948  1.00
      L1  H    11    28       P1  7948  0.91
      L1  C     5    26       P1 10186  1.00

> <Gold.PLP.Chemscore.Internal.Correction>
0.0100

> <Gold.Rescore>
     Score         DG    S(hbond)    S(metal)    S(lipo)     H(rot)  DE(clash)    DE(int)     intcor
     17.26     -17.86       1.87        0.00      74.31       1.00       0.14       0.46       ----

> <Gold.Chemscore.Fitness>
17.2605

> <Gold.Chemscore.DG>
-17.8582

> <Gold.Chemscore.ZeroCoef>
-5.4800

> <Gold.Chemscore.Hbond>
1.8695

> <Gold.Chemscore.Metal>
0.0000

> <Gold.Chemscore.Lipo>
74.3075

> <Gold.Chemscore.Internal_Hbond>
0.0000

> <Gold.Chemscore.DEClash>
0.1382

> <Gold.Chemscore.DEInternal>
0.4595

> <Gold.Chemscore.Rot>
1.0000

> <Gold.Chemscore.Internal.Correction>
   9.000000E+99

> <Gold.Chemscore.Hbonds>
donor molecule, donor type, donor heavy atom, donor atom, acceptor molecule, acceptor atom, score
      L1  H     8    27       P1  7948  0.94
      L1  H    11    28       P1  7948  0.88

> <Gold.Chemscore.Hbond.Weighted>
-6.2442

> <Gold.Chemscore.Metal.Weighted>
-0.0000

> <Gold.Chemscore.Lipo.Weighted>
-8.6940

> <Gold.Chemscore.Internal_Hbond.Weighted>
0.0000

> <Gold.Chemscore.DEClash.Weighted>
0.1382

> <Gold.Chemscore.DEInternal.Weighted>
0.4595

> <Gold.Chemscore.Rot.Weighted>
2.5600

> <Gold.Chemscore.Internal.Correction.Weighted>
   9.000000E+99

> <Gold.Protein.RotatedTorsions>
[ 6907 6896 6895 6894 ] final  165.69 input  -60.11 | X-H torsion
[ 7974 7965 7964 7962 ] final  -32.61 input  175.53 | X-H torsion
[ 8008 7997 7996 7995 ] final   30.89 input   59.86 | X-H torsion
[ 10167 10162 10161 10158 ] final   90.61 input  -65.29 | X-H torsion
[ 10718 10713 10712 10709 ] final   85.24 input   66.30 | X-H torsion
[ 10763 10752 10751 10750 ] final   70.79 input  -60.55 | X-H torsion
[ 11005 11000 10999 10996 ] final  -59.24 input  -57.11 | X-H torsion

> <Gold.Protein.ActiveResidues>
 VAL166  LYS551  ARG553  GLY616  TRP617  ASP618  TYR619  PRO620  LYS621  CYS622 
 ASP623  PHE694  ASN695  SER759  ASP760  ASP761  ALA762  ILE779  LEU786  VAL792 
 PHE793  MET794  SER795  GLU796  ALA797  LYS798  CYS799  TRP800  GLU811  SER814 

> <Gold.Protein.RotatedAtoms>
  151.8904  133.3515  159.3796 H   0  0  0  0  0  0  0  0  0  0  0  0  # atno 6907 bound_to 6896
  150.7104  134.4929  159.5533 H   0  0  0  0  0  0  0  0  0  0  0  0  # atno 6908 bound_to 6896
  152.2498  134.8144  160.0498 H   0  0  0  0  0  0  0  0  0  0  0  0  # atno 6909 bound_to 6896
  146.0976  140.5814  142.8836 H   0  0  0  0  0  0  0  0  0  0  0  0  # atno 7974 bound_to 7965
  155.0977  140.3226  155.4556 H   0  0  0  0  0  0  0  0  0  0  0  0  # atno 8008 bound_to 7997
  156.2725  140.2066  156.6050 H   0  0  0  0  0  0  0  0  0  0  0  0  # atno 8009 bound_to 7997
  154.6853  140.0522  157.0295 H   0  0  0  0  0  0  0  0  0  0  0  0  # atno 8010 bound_to 7997
  139.8456  144.6619  150.9231 H   0  0  0  0  0  0  0  0  0  0  0  0  # atno 10167 bound_to 10162
  157.6911  131.0166  150.2792 H   0  0  0  0  0  0  0  0  0  0  0  0  # atno 10718 bound_to 10713
  153.0362  135.5161  154.7495 H   0  0  0  0  0  0  0  0  0  0  0  0  # atno 10763 bound_to 10752
  154.6470  135.2920  155.0036 H   0  0  0  0  0  0  0  0  0  0  0  0  # atno 10764 bound_to 10752
  154.0934  135.6647  153.4909 H   0  0  0  0  0  0  0  0  0  0  0  0  # atno 10765 bound_to 10752
  141.1240  133.6615  156.5041 H   0  0  0  0  0  0  0  0  0  0  0  0  # atno 11005 bound_to 11000
  144.7407  140.4935  143.6871 LP  0  0  0  0  0  0  0  0  0  0  0  0  # atno 17320 bound_to 7965
  145.5918  139.1496  143.3178 LP  0  0  0  0  0  0  0  0  0  0  0  0  # atno 17321 bound_to 7965
  140.7793  143.3873  151.1371 LP  0  0  0  0  0  0  0  0  0  0  0  0  # atno 17342 bound_to 10162
  139.7516  143.8770  152.3078 LP  0  0  0  0  0  0  0  0  0  0  0  0  # atno 17343 bound_to 10162
  156.3342  130.3805  149.7465 LP  0  0  0  0  0  0  0  0  0  0  0  0  # atno 17370 bound_to 10713
  156.4995  130.8122  151.3127 LP  0  0  0  0  0  0  0  0  0  0  0  0  # atno 17371 bound_to 10713
  140.4422  134.7005  157.4997 LP  0  0  0  0  0  0  0  0  0  0  0  0  # atno 17394 bound_to 11000
  140.0221  134.6531  155.9224 LP  0  0  0  0  0  0  0  0  0  0  0  0  # atno 17395 bound_to 11000

$$$$
