AV-unprocessed.smi:3270|AV-procd|sdf|12514|dock6
  -GOLD-   2272018423D 1   1.00000     0.00000
 Structure written by MMmdl.
 39 40  0  0  0  0  0  0  0  0  2 V2000
  151.7239  144.8280  159.4742 C   0  0  0  0  0  0  0  0  0  0  0  0
  152.0179  143.3552  159.1227 C   0  0  2  0  0  0  0  0  0  0  0  0
  150.7434  142.5264  158.8794 C   0  0  0  0  0  0  0  0  0  0  0  0
  149.9574  142.2900  159.7979 O   0  0  0  0  0  0  0  0  0  0  0  0
  150.5387  142.1015  157.6218 N   0  0  0  0  0  0  0  0  0  0  0  0
  149.3956  141.3110  157.1815 C   0  0  0  0  0  0  0  0  0  0  0  0
  149.5451  140.8796  155.7101 C   0  0  0  0  0  0  0  0  0  0  0  0
  150.2185  139.5648  155.5648 N   0  3  0  0  0  0  0  0  0  0  0  0
  149.8101  138.8605  154.3255 C   0  0  0  0  0  0  0  0  0  0  0  0
  150.4899  137.4840  154.2354 C   0  0  0  0  0  0  0  0  0  0  0  0
  151.9013  137.6465  154.2910 O   0  0  0  0  0  0  0  0  0  0  0  0
  152.3194  138.2381  155.5145 C   0  0  0  0  0  0  0  0  0  0  0  0
  151.6986  139.6391  155.6532 C   0  0  0  0  0  0  0  0  0  0  0  0
  152.8697  142.7219  160.1240 N   0  0  0  0  0  0  0  0  0  0  0  0
  153.6027  141.5586  160.0021 C   0  0  0  0  0  0  0  0  0  0  0  0
  154.2246  141.3377  161.1972 C   0  0  0  0  0  0  0  0  0  0  0  0
  153.8023  142.4300  162.0046 C   0  0  0  0  0  0  0  0  0  0  0  0
  152.9883  143.2523  161.3633 N   0  0  0  0  0  0  0  0  0  0  0  0
  151.1504  145.3151  158.6848 H   0  0  0  0  0  0  0  0  0  0  0  0
  152.6500  145.3903  159.5968 H   0  0  0  0  0  0  0  0  0  0  0  0
  151.1566  144.9208  160.4014 H   0  0  0  0  0  0  0  0  0  0  0  0
  152.5729  143.3544  158.1833 H   0  0  0  0  0  0  0  0  0  0  0  0
  151.2310  142.3343  156.9244 H   0  0  0  0  0  0  0  0  0  0  0  0
  149.3346  140.4432  157.8371 H   0  0  0  0  0  0  0  0  0  0  0  0
  148.4721  141.8748  157.3250 H   0  0  0  0  0  0  0  0  0  0  0  0
  148.5498  140.8108  155.2683 H   0  0  0  0  0  0  0  0  0  0  0  0
  150.0842  141.6364  155.1381 H   0  0  0  0  0  0  0  0  0  0  0  0
  148.7268  138.7341  154.3096 H   0  0  0  0  0  0  0  0  0  0  0  0
  150.0753  139.4653  153.4567 H   0  0  0  0  0  0  0  0  0  0  0  0
  150.1533  136.8284  155.0402 H   0  0  0  0  0  0  0  0  0  0  0  0
  150.2276  136.9962  153.2964 H   0  0  0  0  0  0  0  0  0  0  0  0
  152.0381  137.6018  156.3553 H   0  0  0  0  0  0  0  0  0  0  0  0
  153.4073  138.3077  155.5183 H   0  0  0  0  0  0  0  0  0  0  0  0
  152.0807  140.2938  154.8682 H   0  0  0  0  0  0  0  0  0  0  0  0
  152.0045  140.0699  156.6058 H   0  0  0  0  0  0  0  0  0  0  0  0
  153.6212  140.9900  159.0840 H   0  0  0  0  0  0  0  0  0  0  0  0
  154.8801  140.5196  161.4562 H   0  0  0  0  0  0  0  0  0  0  0  0
  154.0583  142.6471  163.0311 H   0  0  0  0  0  0  0  0  0  0  0  0
  149.9028  138.9907  156.3338 H   0  0  0  0  0  0  0  0  0  0  0  0
  1  2  1  0  0  0  0
  1 19  1  0  0  0  0
  1 20  1  0  0  0  0
  1 21  1  0  0  0  0
  2  3  1  0  0  0  0
  2 14  1  0  0  0  0
  2 22  1  0  0  0  0
  3  4  2  0  0  0  0
  3  5  1  0  0  0  0
  5  6  1  0  0  0  0
  5 23  1  0  0  0  0
  6  7  1  0  0  0  0
  6 24  1  0  0  0  0
  6 25  1  0  0  0  0
  7  8  1  0  0  0  0
  7 26  1  0  0  0  0
  7 27  1  0  0  0  0
  8 13  1  0  0  0  0
  8  9  1  0  0  0  0
  8 39  1  0  0  0  0
  9 10  1  0  0  0  0
  9 28  1  0  0  0  0
  9 29  1  0  0  0  0
 10 11  1  0  0  0  0
 10 30  1  0  0  0  0
 10 31  1  0  0  0  0
 11 12  1  0  0  0  0
 12 13  1  0  0  0  0
 12 32  1  0  0  0  0
 12 33  1  0  0  0  0
 13 34  1  0  0  0  0
 13 35  1  0  0  0  0
 14 18  1  0  0  0  0
 14 15  1  0  0  0  0
 15 16  2  0  0  0  0
 15 36  1  0  0  0  0
 16 17  1  0  0  0  0
 16 37  1  0  0  0  0
 17 18  2  0  0  0  0
 17 38  1  0  0  0  0
M  CHG  1   8   1
M  END
> <s_m_source_file>
AV-unprocessed.smi

> <i_m_source_file_index>
3270

> <i_lp_mmshare_version>
43012

> <i_f3d_flags>
0

> <s_epik_input>
bjFbY0hdW2NIXVtjSF1uMVtDQEhdKFtDSDNdKUMoPU8pW05IXVtDSDJdW0NIMl1OMltDSDJdW0NIMl1PW0NIMl1bQ0gyXTI=

> <s_epik_cmdline>
J2VwaWtfcHl0aG9uJywgJy1waCcsICc3LjAnLCAnLXRuJywgJzgnLCAnLW1hJywgJzIwMCcsICctbWV0YWxfYmluZGluZycsICctaW1hZScsICc8aW5maWxlLm1hZT4nLCAnLW9tYWUnLCAnPG91dGZpbGUubWFlPic=

> <r_lp_tautomer_probability>
1

> <r_epik_Ionization_Penalty>
0.73255

> <r_epik_Ionization_Penalty_Charging>
0.732531

> <r_epik_Ionization_Penalty_Neutral>
1.96965e-05

> <r_epik_State_Penalty>
0.757939

> <r_epik_Charging_Adjusted_Penalty>
1.49047

> <i_epik_Tot_Q>
1

> <i_epik_Tot_abs_Q>
1

> <r_epik_Metal_State_Penalty>
0.757952

> <b_epik_Metal_Only>
0

> <s_lp_Force_Field>
OPLS_2005

> <r_lp_Energy>
19.6504

> <b_lp_Chiralities_Consistent>
1

> <s_lp_Variant>
AV-unprocessed.smi:3270-3

> <Gold.Version>
5.8.1

> <Gold.Id.Protein>
6NUR|6NUR_protein|mol2

> <Gold.PLP.Fitness>
45.7669

> <Gold.PLP.PLP>
-45.4721

> <Gold.PLP.part.hbond>
-2.0000

> <Gold.PLP.part.metal>
0.0000

> <Gold.PLP.part.buried>
-5.7207

> <Gold.PLP.part.nonpolar>
-38.0508

> <Gold.PLP.part.repulsive>
0.4137

> <Gold.PLP.ligand.clash>
0.0000

> <Gold.PLP.ligand.torsion>
0.8999

> <Gold.PLP.Chemscore.Hbond>
0.6560

> <Gold.PLP.Chemscore.CHOScore>
0.0000

> <Gold.PLP.Chemscore.Metal>
0.0000

> <Gold.Chemscore.Hbonds>
donor molecule, donor type, donor heavy atom, donor atom, acceptor molecule, acceptor atom, score
      P1  H 10752 10765       L1    11  0.44

> <Gold.PLP.Chemscore.Internal.Correction>
0.1265

> <Gold.Rescore>
     Score         DG    S(hbond)    S(metal)    S(lipo)     H(rot)  DE(clash)    DE(int)     intcor
     13.57     -14.75       0.95        0.00      93.90       1.91       0.03       1.15       ----

> <Gold.Chemscore.Fitness>
13.5653

> <Gold.Chemscore.DG>
-14.7472

> <Gold.Chemscore.ZeroCoef>
-5.4800

> <Gold.Chemscore.Hbond>
0.9500

> <Gold.Chemscore.Metal>
0.0000

> <Gold.Chemscore.Lipo>
93.8975

> <Gold.Chemscore.Internal_Hbond>
0.0000

> <Gold.Chemscore.DEClash>
0.0272

> <Gold.Chemscore.DEInternal>
1.1547

> <Gold.Chemscore.Rot>
1.9109

> <Gold.Chemscore.Internal.Correction>
   9.000000E+99

> <Gold.Chemscore.Hbonds>
donor molecule, donor type, donor heavy atom, donor atom, acceptor molecule, acceptor atom, score
      P1  H 10752 10765       L1    11  0.14

> <Gold.Chemscore.Hbond.Weighted>
-3.1731

> <Gold.Chemscore.Metal.Weighted>
-0.0000

> <Gold.Chemscore.Lipo.Weighted>
-10.9860

> <Gold.Chemscore.Internal_Hbond.Weighted>
0.0000

> <Gold.Chemscore.DEClash.Weighted>
0.0272

> <Gold.Chemscore.DEInternal.Weighted>
1.1547

> <Gold.Chemscore.Rot.Weighted>
4.8919

> <Gold.Chemscore.Internal.Correction.Weighted>
   9.000000E+99

> <Gold.Protein.RotatedTorsions>
[ 6907 6896 6895 6894 ] final -142.65 input  -60.11 | X-H torsion
[ 7974 7965 7964 7962 ] final  -45.04 input  175.53 | X-H torsion
[ 8008 7997 7996 7995 ] final  178.38 input   59.86 | X-H torsion
[ 10167 10162 10161 10158 ] final -146.80 input  -65.29 | X-H torsion
[ 10718 10713 10712 10709 ] final  -15.15 input   66.30 | X-H torsion
[ 10763 10752 10751 10750 ] final  162.98 input  -60.55 | X-H torsion
[ 11005 11000 10999 10996 ] final -109.03 input  -57.11 | X-H torsion

> <Gold.Protein.ActiveResidues>
 VAL166  LYS551  ARG553  GLY616  TRP617  ASP618  TYR619  PRO620  LYS621  CYS622 
 ASP623  PHE694  ASN695  SER759  ASP760  ASP761  ALA762  ILE779  LEU786  VAL792 
 PHE793  MET794  SER795  GLU796  ALA797  LYS798  CYS799  TRP800  GLU811  SER814 

> <Gold.Protein.RotatedAtoms>
  151.0899  133.5324  159.2615 H   0  0  0  0  0  0  0  0  0  0  0  0  # atno 6907 bound_to 6896
  151.2195  135.0512  159.8954 H   0  0  0  0  0  0  0  0  0  0  0  0  # atno 6908 bound_to 6896
  152.5433  134.0703  159.8245 H   0  0  0  0  0  0  0  0  0  0  0  0  # atno 6909 bound_to 6896
  145.9861  140.7232  142.9340 H   0  0  0  0  0  0  0  0  0  0  0  0  # atno 7974 bound_to 7965
  156.0553  140.1335  157.0003 H   0  0  0  0  0  0  0  0  0  0  0  0  # atno 8008 bound_to 7997
  154.4455  140.1002  156.6507 H   0  0  0  0  0  0  0  0  0  0  0  0  # atno 8009 bound_to 7997
  155.5461  140.3462  155.4460 H   0  0  0  0  0  0  0  0  0  0  0  0  # atno 8010 bound_to 7997
  139.7680  143.8280  152.2619 H   0  0  0  0  0  0  0  0  0  0  0  0  # atno 10167 bound_to 10162
  156.6058  130.4836  149.6221 H   0  0  0  0  0  0  0  0  0  0  0  0  # atno 10718 bound_to 10713
  154.2867  135.2762  155.2673 H   0  0  0  0  0  0  0  0  0  0  0  0  # atno 10763 bound_to 10752
  154.5170  135.5767  153.6654 H   0  0  0  0  0  0  0  0  0  0  0  0  # atno 10764 bound_to 10752
  152.9920  135.6195  154.3029 H   0  0  0  0  0  0  0  0  0  0  0  0  # atno 10765 bound_to 10752
  141.0870  133.9122  157.2163 H   0  0  0  0  0  0  0  0  0  0  0  0  # atno 11005 bound_to 11000
  144.6875  140.2990  143.7266 LP  0  0  0  0  0  0  0  0  0  0  0  0  # atno 17320 bound_to 7965
  145.7699  139.1853  143.2218 LP  0  0  0  0  0  0  0  0  0  0  0  0  # atno 17321 bound_to 7965
  139.8305  144.7255  150.9456 LP  0  0  0  0  0  0  0  0  0  0  0  0  # atno 17342 bound_to 10162
  140.7812  143.4074  151.1049 LP  0  0  0  0  0  0  0  0  0  0  0  0  # atno 17343 bound_to 10162
  156.2431  130.6863  151.1574 LP  0  0  0  0  0  0  0  0  0  0  0  0  # atno 17370 bound_to 10713
  157.7267  131.0644  150.5896 LP  0  0  0  0  0  0  0  0  0  0  0  0  # atno 17371 bound_to 10713
  139.9690  135.0134  156.9461 LP  0  0  0  0  0  0  0  0  0  0  0  0  # atno 17394 bound_to 11000
  140.5340  134.0785  155.7323 LP  0  0  0  0  0  0  0  0  0  0  0  0  # atno 17395 bound_to 11000

$$$$
