AV-unprocessed.smi:135|AV-procd|sdf|1170|dock5
  -GOLD-   2262018313D 1   1.00000     0.00000
 Structure written by MMmdl.
 51 54  0  0  0  0  0  0  0  0  1 V2000
  148.9721  135.9376  156.7864 O   0  0  0  0  0  0  0  0  0  0  0  0
  148.8775  136.1433  155.5764 C   0  0  0  0  0  0  0  0  0  0  0  0
  148.9190  137.5784  155.0281 C   0  0  0  0  0  0  0  0  0  0  0  0
  150.0851  138.3570  155.4992 N   0  0  0  0  0  0  0  0  0  0  0  0
  151.3722  137.9968  155.0293 C   0  0  0  0  0  0  0  0  0  0  0  0
  151.5253  137.0628  154.2404 O   0  0  0  0  0  0  0  0  0  0  0  0
  152.4777  138.7969  155.5442 C   0  0  0  0  0  0  0  0  0  0  0  0
  153.7328  138.5342  155.1422 F   0  0  0  0  0  0  0  0  0  0  0  0
  152.2611  139.8016  156.4180 C   0  0  0  0  0  0  0  0  0  0  0  0
  150.9996  140.1328  156.8804 N   0  0  0  0  0  0  0  0  0  0  0  0
  150.7727  141.2645  157.8608 C   0  0  1  0  0  0  0  0  0  0  0  0
  151.7934  141.1993  159.0130 C   0  0  0  0  0  0  0  0  0  0  0  0
  152.3577  142.6059  159.0400 C   0  0  0  0  0  0  0  0  0  0  0  0
  152.2254  143.0253  157.5839 C   0  0  0  0  0  0  0  0  0  0  0  0
  150.9582  142.4946  157.2194 O   0  0  0  0  0  0  0  0  0  0  0  0
  149.8769  139.4104  156.4210 C   0  0  0  0  0  0  0  0  0  0  0  0
  148.7449  139.6904  156.8214 O   0  0  0  0  0  0  0  0  0  0  0  0
  148.7096  135.1919  154.6406 N   0  0  0  0  0  0  0  0  0  0  0  0
  148.6479  133.7730  154.7576 C   0  0  0  0  0  0  0  0  0  0  0  0
  149.1780  133.0448  155.8527 C   0  0  0  0  0  0  0  0  0  0  0  0
  149.0700  131.6416  155.8958 C   0  0  0  0  0  0  0  0  0  0  0  0
  148.4333  130.9485  154.8511 C   0  0  0  0  0  0  0  0  0  0  0  0
  147.9109  131.6604  153.7569 C   0  0  0  0  0  0  0  0  0  0  0  0
  148.0249  133.0643  153.6999 C   0  0  0  0  0  0  0  0  0  0  0  0
  147.5010  133.7216  152.6136 O   0  0  0  0  0  0  0  0  0  0  0  0
  146.1892  133.4786  152.2872 C   0  0  0  0  0  0  0  0  0  0  0  0
  145.7827  132.2521  151.7145 C   0  0  0  0  0  0  0  0  0  0  0  0
  144.4290  132.0354  151.3916 C   0  0  0  0  0  0  0  0  0  0  0  0
  143.4746  133.0396  151.6436 C   0  0  0  0  0  0  0  0  0  0  0  0
  143.8739  134.2601  152.2218 C   0  0  0  0  0  0  0  0  0  0  0  0
  145.2273  134.4766  152.5452 C   0  0  0  0  0  0  0  0  0  0  0  0
  148.9005  137.5420  153.9370 H   0  0  0  0  0  0  0  0  0  0  0  0
  147.9805  138.0693  155.2894 H   0  0  0  0  0  0  0  0  0  0  0  0
  153.1220  140.3570  156.7569 H   0  0  0  0  0  0  0  0  0  0  0  0
  149.7324  141.1751  158.1787 H   0  0  0  0  0  0  0  0  0  0  0  0
  151.3112  140.9109  159.9473 H   0  0  0  0  0  0  0  0  0  0  0  0
  152.5796  140.4787  158.7822 H   0  0  0  0  0  0  0  0  0  0  0  0
  151.7400  143.2466  159.6708 H   0  0  0  0  0  0  0  0  0  0  0  0
  153.3836  142.6491  159.4062 H   0  0  0  0  0  0  0  0  0  0  0  0
  152.2618  144.1066  157.4498 H   0  0  0  0  0  0  0  0  0  0  0  0
  153.0124  142.5748  156.9773 H   0  0  0  0  0  0  0  0  0  0  0  0
  148.6133  135.5358  153.6961 H   0  0  0  0  0  0  0  0  0  0  0  0
  149.6777  133.5282  156.6757 H   0  0  0  0  0  0  0  0  0  0  0  0
  149.4760  131.0965  156.7350 H   0  0  0  0  0  0  0  0  0  0  0  0
  148.3481  129.8725  154.8876 H   0  0  0  0  0  0  0  0  0  0  0  0
  147.4250  131.1275  152.9528 H   0  0  0  0  0  0  0  0  0  0  0  0
  146.5057  131.4737  151.5194 H   0  0  0  0  0  0  0  0  0  0  0  0
  144.1229  131.0981  150.9510 H   0  0  0  0  0  0  0  0  0  0  0  0
  142.4366  132.8724  151.3963 H   0  0  0  0  0  0  0  0  0  0  0  0
  143.1419  135.0296  152.4182 H   0  0  0  0  0  0  0  0  0  0  0  0
  145.5292  135.4143  152.9885 H   0  0  0  0  0  0  0  0  0  0  0  0
  1  2  2  0  0  0  0
  2  3  1  0  0  0  0
  2 18  1  0  0  0  0
  3  4  1  0  0  0  0
  3 32  1  0  0  0  0
  3 33  1  0  0  0  0
  4 16  1  0  0  0  0
  4  5  1  0  0  0  0
  5  6  2  0  0  0  0
  5  7  1  0  0  0  0
  7  8  1  0  0  0  0
  7  9  2  0  0  0  0
  9 10  1  0  0  0  0
  9 34  1  0  0  0  0
 10 11  1  0  0  0  0
 10 16  1  0  0  0  0
 11 15  1  0  0  0  0
 11 12  1  0  0  0  0
 11 35  1  0  0  0  0
 12 13  1  0  0  0  0
 12 36  1  0  0  0  0
 12 37  1  0  0  0  0
 13 14  1  0  0  0  0
 13 38  1  0  0  0  0
 13 39  1  0  0  0  0
 14 15  1  0  0  0  0
 14 40  1  0  0  0  0
 14 41  1  0  0  0  0
 16 17  2  0  0  0  0
 18 19  1  0  0  0  0
 18 42  1  0  0  0  0
 19 24  1  0  0  0  0
 19 20  2  0  0  0  0
 20 21  1  0  0  0  0
 20 43  1  0  0  0  0
 21 22  2  0  0  0  0
 21 44  1  0  0  0  0
 22 23  1  0  0  0  0
 22 45  1  0  0  0  0
 23 24  2  0  0  0  0
 23 46  1  0  0  0  0
 24 25  1  0  0  0  0
 25 26  1  0  0  0  0
 26 31  1  0  0  0  0
 26 27  2  0  0  0  0
 27 28  1  0  0  0  0
 27 47  1  0  0  0  0
 28 29  2  0  0  0  0
 28 48  1  0  0  0  0
 29 30  1  0  0  0  0
 29 49  1  0  0  0  0
 30 31  2  0  0  0  0
 30 50  1  0  0  0  0
 31 51  1  0  0  0  0
M  END
> <s_m_source_file>
AV-unprocessed.smi

> <i_m_source_file_index>
135

> <i_lp_mmshare_version>
43012

> <i_f3d_flags>
0

> <s_epik_input>
TzFbQ0gyXVtDSDJdW0NIMl1bQ0BIXTFuKGMyPU8pW2NIXWMoRiljKD1PKW4yW0NIMl1DKD1PKVtOSF1jM1tjSF1bY0hdW2NIXVtjSF1jM09jNFtjSF1bY0hdW2NIXVtjSF1bY0hdNA==

> <s_epik_cmdline>
J2VwaWtfcHl0aG9uJywgJy1waCcsICc3LjAnLCAnLXRuJywgJzgnLCAnLW1hJywgJzIwMCcsICctbWV0YWxfYmluZGluZycsICctaW1hZScsICc8aW5maWxlLm1hZT4nLCAnLW9tYWUnLCAnPG91dGZpbGUubWFlPic=

> <r_lp_tautomer_probability>
1

> <r_epik_Ionization_Penalty>
1.89877e-06

> <r_epik_Ionization_Penalty_Charging>
3.88729e-08

> <r_epik_Ionization_Penalty_Neutral>
1.8599e-06

> <r_epik_State_Penalty>
-0

> <r_epik_Charging_Adjusted_Penalty>
3.88729e-08

> <i_epik_Tot_Q>
0

> <i_epik_Tot_abs_Q>
0

> <r_epik_Metal_State_Penalty>
-0

> <b_epik_Metal_Only>
0

> <s_epik_Chemistry_Notes>
This compound contains an acetal/aminal-like group ( X-CH(R)-Y where X, Y are N, S, or O) that may be acid/base labile, releasing an aldehyde.

> <s_lp_Force_Field>
OPLS_2005

> <r_lp_Energy>
40.6736

> <b_lp_Chiralities_Consistent>
1

> <s_lp_Variant>
AV-unprocessed.smi:135-2

> <Gold.Version>
5.8.1

> <Gold.Id.Protein>
6NUR|6NUR_protein|mol2

> <Gold.PLP.Fitness>
49.2695

> <Gold.PLP.PLP>
-44.7148

> <Gold.PLP.part.hbond>
-2.0000

> <Gold.PLP.part.metal>
0.0000

> <Gold.PLP.part.buried>
-1.9822

> <Gold.PLP.part.nonpolar>
-43.8200

> <Gold.PLP.part.repulsive>
4.6152

> <Gold.PLP.ligand.clash>
0.0000

> <Gold.PLP.ligand.torsion>
0.7571

> <Gold.PLP.Chemscore.Hbond>
1.9913

> <Gold.PLP.Chemscore.CHOScore>
0.0000

> <Gold.PLP.Chemscore.Metal>
0.0000

> <Gold.Chemscore.Hbonds>
donor molecule, donor type, donor heavy atom, donor atom, acceptor molecule, acceptor atom, score
      L1  H    18    42       P1  7948  1.00
      P1  H 10752 10764       L1     6  1.00

> <Gold.PLP.Chemscore.Internal.Correction>
0.0952

> <Gold.Rescore>
     Score         DG    S(hbond)    S(metal)    S(lipo)     H(rot)  DE(clash)    DE(int)     intcor
     13.92     -18.01       1.72        0.00     102.73       2.04       2.25       1.84       ----

> <Gold.Chemscore.Fitness>
13.9216

> <Gold.Chemscore.DG>
-18.0136

> <Gold.Chemscore.ZeroCoef>
-5.4800

> <Gold.Chemscore.Hbond>
1.7157

> <Gold.Chemscore.Metal>
0.0000

> <Gold.Chemscore.Lipo>
102.7315

> <Gold.Chemscore.Internal_Hbond>
0.0000

> <Gold.Chemscore.DEClash>
2.2514

> <Gold.Chemscore.DEInternal>
1.8406

> <Gold.Chemscore.Rot>
2.0377

> <Gold.Chemscore.Internal.Correction>
   9.000000E+99

> <Gold.Chemscore.Hbonds>
donor molecule, donor type, donor heavy atom, donor atom, acceptor molecule, acceptor atom, score
      L1  H    18    42       P1  7948  0.96
      P1  H 10752 10764       L1     6  0.96

> <Gold.Chemscore.Hbond.Weighted>
-5.7305

> <Gold.Chemscore.Metal.Weighted>
-0.0000

> <Gold.Chemscore.Lipo.Weighted>
-12.0196

> <Gold.Chemscore.Internal_Hbond.Weighted>
0.0000

> <Gold.Chemscore.DEClash.Weighted>
2.2514

> <Gold.Chemscore.DEInternal.Weighted>
1.8406

> <Gold.Chemscore.Rot.Weighted>
5.2165

> <Gold.Chemscore.Internal.Correction.Weighted>
   9.000000E+99

> <Gold.Protein.RotatedTorsions>
[ 6907 6896 6895 6894 ] final -106.00 input  -60.11 | X-H torsion
[ 7974 7965 7964 7962 ] final  103.85 input  175.53 | X-H torsion
[ 8008 7997 7996 7995 ] final  -59.06 input   59.86 | X-H torsion
[ 10167 10162 10161 10158 ] final  120.36 input  -65.29 | X-H torsion
[ 10718 10713 10712 10709 ] final -136.37 input   66.30 | X-H torsion
[ 10763 10752 10751 10750 ] final  -86.02 input  -60.55 | X-H torsion
[ 11005 11000 10999 10996 ] final -149.65 input  -57.11 | X-H torsion

> <Gold.Protein.ActiveResidues>
 VAL166  LYS551  ARG553  GLY616  TRP617  ASP618  TYR619  PRO620  LYS621  CYS622 
 ASP623  PHE694  ASN695  SER759  ASP760  ASP761  ALA762  ILE779  LEU786  VAL792 
 PHE793  MET794  SER795  GLU796  ALA797  LYS798  CYS799  TRP800  GLU811  SER814 

> <Gold.Protein.RotatedAtoms>
  150.7366  134.0042  159.3648 H   0  0  0  0  0  0  0  0  0  0  0  0  # atno 6907 bound_to 6896
  151.7998  135.0710  160.0408 H   0  0  0  0  0  0  0  0  0  0  0  0  # atno 6908 bound_to 6896
  152.3148  133.5755  159.5741 H   0  0  0  0  0  0  0  0  0  0  0  0  # atno 6909 bound_to 6896
  145.3406  139.2463  143.3612 H   0  0  0  0  0  0  0  0  0  0  0  0  # atno 7974 bound_to 7965
  154.4336  140.1070  156.6056 H   0  0  0  0  0  0  0  0  0  0  0  0  # atno 8008 bound_to 7997
  155.5864  140.3491  155.4535 H   0  0  0  0  0  0  0  0  0  0  0  0  # atno 8009 bound_to 7997
  156.0280  140.1254  157.0278 H   0  0  0  0  0  0  0  0  0  0  0  0  # atno 8010 bound_to 7997
  139.5987  144.7050  151.3114 H   0  0  0  0  0  0  0  0  0  0  0  0  # atno 10167 bound_to 10162
  156.2763  130.7295  151.1278 H   0  0  0  0  0  0  0  0  0  0  0  0  # atno 10718 bound_to 10713
  154.6177  135.5464  153.7541 H   0  0  0  0  0  0  0  0  0  0  0  0  # atno 10763 bound_to 10752
  153.0224  135.6405  154.1486 H   0  0  0  0  0  0  0  0  0  0  0  0  # atno 10764 bound_to 10752
  154.1421  135.2907  155.3138 H   0  0  0  0  0  0  0  0  0  0  0  0  # atno 10765 bound_to 10752
  140.7485  134.3434  157.5131 H   0  0  0  0  0  0  0  0  0  0  0  0  # atno 11005 bound_to 11000
  146.3009  140.4002  142.8704 LP  0  0  0  0  0  0  0  0  0  0  0  0  # atno 17320 bound_to 7965
  144.8793  140.7379  143.5996 LP  0  0  0  0  0  0  0  0  0  0  0  0  # atno 17321 bound_to 7965
  140.7232  143.7076  150.7795 LP  0  0  0  0  0  0  0  0  0  0  0  0  # atno 17342 bound_to 10162
  140.0648  143.5119  152.2610 LP  0  0  0  0  0  0  0  0  0  0  0  0  # atno 17343 bound_to 10162
  157.7300  131.0619  150.5746 LP  0  0  0  0  0  0  0  0  0  0  0  0  # atno 17370 bound_to 10713
  156.5847  130.4313  149.5962 LP  0  0  0  0  0  0  0  0  0  0  0  0  # atno 17371 bound_to 10713
  139.8792  134.9126  156.3065 LP  0  0  0  0  0  0  0  0  0  0  0  0  # atno 17394 bound_to 11000
  140.9773  133.7290  156.0620 LP  0  0  0  0  0  0  0  0  0  0  0  0  # atno 17395 bound_to 11000

$$$$
