#       Name:                AV-unprocessed.smi:781
#       Creating user name   scv26
#       Creation time:       Fri Mar 27 01:13:10 2020


#       File generated by GOLD software.
#

@<TRIPOS>MOLECULE
AV-unprocessed.smi:781
    45    47     1
SMALL
NO_CHARGES


@<TRIPOS>ATOM
      1 ****        -6.6305   2.5553  -0.7340 C.3            1 S1                 0.0000
      2 ****        -5.1796   2.2225  -0.6648 C.2            1 S1                 0.0000
      3 ****        -4.4959   1.0393  -0.6579 C.2            1 S1                 0.0000
      4 ****        -3.1400   1.4538  -0.5748 C.2            1 S1                 0.0000
      5 ****        -2.0895   0.5018  -0.5437 N.am           1 S1                 0.0000
      6 ****        -0.7686   0.7403  -0.4781 C.2            1 S1                 0.0000
      7 ****        -0.2494   1.8558  -0.4332 O.2            1 S1                 0.0000
      8 ****        -0.0696  -0.4032  -0.4664 N.am           1 S1                 0.0000
      9 ****         1.3863  -0.4971  -0.3946 C.3            1 S1                 0.0000
     10 ****         1.8565  -1.9098  -0.8060 C.3            1 S1                 0.0000
     11 ****         3.3653  -1.8610  -1.1069 C.3            1 S1                 0.0000
     12 ****         3.9798  -1.7143   0.2979 C.3            1 S1                 0.0000
     13 ****         2.7398  -1.6791   1.2173 C.3            1 S1                 0.0000
     14 ****         1.8290  -2.6769   0.5133 C.3            1 S1                 0.0000
     15 ****         1.9271  -0.3703   1.0530 C.3            1 S1                 0.0000
     16 ****         2.6866   0.9421   1.3290 C.3            1 S1                 0.0000
     17 ****         3.1570   0.9675   2.6600 O.3            1 S1                 0.0000
     18 ****        -3.0076   2.7707  -0.5335 N.2            1 S1                 0.0000
     19 ****        -4.3143   3.2702  -0.5905 O.3            1 S1                 0.0000
     20 ****        -7.2147   1.6876  -1.0408 H              1 S1                 0.0000
     21 ****        -6.8114   3.3540  -1.4535 H              1 S1                 0.0000
     22 ****        -6.9978   2.8846   0.2379 H              1 S1                 0.0000
     23 ****        -4.9026   0.0402  -0.7052 H              1 S1                 0.0000
     24 ****        -2.3745  -0.4657  -0.5762 H              1 S1                 0.0000
     25 ****        -0.5786  -1.2742  -0.5042 H              1 S1                 0.0000
     26 ****         1.8242   0.2508  -1.0589 H              1 S1                 0.0000
     27 ****         1.2736  -2.3556  -1.6129 H              1 S1                 0.0000
     28 ****         3.6987  -2.7876  -1.5757 H              1 S1                 0.0000
     29 ****         3.6337  -1.0371  -1.7692 H              1 S1                 0.0000
     30 ****         4.5972  -2.5832   0.5290 H              1 S1                 0.0000
     31 ****         4.6164  -0.8357   0.3922 H              1 S1                 0.0000
     32 ****         2.9611  -1.9250   2.2563 H              1 S1                 0.0000
     33 ****         0.8338  -2.7454   0.9562 H              1 S1                 0.0000
     34 ****         2.2552  -3.6791   0.4410 H              1 S1                 0.0000
     35 ****         1.0905  -0.4166   1.7535 H              1 S1                 0.0000
     36 ****         3.5202   1.0857   0.6428 H              1 S1                 0.0000
     37 ****         2.0193   1.7924   1.1882 H              1 S1                 0.0000
     38 ****         3.5721   1.8023   2.8151 H              1 S1                 0.0000
     39 ****        -0.8228   2.6750  -0.4445 LP             1 S1                 0.0000
     40 ****         0.7457   1.9427  -0.3856 LP             1 S1                 0.0000
     41 ****         3.8189   0.2308   2.7981 LP             1 S1                 0.0000
     42 ****         2.3904   0.8495   3.2911 LP             1 S1                 0.0000
     43 ****        -2.1581   3.2951  -0.4744 LP             1 S1                 0.0000
     44 ****        -4.5055   3.8067   0.2314 LP             1 S1                 0.0000
     45 ****        -4.4178   3.8499  -1.3987 LP             1 S1                 0.0000
@<TRIPOS>BOND
    1    1    2 1     
    2    1   20 1     
    3    1   21 1     
    4    1   22 1     
    5    2   19 1     
    6    2    3 2     
    7    3    4 1     
    8    3   23 1     
    9    4    5 1     
   10    4   18 2     
   11    5    6 am    
   12    5   24 1     
   13    6    7 2     
   14    6    8 am    
   15    8    9 1     
   16    8   25 1     
   17    9   15 1     
   18    9   10 1     
   19    9   26 1     
   20   10   14 1     
   21   10   11 1     
   22   10   27 1     
   23   11   12 1     
   24   11   28 1     
   25   11   29 1     
   26   12   13 1     
   27   12   30 1     
   28   12   31 1     
   29   13   14 1     
   30   13   15 1     
   31   13   32 1     
   32   14   33 1     
   33   14   34 1     
   34   15   16 1     
   35   15   35 1     
   36   16   17 1     
   37   16   36 1     
   38   16   37 1     
   39   17   38 1     
   40   18   19 1     
   41    7   39 1     
   42    7   40 1     
   43   17   41 1     
   44   17   42 1     
   45   18   43 1     
   46   19   44 1     
   47   19   45 1     
@<TRIPOS>SUBSTRUCTURE
      1 S1             1
@<TRIPOS>SET
LONE_PAIRS      STATIC     ATOMS    <user>   **** ""
7 39 40 41 42 43 44 45
DONOR_HYDROGENS      STATIC     ATOMS    <user>   **** ""
3 24 25 38
ATOM$BLUE        STATIC     ATOMS    COLORGROUP SYSTEM
7 39 40 41 42 43 44 45
ATOM$RED        STATIC     ATOMS    COLORGROUP SYSTEM
3 24 25 38
