AV-unprocessed.smi:1669|AV-procd|sdf|6687|dock2
  -GOLD-   22720 7413D 1   1.00000     0.00000
 Structure written by MMmdl.
 47 49  0  0  0  0  0  0  0  0  1 V2000
  149.3171  141.2191  157.9014 C   0  0  0  0  0  0  0  0  0  0  0  0
  150.3405  140.6284  157.0437 N   0  0  0  0  0  0  0  0  0  0  0  0
  151.6736  140.7788  157.6356 C   0  0  0  0  0  0  0  0  0  0  0  0
  151.9380  142.1628  158.2025 C   0  0  0  0  0  0  0  0  0  0  0  0
  152.4609  142.3046  159.5054 C   0  0  0  0  0  0  0  0  0  0  0  0
  152.7066  143.5871  160.0333 C   0  0  0  0  0  0  0  0  0  0  0  0
  152.4352  144.7317  159.2588 C   0  0  0  0  0  0  0  0  0  0  0  0
  151.9173  144.5937  157.9563 C   0  0  0  0  0  0  0  0  0  0  0  0
  151.6685  143.3113  157.4287 C   0  0  0  0  0  0  0  0  0  0  0  0
  150.2598  141.2033  155.6990 C   0  0  0  0  0  0  0  0  0  0  0  0
  149.2134  140.5647  154.7631 C   0  0  2  0  0  0  0  0  0  0  0  0
  149.5695  140.8788  153.4323 O   0  0  0  0  0  0  0  0  0  0  0  0
  147.7802  141.0622  155.0439 C   0  0  0  0  0  0  0  0  0  0  0  0
  146.8298  139.9670  155.1765 N   0  0  0  0  0  0  0  0  0  0  0  0
  146.4535  139.0522  154.2476 C   0  0  0  0  0  0  0  0  0  0  0  0
  147.0164  139.0683  152.8552 C   0  0  0  0  0  0  0  0  0  0  0  0
  146.7758  140.2725  152.1562 O   0  0  0  0  0  0  0  0  0  0  0  0
  145.5477  138.1585  154.6535 N   0  0  0  0  0  0  0  0  0  0  0  0
  145.3198  138.5264  155.9651 C   0  0  0  0  0  0  0  0  0  0  0  0
  144.4639  137.9686  156.9417 C   0  0  0  0  0  0  0  0  0  0  0  0
  144.3957  138.5289  158.2343 C   0  0  0  0  0  0  0  0  0  0  0  0
  145.1789  139.6530  158.5682 C   0  0  0  0  0  0  0  0  0  0  0  0
  146.0383  140.2238  157.6100 C   0  0  0  0  0  0  0  0  0  0  0  0
  146.1041  139.6588  156.3223 C   0  0  0  0  0  0  0  0  0  0  0  0
  148.3248  141.0832  157.4703 H   0  0  0  0  0  0  0  0  0  0  0  0
  149.4850  142.2886  158.0355 H   0  0  0  0  0  0  0  0  0  0  0  0
  149.3059  140.7506  158.8858 H   0  0  0  0  0  0  0  0  0  0  0  0
  151.8034  140.0880  158.4667 H   0  0  0  0  0  0  0  0  0  0  0  0
  152.4411  140.5243  156.9033 H   0  0  0  0  0  0  0  0  0  0  0  0
  152.6717  141.4289  160.1023 H   0  0  0  0  0  0  0  0  0  0  0  0
  153.1036  143.6925  161.0322 H   0  0  0  0  0  0  0  0  0  0  0  0
  152.6250  145.7151  159.6631 H   0  0  0  0  0  0  0  0  0  0  0  0
  151.7106  145.4714  157.3617 H   0  0  0  0  0  0  0  0  0  0  0  0
  151.2686  143.2130  156.4300 H   0  0  0  0  0  0  0  0  0  0  0  0
  150.0224  142.2651  155.7818 H   0  0  0  0  0  0  0  0  0  0  0  0
  151.2434  141.1553  155.2285 H   0  0  0  0  0  0  0  0  0  0  0  0
  149.2487  139.4789  154.8403 H   0  0  0  0  0  0  0  0  0  0  0  0
  149.1515  140.2590  152.8542 H   0  0  0  0  0  0  0  0  0  0  0  0
  147.7568  141.6274  155.9765 H   0  0  0  0  0  0  0  0  0  0  0  0
  147.4497  141.7524  154.2678 H   0  0  0  0  0  0  0  0  0  0  0  0
  148.0925  138.9010  152.9065 H   0  0  0  0  0  0  0  0  0  0  0  0
  146.5846  138.2509  152.2781 H   0  0  0  0  0  0  0  0  0  0  0  0
  147.5610  140.5027  151.6828 H   0  0  0  0  0  0  0  0  0  0  0  0
  143.8589  137.1084  156.6958 H   0  0  0  0  0  0  0  0  0  0  0  0
  143.7383  138.0945  158.9733 H   0  0  0  0  0  0  0  0  0  0  0  0
  145.1205  140.0762  159.5601 H   0  0  0  0  0  0  0  0  0  0  0  0
  146.6400  141.0846  157.8619 H   0  0  0  0  0  0  0  0  0  0  0  0
  1  2  1  0  0  0  0
  1 25  1  0  0  0  0
  1 26  1  0  0  0  0
  1 27  1  0  0  0  0
  2  3  1  0  0  0  0
  2 10  1  0  0  0  0
  3  4  1  0  0  0  0
  3 28  1  0  0  0  0
  3 29  1  0  0  0  0
  4  9  1  0  0  0  0
  4  5  2  0  0  0  0
  5  6  1  0  0  0  0
  5 30  1  0  0  0  0
  6  7  2  0  0  0  0
  6 31  1  0  0  0  0
  7  8  1  0  0  0  0
  7 32  1  0  0  0  0
  8  9  2  0  0  0  0
  8 33  1  0  0  0  0
  9 34  1  0  0  0  0
 10 11  1  0  0  0  0
 10 35  1  0  0  0  0
 10 36  1  0  0  0  0
 11 12  1  0  0  0  0
 11 13  1  0  0  0  0
 11 37  1  0  0  0  0
 12 38  1  0  0  0  0
 13 14  1  0  0  0  0
 13 39  1  0  0  0  0
 13 40  1  0  0  0  0
 14 24  1  0  0  0  0
 14 15  1  0  0  0  0
 15 16  1  0  0  0  0
 15 18  2  0  0  0  0
 16 17  1  0  0  0  0
 16 41  1  0  0  0  0
 16 42  1  0  0  0  0
 17 43  1  0  0  0  0
 18 19  1  0  0  0  0
 19 24  2  0  0  0  0
 19 20  1  0  0  0  0
 20 21  2  0  0  0  0
 20 44  1  0  0  0  0
 21 22  1  0  0  0  0
 21 45  1  0  0  0  0
 22 23  2  0  0  0  0
 22 46  1  0  0  0  0
 23 24  1  0  0  0  0
 23 47  1  0  0  0  0
M  END
> <s_m_source_file>
AV-unprocessed.smi

> <i_m_source_file_index>
1669

> <i_lp_mmshare_version>
43012

> <i_f3d_flags>
0

> <s_epik_input>
W2NIXTFbY0hdW2NIXVtjSF1bY0hdYzFbQ0gyXU4oW0NIM10pW0NIMl1bQ0BIXShbT0hdKVtDSDJdbihjKG4yKVtDSDJdW09IXSljKGMyMylbY0hdW2NIXVtjSF1bY0hdMw==

> <s_epik_cmdline>
J2VwaWtfcHl0aG9uJywgJy1waCcsICc3LjAnLCAnLXRuJywgJzgnLCAnLW1hJywgJzIwMCcsICctbWV0YWxfYmluZGluZycsICctaW1hZScsICc8aW5maWxlLm1hZT4nLCAnLW9tYWUnLCAnPG91dGZpbGUubWFlPic=

> <r_epik_Ionization_Penalty>
1.56301

> <r_epik_Ionization_Penalty_Charging>
0

> <r_epik_Ionization_Penalty_Neutral>
1.56301

> <r_epik_State_Penalty>
1.64771

> <r_epik_Charging_Adjusted_Penalty>
1.64771

> <i_epik_Tot_Q>
0

> <i_epik_Tot_abs_Q>
0

> <r_epik_Metal_State_Penalty>
1.61258

> <b_epik_Metal_Only>
0

> <s_lp_Force_Field>
OPLS_2005

> <r_lp_Energy>
20.891

> <b_lp_Chiralities_Consistent>
1

> <s_lp_Variant>
AV-unprocessed.smi:1669-5

> <Gold.Version>
5.8.1

> <Gold.Id.Protein>
6NUR|6NUR_protein|mol2

> <Gold.PLP.Fitness>
46.7240

> <Gold.PLP.PLP>
-40.7843

> <Gold.PLP.part.hbond>
-4.1759

> <Gold.PLP.part.metal>
0.0000

> <Gold.PLP.part.buried>
-5.9557

> <Gold.PLP.part.nonpolar>
-30.1717

> <Gold.PLP.part.repulsive>
0.1044

> <Gold.PLP.ligand.clash>
0.0000

> <Gold.PLP.ligand.torsion>
1.4256

> <Gold.PLP.Chemscore.Hbond>
2.8000

> <Gold.PLP.Chemscore.CHOScore>
0.0000

> <Gold.PLP.Chemscore.Metal>
0.0000

> <Gold.Chemscore.Hbonds>
donor molecule, donor type, donor heavy atom, donor atom, acceptor molecule, acceptor atom, score
      L1  H    12    38       P1  7957  0.46
      L1  H    17    43       P1  7957  0.76
      P1  H  7989  7998       L1    12  0.29
      P1  H  8011  8017       L1    12  1.00

> <Gold.PLP.Chemscore.Internal.Correction>
0.3907

> <Gold.Rescore>
     Score         DG    S(hbond)    S(metal)    S(lipo)     H(rot)  DE(clash)    DE(int)     intcor
     16.43     -18.20       2.36        0.00     108.35       3.06       0.21       1.56       ----

> <Gold.Chemscore.Fitness>
16.4290

> <Gold.Chemscore.DG>
-18.1981

> <Gold.Chemscore.ZeroCoef>
-5.4800

> <Gold.Chemscore.Hbond>
2.3584

> <Gold.Chemscore.Metal>
0.0000

> <Gold.Chemscore.Lipo>
108.3491

> <Gold.Chemscore.Internal_Hbond>
0.0000

> <Gold.Chemscore.DEClash>
0.2115

> <Gold.Chemscore.DEInternal>
1.5575

> <Gold.Chemscore.Rot>
3.0609

> <Gold.Chemscore.Internal.Correction>
   9.000000E+99

> <Gold.Chemscore.Hbonds>
donor molecule, donor type, donor heavy atom, donor atom, acceptor molecule, acceptor atom, score
      L1  H    12    38       P1  7957  0.46
      L1  H    17    43       P1  7957  0.72
      P1  H  7989  7998       L1    12  0.11
      P1  H  8011  8017       L1    12  0.39

> <Gold.Chemscore.Hbond.Weighted>
-7.8771

> <Gold.Chemscore.Metal.Weighted>
-0.0000

> <Gold.Chemscore.Lipo.Weighted>
-12.6768

> <Gold.Chemscore.Internal_Hbond.Weighted>
0.0000

> <Gold.Chemscore.DEClash.Weighted>
0.2115

> <Gold.Chemscore.DEInternal.Weighted>
1.5575

> <Gold.Chemscore.Rot.Weighted>
7.8358

> <Gold.Chemscore.Internal.Correction.Weighted>
   9.000000E+99

> <Gold.Protein.RotatedTorsions>
[ 6907 6896 6895 6894 ] final   96.84 input  -60.11 | X-H torsion
[ 7974 7965 7964 7962 ] final  -64.94 input  175.53 | X-H torsion
[ 8008 7997 7996 7995 ] final   53.37 input   59.86 | X-H torsion
[ 10167 10162 10161 10158 ] final  -83.45 input  -65.29 | X-H torsion
[ 10718 10713 10712 10709 ] final  -69.31 input   66.30 | X-H torsion
[ 10763 10752 10751 10750 ] final  131.44 input  -60.55 | X-H torsion
[ 11005 11000 10999 10996 ] final   46.89 input  -57.11 | X-H torsion

> <Gold.Protein.ActiveResidues>
 VAL166  LYS551  ARG553  GLY616  TRP617  ASP618  TYR619  PRO620  LYS621  CYS622 
 ASP623  PHE694  ASN695  SER759  ASP760  ASP761  ALA762  ILE779  LEU786  VAL792 
 PHE793  MET794  SER795  GLU796  ALA797  LYS798  CYS799  TRP800  GLU811  SER814 

> <Gold.Protein.RotatedAtoms>
  152.5430  134.0825  159.8241 H   0  0  0  0  0  0  0  0  0  0  0  0  # atno 6907 bound_to 6896
  151.0925  133.5297  159.2621 H   0  0  0  0  0  0  0  0  0  0  0  0  # atno 6908 bound_to 6896
  151.2083  135.0480  159.8955 H   0  0  0  0  0  0  0  0  0  0  0  0  # atno 6909 bound_to 6896
  145.7605  140.8864  143.0432 H   0  0  0  0  0  0  0  0  0  0  0  0  # atno 7974 bound_to 7965
  155.4672  140.3464  155.4320 H   0  0  0  0  0  0  0  0  0  0  0  0  # atno 8008 bound_to 7997
  156.1123  140.1464  156.9350 H   0  0  0  0  0  0  0  0  0  0  0  0  # atno 8009 bound_to 7997
  154.4765  140.0883  156.7253 H   0  0  0  0  0  0  0  0  0  0  0  0  # atno 8010 bound_to 7997
  140.4226  143.2579  151.8869 H   0  0  0  0  0  0  0  0  0  0  0  0  # atno 10167 bound_to 10162
  156.0462  130.4310  150.2129 H   0  0  0  0  0  0  0  0  0  0  0  0  # atno 10718 bound_to 10713
  153.7744  135.3177  155.3357 H   0  0  0  0  0  0  0  0  0  0  0  0  # atno 10763 bound_to 10752
  154.8184  135.4620  154.0712 H   0  0  0  0  0  0  0  0  0  0  0  0  # atno 10764 bound_to 10752
  153.1982  135.6918  153.8350 H   0  0  0  0  0  0  0  0  0  0  0  0  # atno 10765 bound_to 10752
  140.1328  134.4683  155.8508 H   0  0  0  0  0  0  0  0  0  0  0  0  # atno 11005 bound_to 11000
  144.6831  139.9716  143.7482 LP  0  0  0  0  0  0  0  0  0  0  0  0  # atno 17320 bound_to 7965
  146.0268  139.3300  143.0779 LP  0  0  0  0  0  0  0  0  0  0  0  0  # atno 17321 bound_to 7965
  139.4783  144.5421  151.8512 LP  0  0  0  0  0  0  0  0  0  0  0  0  # atno 17342 bound_to 10162
  140.4517  144.1846  150.5898 LP  0  0  0  0  0  0  0  0  0  0  0  0  # atno 17343 bound_to 10162
  157.0218  130.9981  151.3337 LP  0  0  0  0  0  0  0  0  0  0  0  0  # atno 17370 bound_to 10713
  157.5339  130.8076  149.7948 LP  0  0  0  0  0  0  0  0  0  0  0  0  # atno 17371 bound_to 10713
  141.2173  133.6802  156.7102 LP  0  0  0  0  0  0  0  0  0  0  0  0  # atno 17394 bound_to 11000
  140.2820  134.8309  157.3941 LP  0  0  0  0  0  0  0  0  0  0  0  0  # atno 17395 bound_to 11000

$$$$
