#       Name:                AV-unprocessed.smi:2612
#       Creating user name   scv26
#       Creation time:       Fri Mar 27 14:21:50 2020


#       File generated by GOLD software.
#

@<TRIPOS>MOLECULE
AV-unprocessed.smi:2612
    45    46     1
SMALL
NO_CHARGES


@<TRIPOS>ATOM
      1 ****        -0.7298   2.9863  -3.0734 C.3            1 S1                 0.0000
      2 ****        -0.5014   1.5889  -2.9375 O.3            1 S1                 0.0000
      3 ****        -1.2843   0.8453  -1.9935 C.3            1 S1                 0.0000
      4 ****        -0.5327  -0.5087  -1.9017 C.3            1 S1                 0.0000
      5 ****         0.8584  -0.3641  -1.4771 N.pl3          1 S1                 0.0000
      6 ****         1.2595  -0.5888  -0.1521 C.ar           1 S1                 0.0000
      7 ****         2.4979  -0.0592   0.2711 C.ar           1 S1                 0.0000
      8 ****         2.9122  -0.2721   1.6007 C.ar           1 S1                 0.0000
      9 ****         2.0654  -1.0035   2.4550 C.ar           1 S1                 0.0000
     10 ****         2.5521  -1.3428   4.1403 S.o2           1 S1                 0.0000
     11 ****         3.5128  -2.9051   4.0106 C.3            1 S1                 0.0000
     12 ****         3.4696  -0.2776   4.5733 O.2            1 S1                 0.0000
     13 ****         1.3359  -1.6181   4.9205 O.2            1 S1                 0.0000
     14 ****         0.8551  -1.5113   1.9440 C.ar           1 S1                 0.0000
     15 ****         0.4578  -1.3080   0.6696 N.ar           1 S1                 0.0000
     16 ****        -1.4343   1.5412  -0.6144 C.3            1 S1                 0.0000
     17 ****        -2.4235   0.7905   0.2951 C.3            1 S1                 0.0000
     18 ****        -3.6871   0.6849  -0.3508 O.3            1 S1                 0.0000
     19 ****        -3.6349  -0.0658  -1.5589 C.3            1 S1                 0.0000
     20 ****        -2.7018   0.6245  -2.5714 C.3            1 S1                 0.0000
     21 ****        -0.1456   3.3578  -3.9148 H              1 S1                 0.0000
     22 ****        -0.3994   3.5324  -2.1900 H              1 S1                 0.0000
     23 ****        -1.7733   3.2274  -3.2699 H              1 S1                 0.0000
     24 ****        -1.0671  -1.2159  -1.2702 H              1 S1                 0.0000
     25 ****        -0.5114  -0.9695  -2.8897 H              1 S1                 0.0000
     26 ****         1.4530   0.2092  -2.0583 H              1 S1                 0.0000
     27 ****         3.1215   0.5035  -0.4083 H              1 S1                 0.0000
     28 ****         3.8567   0.1176   1.9505 H              1 S1                 0.0000
     29 ****         3.8522  -3.2046   5.0019 H              1 S1                 0.0000
     30 ****         4.3762  -2.7500   3.3640 H              1 S1                 0.0000
     31 ****         2.8811  -3.6883   3.5921 H              1 S1                 0.0000
     32 ****         0.1903  -2.0953   2.5629 H              1 S1                 0.0000
     33 ****        -0.4700   1.6537  -0.1200 H              1 S1                 0.0000
     34 ****        -1.8295   2.5491  -0.7371 H              1 S1                 0.0000
     35 ****        -2.0569  -0.2001   0.5624 H              1 S1                 0.0000
     36 ****        -2.5545   1.3366   1.2293 H              1 S1                 0.0000
     37 ****        -3.3173  -1.0882  -1.3526 H              1 S1                 0.0000
     38 ****        -4.6424  -0.1314  -1.9696 H              1 S1                 0.0000
     39 ****        -3.1569   1.5766  -2.8399 H              1 S1                 0.0000
     40 ****        -2.6520   0.0432  -3.4928 H              1 S1                 0.0000
     41 ****         0.4576   1.4724  -2.6792 LP             1 S1                 0.0000
     42 ****        -0.6570   1.1778  -3.8357 LP             1 S1                 0.0000
     43 ****        -0.4096  -1.6803   0.3395 LP             1 S1                 0.0000
     44 ****        -4.0146   1.6058  -0.5621 LP             1 S1                 0.0000
     45 ****        -4.3277   0.2385   0.2740 LP             1 S1                 0.0000
@<TRIPOS>BOND
    1    1    2 1     
    2    1   21 1     
    3    1   22 1     
    4    1   23 1     
    5    2    3 1     
    6    3   20 1     
    7    3    4 1     
    8    3   16 1     
    9    4    5 1     
   10    4   24 1     
   11    4   25 1     
   12    5    6 1     
   13    5   26 1     
   14    6   15 ar    
   15    6    7 ar    
   16    7    8 ar    
   17    7   27 1     
   18    8    9 ar    
   19    8   28 1     
   20    9   10 1     
   21    9   14 ar    
   22   10   11 1     
   23   10   12 2     
   24   10   13 2     
   25   11   29 1     
   26   11   30 1     
   27   11   31 1     
   28   14   15 ar    
   29   14   32 1     
   30   16   17 1     
   31   16   33 1     
   32   16   34 1     
   33   17   18 1     
   34   17   35 1     
   35   17   36 1     
   36   18   19 1     
   37   19   20 1     
   38   19   37 1     
   39   19   38 1     
   40   20   39 1     
   41   20   40 1     
   42    2   41 1     
   43    2   42 1     
   44   15   43 1     
   45   18   44 1     
   46   18   45 1     
@<TRIPOS>SUBSTRUCTURE
      1 S1             1
@<TRIPOS>SET
LONE_PAIRS      STATIC     ATOMS    <user>   **** ""
7 41 42 12 13 43 44 45
DONOR_HYDROGENS      STATIC     ATOMS    <user>   **** ""
1 26
ATOM$BLUE        STATIC     ATOMS    COLORGROUP SYSTEM
7 41 42 12 13 43 44 45
ATOM$RED        STATIC     ATOMS    COLORGROUP SYSTEM
1 26
