AV-unprocessed.smi:139|AV-procd|sdf|1182|dock9
  -GOLD-   2262018333D 1   1.00000     0.00000
 Structure written by MMmdl.
 50 53  0  0  0  0  0  0  0  0  1 V2000
  149.2726  136.8011  156.7267 O   0  0  0  0  0  0  0  0  0  0  0  0
  149.3335  136.8370  155.4971 C   0  0  0  0  0  0  0  0  0  0  0  0
  150.3990  137.6884  154.7925 C   0  0  0  0  0  0  0  0  0  0  0  0
  150.1972  139.1366  155.0147 N   0  0  0  0  0  0  0  0  0  0  0  0
  149.1181  139.7907  154.3695 C   0  0  0  0  0  0  0  0  0  0  0  0
  148.3560  139.1802  153.6188 O   0  0  0  0  0  0  0  0  0  0  0  0
  148.9796  141.2134  154.6610 C   0  0  0  0  0  0  0  0  0  0  0  0
  147.9972  141.9200  154.0766 F   0  0  0  0  0  0  0  0  0  0  0  0
  149.8251  141.8342  155.5089 C   0  0  0  0  0  0  0  0  0  0  0  0
  150.8590  141.1773  156.1495 N   0  0  0  0  0  0  0  0  0  0  0  0
  151.7779  141.9104  157.0990 C   0  0  1  0  0  0  0  0  0  0  0  0
  151.4888  143.4158  157.0630 C   0  0  0  0  0  0  0  0  0  0  0  0
  150.6216  143.6026  158.2897 C   0  0  0  0  0  0  0  0  0  0  0  0
  151.2006  142.5586  159.2364 C   0  0  0  0  0  0  0  0  0  0  0  0
  151.5367  141.4571  158.4000 O   0  0  0  0  0  0  0  0  0  0  0  0
  151.0762  139.8054  155.9006 C   0  0  0  0  0  0  0  0  0  0  0  0
  152.0084  139.2052  156.4406 O   0  0  0  0  0  0  0  0  0  0  0  0
  148.4997  136.1556  154.6975 N   0  0  0  0  0  0  0  0  0  0  0  0
  147.4469  135.2464  155.1429 C   0  0  2  0  0  0  0  0  0  0  0  0
  148.0520  134.0844  155.9562 C   0  0  0  0  0  0  0  0  0  0  0  0
  148.6122  132.9828  155.0518 C   0  0  0  0  0  0  0  0  0  0  0  0
  147.5157  132.3929  154.1569 C   0  0  0  0  0  0  0  0  0  0  0  0
  146.6501  133.4477  153.4841 C   0  0  0  0  0  0  0  0  0  0  0  0
  145.8627  133.0725  152.3752 C   0  0  0  0  0  0  0  0  0  0  0  0
  145.0403  134.0165  151.7319 C   0  0  0  0  0  0  0  0  0  0  0  0
  145.0006  135.3443  152.1949 C   0  0  0  0  0  0  0  0  0  0  0  0
  145.7816  135.7257  153.3017 C   0  0  0  0  0  0  0  0  0  0  0  0
  146.6064  134.7852  153.9565 C   0  0  0  0  0  0  0  0  0  0  0  0
  151.3934  137.3920  155.1322 H   0  0  0  0  0  0  0  0  0  0  0  0
  150.3916  137.4298  153.7330 H   0  0  0  0  0  0  0  0  0  0  0  0
  149.6793  142.8894  155.6861 H   0  0  0  0  0  0  0  0  0  0  0  0
  152.7986  141.6525  156.8128 H   0  0  0  0  0  0  0  0  0  0  0  0
  152.4315  143.9528  157.1751 H   0  0  0  0  0  0  0  0  0  0  0  0
  151.0141  143.7263  156.1312 H   0  0  0  0  0  0  0  0  0  0  0  0
  150.6620  144.6145  158.6937 H   0  0  0  0  0  0  0  0  0  0  0  0
  149.5822  143.3681  158.0575 H   0  0  0  0  0  0  0  0  0  0  0  0
  152.1099  142.9347  159.7076 H   0  0  0  0  0  0  0  0  0  0  0  0
  150.5033  142.2670  160.0221 H   0  0  0  0  0  0  0  0  0  0  0  0
  148.6180  136.2536  153.6996 H   0  0  0  0  0  0  0  0  0  0  0  0
  146.7736  135.7981  155.8020 H   0  0  0  0  0  0  0  0  0  0  0  0
  148.8160  134.4454  156.6462 H   0  0  0  0  0  0  0  0  0  0  0  0
  147.2710  133.6467  156.5791 H   0  0  0  0  0  0  0  0  0  0  0  0
  149.4046  133.4018  154.4306 H   0  0  0  0  0  0  0  0  0  0  0  0
  149.0722  132.1940  155.6476 H   0  0  0  0  0  0  0  0  0  0  0  0
  147.9652  131.7496  153.3994 H   0  0  0  0  0  0  0  0  0  0  0  0
  146.8602  131.7592  154.7554 H   0  0  0  0  0  0  0  0  0  0  0  0
  145.8863  132.0544  152.0149 H   0  0  0  0  0  0  0  0  0  0  0  0
  144.4402  133.7213  150.8839 H   0  0  0  0  0  0  0  0  0  0  0  0
  144.3713  136.0703  151.7018 H   0  0  0  0  0  0  0  0  0  0  0  0
  145.7476  136.7478  153.6503 H   0  0  0  0  0  0  0  0  0  0  0  0
  1  2  2  0  0  0  0
  2  3  1  0  0  0  0
  2 18  1  0  0  0  0
  3  4  1  0  0  0  0
  3 29  1  0  0  0  0
  3 30  1  0  0  0  0
  4 16  1  0  0  0  0
  4  5  1  0  0  0  0
  5  6  2  0  0  0  0
  5  7  1  0  0  0  0
  7  8  1  0  0  0  0
  7  9  2  0  0  0  0
  9 10  1  0  0  0  0
  9 31  1  0  0  0  0
 10 11  1  0  0  0  0
 10 16  1  0  0  0  0
 11 15  1  0  0  0  0
 11 12  1  0  0  0  0
 11 32  1  0  0  0  0
 12 13  1  0  0  0  0
 12 33  1  0  0  0  0
 12 34  1  0  0  0  0
 13 14  1  0  0  0  0
 13 35  1  0  0  0  0
 13 36  1  0  0  0  0
 14 15  1  0  0  0  0
 14 37  1  0  0  0  0
 14 38  1  0  0  0  0
 16 17  2  0  0  0  0
 18 19  1  0  0  0  0
 18 39  1  0  0  0  0
 19 28  1  0  0  0  0
 19 20  1  0  0  0  0
 19 40  1  0  0  0  0
 20 21  1  0  0  0  0
 20 41  1  0  0  0  0
 20 42  1  0  0  0  0
 21 22  1  0  0  0  0
 21 43  1  0  0  0  0
 21 44  1  0  0  0  0
 22 23  1  0  0  0  0
 22 45  1  0  0  0  0
 22 46  1  0  0  0  0
 23 28  2  0  0  0  0
 23 24  1  0  0  0  0
 24 25  2  0  0  0  0
 24 47  1  0  0  0  0
 25 26  1  0  0  0  0
 25 48  1  0  0  0  0
 26 27  2  0  0  0  0
 26 49  1  0  0  0  0
 27 28  1  0  0  0  0
 27 50  1  0  0  0  0
M  END
> <s_m_source_file>
AV-unprocessed.smi

> <i_m_source_file_index>
139

> <i_lp_mmshare_version>
43012

> <i_f3d_flags>
0

> <s_epik_input>
W2NIXTFbY0hdW2NIXVtjSF1jKGMxMilbQ0BASF0oW0NIMl1bQ0gyXVtDSDJdMilbTkhdQyg9TylbQ0gyXW4zYyg9TyljKEYpW2NIXW4oYzM9TylbQ0BASF00W0NIMl1bQ0gyXVtDSDJdTzQ=

> <s_epik_cmdline>
J2VwaWtfcHl0aG9uJywgJy1waCcsICc3LjAnLCAnLXRuJywgJzgnLCAnLW1hJywgJzIwMCcsICctbWV0YWxfYmluZGluZycsICctaW1hZScsICc8aW5maWxlLm1hZT4nLCAnLW9tYWUnLCAnPG91dGZpbGUubWFlPic=

> <r_lp_tautomer_probability>
1

> <r_epik_Ionization_Penalty>
3.261e-08

> <r_epik_Ionization_Penalty_Charging>
3.6725e-09

> <r_epik_Ionization_Penalty_Neutral>
2.89375e-08

> <r_epik_State_Penalty>
-0

> <r_epik_Charging_Adjusted_Penalty>
3.6725e-09

> <i_epik_Tot_Q>
0

> <i_epik_Tot_abs_Q>
0

> <r_epik_Metal_State_Penalty>
-0

> <b_epik_Metal_Only>
0

> <s_epik_Chemistry_Notes>
This compound contains an acetal/aminal-like group ( X-CH(R)-Y where X, Y are N, S, or O) that may be acid/base labile, releasing an aldehyde.

> <s_lp_Force_Field>
OPLS_2005

> <r_lp_Energy>
30.9445

> <b_lp_Chiralities_Consistent>
1

> <s_lp_Variant>
AV-unprocessed.smi:139-2

> <Gold.Version>
5.8.1

> <Gold.Id.Protein>
6NUR|6NUR_protein|mol2

> <Gold.PLP.Fitness>
52.7133

> <Gold.PLP.PLP>
-44.3861

> <Gold.PLP.part.hbond>
-1.9724

> <Gold.PLP.part.metal>
0.0000

> <Gold.PLP.part.buried>
-3.0375

> <Gold.PLP.part.nonpolar>
-39.5786

> <Gold.PLP.part.repulsive>
1.4660

> <Gold.PLP.ligand.clash>
0.0000

> <Gold.PLP.ligand.torsion>
0.3549

> <Gold.PLP.Chemscore.Hbond>
2.0000

> <Gold.PLP.Chemscore.CHOScore>
1.0000

> <Gold.PLP.Chemscore.Metal>
0.0000

> <Gold.Chemscore.Hbonds>
donor molecule, donor type, donor heavy atom, donor atom, acceptor molecule, acceptor atom, score
      L1  H    18    39       P1  7948  1.00
      L1  C     9    31       P1  8028  0.91

> <Gold.PLP.Chemscore.Internal.Correction>
0.0371

> <Gold.Rescore>
     Score         DG    S(hbond)    S(metal)    S(lipo)     H(rot)  DE(clash)    DE(int)     intcor
     15.37     -17.12       1.95        0.00      83.74       1.82       0.38       1.37       ----

> <Gold.Chemscore.Fitness>
15.3661

> <Gold.Chemscore.DG>
-17.1221

> <Gold.Chemscore.ZeroCoef>
-5.4800

> <Gold.Chemscore.Hbond>
1.9452

> <Gold.Chemscore.Metal>
0.0000

> <Gold.Chemscore.Lipo>
83.7390

> <Gold.Chemscore.Internal_Hbond>
0.0000

> <Gold.Chemscore.DEClash>
0.3833

> <Gold.Chemscore.DEInternal>
1.3727

> <Gold.Chemscore.Rot>
1.8174

> <Gold.Chemscore.Internal.Correction>
   9.000000E+99

> <Gold.Chemscore.Hbonds>
donor molecule, donor type, donor heavy atom, donor atom, acceptor molecule, acceptor atom, score
      L1  H    18    39       P1  7948  1.00
      P1  H  7997  8010       L1    17  0.01

> <Gold.Chemscore.Hbond.Weighted>
-6.4971

> <Gold.Chemscore.Metal.Weighted>
-0.0000

> <Gold.Chemscore.Lipo.Weighted>
-9.7975

> <Gold.Chemscore.Internal_Hbond.Weighted>
0.0000

> <Gold.Chemscore.DEClash.Weighted>
0.3833

> <Gold.Chemscore.DEInternal.Weighted>
1.3727

> <Gold.Chemscore.Rot.Weighted>
4.6524

> <Gold.Chemscore.Internal.Correction.Weighted>
   9.000000E+99

> <Gold.Protein.RotatedTorsions>
[ 6907 6896 6895 6894 ] final  -75.19 input  -60.11 | X-H torsion
[ 7974 7965 7964 7962 ] final -160.01 input  175.53 | X-H torsion
[ 8008 7997 7996 7995 ] final   78.84 input   59.86 | X-H torsion
[ 10167 10162 10161 10158 ] final   36.09 input  -65.29 | X-H torsion
[ 10718 10713 10712 10709 ] final  -40.51 input   66.30 | X-H torsion
[ 10763 10752 10751 10750 ] final   95.86 input  -60.55 | X-H torsion
[ 11005 11000 10999 10996 ] final   77.48 input  -57.11 | X-H torsion

> <Gold.Protein.ActiveResidues>
 VAL166  LYS551  ARG553  GLY616  TRP617  ASP618  TYR619  PRO620  LYS621  CYS622 
 ASP623  PHE694  ASN695  SER759  ASP760  ASP761  ALA762  ILE779  LEU786  VAL792 
 PHE793  MET794  SER795  GLU796  ALA797  LYS798  CYS799  TRP800  GLU811  SER814 

> <Gold.Protein.RotatedAtoms>
  150.7067  134.4758  159.5446 H   0  0  0  0  0  0  0  0  0  0  0  0  # atno 6907 bound_to 6896
  152.2405  134.8230  160.0470 H   0  0  0  0  0  0  0  0  0  0  0  0  # atno 6908 bound_to 6896
  151.9013  133.3504  159.3868 H   0  0  0  0  0  0  0  0  0  0  0  0  # atno 6909 bound_to 6896
  144.7443  140.3603  143.6097 H   0  0  0  0  0  0  0  0  0  0  0  0  # atno 7974 bound_to 7965
  155.8613  140.3453  155.5758 H   0  0  0  0  0  0  0  0  0  0  0  0  # atno 8008 bound_to 7997
  155.7930  140.0874  157.2018 H   0  0  0  0  0  0  0  0  0  0  0  0  # atno 8009 bound_to 7997
  154.4012  140.1479  156.3172 H   0  0  0  0  0  0  0  0  0  0  0  0  # atno 8010 bound_to 7997
  140.4161  144.1525  150.6143 H   0  0  0  0  0  0  0  0  0  0  0  0  # atno 10167 bound_to 10162
  156.2805  130.4216  149.8342 H   0  0  0  0  0  0  0  0  0  0  0  0  # atno 10718 bound_to 10713
  153.2582  135.4239  155.0867 H   0  0  0  0  0  0  0  0  0  0  0  0  # atno 10763 bound_to 10752
  154.8409  135.3442  154.6416 H   0  0  0  0  0  0  0  0  0  0  0  0  # atno 10764 bound_to 10752
  153.6836  135.7037  153.5167 H   0  0  0  0  0  0  0  0  0  0  0  0  # atno 10765 bound_to 10752
  139.9253  134.7686  156.1527 H   0  0  0  0  0  0  0  0  0  0  0  0  # atno 11005 bound_to 11000
  145.7184  139.1703  143.2499 LP  0  0  0  0  0  0  0  0  0  0  0  0  # atno 17320 bound_to 7965
  146.1295  140.7204  142.9419 LP  0  0  0  0  0  0  0  0  0  0  0  0  # atno 17321 bound_to 7965
  140.4585  143.2458  151.9252 LP  0  0  0  0  0  0  0  0  0  0  0  0  # atno 17342 bound_to 10162
  139.4782  144.5491  151.8413 LP  0  0  0  0  0  0  0  0  0  0  0  0  # atno 17343 bound_to 10162
  156.5791  130.8458  151.3378 LP  0  0  0  0  0  0  0  0  0  0  0  0  # atno 17370 bound_to 10713
  157.7313  130.9698  150.1872 LP  0  0  0  0  0  0  0  0  0  0  0  0  # atno 17371 bound_to 10713
  141.0805  133.6756  156.2327 LP  0  0  0  0  0  0  0  0  0  0  0  0  # atno 17394 bound_to 11000
  140.6355  134.5220  157.5564 LP  0  0  0  0  0  0  0  0  0  0  0  0  # atno 17395 bound_to 11000

$$$$
