#       Name:                AV-unprocessed.smi:1842
#       Creating user name   scv26
#       Creation time:       Fri Mar 27 09:20:15 2020


#       File generated by GOLD software.
#

@<TRIPOS>MOLECULE
AV-unprocessed.smi:1842
    41    42     1
SMALL
NO_CHARGES


@<TRIPOS>ATOM
      1 ****        -1.9525   2.1615  -0.6972 O.2            1 S1                 0.0000
      2 ****        -1.3698   1.1856  -1.1696 C.2            1 S1                 0.0000
      3 ****         0.1567   1.1732  -1.2665 C.3            1 S1                 0.0000
      4 ****         0.8228   1.3784   0.1060 C.3            1 S1                 0.0000
      5 ****         2.3602   1.3697   0.0402 C.3            1 S1                 0.0000
      6 ****         2.9744   0.0182  -0.3372 C.3            1 S1                 0.0000
      7 ****         4.4303   0.1014   0.1329 C.3            1 S1                 0.0000
      8 ****         4.4604   1.1529   1.2526 C.3            1 S1                 0.0000
      9 ****         3.0288   1.6866   1.3804 C.3            1 S1                 0.0000
     10 ****        -2.0043   0.0904  -1.6140 N.am           1 S1                 0.0000
     11 ****        -3.4461  -0.1318  -1.5593 C.3            1 S1                 0.0000
     12 ****        -3.9485  -0.4090  -0.1288 C.3            1 S1                 0.0000
     13 ****        -3.3192  -1.5760   0.4608 N.pl3          1 S1                 0.0000
     14 ****        -3.6517  -2.9070   0.2469 C.2            1 S1                 0.0000
     15 ****        -2.7831  -3.6558   1.0087 C.2            1 S1                 0.0000
     16 ****        -1.9135  -2.8114   1.6954 N.2            1 S1                 0.0000
     17 ****        -2.2929  -1.5960   1.3228 C.2            1 S1                 0.0000
     18 ****         0.4874   0.2315  -1.7072 H              1 S1                 0.0000
     19 ****         0.4647   1.9632  -1.9522 H              1 S1                 0.0000
     20 ****         0.4981   2.3321   0.5250 H              1 S1                 0.0000
     21 ****         0.4808   0.6096   0.8011 H              1 S1                 0.0000
     22 ****         2.6903   2.1148  -0.6856 H              1 S1                 0.0000
     23 ****         2.4653  -0.7844   0.1987 H              1 S1                 0.0000
     24 ****         2.8976  -0.1964  -1.4034 H              1 S1                 0.0000
     25 ****         4.7972  -0.8685   0.4703 H              1 S1                 0.0000
     26 ****         5.0696   0.4237  -0.6899 H              1 S1                 0.0000
     27 ****         4.8111   0.7328   2.1959 H              1 S1                 0.0000
     28 ****         5.1422   1.9603   0.9825 H              1 S1                 0.0000
     29 ****         3.0008   2.7502   1.6190 H              1 S1                 0.0000
     30 ****         2.5168   1.1561   2.1847 H              1 S1                 0.0000
     31 ****        -1.4433  -0.6602  -1.9905 H              1 S1                 0.0000
     32 ****        -3.9653   0.7315  -1.9780 H              1 S1                 0.0000
     33 ****        -3.6841  -0.9769  -2.2058 H              1 S1                 0.0000
     34 ****        -3.7736   0.4512   0.5189 H              1 S1                 0.0000
     35 ****        -5.0266  -0.5723  -0.1402 H              1 S1                 0.0000
     36 ****        -4.4545  -3.2029  -0.4123 H              1 S1                 0.0000
     37 ****        -2.7168  -4.7287   1.1141 H              1 S1                 0.0000
     38 ****        -1.8095  -0.6985   1.6810 H              1 S1                 0.0000
     39 ****        -1.4278   2.9496  -0.3753 LP             1 S1                 0.0000
     40 ****        -2.9506   2.1663  -0.6353 LP             1 S1                 0.0000
     41 ****        -1.1760  -3.0626   2.3223 LP             1 S1                 0.0000
@<TRIPOS>BOND
    1    1    2 2     
    2    2    3 1     
    3    2   10 am    
    4    3    4 1     
    5    3   18 1     
    6    3   19 1     
    7    4    5 1     
    8    4   20 1     
    9    4   21 1     
   10    5    9 1     
   11    5    6 1     
   12    5   22 1     
   13    6    7 1     
   14    6   23 1     
   15    6   24 1     
   16    7    8 1     
   17    7   25 1     
   18    7   26 1     
   19    8    9 1     
   20    8   27 1     
   21    8   28 1     
   22    9   29 1     
   23    9   30 1     
   24   10   11 1     
   25   10   31 1     
   26   11   12 1     
   27   11   32 1     
   28   11   33 1     
   29   12   13 1     
   30   12   34 1     
   31   12   35 1     
   32   13   17 1     
   33   13   14 1     
   34   14   15 2     
   35   14   36 1     
   36   15   16 1     
   37   15   37 1     
   38   16   17 2     
   39   17   38 1     
   40    1   39 1     
   41    1   40 1     
   42   16   41 1     
@<TRIPOS>SUBSTRUCTURE
      1 S1             1
@<TRIPOS>SET
LONE_PAIRS      STATIC     ATOMS    <user>   **** ""
3 39 40 41
DONOR_HYDROGENS      STATIC     ATOMS    <user>   **** ""
1 31
ATOM$BLUE        STATIC     ATOMS    COLORGROUP SYSTEM
3 39 40 41
ATOM$RED        STATIC     ATOMS    COLORGROUP SYSTEM
1 31
