AV-unprocessed.smi:3038|AV-procd|sdf|11590|dock1
  -GOLD-   2272016563D 1   1.00000     0.00000
 Structure written by MMmdl.
 36 38  0  0  0  0  0  0  0  0  1 V2000
  150.5207  139.9641  155.0444 O   0  0  0  0  0  0  0  0  0  0  0  0
  149.7457  140.9207  155.0484 C   0  0  0  0  0  0  0  0  0  0  0  0
  148.5139  140.9068  154.1441 C   0  0  0  0  0  0  0  0  0  0  0  0
  147.3203  141.2292  154.9017 N   0  0  0  0  0  0  0  0  0  0  0  0
  146.0350  141.2539  154.5436 C   0  0  0  0  0  0  0  0  0  0  0  0
  145.2545  141.6208  155.5486 N   0  0  0  0  0  0  0  0  0  0  0  0
  146.1514  141.8313  156.5828 N   0  0  0  0  0  0  0  0  0  0  0  0
  147.3789  141.6015  156.2047 N   0  0  0  0  0  0  0  0  0  0  0  0
  149.9200  142.0148  155.8058 N   0  0  0  0  0  0  0  0  0  0  0  0
  151.0473  142.2444  156.7037 C   0  0  0  0  0  0  0  0  0  0  0  0
  151.2382  141.0343  157.6306 C   0  0  0  0  0  0  0  0  0  0  0  0
  152.3366  141.3093  158.6729 C   0  0  0  0  0  0  0  0  0  0  0  0
  151.9935  142.4879  159.4690 N   0  0  0  0  0  0  0  0  0  0  0  0
  153.0268  142.6932  160.4708 C   0  0  0  0  0  0  0  0  0  0  0  0
  152.9562  141.8579  161.7289 C   0  0  0  0  0  0  0  0  0  0  0  0
  152.6160  143.3277  161.7799 C   0  0  0  0  0  0  0  0  0  0  0  0
  151.9271  143.6694  158.6084 C   0  0  0  0  0  0  0  0  0  0  0  0
  150.8150  143.5026  157.5581 C   0  0  0  0  0  0  0  0  0  0  0  0
  148.6317  141.6408  153.3458 H   0  0  0  0  0  0  0  0  0  0  0  0
  148.3931  139.9312  153.6704 H   0  0  0  0  0  0  0  0  0  0  0  0
  145.6756  141.0088  153.5551 H   0  0  0  0  0  0  0  0  0  0  0  0
  149.2336  142.7527  155.7391 H   0  0  0  0  0  0  0  0  0  0  0  0
  151.9606  142.3738  156.1194 H   0  0  0  0  0  0  0  0  0  0  0  0
  150.3031  140.8025  158.1431 H   0  0  0  0  0  0  0  0  0  0  0  0
  151.4987  140.1514  157.0455 H   0  0  0  0  0  0  0  0  0  0  0  0
  152.4394  140.4443  159.3294 H   0  0  0  0  0  0  0  0  0  0  0  0
  153.2998  141.4533  158.1805 H   0  0  0  0  0  0  0  0  0  0  0  0
  154.0330  142.9386  160.1344 H   0  0  0  0  0  0  0  0  0  0  0  0
  152.1355  141.1497  161.8259 H   0  0  0  0  0  0  0  0  0  0  0  0
  153.8972  141.5438  162.1758 H   0  0  0  0  0  0  0  0  0  0  0  0
  153.3306  143.9934  162.2595 H   0  0  0  0  0  0  0  0  0  0  0  0
  151.5692  143.5952  161.9115 H   0  0  0  0  0  0  0  0  0  0  0  0
  151.7219  144.5511  159.2168 H   0  0  0  0  0  0  0  0  0  0  0  0
  152.8884  143.8347  158.1191 H   0  0  0  0  0  0  0  0  0  0  0  0
  150.7751  144.3877  156.9223 H   0  0  0  0  0  0  0  0  0  0  0  0
  149.8484  143.4395  158.0606 H   0  0  0  0  0  0  0  0  0  0  0  0
  1  2  2  0  0  0  0
  2  3  1  0  0  0  0
  2  9  1  0  0  0  0
  3  4  1  0  0  0  0
  3 19  1  0  0  0  0
  3 20  1  0  0  0  0
  4  8  1  0  0  0  0
  4  5  1  0  0  0  0
  5  6  2  0  0  0  0
  5 21  1  0  0  0  0
  6  7  1  0  0  0  0
  7  8  2  0  0  0  0
  9 10  1  0  0  0  0
  9 22  1  0  0  0  0
 10 18  1  0  0  0  0
 10 11  1  0  0  0  0
 10 23  1  0  0  0  0
 11 12  1  0  0  0  0
 11 24  1  0  0  0  0
 11 25  1  0  0  0  0
 12 13  1  0  0  0  0
 12 26  1  0  0  0  0
 12 27  1  0  0  0  0
 13 14  1  0  0  0  0
 13 17  1  0  0  0  0
 14 16  1  0  0  0  0
 14 15  1  0  0  0  0
 14 28  1  0  0  0  0
 15 16  1  0  0  0  0
 15 29  1  0  0  0  0
 15 30  1  0  0  0  0
 16 31  1  0  0  0  0
 16 32  1  0  0  0  0
 17 18  1  0  0  0  0
 17 33  1  0  0  0  0
 17 34  1  0  0  0  0
 18 35  1  0  0  0  0
 18 36  1  0  0  0  0
M  END
> <s_m_source_file>
AV-unprocessed.smi

> <i_m_source_file_index>
3038

> <i_lp_mmshare_version>
43012

> <i_f3d_flags>
0

> <s_epik_input>
bjFubltjSF1uMVtDSDJdQyg9TylbTkhdW0NIXTJbQ0gyXVtDSDJdTihbQ0gyXVtDSDJdMilbQ0hdM1tDSDJdW0NIMl0z

> <s_epik_cmdline>
J2VwaWtfcHl0aG9uJywgJy1waCcsICc3LjAnLCAnLXRuJywgJzgnLCAnLW1hJywgJzIwMCcsICctbWV0YWxfYmluZGluZycsICctaW1hZScsICc8aW5maWxlLm1hZT4nLCAnLW9tYWUnLCAnPG91dGZpbGUubWFlPic=

> <r_lp_tautomer_probability>
1

> <r_epik_Ionization_Penalty>
0.571582

> <r_epik_Ionization_Penalty_Charging>
0

> <r_epik_Ionization_Penalty_Neutral>
0.571582

> <r_epik_State_Penalty>
0.583583

> <r_epik_Charging_Adjusted_Penalty>
0.583583

> <i_epik_Tot_Q>
0

> <i_epik_Tot_abs_Q>
0

> <r_epik_Metal_State_Penalty>
0.583583

> <b_epik_Metal_Only>
0

> <s_lp_Force_Field>
OPLS_2005

> <r_lp_Energy>
22.674

> <b_lp_Chiralities_Consistent>
1

> <s_lp_Variant>
AV-unprocessed.smi:3038-3

> <Gold.Version>
5.8.1

> <Gold.Id.Protein>
6NUR|6NUR_protein|mol2

> <Gold.PLP.Fitness>
44.9049

> <Gold.PLP.PLP>
-36.7379

> <Gold.PLP.part.hbond>
-2.0000

> <Gold.PLP.part.metal>
0.0000

> <Gold.PLP.part.buried>
-3.9738

> <Gold.PLP.part.nonpolar>
-31.1970

> <Gold.PLP.part.repulsive>
0.5568

> <Gold.PLP.ligand.clash>
0.0000

> <Gold.PLP.ligand.torsion>
0.7649

> <Gold.PLP.Chemscore.Hbond>
1.9760

> <Gold.PLP.Chemscore.CHOScore>
0.8583

> <Gold.PLP.Chemscore.Metal>
0.0000

> <Gold.Chemscore.Hbonds>
donor molecule, donor type, donor heavy atom, donor atom, acceptor molecule, acceptor atom, score
      L1  H     9    22       P1  8028  0.94
      P1  H  7989  7998       L1     1  0.41
      L1  C     5    21       P1 10175  1.00

> <Gold.PLP.Chemscore.Internal.Correction>
1.1938

> <Gold.Rescore>
     Score         DG    S(hbond)    S(metal)    S(lipo)     H(rot)  DE(clash)    DE(int)     intcor
     13.90     -15.85       1.66        0.00      89.51       2.21       0.04       1.91       ----

> <Gold.Chemscore.Fitness>
13.8966

> <Gold.Chemscore.DG>
-15.8477

> <Gold.Chemscore.ZeroCoef>
-5.4800

> <Gold.Chemscore.Hbond>
1.6616

> <Gold.Chemscore.Metal>
0.0000

> <Gold.Chemscore.Lipo>
89.5139

> <Gold.Chemscore.Internal_Hbond>
0.0000

> <Gold.Chemscore.DEClash>
0.0376

> <Gold.Chemscore.DEInternal>
1.9135

> <Gold.Chemscore.Rot>
2.2090

> <Gold.Chemscore.Internal.Correction>
   9.000000E+99

> <Gold.Chemscore.Hbonds>
donor molecule, donor type, donor heavy atom, donor atom, acceptor molecule, acceptor atom, score
      L1  H     9    22       P1  8028  0.87
      P1  H  7989  7998       L1     1  0.02

> <Gold.Chemscore.Hbond.Weighted>
-5.5497

> <Gold.Chemscore.Metal.Weighted>
-0.0000

> <Gold.Chemscore.Lipo.Weighted>
-10.4731

> <Gold.Chemscore.Internal_Hbond.Weighted>
0.0000

> <Gold.Chemscore.DEClash.Weighted>
0.0376

> <Gold.Chemscore.DEInternal.Weighted>
1.9135

> <Gold.Chemscore.Rot.Weighted>
5.6551

> <Gold.Chemscore.Internal.Correction.Weighted>
   9.000000E+99

> <Gold.Protein.RotatedTorsions>
[ 6907 6896 6895 6894 ] final  106.52 input  -60.11 | X-H torsion
[ 7974 7965 7964 7962 ] final  116.26 input  175.53 | X-H torsion
[ 8008 7997 7996 7995 ] final   28.48 input   59.86 | X-H torsion
[ 10167 10162 10161 10158 ] final   87.25 input  -65.29 | X-H torsion
[ 10718 10713 10712 10709 ] final -163.62 input   66.30 | X-H torsion
[ 10763 10752 10751 10750 ] final  145.62 input  -60.55 | X-H torsion
[ 11005 11000 10999 10996 ] final  -68.81 input  -57.11 | X-H torsion

> <Gold.Protein.ActiveResidues>
 VAL166  LYS551  ARG553  GLY616  TRP617  ASP618  TYR619  PRO620  LYS621  CYS622 
 ASP623  PHE694  ASN695  SER759  ASP760  ASP761  ALA762  ILE779  LEU786  VAL792 
 PHE793  MET794  SER795  GLU796  ALA797  LYS798  CYS799  TRP800  GLU811  SER814 

> <Gold.Protein.RotatedAtoms>
  152.5190  133.9369  159.7607 H   0  0  0  0  0  0  0  0  0  0  0  0  # atno 6907 bound_to 6896
  150.9707  133.6339  159.2745 H   0  0  0  0  0  0  0  0  0  0  0  0  # atno 6908 bound_to 6896
  151.3551  135.0898  159.9469 H   0  0  0  0  0  0  0  0  0  0  0  0  # atno 6909 bound_to 6896
  145.1818  139.3046  143.4414 H   0  0  0  0  0  0  0  0  0  0  0  0  # atno 7974 bound_to 7965
  155.0594  140.3188  155.4665 H   0  0  0  0  0  0  0  0  0  0  0  0  # atno 8008 bound_to 7997
  156.2816  140.2131  156.5665 H   0  0  0  0  0  0  0  0  0  0  0  0  # atno 8009 bound_to 7997
  154.7145  140.0495  157.0569 H   0  0  0  0  0  0  0  0  0  0  0  0  # atno 8010 bound_to 7997
  139.8793  144.6449  150.8861 H   0  0  0  0  0  0  0  0  0  0  0  0  # atno 10167 bound_to 10162
  156.6274  130.8915  151.2970 H   0  0  0  0  0  0  0  0  0  0  0  0  # atno 10718 bound_to 10713
  154.0083  135.2917  155.3395 H   0  0  0  0  0  0  0  0  0  0  0  0  # atno 10763 bound_to 10752
  154.7118  135.5146  153.8681 H   0  0  0  0  0  0  0  0  0  0  0  0  # atno 10764 bound_to 10752
  153.0734  135.6655  154.0318 H   0  0  0  0  0  0  0  0  0  0  0  0  # atno 10765 bound_to 10752
  141.1540  133.6749  156.6502 H   0  0  0  0  0  0  0  0  0  0  0  0  # atno 11005 bound_to 11000
  146.3452  140.2000  142.8589 LP  0  0  0  0  0  0  0  0  0  0  0  0  # atno 17320 bound_to 7965
  145.0128  140.8729  143.5213 LP  0  0  0  0  0  0  0  0  0  0  0  0  # atno 17321 bound_to 7965
  140.7747  143.3599  151.1848 LP  0  0  0  0  0  0  0  0  0  0  0  0  # atno 17342 bound_to 10162
  139.7211  143.9222  152.2985 LP  0  0  0  0  0  0  0  0  0  0  0  0  # atno 17343 bound_to 10162
  157.7210  130.9559  150.1439 LP  0  0  0  0  0  0  0  0  0  0  0  0  # atno 17370 bound_to 10713
  156.2263  130.3678  149.8497 LP  0  0  0  0  0  0  0  0  0  0  0  0  # atno 17371 bound_to 10713
  140.3326  134.7916  157.4337 LP  0  0  0  0  0  0  0  0  0  0  0  0  # atno 17394 bound_to 11000
  140.1004  134.5480  155.8358 LP  0  0  0  0  0  0  0  0  0  0  0  0  # atno 17395 bound_to 11000

$$$$
