AV-unprocessed.smi:2457|AV-procd|sdf|9705|dock10
  -GOLD-   2272013343D 1   1.00000     0.00000
 Structure written by MMmdl.
 40 41  0  0  0  0  0  0  0  0  1 V2000
  153.1519  141.7549  160.7834 C   0  0  0  0  0  0  0  0  0  0  0  0
  152.6179  142.4401  159.5653 C   0  0  0  0  0  0  0  0  0  0  0  0
  152.8052  143.7514  159.2061 C   0  0  0  0  0  0  0  0  0  0  0  0
  152.0098  144.1332  157.7040 S   0  0  0  0  0  0  0  0  0  0  0  0
  151.4437  142.4683  157.6156 C   0  0  0  0  0  0  0  0  0  0  0  0
  150.5833  141.9545  156.5011 C   0  0  1  0  0  0  0  0  0  0  0  0
  151.2191  140.7556  155.7829 C   0  0  0  0  0  0  0  0  0  0  0  0
  149.1220  141.6944  156.9308 C   0  0  0  0  0  0  0  0  0  0  0  0
  148.5303  142.8210  157.6480 N   0  0  0  0  0  0  0  0  0  0  0  0
  147.5582  142.7217  158.5645 C   0  0  0  0  0  0  0  0  0  0  0  0
  147.0745  141.6549  158.9436 O   0  0  0  0  0  0  0  0  0  0  0  0
  147.1599  143.9251  158.9989 N   0  0  0  0  0  0  0  0  0  0  0  0
  146.0794  144.1590  159.9521 C   0  0  2  0  0  0  0  0  0  0  0  0
  146.4574  143.5782  161.3308 C   0  0  0  0  0  0  0  0  0  0  0  0
  145.3829  143.8409  162.3977 C   0  0  0  0  0  0  0  0  0  0  0  0
  144.0329  143.2050  162.0369 C   0  0  0  0  0  0  0  0  0  0  0  0
  143.3706  143.8968  160.4969 S   0  0  0  0  0  0  0  0  0  0  0  0
  144.7788  143.5413  159.4098 C   0  0  0  0  0  0  0  0  0  0  0  0
  151.8362  141.7244  158.6544 N   0  0  0  0  0  0  0  0  0  0  0  0
  153.7782  142.4232  161.3748 H   0  0  0  0  0  0  0  0  0  0  0  0
  153.7577  140.8896  160.5135 H   0  0  0  0  0  0  0  0  0  0  0  0
  152.3430  141.4061  161.4256 H   0  0  0  0  0  0  0  0  0  0  0  0
  153.3620  144.5135  159.7308 H   0  0  0  0  0  0  0  0  0  0  0  0
  150.5498  142.7540  155.7601 H   0  0  0  0  0  0  0  0  0  0  0  0
  152.2107  141.0057  155.4047 H   0  0  0  0  0  0  0  0  0  0  0  0
  150.6117  140.4398  154.9344 H   0  0  0  0  0  0  0  0  0  0  0  0
  151.3233  139.9018  156.4531 H   0  0  0  0  0  0  0  0  0  0  0  0
  148.5074  141.4377  156.0667 H   0  0  0  0  0  0  0  0  0  0  0  0
  149.0866  140.8341  157.5995 H   0  0  0  0  0  0  0  0  0  0  0  0
  148.8602  143.7421  157.3995 H   0  0  0  0  0  0  0  0  0  0  0  0
  147.6171  144.7420  158.6211 H   0  0  0  0  0  0  0  0  0  0  0  0
  145.9255  145.2355  160.0509 H   0  0  0  0  0  0  0  0  0  0  0  0
  146.6336  142.5050  161.2458 H   0  0  0  0  0  0  0  0  0  0  0  0
  147.3984  144.0143  161.6684 H   0  0  0  0  0  0  0  0  0  0  0  0
  145.7232  143.4426  163.3540 H   0  0  0  0  0  0  0  0  0  0  0  0
  145.2591  144.9153  162.5404 H   0  0  0  0  0  0  0  0  0  0  0  0
  144.1385  142.1254  161.9258 H   0  0  0  0  0  0  0  0  0  0  0  0
  143.3103  143.3757  162.8351 H   0  0  0  0  0  0  0  0  0  0  0  0
  144.5527  143.9375  158.4192 H   0  0  0  0  0  0  0  0  0  0  0  0
  144.8808  142.4604  159.3062 H   0  0  0  0  0  0  0  0  0  0  0  0
  1  2  1  0  0  0  0
  1 20  1  0  0  0  0
  1 21  1  0  0  0  0
  1 22  1  0  0  0  0
  2 19  1  0  0  0  0
  2  3  2  0  0  0  0
  3  4  1  0  0  0  0
  3 23  1  0  0  0  0
  4  5  1  0  0  0  0
  5  6  1  0  0  0  0
  5 19  2  0  0  0  0
  6  7  1  0  0  0  0
  6  8  1  0  0  0  0
  6 24  1  0  0  0  0
  7 25  1  0  0  0  0
  7 26  1  0  0  0  0
  7 27  1  0  0  0  0
  8  9  1  0  0  0  0
  8 28  1  0  0  0  0
  8 29  1  0  0  0  0
  9 10  1  0  0  0  0
  9 30  1  0  0  0  0
 10 11  2  0  0  0  0
 10 12  1  0  0  0  0
 12 13  1  0  0  0  0
 12 31  1  0  0  0  0
 13 18  1  0  0  0  0
 13 14  1  0  0  0  0
 13 32  1  0  0  0  0
 14 15  1  0  0  0  0
 14 33  1  0  0  0  0
 14 34  1  0  0  0  0
 15 16  1  0  0  0  0
 15 35  1  0  0  0  0
 15 36  1  0  0  0  0
 16 17  1  0  0  0  0
 16 37  1  0  0  0  0
 16 38  1  0  0  0  0
 17 18  1  0  0  0  0
 18 39  1  0  0  0  0
 18 40  1  0  0  0  0
M  END
> <s_m_source_file>
AV-unprocessed.smi

> <i_m_source_file_index>
2457

> <i_lp_mmshare_version>
43012

> <i_f3d_flags>
0

> <s_epik_input>
W0NIM11jMVtjSF1zYyhuMSlbQ0BIXShbQ0gzXSlbQ0gyXVtOSF1DKD1PKVtOSF1bQ0BASF0yW0NIMl1bQ0gyXVtDSDJdU1tDSDJdMg==

> <s_epik_cmdline>
J2VwaWtfcHl0aG9uJywgJy1waCcsICc3LjAnLCAnLXRuJywgJzgnLCAnLW1hJywgJzIwMCcsICctbWV0YWxfYmluZGluZycsICctaW1hZScsICc8aW5maWxlLm1hZT4nLCAnLW9tYWUnLCAnPG91dGZpbGUubWFlPic=

> <r_epik_Ionization_Penalty>
0.00154805

> <r_epik_Ionization_Penalty_Charging>
0

> <r_epik_Ionization_Penalty_Neutral>
0.00154805

> <r_epik_State_Penalty>
0.00100357

> <r_epik_Charging_Adjusted_Penalty>
0.00100357

> <i_epik_Tot_Q>
0

> <i_epik_Tot_abs_Q>
0

> <r_epik_Metal_State_Penalty>
-0

> <b_epik_Metal_Only>
0

> <s_lp_Force_Field>
OPLS_2005

> <r_lp_Energy>
-7.39523

> <b_lp_Chiralities_Consistent>
1

> <s_lp_Variant>
AV-unprocessed.smi:2457-2

> <Gold.Version>
5.8.1

> <Gold.Id.Protein>
6NUR|6NUR_protein|mol2

> <Gold.PLP.Fitness>
47.4267

> <Gold.PLP.PLP>
-41.5818

> <Gold.PLP.part.hbond>
-3.4968

> <Gold.PLP.part.metal>
0.0000

> <Gold.PLP.part.buried>
-4.0973

> <Gold.PLP.part.nonpolar>
-33.5279

> <Gold.PLP.part.repulsive>
0.1325

> <Gold.PLP.ligand.clash>
0.0000

> <Gold.PLP.ligand.torsion>
0.3600

> <Gold.PLP.Chemscore.Hbond>
2.1480

> <Gold.PLP.Chemscore.CHOScore>
0.0000

> <Gold.PLP.Chemscore.Metal>
0.0000

> <Gold.Chemscore.Hbonds>
donor molecule, donor type, donor heavy atom, donor atom, acceptor molecule, acceptor atom, score
      L1  H     9    30       P1  8028  0.49
      L1  H    12    31       P1  8029  1.00
      P1  H  6934  6946       L1    11  0.50

> <Gold.PLP.Chemscore.Internal.Correction>
0.1209

> <Gold.Rescore>
     Score         DG    S(hbond)    S(metal)    S(lipo)     H(rot)  DE(clash)    DE(int)     intcor
     18.11     -19.49       1.44        0.00     110.69       1.46       0.21       1.18       ----

> <Gold.Chemscore.Fitness>
18.1054

> <Gold.Chemscore.DG>
-19.4948

> <Gold.Chemscore.ZeroCoef>
-5.4800

> <Gold.Chemscore.Hbond>
1.4387

> <Gold.Chemscore.Metal>
0.0000

> <Gold.Chemscore.Lipo>
110.6940

> <Gold.Chemscore.Internal_Hbond>
0.0000

> <Gold.Chemscore.DEClash>
0.2102

> <Gold.Chemscore.DEInternal>
1.1792

> <Gold.Chemscore.Rot>
1.4616

> <Gold.Chemscore.Internal.Correction>
   9.000000E+99

> <Gold.Chemscore.Hbonds>
donor molecule, donor type, donor heavy atom, donor atom, acceptor molecule, acceptor atom, score
      L1  H     9    30       P1  8028  0.06
      L1  H    12    31       P1  8029  0.95
      P1  H  6934  6946       L1    11  0.50

> <Gold.Chemscore.Hbond.Weighted>
-4.8052

> <Gold.Chemscore.Metal.Weighted>
-0.0000

> <Gold.Chemscore.Lipo.Weighted>
-12.9512

> <Gold.Chemscore.Internal_Hbond.Weighted>
0.0000

> <Gold.Chemscore.DEClash.Weighted>
0.2102

> <Gold.Chemscore.DEInternal.Weighted>
1.1792

> <Gold.Chemscore.Rot.Weighted>
3.7416

> <Gold.Chemscore.Internal.Correction.Weighted>
   9.000000E+99

> <Gold.Protein.RotatedTorsions>
[ 6907 6896 6895 6894 ] final -171.94 input  -60.11 | X-H torsion
[ 7974 7965 7964 7962 ] final   -4.52 input  175.53 | X-H torsion
[ 8008 7997 7996 7995 ] final   83.50 input   59.86 | X-H torsion
[ 10167 10162 10161 10158 ] final  172.74 input  -65.29 | X-H torsion
[ 10718 10713 10712 10709 ] final -155.98 input   66.30 | X-H torsion
[ 10763 10752 10751 10750 ] final  -44.40 input  -60.55 | X-H torsion
[ 11005 11000 10999 10996 ] final -143.09 input  -57.11 | X-H torsion

> <Gold.Protein.ActiveResidues>
 VAL166  LYS551  ARG553  GLY616  TRP617  ASP618  TYR619  PRO620  LYS621  CYS622 
 ASP623  PHE694  ASN695  SER759  ASP760  ASP761  ALA762  ILE779  LEU786  VAL792 
 PHE793  MET794  SER795  GLU796  ALA797  LYS798  CYS799  TRP800  GLU811  SER814 

> <Gold.Protein.RotatedAtoms>
  151.5320  133.3447  159.2919 H   0  0  0  0  0  0  0  0  0  0  0  0  # atno 6907 bound_to 6896
  150.8588  134.7937  159.7077 H   0  0  0  0  0  0  0  0  0  0  0  0  # atno 6908 bound_to 6896
  152.4614  134.5185  159.9827 H   0  0  0  0  0  0  0  0  0  0  0  0  # atno 6909 bound_to 6896
  146.2371  140.1883  142.8332 H   0  0  0  0  0  0  0  0  0  0  0  0  # atno 7974 bound_to 7965
  155.9248  140.3419  155.6201 H   0  0  0  0  0  0  0  0  0  0  0  0  # atno 8008 bound_to 7997
  155.7230  140.0786  157.2341 H   0  0  0  0  0  0  0  0  0  0  0  0  # atno 8009 bound_to 7997
  154.4075  140.1602  156.2410 H   0  0  0  0  0  0  0  0  0  0  0  0  # atno 8010 bound_to 7997
  139.5086  144.3340  152.0084 H   0  0  0  0  0  0  0  0  0  0  0  0  # atno 10167 bound_to 10162
  156.5203  130.8475  151.2679 H   0  0  0  0  0  0  0  0  0  0  0  0  # atno 10718 bound_to 10713
  154.0115  135.6681  153.4765 H   0  0  0  0  0  0  0  0  0  0  0  0  # atno 10763 bound_to 10752
  153.0619  135.5023  154.8108 H   0  0  0  0  0  0  0  0  0  0  0  0  # atno 10764 bound_to 10752
  154.6992  135.3075  154.9329 H   0  0  0  0  0  0  0  0  0  0  0  0  # atno 10765 bound_to 10752
  140.8160  134.2688  157.4921 H   0  0  0  0  0  0  0  0  0  0  0  0  # atno 11005 bound_to 11000
  144.9878  140.8519  143.5358 LP  0  0  0  0  0  0  0  0  0  0  0  0  # atno 17320 bound_to 7965
  145.1885  139.2313  143.5255 LP  0  0  0  0  0  0  0  0  0  0  0  0  # atno 17321 bound_to 7965
  140.2779  144.3892  150.6129 LP  0  0  0  0  0  0  0  0  0  0  0  0  # atno 17342 bound_to 10162
  140.6040  143.2167  151.7017 LP  0  0  0  0  0  0  0  0  0  0  0  0  # atno 17343 bound_to 10162
  157.7438  130.9919  150.2619 LP  0  0  0  0  0  0  0  0  0  0  0  0  # atno 17370 bound_to 10713
  156.3156  130.3778  149.7622 LP  0  0  0  0  0  0  0  0  0  0  0  0  # atno 17371 bound_to 10713
  139.8711  134.9509  156.4069 LP  0  0  0  0  0  0  0  0  0  0  0  0  # atno 17394 bound_to 11000
  140.9149  133.7686  155.9836 LP  0  0  0  0  0  0  0  0  0  0  0  0  # atno 17395 bound_to 11000

$$$$
