AV-unprocessed.smi:1725|AV-procd|sdf|6954|dock8
  -GOLD-   22720 8163D 1   1.00000     0.00000
 Structure written by MMmdl.
 36 37  0  0  0  0  0  0  0  0  1 V2000
  150.0969  136.1572  156.8785 C   0  0  0  0  0  0  0  0  0  0  0  0
  149.5014  136.8690  158.1025 C   0  0  1  0  0  0  0  0  0  0  0  0
  148.9661  135.8660  158.9608 O   0  0  0  0  0  0  0  0  0  0  0  0
  148.0073  136.3190  159.9116 C   0  0  0  0  0  0  0  0  0  0  0  0
  147.8486  135.3214  161.0445 C   0  0  0  0  0  0  0  0  0  0  0  0
  146.4794  134.9858  161.5987 C   0  0  0  0  0  0  0  0  0  0  0  0
  147.4511  135.7738  162.4348 C   0  0  0  0  0  0  0  0  0  0  0  0
  150.5644  137.6951  158.8453 C   0  0  0  0  0  0  0  0  0  0  0  0
  151.1617  137.1948  159.7979 O   0  0  0  0  0  0  0  0  0  0  0  0
  150.7611  138.9418  158.3718 N   0  0  0  0  0  0  0  0  0  0  0  0
  151.6205  139.9527  158.8355 C   0  0  0  0  0  0  0  0  0  0  0  0
  151.3095  141.2742  158.8976 C   0  0  0  0  0  0  0  0  0  0  0  0
  152.2527  142.2672  159.3839 C   0  0  0  0  0  0  0  0  0  0  0  0
  151.9096  143.7489  159.3963 C   0  0  0  0  0  0  0  0  0  0  0  0
  152.7012  144.4036  158.5481 F   0  0  0  0  0  0  0  0  0  0  0  0
  150.6444  143.9582  159.0303 F   0  0  0  0  0  0  0  0  0  0  0  0
  152.0848  144.2687  160.6115 F   0  0  0  0  0  0  0  0  0  0  0  0
  153.4679  141.8151  159.7446 C   0  0  0  0  0  0  0  0  0  0  0  0
  153.7958  140.4589  159.6847 N   0  0  0  0  0  0  0  0  0  0  0  0
  152.9562  139.4925  159.2505 C   0  0  0  0  0  0  0  0  0  0  0  0
  153.3240  138.3184  159.2199 O   0  0  0  0  0  0  0  0  0  0  0  0
  154.7245  140.1977  159.9828 H   0  0  0  0  0  0  0  0  0  0  0  0
  150.5446  136.8695  156.1846 H   0  0  0  0  0  0  0  0  0  0  0  0
  149.3243  135.6114  156.3366 H   0  0  0  0  0  0  0  0  0  0  0  0
  150.8653  135.4382  157.1654 H   0  0  0  0  0  0  0  0  0  0  0  0
  148.6952  137.5205  157.7590 H   0  0  0  0  0  0  0  0  0  0  0  0
  148.2998  137.2784  160.3391 H   0  0  0  0  0  0  0  0  0  0  0  0
  147.0384  136.4539  159.4295 H   0  0  0  0  0  0  0  0  0  0  0  0
  148.5565  134.4962  160.9990 H   0  0  0  0  0  0  0  0  0  0  0  0
  145.6188  135.5165  161.1959 H   0  0  0  0  0  0  0  0  0  0  0  0
  146.2943  133.9526  161.8848 H   0  0  0  0  0  0  0  0  0  0  0  0
  147.9137  135.2654  163.2783 H   0  0  0  0  0  0  0  0  0  0  0  0
  147.2381  136.8296  162.5903 H   0  0  0  0  0  0  0  0  0  0  0  0
  150.2362  139.1879  157.5449 H   0  0  0  0  0  0  0  0  0  0  0  0
  150.3477  141.6370  158.5754 H   0  0  0  0  0  0  0  0  0  0  0  0
  154.2719  142.4443  160.0967 H   0  0  0  0  0  0  0  0  0  0  0  0
  1  2  1  0  0  0  0
  1 23  1  0  0  0  0
  1 24  1  0  0  0  0
  1 25  1  0  0  0  0
  2  3  1  0  0  0  0
  2  8  1  0  0  0  0
  2 26  1  0  0  0  0
  3  4  1  0  0  0  0
  4  5  1  0  0  0  0
  4 27  1  0  0  0  0
  4 28  1  0  0  0  0
  5  7  1  0  0  0  0
  5  6  1  0  0  0  0
  5 29  1  0  0  0  0
  6  7  1  0  0  0  0
  6 30  1  0  0  0  0
  6 31  1  0  0  0  0
  7 32  1  0  0  0  0
  7 33  1  0  0  0  0
  8  9  2  0  0  0  0
  8 10  1  0  0  0  0
 10 11  1  0  0  0  0
 10 34  1  0  0  0  0
 11 20  1  0  0  0  0
 11 12  2  0  0  0  0
 12 13  1  0  0  0  0
 12 35  1  0  0  0  0
 13 14  1  0  0  0  0
 13 18  2  0  0  0  0
 14 15  1  0  0  0  0
 14 16  1  0  0  0  0
 14 17  1  0  0  0  0
 18 19  1  0  0  0  0
 18 36  1  0  0  0  0
 19 22  1  0  0  0  0
 19 20  1  0  0  0  0
 20 21  2  0  0  0  0
M  END
> <s_m_source_file>
AV-unprocessed.smi

> <i_m_source_file_index>
1725

> <i_lp_mmshare_version>
43012

> <i_f3d_flags>
0

> <s_epik_input>
W0NIMl0xW0NIMl1bQ0hdMVtDSDJdT1tDQEBIXShbQ0gzXSlDKD1PKVtOSF1jMltjSF1jKEMoRikoRilGKVtjSF1bbkhdYzI9Tw==

> <s_epik_cmdline>
J2VwaWtfcHl0aG9uJywgJy1waCcsICc3LjAnLCAnLXRuJywgJzgnLCAnLW1hJywgJzIwMCcsICctbWV0YWxfYmluZGluZycsICctaW1hZScsICc8aW5maWxlLm1hZT4nLCAnLW9tYWUnLCAnPG91dGZpbGUubWFlPic=

> <r_lp_tautomer_probability>
0.999

> <r_epik_Ionization_Penalty>
0.00763408

> <r_epik_Ionization_Penalty_Charging>
0.00763398

> <r_epik_Ionization_Penalty_Neutral>
9.25705e-08

> <r_epik_State_Penalty>
0.00571302

> <r_epik_Charging_Adjusted_Penalty>
0.013347

> <i_epik_Tot_Q>
0

> <i_epik_Tot_abs_Q>
0

> <r_epik_Metal_State_Penalty>
0.392814

> <b_epik_Metal_Only>
0

> <s_lp_Force_Field>
OPLS_2005

> <r_lp_Energy>
26.7151

> <b_lp_Chiralities_Consistent>
1

> <s_lp_Variant>
AV-unprocessed.smi:1725-2

> <Gold.Version>
5.8.1

> <Gold.Id.Protein>
6NUR|6NUR_protein|mol2

> <Gold.PLP.Fitness>
44.9576

> <Gold.PLP.PLP>
-44.9516

> <Gold.PLP.part.hbond>
-1.5910

> <Gold.PLP.part.metal>
0.0000

> <Gold.PLP.part.buried>
-6.0595

> <Gold.PLP.part.nonpolar>
-37.5493

> <Gold.PLP.part.repulsive>
0.2044

> <Gold.PLP.ligand.clash>
0.0000

> <Gold.PLP.ligand.torsion>
1.7964

> <Gold.PLP.Chemscore.Hbond>
1.0000

> <Gold.PLP.Chemscore.CHOScore>
0.0000

> <Gold.PLP.Chemscore.Metal>
0.0000

> <Gold.Chemscore.Hbonds>
donor molecule, donor type, donor heavy atom, donor atom, acceptor molecule, acceptor atom, score
      P1  H  6896  6908       L1     3  0.54

> <Gold.PLP.Chemscore.Internal.Correction>
0.5989

> <Gold.Rescore>
     Score         DG    S(hbond)    S(metal)    S(lipo)     H(rot)  DE(clash)    DE(int)     intcor
      9.18     -13.46       0.89        0.00      82.16       1.79       0.12       4.16       ----

> <Gold.Chemscore.Fitness>
9.1790

> <Gold.Chemscore.DG>
-13.4578

> <Gold.Chemscore.ZeroCoef>
-5.4800

> <Gold.Chemscore.Hbond>
0.8855

> <Gold.Chemscore.Metal>
0.0000

> <Gold.Chemscore.Lipo>
82.1585

> <Gold.Chemscore.Internal_Hbond>
0.0000

> <Gold.Chemscore.DEClash>
0.1160

> <Gold.Chemscore.DEInternal>
4.1629

> <Gold.Chemscore.Rot>
1.7938

> <Gold.Chemscore.Internal.Correction>
   9.000000E+99

> <Gold.Chemscore.Hbonds>
donor molecule, donor type, donor heavy atom, donor atom, acceptor molecule, acceptor atom, score
      P1  H  6896  6908       L1     3  0.21

> <Gold.Chemscore.Hbond.Weighted>
-2.9575

> <Gold.Chemscore.Metal.Weighted>
-0.0000

> <Gold.Chemscore.Lipo.Weighted>
-9.6125

> <Gold.Chemscore.Internal_Hbond.Weighted>
0.0000

> <Gold.Chemscore.DEClash.Weighted>
0.1160

> <Gold.Chemscore.DEInternal.Weighted>
4.1629

> <Gold.Chemscore.Rot.Weighted>
4.5922

> <Gold.Chemscore.Internal.Correction.Weighted>
   9.000000E+99

> <Gold.Protein.RotatedTorsions>
[ 6907 6896 6895 6894 ] final -175.93 input  -60.11 | X-H torsion
[ 7974 7965 7964 7962 ] final  -39.24 input  175.53 | X-H torsion
[ 8008 7997 7996 7995 ] final   28.72 input   59.86 | X-H torsion
[ 10167 10162 10161 10158 ] final  -39.59 input  -65.29 | X-H torsion
[ 10718 10713 10712 10709 ] final  -11.12 input   66.30 | X-H torsion
[ 10763 10752 10751 10750 ] final  -63.98 input  -60.55 | X-H torsion
[ 11005 11000 10999 10996 ] final  111.20 input  -57.11 | X-H torsion

> <Gold.Protein.ActiveResidues>
 VAL166  LYS551  ARG553  GLY616  TRP617  ASP618  TYR619  PRO620  LYS621  CYS622 
 ASP623  PHE694  ASN695  SER759  ASP760  ASP761  ALA762  ILE779  LEU786  VAL792 
 PHE793  MET794  SER795  GLU796  ALA797  LYS798  CYS799  TRP800  GLU811  SER814 

> <Gold.Protein.RotatedAtoms>
  151.5965  133.3361  159.3038 H   0  0  0  0  0  0  0  0  0  0  0  0  # atno 6907 bound_to 6896
  150.8231  134.7452  159.6801 H   0  0  0  0  0  0  0  0  0  0  0  0  # atno 6908 bound_to 6896
  152.4323  134.5760  159.9986 H   0  0  0  0  0  0  0  0  0  0  0  0  # atno 6909 bound_to 6896
  146.0414  140.6604  142.9085 H   0  0  0  0  0  0  0  0  0  0  0  0  # atno 7974 bound_to 7965
  155.0632  140.3192  155.4654 H   0  0  0  0  0  0  0  0  0  0  0  0  # atno 8008 bound_to 7997
  156.2808  140.2125  156.5703 H   0  0  0  0  0  0  0  0  0  0  0  0  # atno 8009 bound_to 7997
  154.7115  140.0497  157.0542 H   0  0  0  0  0  0  0  0  0  0  0  0  # atno 8010 bound_to 7997
  140.7059  143.3205  151.2804 H   0  0  0  0  0  0  0  0  0  0  0  0  # atno 10167 bound_to 10162
  156.6636  130.4989  149.6022 H   0  0  0  0  0  0  0  0  0  0  0  0  # atno 10718 bound_to 10713
  154.3233  135.6192  153.5517 H   0  0  0  0  0  0  0  0  0  0  0  0  # atno 10763 bound_to 10752
  152.9818  135.5729  154.5045 H   0  0  0  0  0  0  0  0  0  0  0  0  # atno 10764 bound_to 10752
  154.4717  135.2859  155.1614 H   0  0  0  0  0  0  0  0  0  0  0  0  # atno 10765 bound_to 10752
  139.8898  134.9502  156.6396 H   0  0  0  0  0  0  0  0  0  0  0  0  # atno 11005 bound_to 11000
  144.7076  140.3914  143.7106 LP  0  0  0  0  0  0  0  0  0  0  0  0  # atno 17320 bound_to 7965
  145.6878  139.1632  143.2664 LP  0  0  0  0  0  0  0  0  0  0  0  0  # atno 17321 bound_to 7965
  139.6657  144.0109  152.2721 LP  0  0  0  0  0  0  0  0  0  0  0  0  # atno 17342 bound_to 10162
  139.9691  144.6506  150.8006 LP  0  0  0  0  0  0  0  0  0  0  0  0  # atno 17343 bound_to 10162
  156.1992  130.6609  151.1148 LP  0  0  0  0  0  0  0  0  0  0  0  0  # atno 17370 bound_to 10713
  157.7101  131.0738  150.6530 LP  0  0  0  0  0  0  0  0  0  0  0  0  # atno 17371 bound_to 10713
  140.7604  133.8823  155.8413 LP  0  0  0  0  0  0  0  0  0  0  0  0  # atno 17394 bound_to 11000
  140.9927  134.1257  157.4393 LP  0  0  0  0  0  0  0  0  0  0  0  0  # atno 17395 bound_to 11000

$$$$
