AV-unprocessed.smi:652|AV-procd|sdf|3202|dock5
  -GOLD-   22720 0133D 1   1.00000     0.00000
 Structure written by MMmdl.
 48 49  0  0  0  0  0  0  0  0  2 V2000
  143.1320  139.9002  155.9208 C   0  0  0  0  0  0  0  0  0  0  0  0
  143.3938  141.4116  155.8838 C   0  0  0  0  0  0  0  0  0  0  0  0
  142.1303  142.1949  155.4929 C   0  0  0  0  0  0  0  0  0  0  0  0
  144.4803  141.6933  154.9499 N   0  0  0  0  0  0  0  0  0  0  0  0
  145.6191  142.3359  155.2530 C   0  0  0  0  0  0  0  0  0  0  0  0
  145.8837  142.7497  156.3819 O   0  0  0  0  0  0  0  0  0  0  0  0
  146.6180  142.5312  154.1074 C   0  0  0  0  0  0  0  0  0  0  0  0
  147.1698  141.2025  153.5453 C   0  0  0  0  0  0  0  0  0  0  0  0
  148.2144  140.5473  154.3345 N   0  0  0  0  0  0  0  0  0  0  0  0
  149.0623  139.6739  153.5278 C   0  0  0  0  0  0  0  0  0  0  0  0
  150.1593  139.0053  154.3734 C   0  0  0  0  0  0  0  0  0  0  0  0
  150.9234  140.0035  155.0431 O   0  0  0  0  0  0  0  0  0  0  0  0
  150.1338  140.8396  155.8847 C   0  0  1  0  0  0  0  0  0  0  0  0
  151.0757  141.8427  156.5653 C   0  0  0  0  0  0  0  0  0  0  0  0
  150.3524  142.9795  157.1151 N   0  0  0  0  0  0  0  0  0  0  0  0
  150.8270  143.6448  158.2528 C   0  0  0  0  0  0  0  0  0  0  0  0
  152.0074  143.2873  158.9448 C   0  0  0  0  0  0  0  0  0  0  0  0
  152.3710  144.0402  160.0742 C   0  0  0  0  0  0  0  0  0  0  0  0
  151.5330  145.1070  160.4438 C   0  0  0  0  0  0  0  0  0  0  0  0
  150.4084  145.4335  159.7687 N   0  0  0  0  0  0  0  0  0  0  0  0
  150.0866  144.6932  158.6931 N   0  3  0  0  0  0  0  0  0  0  0  0
  149.0520  141.5219  155.0212 C   0  0  0  0  0  0  0  0  0  0  0  0
  142.3513  139.6563  156.6419 H   0  0  0  0  0  0  0  0  0  0  0  0
  144.0292  139.3521  156.2102 H   0  0  0  0  0  0  0  0  0  0  0  0
  142.8126  139.5277  154.9469 H   0  0  0  0  0  0  0  0  0  0  0  0
  143.6993  141.7203  156.8851 H   0  0  0  0  0  0  0  0  0  0  0  0
  141.3141  141.9921  156.1867 H   0  0  0  0  0  0  0  0  0  0  0  0
  141.7903  141.9256  154.4921 H   0  0  0  0  0  0  0  0  0  0  0  0
  142.3098  143.2703  155.5052 H   0  0  0  0  0  0  0  0  0  0  0  0
  144.3530  141.3804  153.9982 H   0  0  0  0  0  0  0  0  0  0  0  0
  146.1336  143.1084  153.3197 H   0  0  0  0  0  0  0  0  0  0  0  0
  147.4495  143.1468  154.4530 H   0  0  0  0  0  0  0  0  0  0  0  0
  146.3415  140.5096  153.3919 H   0  0  0  0  0  0  0  0  0  0  0  0
  147.5623  141.4115  152.5491 H   0  0  0  0  0  0  0  0  0  0  0  0
  148.4633  138.8967  153.0543 H   0  0  0  0  0  0  0  0  0  0  0  0
  149.5251  140.2472  152.7231 H   0  0  0  0  0  0  0  0  0  0  0  0
  149.7211  138.3218  155.1023 H   0  0  0  0  0  0  0  0  0  0  0  0
  150.8208  138.4152  153.7391 H   0  0  0  0  0  0  0  0  0  0  0  0
  149.6622  140.2169  156.6478 H   0  0  0  0  0  0  0  0  0  0  0  0
  151.6043  141.3430  157.3780 H   0  0  0  0  0  0  0  0  0  0  0  0
  151.8278  142.1905  155.8563 H   0  0  0  0  0  0  0  0  0  0  0  0
  149.5705  143.3560  156.5984 H   0  0  0  0  0  0  0  0  0  0  0  0
  152.6267  142.4605  158.6302 H   0  0  0  0  0  0  0  0  0  0  0  0
  153.2624  143.8084  160.6383 H   0  0  0  0  0  0  0  0  0  0  0  0
  151.7696  145.7165  161.3037 H   0  0  0  0  0  0  0  0  0  0  0  0
  149.5269  142.1803  154.2918 H   0  0  0  0  0  0  0  0  0  0  0  0
  148.4286  142.1553  155.6532 H   0  0  0  0  0  0  0  0  0  0  0  0
  149.2392  144.9334  158.1782 H   0  0  0  0  0  0  0  0  0  0  0  0
  1  2  1  0  0  0  0
  1 23  1  0  0  0  0
  1 24  1  0  0  0  0
  1 25  1  0  0  0  0
  2  3  1  0  0  0  0
  2  4  1  0  0  0  0
  2 26  1  0  0  0  0
  3 27  1  0  0  0  0
  3 28  1  0  0  0  0
  3 29  1  0  0  0  0
  4  5  1  0  0  0  0
  4 30  1  0  0  0  0
  5  6  2  0  0  0  0
  5  7  1  0  0  0  0
  7  8  1  0  0  0  0
  7 31  1  0  0  0  0
  7 32  1  0  0  0  0
  8  9  1  0  0  0  0
  8 33  1  0  0  0  0
  8 34  1  0  0  0  0
  9 22  1  0  0  0  0
  9 10  1  0  0  0  0
 10 11  1  0  0  0  0
 10 35  1  0  0  0  0
 10 36  1  0  0  0  0
 11 12  1  0  0  0  0
 11 37  1  0  0  0  0
 11 38  1  0  0  0  0
 12 13  1  0  0  0  0
 13 14  1  0  0  0  0
 13 22  1  0  0  0  0
 13 39  1  0  0  0  0
 14 15  1  0  0  0  0
 14 40  1  0  0  0  0
 14 41  1  0  0  0  0
 15 16  1  0  0  0  0
 15 42  1  0  0  0  0
 16 21  1  0  0  0  0
 16 17  2  0  0  0  0
 17 18  1  0  0  0  0
 17 43  1  0  0  0  0
 18 19  2  0  0  0  0
 18 44  1  0  0  0  0
 19 20  1  0  0  0  0
 19 45  1  0  0  0  0
 20 21  2  0  0  0  0
 21 48  1  0  0  0  0
 22 46  1  0  0  0  0
 22 47  1  0  0  0  0
M  CHG  1  21   1
M  END
> <s_m_source_file>
AV-unprocessed.smi

> <i_m_source_file_index>
652

> <i_lp_mmshare_version>
43012

> <i_f3d_flags>
0

> <s_epik_input>
W0NIM11bQ0hdKFtDSDNdKVtOSF1DKD1PKVtDSDJdW0NIMl1OMVtDSDJdW0NIMl1PW0NASF0oW0NIMl0xKVtDSDJdW05IXWMyW2NIXVtjSF1bY0hdbm4y

> <s_epik_cmdline>
J2VwaWtfcHl0aG9uJywgJy1waCcsICc3LjAnLCAnLXRuJywgJzgnLCAnLW1hJywgJzIwMCcsICctbWV0YWxfYmluZGluZycsICctaW1hZScsICc8aW5maWxlLm1hZT4nLCAnLW9tYWUnLCAnPG91dGZpbGUubWFlPic=

> <r_epik_Ionization_Penalty>
2.70989

> <r_epik_Ionization_Penalty_Charging>
2.3023

> <r_epik_Ionization_Penalty_Neutral>
0.407592

> <r_epik_State_Penalty>
2.65305

> <r_epik_Charging_Adjusted_Penalty>
4.95534

> <i_epik_Tot_Q>
1

> <i_epik_Tot_abs_Q>
1

> <r_epik_Metal_State_Penalty>
2.66064

> <b_epik_Metal_Only>
0

> <s_lp_Force_Field>
OPLS_2005

> <r_lp_Energy>
26.0263

> <b_lp_Chiralities_Consistent>
1

> <s_lp_Variant>
AV-unprocessed.smi:652-11

> <Gold.Version>
5.8.1

> <Gold.Id.Protein>
6NUR|6NUR_protein|mol2

> <Gold.PLP.Fitness>
56.6753

> <Gold.PLP.PLP>
-40.0659

> <Gold.PLP.part.hbond>
-5.8779

> <Gold.PLP.part.metal>
0.0000

> <Gold.PLP.part.buried>
-3.0930

> <Gold.PLP.part.nonpolar>
-33.6891

> <Gold.PLP.part.repulsive>
0.7073

> <Gold.PLP.ligand.clash>
0.0000

> <Gold.PLP.ligand.torsion>
0.7443

> <Gold.PLP.Chemscore.Hbond>
6.0000

> <Gold.PLP.Chemscore.CHOScore>
0.0000

> <Gold.PLP.Chemscore.Metal>
0.0000

> <Gold.Chemscore.Hbonds>
donor molecule, donor type, donor heavy atom, donor atom, acceptor molecule, acceptor atom, score
      L1  H     4    30       P1 10175  1.00
      L1  H    15    42       P1  8028  1.89
      L1  H    21    48       P1  8029  2.00
      P1  H  7989  7998       L1    12  0.90

> <Gold.PLP.Chemscore.Internal.Correction>
0.0981

> <Gold.Rescore>
     Score         DG    S(hbond)    S(metal)    S(lipo)     H(rot)  DE(clash)    DE(int)     intcor
     18.84     -20.57       3.24        0.00      86.22       2.28       1.44       0.29       ----

> <Gold.Chemscore.Fitness>
18.8414

> <Gold.Chemscore.DG>
-20.5659

> <Gold.Chemscore.ZeroCoef>
-5.4800

> <Gold.Chemscore.Hbond>
3.2415

> <Gold.Chemscore.Metal>
0.0000

> <Gold.Chemscore.Lipo>
86.2231

> <Gold.Chemscore.Internal_Hbond>
0.0000

> <Gold.Chemscore.DEClash>
1.4353

> <Gold.Chemscore.DEInternal>
0.2893

> <Gold.Chemscore.Rot>
2.2768

> <Gold.Chemscore.Internal.Correction>
   9.000000E+99

> <Gold.Chemscore.Hbonds>
donor molecule, donor type, donor heavy atom, donor atom, acceptor molecule, acceptor atom, score
      L1  H     4    30       P1 10175  0.35
      L1  H    15    42       P1  8028  0.92
      L1  H    21    48       P1  8029  0.39
      P1  H  7989  7998       L1    12  0.16

> <Gold.Chemscore.Hbond.Weighted>
-10.8265

> <Gold.Chemscore.Metal.Weighted>
-0.0000

> <Gold.Chemscore.Lipo.Weighted>
-10.0881

> <Gold.Chemscore.Internal_Hbond.Weighted>
0.0000

> <Gold.Chemscore.DEClash.Weighted>
1.4353

> <Gold.Chemscore.DEInternal.Weighted>
0.2893

> <Gold.Chemscore.Rot.Weighted>
5.8286

> <Gold.Chemscore.Internal.Correction.Weighted>
   9.000000E+99

> <Gold.Protein.RotatedTorsions>
[ 6907 6896 6895 6894 ] final   70.81 input  -60.11 | X-H torsion
[ 7974 7965 7964 7962 ] final -132.32 input  175.53 | X-H torsion
[ 8008 7997 7996 7995 ] final  128.13 input   59.86 | X-H torsion
[ 10167 10162 10161 10158 ] final  -33.20 input  -65.29 | X-H torsion
[ 10718 10713 10712 10709 ] final   60.37 input   66.30 | X-H torsion
[ 10763 10752 10751 10750 ] final   82.88 input  -60.55 | X-H torsion
[ 11005 11000 10999 10996 ] final  150.58 input  -57.11 | X-H torsion

> <Gold.Protein.ActiveResidues>
 VAL166  LYS551  ARG553  GLY616  TRP617  ASP618  TYR619  PRO620  LYS621  CYS622 
 ASP623  PHE694  ASN695  SER759  ASP760  ASP761  ALA762  ILE779  LEU786  VAL792 
 PHE793  MET794  SER795  GLU796  ALA797  LYS798  CYS799  TRP800  GLU811  SER814 

> <Gold.Protein.RotatedAtoms>
  152.4772  134.4814  159.9666 H   0  0  0  0  0  0  0  0  0  0  0  0  # atno 6907 bound_to 6896
  151.4827  133.3536  159.2848 H   0  0  0  0  0  0  0  0  0  0  0  0  # atno 6908 bound_to 6896
  150.8818  134.8237  159.7292 H   0  0  0  0  0  0  0  0  0  0  0  0  # atno 6909 bound_to 6896
  144.9296  140.7113  143.4914 H   0  0  0  0  0  0  0  0  0  0  0  0  # atno 7974 bound_to 7965
  156.2908  140.2652  156.2386 H   0  0  0  0  0  0  0  0  0  0  0  0  # atno 8008 bound_to 7997
  155.0000  140.0388  157.2374 H   0  0  0  0  0  0  0  0  0  0  0  0  # atno 8009 bound_to 7997
  154.7610  140.2760  155.6219 H   0  0  0  0  0  0  0  0  0  0  0  0  # atno 8010 bound_to 7997
  140.7208  143.3637  151.1912 H   0  0  0  0  0  0  0  0  0  0  0  0  # atno 10167 bound_to 10162
  157.5747  130.8935  149.9327 H   0  0  0  0  0  0  0  0  0  0  0  0  # atno 10718 bound_to 10713
  153.1242  135.4712  154.9245 H   0  0  0  0  0  0  0  0  0  0  0  0  # atno 10763 bound_to 10752
  154.7604  135.3130  154.8391 H   0  0  0  0  0  0  0  0  0  0  0  0  # atno 10764 bound_to 10752
  153.8948  135.6881  153.4812 H   0  0  0  0  0  0  0  0  0  0  0  0  # atno 10765 bound_to 10752
  140.1144  134.8904  157.1982 H   0  0  0  0  0  0  0  0  0  0  0  0  # atno 11005 bound_to 11000
  145.3163  139.1802  143.4612 LP  0  0  0  0  0  0  0  0  0  0  0  0  # atno 17320 bound_to 7965
  146.3241  140.3174  142.8631 LP  0  0  0  0  0  0  0  0  0  0  0  0  # atno 17321 bound_to 7965
  139.7195  143.9246  152.2980 LP  0  0  0  0  0  0  0  0  0  0  0  0  # atno 17342 bound_to 10162
  139.8998  144.6918  150.8677 LP  0  0  0  0  0  0  0  0  0  0  0  0  # atno 17343 bound_to 10162
  156.0792  130.3675  150.0615 LP  0  0  0  0  0  0  0  0  0  0  0  0  # atno 17370 bound_to 10713
  156.8763  130.9541  151.3604 LP  0  0  0  0  0  0  0  0  0  0  0  0  # atno 17371 bound_to 10713
  140.3048  134.3090  155.7281 LP  0  0  0  0  0  0  0  0  0  0  0  0  # atno 17394 bound_to 11000
  141.2138  133.7614  156.9693 LP  0  0  0  0  0  0  0  0  0  0  0  0  # atno 17395 bound_to 11000

$$$$
