AV-unprocessed.smi:1506|AV-procd|sdf|6076|dock10
  -GOLD-   22720 6203D 1   1.00000     0.00000
 Structure written by MMmdl.
 39 41  0  0  0  0  0  0  0  0  1 V2000
  153.3140  141.2705  160.4909 C   0  0  0  0  0  0  0  0  0  0  0  0
  152.5208  142.0265  159.4447 C   0  0  0  0  0  0  0  0  0  0  0  0
  152.5639  143.4340  159.3980 C   0  0  0  0  0  0  0  0  0  0  0  0
  151.8236  144.1269  158.4224 C   0  0  0  0  0  0  0  0  0  0  0  0
  151.0375  143.4184  157.4933 C   0  0  0  0  0  0  0  0  0  0  0  0
  150.9823  142.0022  157.5331 C   0  0  0  0  0  0  0  0  0  0  0  0
  150.2367  141.2302  156.6685 O   0  0  0  0  0  0  0  0  0  0  0  0
  149.2884  141.8785  155.8294 C   0  0  0  0  0  0  0  0  0  0  0  0
  148.8477  140.9305  154.7016 C   0  0  2  0  0  0  0  0  0  0  0  0
  149.9721  140.5953  153.9119 O   0  0  0  0  0  0  0  0  0  0  0  0
  147.6938  141.4800  153.8394 C   0  0  0  0  0  0  0  0  0  0  0  0
  146.6119  142.0178  154.6448 N   0  0  0  0  0  0  0  0  0  0  0  0
  146.2471  141.6240  155.8801 C   0  0  0  0  0  0  0  0  0  0  0  0
  145.2167  142.2512  156.4403 N   0  0  0  0  0  0  0  0  0  0  0  0
  144.8725  143.1598  155.4538 C   0  0  0  0  0  0  0  0  0  0  0  0
  143.8476  144.1324  155.4193 C   0  0  0  0  0  0  0  0  0  0  0  0
  143.6828  144.9568  154.2866 C   0  0  0  0  0  0  0  0  0  0  0  0
  144.5377  144.8221  153.1733 C   0  0  0  0  0  0  0  0  0  0  0  0
  145.5659  143.8600  153.1844 C   0  0  0  0  0  0  0  0  0  0  0  0
  145.7274  143.0400  154.3167 C   0  0  0  0  0  0  0  0  0  0  0  0
  151.7309  141.3203  158.5146 C   0  0  0  0  0  0  0  0  0  0  0  0
  154.0727  141.9066  160.9481 H   0  0  0  0  0  0  0  0  0  0  0  0
  153.8170  140.4131  160.0431 H   0  0  0  0  0  0  0  0  0  0  0  0
  152.6509  140.9085  161.2770 H   0  0  0  0  0  0  0  0  0  0  0  0
  153.1627  143.9862  160.1076 H   0  0  0  0  0  0  0  0  0  0  0  0
  151.8578  145.2058  158.3863 H   0  0  0  0  0  0  0  0  0  0  0  0
  150.4852  143.9857  156.7600 H   0  0  0  0  0  0  0  0  0  0  0  0
  148.4188  142.2119  156.3987 H   0  0  0  0  0  0  0  0  0  0  0  0
  149.7544  142.7610  155.3880 H   0  0  0  0  0  0  0  0  0  0  0  0
  148.5180  139.9991  155.1638 H   0  0  0  0  0  0  0  0  0  0  0  0
  149.6746  140.3918  153.0382 H   0  0  0  0  0  0  0  0  0  0  0  0
  148.0594  142.2702  153.1824 H   0  0  0  0  0  0  0  0  0  0  0  0
  147.2867  140.7017  153.1929 H   0  0  0  0  0  0  0  0  0  0  0  0
  146.7658  140.8290  156.3957 H   0  0  0  0  0  0  0  0  0  0  0  0
  143.1862  144.2443  156.2656 H   0  0  0  0  0  0  0  0  0  0  0  0
  142.8954  145.6961  154.2712 H   0  0  0  0  0  0  0  0  0  0  0  0
  144.4031  145.4571  152.3100 H   0  0  0  0  0  0  0  0  0  0  0  0
  146.2208  143.7519  152.3325 H   0  0  0  0  0  0  0  0  0  0  0  0
  151.6959  140.2413  158.5536 H   0  0  0  0  0  0  0  0  0  0  0  0
  1  2  1  0  0  0  0
  1 22  1  0  0  0  0
  1 23  1  0  0  0  0
  1 24  1  0  0  0  0
  2 21  1  0  0  0  0
  2  3  2  0  0  0  0
  3  4  1  0  0  0  0
  3 25  1  0  0  0  0
  4  5  2  0  0  0  0
  4 26  1  0  0  0  0
  5  6  1  0  0  0  0
  5 27  1  0  0  0  0
  6  7  1  0  0  0  0
  6 21  2  0  0  0  0
  7  8  1  0  0  0  0
  8  9  1  0  0  0  0
  8 28  1  0  0  0  0
  8 29  1  0  0  0  0
  9 10  1  0  0  0  0
  9 11  1  0  0  0  0
  9 30  1  0  0  0  0
 10 31  1  0  0  0  0
 11 12  1  0  0  0  0
 11 32  1  0  0  0  0
 11 33  1  0  0  0  0
 12 20  1  0  0  0  0
 12 13  1  0  0  0  0
 13 14  2  0  0  0  0
 13 34  1  0  0  0  0
 14 15  1  0  0  0  0
 15 20  2  0  0  0  0
 15 16  1  0  0  0  0
 16 17  2  0  0  0  0
 16 35  1  0  0  0  0
 17 18  1  0  0  0  0
 17 36  1  0  0  0  0
 18 19  2  0  0  0  0
 18 37  1  0  0  0  0
 19 20  1  0  0  0  0
 19 38  1  0  0  0  0
 21 39  1  0  0  0  0
M  END
> <s_m_source_file>
AV-unprocessed.smi

> <i_m_source_file_index>
1506

> <i_lp_mmshare_version>
43012

> <i_f3d_flags>
0

> <s_epik_input>
W0NIM11jMVtjSF1bY0hdW2NIXWMoW2NIXTEpT1tDSDJdW0NASF0oW09IXSlbQ0gyXW4oW2NIXW4yKWMoYzIzKVtjSF1bY0hdW2NIXVtjSF0z

> <s_epik_cmdline>
J2VwaWtfcHl0aG9uJywgJy1waCcsICc3LjAnLCAnLXRuJywgJzgnLCAnLW1hJywgJzIwMCcsICctbWV0YWxfYmluZGluZycsICctaW1hZScsICc8aW5maWxlLm1hZT4nLCAnLW9tYWUnLCAnPG91dGZpbGUubWFlPic=

> <r_lp_tautomer_probability>
1

> <r_epik_Ionization_Penalty>
0.0608485

> <r_epik_Ionization_Penalty_Charging>
0

> <r_epik_Ionization_Penalty_Neutral>
0.0608485

> <r_epik_State_Penalty>
0.0527778

> <r_epik_Charging_Adjusted_Penalty>
0.0527778

> <i_epik_Tot_Q>
0

> <i_epik_Tot_abs_Q>
0

> <r_epik_Metal_State_Penalty>
5.51973e-05

> <b_epik_Metal_Only>
0

> <s_lp_Force_Field>
OPLS_2005

> <r_lp_Energy>
16.3702

> <b_lp_Chiralities_Consistent>
1

> <s_lp_Variant>
AV-unprocessed.smi:1506-1

> <Gold.Version>
5.8.1

> <Gold.Id.Protein>
6NUR|6NUR_protein|mol2

> <Gold.PLP.Fitness>
55.0711

> <Gold.PLP.PLP>
-51.2074

> <Gold.PLP.part.hbond>
-2.0000

> <Gold.PLP.part.metal>
0.0000

> <Gold.PLP.part.buried>
-3.8838

> <Gold.PLP.part.nonpolar>
-46.8598

> <Gold.PLP.part.repulsive>
0.1502

> <Gold.PLP.ligand.clash>
0.0000

> <Gold.PLP.ligand.torsion>
0.6162

> <Gold.PLP.Chemscore.Hbond>
1.6720

> <Gold.PLP.Chemscore.CHOScore>
0.0000

> <Gold.PLP.Chemscore.Metal>
0.0000

> <Gold.Chemscore.Hbonds>
donor molecule, donor type, donor heavy atom, donor atom, acceptor molecule, acceptor atom, score
      L1  H    10    31       P1  7957  1.00
      P1  H  7989  7998       L1    10  0.48

> <Gold.PLP.Chemscore.Internal.Correction>
0.0801

> <Gold.Rescore>
     Score         DG    S(hbond)    S(metal)    S(lipo)     H(rot)  DE(clash)    DE(int)     intcor
     17.98     -19.79       1.37        0.00     131.15       2.19       1.35       0.46       ----

> <Gold.Chemscore.Fitness>
17.9791

> <Gold.Chemscore.DG>
-19.7938

> <Gold.Chemscore.ZeroCoef>
-5.4800

> <Gold.Chemscore.Hbond>
1.3681

> <Gold.Chemscore.Metal>
0.0000

> <Gold.Chemscore.Lipo>
131.1532

> <Gold.Chemscore.Internal_Hbond>
0.0000

> <Gold.Chemscore.DEClash>
1.3513

> <Gold.Chemscore.DEInternal>
0.4634

> <Gold.Chemscore.Rot>
2.1877

> <Gold.Chemscore.Internal.Correction>
   9.000000E+99

> <Gold.Chemscore.Hbonds>
donor molecule, donor type, donor heavy atom, donor atom, acceptor molecule, acceptor atom, score
      L1  H    10    31       P1  7957  1.00
      P1  H  7989  7998       L1    10  0.06

> <Gold.Chemscore.Hbond.Weighted>
-4.5694

> <Gold.Chemscore.Metal.Weighted>
-0.0000

> <Gold.Chemscore.Lipo.Weighted>
-15.3449

> <Gold.Chemscore.Internal_Hbond.Weighted>
0.0000

> <Gold.Chemscore.DEClash.Weighted>
1.3513

> <Gold.Chemscore.DEInternal.Weighted>
0.4634

> <Gold.Chemscore.Rot.Weighted>
5.6005

> <Gold.Chemscore.Internal.Correction.Weighted>
   9.000000E+99

> <Gold.Protein.RotatedTorsions>
[ 6907 6896 6895 6894 ] final  -52.60 input  -60.11 | X-H torsion
[ 7974 7965 7964 7962 ] final    7.82 input  175.53 | X-H torsion
[ 8008 7997 7996 7995 ] final  151.90 input   59.86 | X-H torsion
[ 10167 10162 10161 10158 ] final  -29.93 input  -65.29 | X-H torsion
[ 10718 10713 10712 10709 ] final  -54.53 input   66.30 | X-H torsion
[ 10763 10752 10751 10750 ] final   87.86 input  -60.55 | X-H torsion
[ 11005 11000 10999 10996 ] final  150.60 input  -57.11 | X-H torsion

> <Gold.Protein.ActiveResidues>
 VAL166  LYS551  ARG553  GLY616  TRP617  ASP618  TYR619  PRO620  LYS621  CYS622 
 ASP623  PHE694  ASN695  SER759  ASP760  ASP761  ALA762  ILE779  LEU786  VAL792 
 PHE793  MET794  SER795  GLU796  ALA797  LYS798  CYS799  TRP800  GLU811  SER814 

> <Gold.Protein.RotatedAtoms>
  150.8503  134.7825  159.7002 H   0  0  0  0  0  0  0  0  0  0  0  0  # atno 6907 bound_to 6896
  152.4569  134.5268  159.9809 H   0  0  0  0  0  0  0  0  0  0  0  0  # atno 6908 bound_to 6896
  151.5390  133.3398  159.2968 H   0  0  0  0  0  0  0  0  0  0  0  0  # atno 6909 bound_to 6896
  146.2423  140.0026  142.8414 H   0  0  0  0  0  0  0  0  0  0  0  0  # atno 7974 bound_to 7965
  156.2653  140.2035  156.6248 H   0  0  0  0  0  0  0  0  0  0  0  0  # atno 8008 bound_to 7997
  154.6728  140.0548  157.0208 H   0  0  0  0  0  0  0  0  0  0  0  0  # atno 8009 bound_to 7997
  155.1112  140.3215  155.4524 H   0  0  0  0  0  0  0  0  0  0  0  0  # atno 8010 bound_to 7997
  140.7255  143.3889  151.1466 H   0  0  0  0  0  0  0  0  0  0  0  0  # atno 10167 bound_to 10162
  156.1443  130.4153  150.0050 H   0  0  0  0  0  0  0  0  0  0  0  0  # atno 10718 bound_to 10713
  153.1710  135.4528  154.9902 H   0  0  0  0  0  0  0  0  0  0  0  0  # atno 10763 bound_to 10752
  154.7966  135.3240  154.7655 H   0  0  0  0  0  0  0  0  0  0  0  0  # atno 10764 bound_to 10752
  153.8131  135.6953  153.4892 H   0  0  0  0  0  0  0  0  0  0  0  0  # atno 10765 bound_to 10752
  140.1145  134.8903  157.1984 H   0  0  0  0  0  0  0  0  0  0  0  0  # atno 11005 bound_to 11000
  145.1401  140.9566  143.4494 LP  0  0  0  0  0  0  0  0  0  0  0  0  # atno 17320 bound_to 7965
  145.0304  139.3346  143.6027 LP  0  0  0  0  0  0  0  0  0  0  0  0  # atno 17321 bound_to 7965
  139.7490  143.8807  152.3071 LP  0  0  0  0  0  0  0  0  0  0  0  0  # atno 17342 bound_to 10162
  139.8654  144.7096  150.9050 LP  0  0  0  0  0  0  0  0  0  0  0  0  # atno 17343 bound_to 10162
  156.7927  130.9262  151.3646 LP  0  0  0  0  0  0  0  0  0  0  0  0  # atno 17370 bound_to 10713
  157.6603  130.8960  149.9815 LP  0  0  0  0  0  0  0  0  0  0  0  0  # atno 17371 bound_to 10713
  140.3047  134.3092  155.7281 LP  0  0  0  0  0  0  0  0  0  0  0  0  # atno 17394 bound_to 11000
  141.2138  133.7613  156.9690 LP  0  0  0  0  0  0  0  0  0  0  0  0  # atno 17395 bound_to 11000

$$$$
