AV-unprocessed.smi:2285|AV-procd|sdf|9203|dock10
  -GOLD-   2272012423D 1   1.00000     0.00000
 Structure written by MMmdl.
 36 37  0  0  0  0  0  0  0  0  1 V2000
  151.3233  138.6747  154.9887 C   0  0  0  0  0  0  0  0  0  0  0  0
  150.9614  137.2580  154.5219 C   0  0  0  0  0  0  0  0  0  0  0  0
  150.5949  136.3099  155.6619 C   0  0  0  0  0  0  0  0  0  0  0  0
  150.4083  134.8662  155.1963 C   0  0  0  0  0  0  0  0  0  0  0  0
  149.4217  134.6453  154.1442 N   0  0  0  0  0  0  0  0  0  0  0  0
  148.7427  133.5052  153.9540 C   0  0  0  0  0  0  0  0  0  0  0  0
  148.8729  132.5148  154.6757 O   0  0  0  0  0  0  0  0  0  0  0  0
  147.9271  133.6051  152.8856 N   0  0  0  0  0  0  0  0  0  0  0  0
  147.0652  132.6330  152.3612 C   0  0  0  0  0  0  0  0  0  0  0  0
  147.0788  131.3853  152.7399 N   0  0  0  0  0  0  0  0  0  0  0  0
  146.2045  130.4436  152.1973 C   0  0  0  0  0  0  0  0  0  0  0  0
  145.3104  130.7945  151.2558 C   0  0  0  0  0  0  0  0  0  0  0  0
  145.2360  132.1173  150.7970 N   0  0  0  0  0  0  0  0  0  0  0  0
  144.2441  132.4455  149.7726 C   0  0  0  0  0  0  0  0  0  0  0  0
  146.0619  133.0783  151.2930 C   0  0  0  0  0  0  0  0  0  0  0  0
  146.0308  134.2541  150.9242 O   0  0  0  0  0  0  0  0  0  0  0  0
  151.1673  136.5637  157.0412 C   0  0  0  0  0  0  0  0  0  0  0  0
  149.7061  136.8261  156.7732 C   0  0  0  0  0  0  0  0  0  0  0  0
  151.6479  139.2859  154.1464 H   0  0  0  0  0  0  0  0  0  0  0  0
  152.1355  138.6543  155.7158 H   0  0  0  0  0  0  0  0  0  0  0  0
  150.4719  139.1772  155.4474 H   0  0  0  0  0  0  0  0  0  0  0  0
  150.1464  137.2961  153.7987 H   0  0  0  0  0  0  0  0  0  0  0  0
  151.8140  136.8424  153.9837 H   0  0  0  0  0  0  0  0  0  0  0  0
  151.3702  134.4627  154.8749 H   0  0  0  0  0  0  0  0  0  0  0  0
  150.1146  134.2620  156.0545 H   0  0  0  0  0  0  0  0  0  0  0  0
  149.2559  135.4119  153.5086 H   0  0  0  0  0  0  0  0  0  0  0  0
  147.9491  134.4907  152.4018 H   0  0  0  0  0  0  0  0  0  0  0  0
  146.2857  129.4333  152.5708 H   0  0  0  0  0  0  0  0  0  0  0  0
  144.6132  130.1017  150.8074 H   0  0  0  0  0  0  0  0  0  0  0  0
  144.7253  132.8873  148.8986 H   0  0  0  0  0  0  0  0  0  0  0  0
  143.5186  133.1619  150.1607 H   0  0  0  0  0  0  0  0  0  0  0  0
  143.6912  131.5695  149.4317 H   0  0  0  0  0  0  0  0  0  0  0  0
  151.4159  135.7016  157.6571 H   0  0  0  0  0  0  0  0  0  0  0  0
  151.8171  137.4267  157.1710 H   0  0  0  0  0  0  0  0  0  0  0  0
  149.3844  137.8647  156.7258 H   0  0  0  0  0  0  0  0  0  0  0  0
  148.9851  136.1369  157.2085 H   0  0  0  0  0  0  0  0  0  0  0  0
  1  2  1  0  0  0  0
  1 19  1  0  0  0  0
  1 20  1  0  0  0  0
  1 21  1  0  0  0  0
  2  3  1  0  0  0  0
  2 22  1  0  0  0  0
  2 23  1  0  0  0  0
  3 18  1  0  0  0  0
  3  4  1  0  0  0  0
  3 17  1  0  0  0  0
  4  5  1  0  0  0  0
  4 24  1  0  0  0  0
  4 25  1  0  0  0  0
  5  6  1  0  0  0  0
  5 26  1  0  0  0  0
  6  7  2  0  0  0  0
  6  8  1  0  0  0  0
  8  9  1  0  0  0  0
  8 27  1  0  0  0  0
  9 15  1  0  0  0  0
  9 10  2  0  0  0  0
 10 11  1  0  0  0  0
 11 12  2  0  0  0  0
 11 28  1  0  0  0  0
 12 13  1  0  0  0  0
 12 29  1  0  0  0  0
 13 14  1  0  0  0  0
 13 15  1  0  0  0  0
 14 30  1  0  0  0  0
 14 31  1  0  0  0  0
 14 32  1  0  0  0  0
 15 16  2  0  0  0  0
 17 18  1  0  0  0  0
 17 33  1  0  0  0  0
 17 34  1  0  0  0  0
 18 35  1  0  0  0  0
 18 36  1  0  0  0  0
M  END
> <s_m_source_file>
AV-unprocessed.smi

> <i_m_source_file_index>
2285

> <i_lp_mmshare_version>
43012

> <i_f3d_flags>
0

> <s_epik_input>
W0NIM11bQ0gyXUMxKFtDSDJdW0NIMl0xKVtDSDJdW05IXUMoPU8pW05IXWMybltjSF1bY0hdbihbQ0gzXSljMj1P

> <s_epik_cmdline>
J2VwaWtfcHl0aG9uJywgJy1waCcsICc3LjAnLCAnLXRuJywgJzgnLCAnLW1hJywgJzIwMCcsICctbWV0YWxfYmluZGluZycsICctaW1hZScsICc8aW5maWxlLm1hZT4nLCAnLW9tYWUnLCAnPG91dGZpbGUubWFlPic=

> <r_lp_tautomer_probability>
1

> <r_epik_Ionization_Penalty>
0.000603256

> <r_epik_Ionization_Penalty_Charging>
1.64466e-07

> <r_epik_Ionization_Penalty_Neutral>
0.000603092

> <r_epik_State_Penalty>
-0

> <r_epik_Charging_Adjusted_Penalty>
1.64466e-07

> <i_epik_Tot_Q>
0

> <i_epik_Tot_abs_Q>
0

> <r_epik_Metal_State_Penalty>
-0

> <b_epik_Metal_Only>
0

> <s_lp_Force_Field>
OPLS_2005

> <r_lp_Energy>
32.2968

> <b_lp_Chiralities_Consistent>
1

> <s_lp_Variant>
AV-unprocessed.smi:2285-1

> <Gold.Version>
5.8.1

> <Gold.Id.Protein>
6NUR|6NUR_protein|mol2

> <Gold.PLP.Fitness>
37.5035

> <Gold.PLP.PLP>
-31.9531

> <Gold.PLP.part.hbond>
-2.0000

> <Gold.PLP.part.metal>
0.0000

> <Gold.PLP.part.buried>
-4.6163

> <Gold.PLP.part.nonpolar>
-25.3729

> <Gold.PLP.part.repulsive>
0.3765

> <Gold.PLP.ligand.clash>
0.0000

> <Gold.PLP.ligand.torsion>
0.8055

> <Gold.PLP.Chemscore.Hbond>
2.0000

> <Gold.PLP.Chemscore.CHOScore>
0.0000

> <Gold.PLP.Chemscore.Metal>
0.0000

> <Gold.Chemscore.Hbonds>
donor molecule, donor type, donor heavy atom, donor atom, acceptor molecule, acceptor atom, score
      L1  H     5    26       P1  7948  1.00
      L1  H     8    27       P1  7948  0.98

> <Gold.PLP.Chemscore.Internal.Correction>
1.1615

> <Gold.Rescore>
     Score         DG    S(hbond)    S(metal)    S(lipo)     H(rot)  DE(clash)    DE(int)     intcor
     11.32     -13.45       1.61        0.00      54.54       1.49       0.01       2.12       ----

> <Gold.Chemscore.Fitness>
11.3152

> <Gold.Chemscore.DG>
-13.4455

> <Gold.Chemscore.ZeroCoef>
-5.4800

> <Gold.Chemscore.Hbond>
1.6135

> <Gold.Chemscore.Metal>
0.0000

> <Gold.Chemscore.Lipo>
54.5353

> <Gold.Chemscore.Internal_Hbond>
0.0000

> <Gold.Chemscore.DEClash>
0.0149

> <Gold.Chemscore.DEInternal>
2.1154

> <Gold.Chemscore.Rot>
1.4861

> <Gold.Chemscore.Internal.Correction>
   9.000000E+99

> <Gold.Chemscore.Hbonds>
donor molecule, donor type, donor heavy atom, donor atom, acceptor molecule, acceptor atom, score
      L1  H     5    26       P1  7948  0.34
      L1  H     8    27       P1  7948  0.35

> <Gold.Chemscore.Hbond.Weighted>
-5.3892

> <Gold.Chemscore.Metal.Weighted>
-0.0000

> <Gold.Chemscore.Lipo.Weighted>
-6.3806

> <Gold.Chemscore.Internal_Hbond.Weighted>
0.0000

> <Gold.Chemscore.DEClash.Weighted>
0.0149

> <Gold.Chemscore.DEInternal.Weighted>
2.1154

> <Gold.Chemscore.Rot.Weighted>
3.8044

> <Gold.Chemscore.Internal.Correction.Weighted>
   9.000000E+99

> <Gold.Protein.RotatedTorsions>
[ 6907 6896 6895 6894 ] final  -40.54 input  -60.11 | X-H torsion
[ 7974 7965 7964 7962 ] final -175.45 input  175.53 | X-H torsion
[ 8008 7997 7996 7995 ] final  133.91 input   59.86 | X-H torsion
[ 10167 10162 10161 10158 ] final -102.53 input  -65.29 | X-H torsion
[ 10718 10713 10712 10709 ] final    0.73 input   66.30 | X-H torsion
[ 10763 10752 10751 10750 ] final   31.01 input  -60.55 | X-H torsion
[ 11005 11000 10999 10996 ] final   -4.55 input  -57.11 | X-H torsion

> <Gold.Protein.ActiveResidues>
 VAL166  LYS551  ARG553  GLY616  TRP617  ASP618  TYR619  PRO620  LYS621  CYS622 
 ASP623  PHE694  ASN695  SER759  ASP760  ASP761  ALA762  ILE779  LEU786  VAL792 
 PHE793  MET794  SER795  GLU796  ALA797  LYS798  CYS799  TRP800  GLU811  SER814 

> <Gold.Protein.RotatedAtoms>
  150.9772  134.9134  159.7822 H   0  0  0  0  0  0  0  0  0  0  0  0  # atno 6907 bound_to 6896
  152.5210  134.3460  159.9244 H   0  0  0  0  0  0  0  0  0  0  0  0  # atno 6908 bound_to 6896
  151.3467  133.3900  159.2711 H   0  0  0  0  0  0  0  0  0  0  0  0  # atno 6909 bound_to 6896
  144.7128  140.1319  143.6398 H   0  0  0  0  0  0  0  0  0  0  0  0  # atno 7974 bound_to 7965
  156.2996  140.2509  156.3331 H   0  0  0  0  0  0  0  0  0  0  0  0  # atno 8008 bound_to 7997
  154.9126  140.0403  157.1974 H   0  0  0  0  0  0  0  0  0  0  0  0  # atno 8009 bound_to 7997
  154.8390  140.2888  155.5676 H   0  0  0  0  0  0  0  0  0  0  0  0  # atno 8010 bound_to 7997
  140.2297  143.3616  152.0898 H   0  0  0  0  0  0  0  0  0  0  0  0  # atno 10167 bound_to 10162
  156.8378  130.5510  149.5680 H   0  0  0  0  0  0  0  0  0  0  0  0  # atno 10718 bound_to 10713
  153.0339  135.6450  154.1133 H   0  0  0  0  0  0  0  0  0  0  0  0  # atno 10763 bound_to 10752
  154.0851  135.2870  155.3284 H   0  0  0  0  0  0  0  0  0  0  0  0  # atno 10764 bound_to 10752
  154.6503  135.5428  153.7958 H   0  0  0  0  0  0  0  0  0  0  0  0  # atno 10765 bound_to 10752
  140.6815  133.9149  155.8558 H   0  0  0  0  0  0  0  0  0  0  0  0  # atno 11005 bound_to 11000
  145.9279  139.2587  143.1342 LP  0  0  0  0  0  0  0  0  0  0  0  0  # atno 17320 bound_to 7965
  145.9553  140.8878  143.0238 LP  0  0  0  0  0  0  0  0  0  0  0  0  # atno 17321 bound_to 7965
  139.5114  144.6901  151.5784 LP  0  0  0  0  0  0  0  0  0  0  0  0  # atno 17342 bound_to 10162
  140.6194  143.9286  150.6514 LP  0  0  0  0  0  0  0  0  0  0  0  0  # atno 17343 bound_to 10162
  156.0898  130.5886  150.9712 LP  0  0  0  0  0  0  0  0  0  0  0  0  # atno 17370 bound_to 10713
  157.6372  131.0914  150.8324 LP  0  0  0  0  0  0  0  0  0  0  0  0  # atno 17371 bound_to 10713
  141.0314  134.0751  157.4010 LP  0  0  0  0  0  0  0  0  0  0  0  0  # atno 17394 bound_to 11000
  139.8950  135.0139  156.6981 LP  0  0  0  0  0  0  0  0  0  0  0  0  # atno 17395 bound_to 11000

$$$$
