AV-unprocessed.smi:2260|AV-procd|sdf|9132|dock2
  -GOLD-   2272012333D 1   1.00000     0.00000
 Structure written by MMmdl.
 43 44  0  0  0  0  0  0  0  0  2 V2000
  151.0823  144.3878  159.7283 C   0  0  0  0  0  0  0  0  0  0  0  0
  152.0326  143.2128  159.5776 C   0  0  0  0  0  0  0  0  0  0  0  0
  153.0356  142.9084  160.4081 C   0  0  0  0  0  0  0  0  0  0  0  0
  153.8952  141.4637  159.9291 S   0  0  0  0  0  0  0  0  0  0  0  0
  152.8022  141.2718  158.5114 C   0  0  0  0  0  0  0  0  0  0  0  0
  152.8981  140.3420  157.7121 O   0  0  0  0  0  0  0  0  0  0  0  0
  151.8850  142.3207  158.5082 N   0  0  0  0  0  0  0  0  0  0  0  0
  150.8634  142.4492  157.4652 C   0  0  0  0  0  0  0  0  0  0  0  0
  149.5777  141.7018  157.8506 C   0  0  0  0  0  0  0  0  0  0  0  0
  148.5067  141.9591  156.8660 N   0  3  0  0  0  0  0  0  0  0  0  0
  148.1519  140.8163  155.9908 C   0  0  2  0  0  0  0  0  0  0  0  0
  149.2910  140.5016  154.9927 C   0  0  0  0  0  0  0  0  0  0  0  0
  148.9387  139.3141  154.0866 C   0  0  0  0  0  0  0  0  0  0  0  0
  147.6126  139.5474  153.3534 C   0  0  0  0  0  0  0  0  0  0  0  0
  146.4796  139.8582  154.3454 C   0  0  0  0  0  0  0  0  0  0  0  0
  146.7847  141.0590  155.2784 C   0  0  0  0  0  0  0  0  0  0  0  0
  145.6550  141.1349  156.3286 C   0  0  0  0  0  0  0  0  0  0  0  0
  146.7754  142.3753  154.4637 C   0  0  0  0  0  0  0  0  0  0  0  0
  151.1217  144.7775  160.7460 H   0  0  0  0  0  0  0  0  0  0  0  0
  150.0500  144.1025  159.5277 H   0  0  0  0  0  0  0  0  0  0  0  0
  151.3639  145.1917  159.0478 H   0  0  0  0  0  0  0  0  0  0  0  0
  153.3203  143.4541  161.2959 H   0  0  0  0  0  0  0  0  0  0  0  0
  150.6505  143.4987  157.2616 H   0  0  0  0  0  0  0  0  0  0  0  0
  151.2518  142.0509  156.5261 H   0  0  0  0  0  0  0  0  0  0  0  0
  149.7751  140.6313  157.9073 H   0  0  0  0  0  0  0  0  0  0  0  0
  149.2449  142.0207  158.8390 H   0  0  0  0  0  0  0  0  0  0  0  0
  147.6766  142.2042  157.3865 H   0  0  0  0  0  0  0  0  0  0  0  0
  148.0293  139.9425  156.6334 H   0  0  0  0  0  0  0  0  0  0  0  0
  149.5149  141.3763  154.3818 H   0  0  0  0  0  0  0  0  0  0  0  0
  150.2113  140.2644  155.5260 H   0  0  0  0  0  0  0  0  0  0  0  0
  149.7383  139.1455  153.3649 H   0  0  0  0  0  0  0  0  0  0  0  0
  148.8682  138.4062  154.6868 H   0  0  0  0  0  0  0  0  0  0  0  0
  147.7224  140.3608  152.6360 H   0  0  0  0  0  0  0  0  0  0  0  0
  147.3563  138.6631  152.7692 H   0  0  0  0  0  0  0  0  0  0  0  0
  145.5543  140.0335  153.7947 H   0  0  0  0  0  0  0  0  0  0  0  0
  146.3006  138.9667  154.9485 H   0  0  0  0  0  0  0  0  0  0  0  0
  144.6792  141.2379  155.8521 H   0  0  0  0  0  0  0  0  0  0  0  0
  145.7766  141.9875  156.9973 H   0  0  0  0  0  0  0  0  0  0  0  0
  145.6209  140.2369  156.9467 H   0  0  0  0  0  0  0  0  0  0  0  0
  145.8286  142.5031  153.9379 H   0  0  0  0  0  0  0  0  0  0  0  0
  147.5643  142.4094  153.7137 H   0  0  0  0  0  0  0  0  0  0  0  0
  146.9018  143.2485  155.1040 H   0  0  0  0  0  0  0  0  0  0  0  0
  148.7634  142.7466  156.2879 H   0  0  0  0  0  0  0  0  0  0  0  0
  1  2  1  0  0  0  0
  1 19  1  0  0  0  0
  1 20  1  0  0  0  0
  1 21  1  0  0  0  0
  2  7  1  0  0  0  0
  2  3  2  0  0  0  0
  3  4  1  0  0  0  0
  3 22  1  0  0  0  0
  4  5  1  0  0  0  0
  5  6  2  0  0  0  0
  5  7  1  0  0  0  0
  7  8  1  0  0  0  0
  8  9  1  0  0  0  0
  8 23  1  0  0  0  0
  8 24  1  0  0  0  0
  9 10  1  0  0  0  0
  9 25  1  0  0  0  0
  9 26  1  0  0  0  0
 10 11  1  0  0  0  0
 10 27  1  0  0  0  0
 10 43  1  0  0  0  0
 11 16  1  0  0  0  0
 11 12  1  0  0  0  0
 11 28  1  0  0  0  0
 12 13  1  0  0  0  0
 12 29  1  0  0  0  0
 12 30  1  0  0  0  0
 13 14  1  0  0  0  0
 13 31  1  0  0  0  0
 13 32  1  0  0  0  0
 14 15  1  0  0  0  0
 14 33  1  0  0  0  0
 14 34  1  0  0  0  0
 15 16  1  0  0  0  0
 15 35  1  0  0  0  0
 15 36  1  0  0  0  0
 16 17  1  0  0  0  0
 16 18  1  0  0  0  0
 17 37  1  0  0  0  0
 17 38  1  0  0  0  0
 17 39  1  0  0  0  0
 18 40  1  0  0  0  0
 18 41  1  0  0  0  0
 18 42  1  0  0  0  0
M  CHG  1  10   1
M  END
> <s_m_source_file>
AV-unprocessed.smi

> <i_m_source_file_index>
2260

> <i_lp_mmshare_version>
43012

> <i_f3d_flags>
0

> <s_epik_input>
W0NIM11jMVtjSF1zYyg9TyluMVtDSDJdW0NIMl1bTkhdW0NAQEhdKEMyKFtDSDNdKVtDSDNdKVtDSDJdW0NIMl1bQ0gyXVtDSDJdMg==

> <s_epik_cmdline>
J2VwaWtfcHl0aG9uJywgJy1waCcsICc3LjAnLCAnLXRuJywgJzgnLCAnLW1hJywgJzIwMCcsICctbWV0YWxfYmluZGluZycsICctaW1hZScsICc8aW5maWxlLm1hZT4nLCAnLW9tYWUnLCAnPG91dGZpbGUubWFlPic=

> <r_epik_Ionization_Penalty>
0.0114277

> <r_epik_Ionization_Penalty_Charging>
0.0114277

> <r_epik_Ionization_Penalty_Neutral>
2.57259e-08

> <r_epik_State_Penalty>
0.0087935

> <r_epik_Charging_Adjusted_Penalty>
0.0202212

> <i_epik_Tot_Q>
1

> <i_epik_Tot_abs_Q>
1

> <r_epik_Metal_State_Penalty>
0.0087935

> <b_epik_Metal_Only>
0

> <s_lp_Force_Field>
OPLS_2005

> <r_lp_Energy>
26.3368

> <b_lp_Chiralities_Consistent>
1

> <s_lp_Variant>
AV-unprocessed.smi:2260-1

> <Gold.Version>
5.8.1

> <Gold.Id.Protein>
6NUR|6NUR_protein|mol2

> <Gold.PLP.Fitness>
42.5841

> <Gold.PLP.PLP>
-36.6066

> <Gold.PLP.part.hbond>
-2.0000

> <Gold.PLP.part.metal>
0.0000

> <Gold.PLP.part.buried>
-2.4846

> <Gold.PLP.part.nonpolar>
-31.8810

> <Gold.PLP.part.repulsive>
0.0023

> <Gold.PLP.ligand.clash>
0.0000

> <Gold.PLP.ligand.torsion>
0.8090

> <Gold.PLP.Chemscore.Hbond>
2.5280

> <Gold.PLP.Chemscore.CHOScore>
0.0000

> <Gold.PLP.Chemscore.Metal>
0.0000

> <Gold.Chemscore.Hbonds>
donor molecule, donor type, donor heavy atom, donor atom, acceptor molecule, acceptor atom, score
      L1  H    10    43       P1  8028  1.79
      P1  H  7997  8009       L1     6  0.91

> <Gold.PLP.Chemscore.Internal.Correction>
0.0115

> <Gold.Rescore>
     Score         DG    S(hbond)    S(metal)    S(lipo)     H(rot)  DE(clash)    DE(int)     intcor
     16.89     -17.74       1.61        0.00      91.07       1.48       0.01       0.84       ----

> <Gold.Chemscore.Fitness>
16.8917

> <Gold.Chemscore.DG>
-17.7412

> <Gold.Chemscore.ZeroCoef>
-5.4800

> <Gold.Chemscore.Hbond>
1.6142

> <Gold.Chemscore.Metal>
0.0000

> <Gold.Chemscore.Lipo>
91.0650

> <Gold.Chemscore.Internal_Hbond>
0.0000

> <Gold.Chemscore.DEClash>
0.0064

> <Gold.Chemscore.DEInternal>
0.8431

> <Gold.Chemscore.Rot>
1.4785

> <Gold.Chemscore.Internal.Correction>
   9.000000E+99

> <Gold.Chemscore.Hbonds>
donor molecule, donor type, donor heavy atom, donor atom, acceptor molecule, acceptor atom, score
      L1  H    10    43       P1  8028  0.86
      P1  H  7997  8009       L1     6  0.85

> <Gold.Chemscore.Hbond.Weighted>
-5.3916

> <Gold.Chemscore.Metal.Weighted>
-0.0000

> <Gold.Chemscore.Lipo.Weighted>
-10.6546

> <Gold.Chemscore.Internal_Hbond.Weighted>
0.0000

> <Gold.Chemscore.DEClash.Weighted>
0.0064

> <Gold.Chemscore.DEInternal.Weighted>
0.8431

> <Gold.Chemscore.Rot.Weighted>
3.7850

> <Gold.Chemscore.Internal.Correction.Weighted>
   9.000000E+99

> <Gold.Protein.RotatedTorsions>
[ 6907 6896 6895 6894 ] final  -44.78 input  -60.11 | X-H torsion
[ 7974 7965 7964 7962 ] final  108.63 input  175.53 | X-H torsion
[ 8008 7997 7996 7995 ] final  166.41 input   59.86 | X-H torsion
[ 10167 10162 10161 10158 ] final   74.46 input  -65.29 | X-H torsion
[ 10718 10713 10712 10709 ] final    9.69 input   66.30 | X-H torsion
[ 10763 10752 10751 10750 ] final  -53.95 input  -60.55 | X-H torsion
[ 11005 11000 10999 10996 ] final  -30.26 input  -57.11 | X-H torsion

> <Gold.Protein.ActiveResidues>
 VAL166  LYS551  ARG553  GLY616  TRP617  ASP618  TYR619  PRO620  LYS621  CYS622 
 ASP623  PHE694  ASN695  SER759  ASP760  ASP761  ALA762  ILE779  LEU786  VAL792 
 PHE793  MET794  SER795  GLU796  ALA797  LYS798  CYS799  TRP800  GLU811  SER814 

> <Gold.Protein.RotatedAtoms>
  150.9291  134.8707  159.7539 H   0  0  0  0  0  0  0  0  0  0  0  0  # atno 6907 bound_to 6896
  152.5029  134.4105  159.9457 H   0  0  0  0  0  0  0  0  0  0  0  0  # atno 6908 bound_to 6896
  151.4134  133.3680  159.2782 H   0  0  0  0  0  0  0  0  0  0  0  0  # atno 6909 bound_to 6896
  145.2782  139.2642  143.3930 H   0  0  0  0  0  0  0  0  0  0  0  0  # atno 7974 bound_to 7965
  156.1720  140.1644  156.8430 H   0  0  0  0  0  0  0  0  0  0  0  0  # atno 8008 bound_to 7997
  154.5267  140.0766  156.8305 H   0  0  0  0  0  0  0  0  0  0  0  0  # atno 8009 bound_to 7997
  155.3492  140.3389  155.4241 H   0  0  0  0  0  0  0  0  0  0  0  0  # atno 8010 bound_to 7997
  140.0134  144.5596  150.7640 H   0  0  0  0  0  0  0  0  0  0  0  0  # atno 10167 bound_to 10162
  156.9701  130.5966  149.5668 H   0  0  0  0  0  0  0  0  0  0  0  0  # atno 10718 bound_to 10713
  154.1670  135.6465  153.5000 H   0  0  0  0  0  0  0  0  0  0  0  0  # atno 10763 bound_to 10752
  153.0095  135.5374  154.6652 H   0  0  0  0  0  0  0  0  0  0  0  0  # atno 10764 bound_to 10752
  154.5981  135.2941  155.0537 H   0  0  0  0  0  0  0  0  0  0  0  0  # atno 10765 bound_to 10752
  140.9368  133.7304  156.1016 H   0  0  0  0  0  0  0  0  0  0  0  0  # atno 11005 bound_to 11000
  146.3225  140.3242  142.8635 LP  0  0  0  0  0  0  0  0  0  0  0  0  # atno 17320 bound_to 7965
  144.9276  140.7939  143.5709 LP  0  0  0  0  0  0  0  0  0  0  0  0  # atno 17321 bound_to 7965
  140.7372  143.2762  151.3734 LP  0  0  0  0  0  0  0  0  0  0  0  0  # atno 17342 bound_to 10162
  139.6189  144.0947  152.2372 LP  0  0  0  0  0  0  0  0  0  0  0  0  # atno 17343 bound_to 10162
  156.0286  130.5379  150.8474 LP  0  0  0  0  0  0  0  0  0  0  0  0  # atno 17370 bound_to 10713
  157.5598  131.0945  150.9575 LP  0  0  0  0  0  0  0  0  0  0  0  0  # atno 17371 bound_to 10713
  140.7788  134.3748  157.5492 LP  0  0  0  0  0  0  0  0  0  0  0  0  # atno 17394 bound_to 11000
  139.8810  134.9069  156.2932 LP  0  0  0  0  0  0  0  0  0  0  0  0  # atno 17395 bound_to 11000

$$$$
