AV-unprocessed.smi:213|AV-procd|sdf|1648|dock9
  -GOLD-   2262020 23D 1   1.00000     0.00000
 Structure written by MMmdl.
 58 61  0  0  0  0  0  0  0  0  1 V2000
  151.6947  139.9633  155.6015 C   0  0  0  0  0  0  0  0  0  0  0  0
  150.3458  140.5604  156.0512 C   0  0  1  0  0  0  0  0  0  0  0  0
  150.4426  142.0707  156.3779 C   0  0  0  0  0  0  0  0  0  0  0  0
  151.4722  142.4468  157.3483 N   0  0  0  0  0  0  0  0  0  0  0  0
  151.2551  141.7734  158.6241 C   0  0  0  0  0  0  0  0  0  0  0  0
  152.3399  142.1281  159.6543 C   0  0  0  0  0  0  0  0  0  0  0  0
  152.3769  143.5397  159.8338 O   0  0  0  0  0  0  0  0  0  0  0  0
  152.6366  144.2376  158.6206 C   0  0  0  0  0  0  0  0  0  0  0  0
  151.5644  143.8859  157.5740 C   0  0  0  0  0  0  0  0  0  0  0  0
  149.3255  140.3098  155.0289 N   0  0  0  0  0  0  0  0  0  0  0  0
  148.8799  141.3785  154.1370 C   0  0  0  0  0  0  0  0  0  0  0  0
  148.6291  139.1410  155.0081 C   0  0  0  0  0  0  0  0  0  0  0  0
  148.9469  138.2007  155.9376 N   0  0  0  0  0  0  0  0  0  0  0  0
  148.2949  137.0358  155.9793 C   0  0  0  0  0  0  0  0  0  0  0  0
  147.3064  136.6057  155.1951 N   0  0  0  0  0  0  0  0  0  0  0  0
  146.9879  137.5337  154.2489 C   0  0  0  0  0  0  0  0  0  0  0  0
  147.5915  138.8145  154.0822 C   0  0  0  0  0  0  0  0  0  0  0  0
  147.0083  139.4604  152.9964 N   0  0  0  0  0  0  0  0  0  0  0  0
  146.1095  138.6232  152.5596 C   0  0  0  0  0  0  0  0  0  0  0  0
  146.0301  137.4399  153.2546 N   0  0  0  0  0  0  0  0  0  0  0  0
  145.1271  136.3362  152.9815 C   0  0  0  0  0  0  0  0  0  0  0  0
  145.5144  135.5629  151.7063 C   0  0  1  0  0  0  0  0  0  0  0  0
  146.7782  134.9452  151.8601 O   0  0  0  0  0  0  0  0  0  0  0  0
  144.4473  134.5308  151.2878 C   0  0  1  0  0  0  0  0  0  0  0  0
  144.5365  133.9961  149.8561 C   0  0  0  0  0  0  0  0  0  0  0  0
  143.7652  132.7010  149.9813 C   0  0  0  0  0  0  0  0  0  0  0  0
  144.1924  132.2135  151.3643 C   0  0  0  0  0  0  0  0  0  0  0  0
  144.4422  133.3856  152.1362 O   0  0  0  0  0  0  0  0  0  0  0  0
  152.4598  140.0524  156.3702 H   0  0  0  0  0  0  0  0  0  0  0  0
  152.0802  140.4558  154.7087 H   0  0  0  0  0  0  0  0  0  0  0  0
  151.5912  138.9019  155.3742 H   0  0  0  0  0  0  0  0  0  0  0  0
  150.0628  140.0191  156.9533 H   0  0  0  0  0  0  0  0  0  0  0  0
  150.5621  142.6464  155.4589 H   0  0  0  0  0  0  0  0  0  0  0  0
  149.4810  142.3840  156.7874 H   0  0  0  0  0  0  0  0  0  0  0  0
  150.2765  142.0446  159.0236 H   0  0  0  0  0  0  0  0  0  0  0  0
  151.2430  140.6930  158.4750 H   0  0  0  0  0  0  0  0  0  0  0  0
  152.1261  141.6513  160.6110 H   0  0  0  0  0  0  0  0  0  0  0  0
  153.3169  141.7686  159.3269 H   0  0  0  0  0  0  0  0  0  0  0  0
  152.6361  145.3097  158.8179 H   0  0  0  0  0  0  0  0  0  0  0  0
  153.6311  143.9801  158.2528 H   0  0  0  0  0  0  0  0  0  0  0  0
  151.8219  144.3943  156.6461 H   0  0  0  0  0  0  0  0  0  0  0  0
  150.5974  144.2751  157.8954 H   0  0  0  0  0  0  0  0  0  0  0  0
  147.7936  141.3822  154.0390 H   0  0  0  0  0  0  0  0  0  0  0  0
  149.3160  141.2495  153.1461 H   0  0  0  0  0  0  0  0  0  0  0  0
  149.1764  142.3574  154.5137 H   0  0  0  0  0  0  0  0  0  0  0  0
  148.6095  136.3506  156.7523 H   0  0  0  0  0  0  0  0  0  0  0  0
  145.4794  138.8460  151.7108 H   0  0  0  0  0  0  0  0  0  0  0  0
  145.1136  135.6719  153.8464 H   0  0  0  0  0  0  0  0  0  0  0  0
  144.1189  136.7401  152.8839 H   0  0  0  0  0  0  0  0  0  0  0  0
  145.6197  136.2777  150.8892 H   0  0  0  0  0  0  0  0  0  0  0  0
  147.4463  135.5548  151.5867 H   0  0  0  0  0  0  0  0  0  0  0  0
  143.4648  134.9909  151.4078 H   0  0  0  0  0  0  0  0  0  0  0  0
  144.1115  134.6786  149.1196 H   0  0  0  0  0  0  0  0  0  0  0  0
  145.5658  133.7799  149.5685 H   0  0  0  0  0  0  0  0  0  0  0  0
  142.6928  132.9012  149.9673 H   0  0  0  0  0  0  0  0  0  0  0  0
  143.9907  131.9872  149.1886 H   0  0  0  0  0  0  0  0  0  0  0  0
  143.4394  131.5794  151.8329 H   0  0  0  0  0  0  0  0  0  0  0  0
  145.1194  131.6429  151.2957 H   0  0  0  0  0  0  0  0  0  0  0  0
  1  2  1  0  0  0  0
  1 29  1  0  0  0  0
  1 30  1  0  0  0  0
  1 31  1  0  0  0  0
  2  3  1  0  0  0  0
  2 10  1  0  0  0  0
  2 32  1  0  0  0  0
  3  4  1  0  0  0  0
  3 33  1  0  0  0  0
  3 34  1  0  0  0  0
  4  9  1  0  0  0  0
  4  5  1  0  0  0  0
  5  6  1  0  0  0  0
  5 35  1  0  0  0  0
  5 36  1  0  0  0  0
  6  7  1  0  0  0  0
  6 37  1  0  0  0  0
  6 38  1  0  0  0  0
  7  8  1  0  0  0  0
  8  9  1  0  0  0  0
  8 39  1  0  0  0  0
  8 40  1  0  0  0  0
  9 41  1  0  0  0  0
  9 42  1  0  0  0  0
 10 11  1  0  0  0  0
 10 12  1  0  0  0  0
 11 43  1  0  0  0  0
 11 44  1  0  0  0  0
 11 45  1  0  0  0  0
 12 17  1  0  0  0  0
 12 13  2  0  0  0  0
 13 14  1  0  0  0  0
 14 15  2  0  0  0  0
 14 46  1  0  0  0  0
 15 16  1  0  0  0  0
 16 20  1  0  0  0  0
 16 17  2  0  0  0  0
 17 18  1  0  0  0  0
 18 19  2  0  0  0  0
 19 20  1  0  0  0  0
 19 47  1  0  0  0  0
 20 21  1  0  0  0  0
 21 22  1  0  0  0  0
 21 48  1  0  0  0  0
 21 49  1  0  0  0  0
 22 23  1  0  0  0  0
 22 24  1  0  0  0  0
 22 50  1  0  0  0  0
 23 51  1  0  0  0  0
 24 28  1  0  0  0  0
 24 25  1  0  0  0  0
 24 52  1  0  0  0  0
 25 26  1  0  0  0  0
 25 53  1  0  0  0  0
 25 54  1  0  0  0  0
 26 27  1  0  0  0  0
 26 55  1  0  0  0  0
 26 56  1  0  0  0  0
 27 28  1  0  0  0  0
 27 57  1  0  0  0  0
 27 58  1  0  0  0  0
M  END
> <s_m_source_file>
AV-unprocessed.smi

> <i_m_source_file_index>
213

> <i_lp_mmshare_version>
43012

> <i_f3d_flags>
0

> <s_epik_input>
W0NIMl0xW0NIMl1PW0NIMl1bQ0gyXU4xW0NIMl1bQ0BASF0oW0NIM10pTihbQ0gzXSljKG5bY0hdbjIpYyhjMjMpbltjSF1uM1tDSDJdW0NASF0oW09IXSlbQ0BASF00W0NIMl1bQ0gyXVtDSDJdTzQ=

> <s_epik_cmdline>
J2VwaWtfcHl0aG9uJywgJy1waCcsICc3LjAnLCAnLXRuJywgJzgnLCAnLW1hJywgJzIwMCcsICctbWV0YWxfYmluZGluZycsICctaW1hZScsICc8aW5maWxlLm1hZT4nLCAnLW9tYWUnLCAnPG91dGZpbGUubWFlPic=

> <r_lp_tautomer_probability>
1

> <r_epik_Ionization_Penalty>
0.423322

> <r_epik_Ionization_Penalty_Charging>
0

> <r_epik_Ionization_Penalty_Neutral>
0.423322

> <r_epik_State_Penalty>
0.569486

> <r_epik_Charging_Adjusted_Penalty>
0.569486

> <i_epik_Tot_Q>
0

> <i_epik_Tot_abs_Q>
0

> <r_epik_Metal_State_Penalty>
0.568671

> <b_epik_Metal_Only>
0

> <s_lp_Force_Field>
OPLS_2005

> <r_lp_Energy>
55.4432

> <b_lp_Chiralities_Consistent>
1

> <s_lp_Variant>
AV-unprocessed.smi:213-16

> <Gold.Version>
5.8.1

> <Gold.Id.Protein>
6NUR|6NUR_protein|mol2

> <Gold.PLP.Fitness>
49.6238

> <Gold.PLP.PLP>
-43.4695

> <Gold.PLP.part.hbond>
-0.8901

> <Gold.PLP.part.metal>
0.0000

> <Gold.PLP.part.buried>
-1.8015

> <Gold.PLP.part.nonpolar>
-41.4372

> <Gold.PLP.part.repulsive>
0.5146

> <Gold.PLP.ligand.clash>
0.0000

> <Gold.PLP.ligand.torsion>
0.9689

> <Gold.PLP.Chemscore.Hbond>
1.0000

> <Gold.PLP.Chemscore.CHOScore>
1.5704

> <Gold.PLP.Chemscore.Metal>
0.0000

> <Gold.Chemscore.Hbonds>
donor molecule, donor type, donor heavy atom, donor atom, acceptor molecule, acceptor atom, score
      L1  H    23    51       P1  7948  0.98
      L1  C    19    47       P1 10171  1.00
      L1  C    19    47       P1 10175  0.58

> <Gold.PLP.Chemscore.Internal.Correction>
0.3808

> <Gold.Rescore>
     Score         DG    S(hbond)    S(metal)    S(lipo)     H(rot)  DE(clash)    DE(int)     intcor
     12.68     -15.07       0.98        0.00     113.89       2.74       0.15       2.25       ----

> <Gold.Chemscore.Fitness>
12.6790

> <Gold.Chemscore.DG>
-15.0740

> <Gold.Chemscore.ZeroCoef>
-5.4800

> <Gold.Chemscore.Hbond>
0.9812

> <Gold.Chemscore.Metal>
0.0000

> <Gold.Chemscore.Lipo>
113.8921

> <Gold.Chemscore.Internal_Hbond>
0.0000

> <Gold.Chemscore.DEClash>
0.1488

> <Gold.Chemscore.DEInternal>
2.2462

> <Gold.Chemscore.Rot>
2.7378

> <Gold.Chemscore.Internal.Correction>
   9.000000E+99

> <Gold.Chemscore.Hbonds>
donor molecule, donor type, donor heavy atom, donor atom, acceptor molecule, acceptor atom, score
      L1  H    23    51       P1  7948  0.91

> <Gold.Chemscore.Hbond.Weighted>
-3.2773

> <Gold.Chemscore.Metal.Weighted>
-0.0000

> <Gold.Chemscore.Lipo.Weighted>
-13.3254

> <Gold.Chemscore.Internal_Hbond.Weighted>
0.0000

> <Gold.Chemscore.DEClash.Weighted>
0.1488

> <Gold.Chemscore.DEInternal.Weighted>
2.2462

> <Gold.Chemscore.Rot.Weighted>
7.0087

> <Gold.Chemscore.Internal.Correction.Weighted>
   9.000000E+99

> <Gold.Protein.RotatedTorsions>
[ 6907 6896 6895 6894 ] final -127.59 input  -60.11 | X-H torsion
[ 7974 7965 7964 7962 ] final -175.07 input  175.53 | X-H torsion
[ 8008 7997 7996 7995 ] final   34.86 input   59.86 | X-H torsion
[ 10167 10162 10161 10158 ] final   98.06 input  -65.29 | X-H torsion
[ 10718 10713 10712 10709 ] final -141.24 input   66.30 | X-H torsion
[ 10763 10752 10751 10750 ] final  148.52 input  -60.55 | X-H torsion
[ 11005 11000 10999 10996 ] final    4.55 input  -57.11 | X-H torsion

> <Gold.Protein.ActiveResidues>
 VAL166  LYS551  ARG553  GLY616  TRP617  ASP618  TYR619  PRO620  LYS621  CYS622 
 ASP623  PHE694  ASN695  SER759  ASP760  ASP761  ALA762  ILE779  LEU786  VAL792 
 PHE793  MET794  SER795  GLU796  ALA797  LYS798  CYS799  TRP800  GLU811  SER814 

> <Gold.Protein.RotatedAtoms>
  150.9089  133.7022  159.2859 H   0  0  0  0  0  0  0  0  0  0  0  0  # atno 6907 bound_to 6896
  151.4516  135.1029  159.9709 H   0  0  0  0  0  0  0  0  0  0  0  0  # atno 6908 bound_to 6896
  152.4919  133.8474  159.7239 H   0  0  0  0  0  0  0  0  0  0  0  0  # atno 6909 bound_to 6896
  144.7129  140.1377  143.6394 H   0  0  0  0  0  0  0  0  0  0  0  0  # atno 7974 bound_to 7965
  155.1616  140.3284  155.4410 H   0  0  0  0  0  0  0  0  0  0  0  0  # atno 8008 bound_to 7997
  156.2540  140.1959  156.6674 H   0  0  0  0  0  0  0  0  0  0  0  0  # atno 8009 bound_to 7997
  154.6400  140.0571  156.9821 H   0  0  0  0  0  0  0  0  0  0  0  0  # atno 8010 bound_to 7997
  139.7743  144.6911  151.0111 H   0  0  0  0  0  0  0  0  0  0  0  0  # atno 10167 bound_to 10162
  156.3317  130.7590  151.1709 H   0  0  0  0  0  0  0  0  0  0  0  0  # atno 10718 bound_to 10713
  154.0561  135.2878  155.3332 H   0  0  0  0  0  0  0  0  0  0  0  0  # atno 10763 bound_to 10752
  154.6838  135.5253  153.8302 H   0  0  0  0  0  0  0  0  0  0  0  0  # atno 10764 bound_to 10752
  153.0541  135.6588  154.0753 H   0  0  0  0  0  0  0  0  0  0  0  0  # atno 10765 bound_to 10752
  140.5806  134.0016  155.8046 H   0  0  0  0  0  0  0  0  0  0  0  0  # atno 11005 bound_to 11000
  145.9230  139.2558  143.1370 LP  0  0  0  0  0  0  0  0  0  0  0  0  # atno 17320 bound_to 7965
  145.9601  140.8842  143.0215 LP  0  0  0  0  0  0  0  0  0  0  0  0  # atno 17321 bound_to 7965
  140.7815  143.4553  151.0354 LP  0  0  0  0  0  0  0  0  0  0  0  0  # atno 17342 bound_to 10162
  139.8236  143.7787  152.3178 LP  0  0  0  0  0  0  0  0  0  0  0  0  # atno 17343 bound_to 10162
  157.7431  131.0479  150.4969 LP  0  0  0  0  0  0  0  0  0  0  0  0  # atno 17370 bound_to 10713
  156.5136  130.4145  149.6288 LP  0  0  0  0  0  0  0  0  0  0  0  0  # atno 17371 bound_to 10713
  141.0998  133.9786  157.3098 LP  0  0  0  0  0  0  0  0  0  0  0  0  # atno 17394 bound_to 11000
  139.9319  135.0199  156.8428 LP  0  0  0  0  0  0  0  0  0  0  0  0  # atno 17395 bound_to 11000

$$$$
