AV-unprocessed.smi:224|AV-procd|sdf|1711|dock8
  -GOLD-   2262020183D 1   1.00000     0.00000
 Structure written by MMmdl.
 56 59  0  0  0  0  0  0  0  0  2 V2000
  147.0569  128.1173  151.6873 C   0  0  0  0  0  0  0  0  0  0  0  0
  146.5663  128.7350  153.0053 C   0  0  2  0  0  0  0  0  0  0  0  0
  145.3343  128.1332  153.3432 O   0  0  0  0  0  0  0  0  0  0  0  0
  146.3551  130.2596  152.9115 C   0  0  0  0  0  0  0  0  0  0  0  0
  147.6378  131.0169  152.9791 N   0  3  2  0  0  0  0  0  0  0  0  0
  148.3941  130.6754  154.2186 C   0  0  0  0  0  0  0  0  0  0  0  0
  149.7310  131.4292  154.3216 C   0  0  0  0  0  0  0  0  0  0  0  0
  149.5398  132.8650  154.1514 N   0  0  0  0  0  0  0  0  0  0  0  0
  149.2395  133.6360  155.2317 C   0  0  0  0  0  0  0  0  0  0  0  0
  150.0041  134.7229  155.5207 N   0  0  0  0  0  0  0  0  0  0  0  0
  149.7376  135.4762  156.5914 C   0  0  0  0  0  0  0  0  0  0  0  0
  148.7677  135.3268  157.4940 N   0  0  0  0  0  0  0  0  0  0  0  0
  147.9853  134.2485  157.2051 C   0  0  0  0  0  0  0  0  0  0  0  0
  148.1444  133.3626  156.1015 C   0  0  0  0  0  0  0  0  0  0  0  0
  147.1425  132.3988  156.1256 N   0  0  0  0  0  0  0  0  0  0  0  0
  146.4440  132.6876  157.1891 C   0  0  0  0  0  0  0  0  0  0  0  0
  146.8889  133.7759  157.9044 N   0  0  0  0  0  0  0  0  0  0  0  0
  146.3148  134.3096  159.1295 C   0  0  0  0  0  0  0  0  0  0  0  0
  147.3438  134.4495  160.2757 C   0  0  2  0  0  0  0  0  0  0  0  0
  148.1949  133.3162  160.2765 O   0  0  0  0  0  0  0  0  0  0  0  0
  146.7180  134.5844  161.6618 C   0  0  0  0  0  0  0  0  0  0  0  0
  147.7032  135.4840  162.3947 C   0  0  0  0  0  0  0  0  0  0  0  0
  148.0703  136.4156  161.3921 O   0  0  0  0  0  0  0  0  0  0  0  0
  148.2157  135.7161  160.1605 C   0  0  0  0  0  0  0  0  0  0  0  0
  148.8652  133.2043  152.9052 C   0  0  0  0  0  0  0  0  0  0  0  0
  147.4971  132.4957  152.7785 C   0  0  1  0  0  0  0  0  0  0  0  0
  146.8995  132.8615  151.4036 C   0  0  0  0  0  0  0  0  0  0  0  0
  148.0287  128.5196  151.4000 H   0  0  0  0  0  0  0  0  0  0  0  0
  146.3616  128.3152  150.8706 H   0  0  0  0  0  0  0  0  0  0  0  0
  147.1659  127.0359  151.7771 H   0  0  0  0  0  0  0  0  0  0  0  0
  147.2663  128.4890  153.8029 H   0  0  0  0  0  0  0  0  0  0  0  0
  144.9284  128.6337  154.0346 H   0  0  0  0  0  0  0  0  0  0  0  0
  145.8140  130.4552  151.9895 H   0  0  0  0  0  0  0  0  0  0  0  0
  145.6940  130.6038  153.7087 H   0  0  0  0  0  0  0  0  0  0  0  0
  147.7749  130.9034  155.0869 H   0  0  0  0  0  0  0  0  0  0  0  0
  148.5959  129.6060  154.2585 H   0  0  0  0  0  0  0  0  0  0  0  0
  150.2282  131.2102  155.2675 H   0  0  0  0  0  0  0  0  0  0  0  0
  150.4071  131.0826  153.5392 H   0  0  0  0  0  0  0  0  0  0  0  0
  150.3972  136.3168  156.7491 H   0  0  0  0  0  0  0  0  0  0  0  0
  145.5829  132.1066  157.4859 H   0  0  0  0  0  0  0  0  0  0  0  0
  145.8623  135.2771  158.9073 H   0  0  0  0  0  0  0  0  0  0  0  0
  145.4983  133.6539  159.4349 H   0  0  0  0  0  0  0  0  0  0  0  0
  148.5038  133.1723  159.3950 H   0  0  0  0  0  0  0  0  0  0  0  0
  145.7596  135.1006  161.5949 H   0  0  0  0  0  0  0  0  0  0  0  0
  146.5475  133.6314  162.1647 H   0  0  0  0  0  0  0  0  0  0  0  0
  147.2627  135.9764  163.2617 H   0  0  0  0  0  0  0  0  0  0  0  0
  148.5818  134.9248  162.7203 H   0  0  0  0  0  0  0  0  0  0  0  0
  149.2684  135.4765  160.0012 H   0  0  0  0  0  0  0  0  0  0  0  0
  147.9024  136.3645  159.3417 H   0  0  0  0  0  0  0  0  0  0  0  0
  148.7314  134.2795  152.8003 H   0  0  0  0  0  0  0  0  0  0  0  0
  149.5138  132.9032  152.0815 H   0  0  0  0  0  0  0  0  0  0  0  0
  146.8381  132.8806  153.5587 H   0  0  0  0  0  0  0  0  0  0  0  0
  146.9717  133.9350  151.2249 H   0  0  0  0  0  0  0  0  0  0  0  0
  145.8419  132.6174  151.3193 H   0  0  0  0  0  0  0  0  0  0  0  0
  147.4306  132.3603  150.5936 H   0  0  0  0  0  0  0  0  0  0  0  0
  148.1986  130.6960  152.2029 H   0  0  0  0  0  0  0  0  0  0  0  0
  1  2  1  0  0  0  0
  1 28  1  0  0  0  0
  1 29  1  0  0  0  0
  1 30  1  0  0  0  0
  2  3  1  0  0  0  0
  2  4  1  0  0  0  0
  2 31  1  0  0  0  0
  3 32  1  0  0  0  0
  4  5  1  0  0  0  0
  4 33  1  0  0  0  0
  4 34  1  0  0  0  0
  5 26  1  0  0  0  0
  5  6  1  0  0  0  0
  5 56  1  0  0  0  0
  6  7  1  0  0  0  0
  6 35  1  0  0  0  0
  6 36  1  0  0  0  0
  7  8  1  0  0  0  0
  7 37  1  0  0  0  0
  7 38  1  0  0  0  0
  8  9  1  0  0  0  0
  8 25  1  0  0  0  0
  9 14  1  0  0  0  0
  9 10  2  0  0  0  0
 10 11  1  0  0  0  0
 11 12  2  0  0  0  0
 11 39  1  0  0  0  0
 12 13  1  0  0  0  0
 13 17  1  0  0  0  0
 13 14  2  0  0  0  0
 14 15  1  0  0  0  0
 15 16  2  0  0  0  0
 16 17  1  0  0  0  0
 16 40  1  0  0  0  0
 17 18  1  0  0  0  0
 18 19  1  0  0  0  0
 18 41  1  0  0  0  0
 18 42  1  0  0  0  0
 19 24  1  0  0  0  0
 19 20  1  0  0  0  0
 19 21  1  0  0  0  0
 20 43  1  0  0  0  0
 21 22  1  0  0  0  0
 21 44  1  0  0  0  0
 21 45  1  0  0  0  0
 22 23  1  0  0  0  0
 22 46  1  0  0  0  0
 22 47  1  0  0  0  0
 23 24  1  0  0  0  0
 24 48  1  0  0  0  0
 24 49  1  0  0  0  0
 25 26  1  0  0  0  0
 25 50  1  0  0  0  0
 25 51  1  0  0  0  0
 26 27  1  0  0  0  0
 26 52  1  0  0  0  0
 27 53  1  0  0  0  0
 27 54  1  0  0  0  0
 27 55  1  0  0  0  0
M  CHG  1   5   1
M  END
> <s_m_source_file>
AV-unprocessed.smi

> <i_m_source_file_index>
224

> <i_lp_mmshare_version>
43012

> <i_f3d_flags>
0

> <s_epik_input>
W0NIM11bQ0BIXShbT0hdKVtDSDJdTjFbQ0gyXVtDSDJdTihbQ0gyXVtDQEhdMVtDSDNdKWMobltjSF1uMiljKGMyMyluW2NIXW4zW0NIMl1bQ0BAXTQoW09IXSlbQ0gyXVtDSDJdT1tDSDJdNA==

> <s_epik_cmdline>
J2VwaWtfcHl0aG9uJywgJy1waCcsICc3LjAnLCAnLXRuJywgJzgnLCAnLW1hJywgJzIwMCcsICctbWV0YWxfYmluZGluZycsICctaW1hZScsICc8aW5maWxlLm1hZT4nLCAnLW9tYWUnLCAnPG91dGZpbGUubWFlPic=

> <r_lp_tautomer_probability>
1

> <r_epik_Ionization_Penalty>
0.00516958

> <r_epik_Ionization_Penalty_Charging>
0.00509693

> <r_epik_Ionization_Penalty_Neutral>
7.26542e-05

> <r_epik_State_Penalty>
-0

> <r_epik_Charging_Adjusted_Penalty>
0.00509693

> <i_epik_Tot_Q>
1

> <i_epik_Tot_abs_Q>
1

> <r_epik_Metal_State_Penalty>
-0

> <b_epik_Metal_Only>
0

> <s_lp_Force_Field>
OPLS_2005

> <r_lp_Energy>
47.9311

> <b_lp_Chiralities_Consistent>
1

> <s_lp_Variant>
AV-unprocessed.smi:224-5

> <Gold.Version>
5.8.1

> <Gold.Id.Protein>
6NUR|6NUR_protein|mol2

> <Gold.PLP.Fitness>
41.7851

> <Gold.PLP.PLP>
-34.4623

> <Gold.PLP.part.hbond>
-2.8327

> <Gold.PLP.part.metal>
0.0000

> <Gold.PLP.part.buried>
-3.5415

> <Gold.PLP.part.nonpolar>
-27.6095

> <Gold.PLP.part.repulsive>
0.2020

> <Gold.PLP.ligand.clash>
0.0000

> <Gold.PLP.ligand.torsion>
0.8617

> <Gold.PLP.Chemscore.Hbond>
2.7960

> <Gold.PLP.Chemscore.CHOScore>
0.0000

> <Gold.PLP.Chemscore.Metal>
0.0000

> <Gold.Chemscore.Hbonds>
donor molecule, donor type, donor heavy atom, donor atom, acceptor molecule, acceptor atom, score
      L1  H     3    32       P1 10956  0.96
      L1  H     5    56       P1 10747  0.91
      P1  H  6931  6943       L1    23  0.75

> <Gold.PLP.Chemscore.Internal.Correction>
0.6581

> <Gold.Rescore>
     Score         DG    S(hbond)    S(metal)    S(lipo)     H(rot)  DE(clash)    DE(int)     intcor
     12.25     -16.24       2.77        0.00      86.45       3.36       0.19       3.80       ----

> <Gold.Chemscore.Fitness>
12.2487

> <Gold.Chemscore.DG>
-16.2389

> <Gold.Chemscore.ZeroCoef>
-5.4800

> <Gold.Chemscore.Hbond>
2.7691

> <Gold.Chemscore.Metal>
0.0000

> <Gold.Chemscore.Lipo>
86.4502

> <Gold.Chemscore.Internal_Hbond>
0.0000

> <Gold.Chemscore.DEClash>
0.1917

> <Gold.Chemscore.DEInternal>
3.7985

> <Gold.Chemscore.Rot>
3.3611

> <Gold.Chemscore.Internal.Correction>
   9.000000E+99

> <Gold.Chemscore.Hbonds>
donor molecule, donor type, donor heavy atom, donor atom, acceptor molecule, acceptor atom, score
      L1  H     3    32       P1 10956  0.87
      L1  H     5    56       P1 10747  0.84
      P1  H  6931  6943       L1    23  0.73

> <Gold.Chemscore.Hbond.Weighted>
-9.2487

> <Gold.Chemscore.Metal.Weighted>
-0.0000

> <Gold.Chemscore.Lipo.Weighted>
-10.1147

> <Gold.Chemscore.Internal_Hbond.Weighted>
0.0000

> <Gold.Chemscore.DEClash.Weighted>
0.1917

> <Gold.Chemscore.DEInternal.Weighted>
3.7985

> <Gold.Chemscore.Rot.Weighted>
8.6045

> <Gold.Chemscore.Internal.Correction.Weighted>
   9.000000E+99

> <Gold.Protein.RotatedTorsions>
[ 6907 6896 6895 6894 ] final  171.99 input  -60.11 | X-H torsion
[ 7974 7965 7964 7962 ] final   68.81 input  175.53 | X-H torsion
[ 8008 7997 7996 7995 ] final  148.38 input   59.86 | X-H torsion
[ 10167 10162 10161 10158 ] final  166.39 input  -65.29 | X-H torsion
[ 10718 10713 10712 10709 ] final  142.20 input   66.30 | X-H torsion
[ 10763 10752 10751 10750 ] final  -45.56 input  -60.55 | X-H torsion
[ 11005 11000 10999 10996 ] final  -90.93 input  -57.11 | X-H torsion

> <Gold.Protein.ActiveResidues>
 VAL166  LYS551  ARG553  GLY616  TRP617  ASP618  TYR619  PRO620  LYS621  CYS622 
 ASP623  PHE694  ASN695  SER759  ASP760  ASP761  ALA762  ILE779  LEU786  VAL792 
 PHE793  MET794  SER795  GLU796  ALA797  LYS798  CYS799  TRP800  GLU811  SER814 

> <Gold.Protein.RotatedAtoms>
  151.7914  133.3360  159.3499 H   0  0  0  0  0  0  0  0  0  0  0  0  # atno 6907 bound_to 6896
  150.7390  134.5839  159.5962 H   0  0  0  0  0  0  0  0  0  0  0  0  # atno 6908 bound_to 6896
  152.3207  134.7385  160.0365 H   0  0  0  0  0  0  0  0  0  0  0  0  # atno 6909 bound_to 6896
  145.7980  139.2968  143.1171 H   0  0  0  0  0  0  0  0  0  0  0  0  # atno 7974 bound_to 7965
  156.2793  140.2130  156.5690 H   0  0  0  0  0  0  0  0  0  0  0  0  # atno 8008 bound_to 7997
  154.7151  140.0508  157.0610 H   0  0  0  0  0  0  0  0  0  0  0  0  # atno 8009 bound_to 7997
  155.0553  140.3160  155.4681 H   0  0  0  0  0  0  0  0  0  0  0  0  # atno 8010 bound_to 7997
  139.4924  144.4032  151.9385 H   0  0  0  0  0  0  0  0  0  0  0  0  # atno 10167 bound_to 10162
  157.3832  131.0995  151.0718 H   0  0  0  0  0  0  0  0  0  0  0  0  # atno 10718 bound_to 10713
  154.0306  135.6657  153.4780 H   0  0  0  0  0  0  0  0  0  0  0  0  # atno 10763 bound_to 10752
  153.0542  135.5066  154.7936 H   0  0  0  0  0  0  0  0  0  0  0  0  # atno 10764 bound_to 10752
  154.6880  135.3056  154.9485 H   0  0  0  0  0  0  0  0  0  0  0  0  # atno 10765 bound_to 10752
  141.1555  133.7723  156.9808 H   0  0  0  0  0  0  0  0  0  0  0  0  # atno 11005 bound_to 11000
  145.9907  140.8605  143.0068 LP  0  0  0  0  0  0  0  0  0  0  0  0  # atno 17320 bound_to 7965
  144.6772  140.2212  143.7366 LP  0  0  0  0  0  0  0  0  0  0  0  0  # atno 17321 bound_to 7965
  140.3472  144.3132  150.5956 LP  0  0  0  0  0  0  0  0  0  0  0  0  # atno 17342 bound_to 10162
  140.5516  143.2205  151.7917 LP  0  0  0  0  0  0  0  0  0  0  0  0  # atno 17343 bound_to 10162
  157.1779  130.6296  149.5662 LP  0  0  0  0  0  0  0  0  0  0  0  0  # atno 17370 bound_to 10713
  155.9780  130.4763  150.6632 LP  0  0  0  0  0  0  0  0  0  0  0  0  # atno 17371 bound_to 10713
  140.1067  134.9502  157.2005 LP  0  0  0  0  0  0  0  0  0  0  0  0  # atno 17394 bound_to 11000
  140.3247  134.2877  155.7239 LP  0  0  0  0  0  0  0  0  0  0  0  0  # atno 17395 bound_to 11000

$$$$
