AV-unprocessed.smi:772|AV-procd|sdf|3688|dock7
  -GOLD-   22720 1103D 1   1.00000     0.00000
 Structure written by MMmdl.
 47 48  0  0  0  0  0  0  0  0  2 V2000
  146.3313  131.7211  150.4963 C   0  0  0  0  0  0  0  0  0  0  0  0
  146.9598  132.2506  151.7678 C   0  0  0  0  0  0  0  0  0  0  0  0
  146.2568  133.0776  152.6697 C   0  0  0  0  0  0  0  0  0  0  0  0
  146.9086  133.5381  153.8323 C   0  0  0  0  0  0  0  0  0  0  0  0
  148.2498  133.1644  154.0692 C   0  0  0  0  0  0  0  0  0  0  0  0
  148.9924  133.6684  155.2945 C   0  0  0  0  0  0  0  0  0  0  0  0
  150.3412  134.3371  154.9663 C   0  0  0  0  0  0  0  0  0  0  0  0
  150.2334  135.7914  154.8762 N   0  0  0  0  0  0  0  0  0  0  0  0
  151.0123  136.6814  155.5170 C   0  0  0  0  0  0  0  0  0  0  0  0
  151.9275  136.3321  156.2645 O   0  0  0  0  0  0  0  0  0  0  0  0
  150.7233  137.9817  155.2554 N   0  0  0  0  0  0  0  0  0  0  0  0
  149.6381  138.4698  154.3895 C   0  0  0  0  0  0  0  0  0  0  0  0
  148.4299  138.8380  155.2638 C   0  0  0  0  0  0  0  0  0  0  0  0
  148.8442  140.1911  156.4068 S   0  0  0  0  0  0  0  0  0  0  0  0
  150.3939  139.5420  157.1284 C   0  0  2  0  0  0  0  0  0  0  0  0
  151.0531  140.5451  158.1085 C   0  0  0  0  0  0  0  0  0  0  0  0
  152.1654  139.8870  158.9428 C   0  0  0  0  0  0  0  0  0  0  0  0
  150.0514  141.2839  159.0158 C   0  0  0  0  0  0  0  0  0  0  0  0
  151.3501  139.0754  156.0076 C   0  0  0  0  0  0  0  0  0  0  0  0
  148.9000  132.3306  153.1344 C   0  0  0  0  0  0  0  0  0  0  0  0
  148.2411  131.9108  152.0327 N   0  3  0  0  0  0  0  0  0  0  0  0
  145.3186  132.1049  150.3695 H   0  0  0  0  0  0  0  0  0  0  0  0
  146.2824  130.6324  150.5216 H   0  0  0  0  0  0  0  0  0  0  0  0
  146.9194  132.0200  149.6280 H   0  0  0  0  0  0  0  0  0  0  0  0
  145.2327  133.3608  152.4740 H   0  0  0  0  0  0  0  0  0  0  0  0
  146.3858  134.1797  154.5267 H   0  0  0  0  0  0  0  0  0  0  0  0
  148.3577  134.3708  155.8364 H   0  0  0  0  0  0  0  0  0  0  0  0
  149.1573  132.8282  155.9697 H   0  0  0  0  0  0  0  0  0  0  0  0
  151.0622  134.1024  155.7497 H   0  0  0  0  0  0  0  0  0  0  0  0
  150.7537  133.9235  154.0445 H   0  0  0  0  0  0  0  0  0  0  0  0
  149.5038  136.1545  154.2797 H   0  0  0  0  0  0  0  0  0  0  0  0
  149.9723  139.3456  153.8315 H   0  0  0  0  0  0  0  0  0  0  0  0
  149.3417  137.7504  153.6260 H   0  0  0  0  0  0  0  0  0  0  0  0
  147.5914  139.1511  154.6416 H   0  0  0  0  0  0  0  0  0  0  0  0
  148.0967  137.9738  155.8393 H   0  0  0  0  0  0  0  0  0  0  0  0
  150.1169  138.6598  157.7078 H   0  0  0  0  0  0  0  0  0  0  0  0
  151.5429  141.3051  157.4983 H   0  0  0  0  0  0  0  0  0  0  0  0
  151.7680  139.1343  159.6238 H   0  0  0  0  0  0  0  0  0  0  0  0
  152.6921  140.6280  159.5447 H   0  0  0  0  0  0  0  0  0  0  0  0
  152.9035  139.4018  158.3037 H   0  0  0  0  0  0  0  0  0  0  0  0
  149.5251  140.5989  159.6805 H   0  0  0  0  0  0  0  0  0  0  0  0
  149.3061  141.8277  158.4363 H   0  0  0  0  0  0  0  0  0  0  0  0
  150.5633  142.0148  159.6423 H   0  0  0  0  0  0  0  0  0  0  0  0
  152.3091  138.7731  156.4314 H   0  0  0  0  0  0  0  0  0  0  0  0
  151.5827  139.8980  155.3308 H   0  0  0  0  0  0  0  0  0  0  0  0
  149.9241  131.9996  153.2277 H   0  0  0  0  0  0  0  0  0  0  0  0
  148.7343  131.3136  151.3686 H   0  0  0  0  0  0  0  0  0  0  0  0
  1  2  1  0  0  0  0
  1 22  1  0  0  0  0
  1 23  1  0  0  0  0
  1 24  1  0  0  0  0
  2 21  1  0  0  0  0
  2  3  2  0  0  0  0
  3  4  1  0  0  0  0
  3 25  1  0  0  0  0
  4  5  2  0  0  0  0
  4 26  1  0  0  0  0
  5  6  1  0  0  0  0
  5 20  1  0  0  0  0
  6  7  1  0  0  0  0
  6 27  1  0  0  0  0
  6 28  1  0  0  0  0
  7  8  1  0  0  0  0
  7 29  1  0  0  0  0
  7 30  1  0  0  0  0
  8  9  1  0  0  0  0
  8 31  1  0  0  0  0
  9 10  2  0  0  0  0
  9 11  1  0  0  0  0
 11 19  1  0  0  0  0
 11 12  1  0  0  0  0
 12 13  1  0  0  0  0
 12 32  1  0  0  0  0
 12 33  1  0  0  0  0
 13 14  1  0  0  0  0
 13 34  1  0  0  0  0
 13 35  1  0  0  0  0
 14 15  1  0  0  0  0
 15 16  1  0  0  0  0
 15 19  1  0  0  0  0
 15 36  1  0  0  0  0
 16 17  1  0  0  0  0
 16 18  1  0  0  0  0
 16 37  1  0  0  0  0
 17 38  1  0  0  0  0
 17 39  1  0  0  0  0
 17 40  1  0  0  0  0
 18 41  1  0  0  0  0
 18 42  1  0  0  0  0
 18 43  1  0  0  0  0
 19 44  1  0  0  0  0
 19 45  1  0  0  0  0
 20 21  2  0  0  0  0
 20 46  1  0  0  0  0
 21 47  1  0  0  0  0
M  CHG  1  21   1
M  END
> <s_m_source_file>
AV-unprocessed.smi

> <i_m_source_file_index>
772

> <i_lp_mmshare_version>
43012

> <i_f3d_flags>
0

> <s_epik_input>
W0NIM11jMVtjSF1bY0hdYyhbY0hdbjEpW0NIMl1bQ0gyXVtOSF1DKD1PKU4yW0NIMl1bQ0gyXVNbQ0BIXShbQ0gyXTIpW0NIXShbQ0gzXSlbQ0gzXQ==

> <s_epik_cmdline>
J2VwaWtfcHl0aG9uJywgJy1waCcsICc3LjAnLCAnLXRuJywgJzgnLCAnLW1hJywgJzIwMCcsICctbWV0YWxfYmluZGluZycsICctaW1hZScsICc8aW5maWxlLm1hZT4nLCAnLW9tYWUnLCAnPG91dGZpbGUubWFlPic=

> <r_epik_Ionization_Penalty>
1.41908

> <r_epik_Ionization_Penalty_Charging>
1.41903

> <r_epik_Ionization_Penalty_Neutral>
4.72921e-05

> <r_epik_State_Penalty>
1.50265

> <r_epik_Charging_Adjusted_Penalty>
2.92168

> <i_epik_Tot_Q>
1

> <i_epik_Tot_abs_Q>
1

> <r_epik_Metal_State_Penalty>
1.55496

> <b_epik_Metal_Only>
0

> <s_lp_Force_Field>
OPLS_2005

> <r_lp_Energy>
32.4452

> <b_lp_Chiralities_Consistent>
1

> <s_lp_Variant>
AV-unprocessed.smi:772-4

> <Gold.Version>
5.8.1

> <Gold.Id.Protein>
6NUR|6NUR_protein|mol2

> <Gold.PLP.Fitness>
45.9006

> <Gold.PLP.PLP>
-38.5316

> <Gold.PLP.part.hbond>
-3.7170

> <Gold.PLP.part.metal>
0.0000

> <Gold.PLP.part.buried>
-1.0792

> <Gold.PLP.part.nonpolar>
-33.9491

> <Gold.PLP.part.repulsive>
0.1242

> <Gold.PLP.ligand.clash>
0.0000

> <Gold.PLP.ligand.torsion>
0.5562

> <Gold.PLP.Chemscore.Hbond>
2.8000

> <Gold.PLP.Chemscore.CHOScore>
0.0000

> <Gold.PLP.Chemscore.Metal>
0.0000

> <Gold.Chemscore.Hbonds>
donor molecule, donor type, donor heavy atom, donor atom, acceptor molecule, acceptor atom, score
      L1  H    21    47       P1 10747  0.16
      P1  H 10752 10763       L1    10  0.90

> <Gold.PLP.Chemscore.Internal.Correction>
0.0814

> <Gold.Rescore>
     Score         DG    S(hbond)    S(metal)    S(lipo)     H(rot)  DE(clash)    DE(int)     intcor
     18.45     -20.46       2.20        0.00      95.85       1.39       1.21       0.81       ----

> <Gold.Chemscore.Fitness>
18.4474

> <Gold.Chemscore.DG>
-20.4607

> <Gold.Chemscore.ZeroCoef>
-5.4800

> <Gold.Chemscore.Hbond>
2.1966

> <Gold.Chemscore.Metal>
0.0000

> <Gold.Chemscore.Lipo>
95.8550

> <Gold.Chemscore.Internal_Hbond>
0.0000

> <Gold.Chemscore.DEClash>
1.2079

> <Gold.Chemscore.DEInternal>
0.8054

> <Gold.Chemscore.Rot>
1.3949

> <Gold.Chemscore.Internal.Correction>
   9.000000E+99

> <Gold.Chemscore.Hbonds>
donor molecule, donor type, donor heavy atom, donor atom, acceptor molecule, acceptor atom, score
      L1  H     8    31       P1  7948  0.03
      L1  H    21    47       P1 10747  0.17
      P1  H 10752 10763       L1    10  0.18

> <Gold.Chemscore.Hbond.Weighted>
-7.3366

> <Gold.Chemscore.Metal.Weighted>
-0.0000

> <Gold.Chemscore.Lipo.Weighted>
-11.2150

> <Gold.Chemscore.Internal_Hbond.Weighted>
0.0000

> <Gold.Chemscore.DEClash.Weighted>
1.2079

> <Gold.Chemscore.DEInternal.Weighted>
0.8054

> <Gold.Chemscore.Rot.Weighted>
3.5709

> <Gold.Chemscore.Internal.Correction.Weighted>
   9.000000E+99

> <Gold.Protein.RotatedTorsions>
[ 6907 6896 6895 6894 ] final -102.11 input  -60.11 | X-H torsion
[ 7974 7965 7964 7962 ] final   67.94 input  175.53 | X-H torsion
[ 8008 7997 7996 7995 ] final   54.80 input   59.86 | X-H torsion
[ 10167 10162 10161 10158 ] final    4.53 input  -65.29 | X-H torsion
[ 10718 10713 10712 10709 ] final  134.73 input   66.30 | X-H torsion
[ 10763 10752 10751 10750 ] final   80.95 input  -60.55 | X-H torsion
[ 11005 11000 10999 10996 ] final   63.04 input  -57.11 | X-H torsion

> <Gold.Protein.ActiveResidues>
 VAL166  LYS551  ARG553  GLY616  TRP617  ASP618  TYR619  PRO620  LYS621  CYS622 
 ASP623  PHE694  ASN695  SER759  ASP760  ASP761  ALA762  ILE779  LEU786  VAL792 
 PHE793  MET794  SER795  GLU796  ALA797  LYS798  CYS799  TRP800  GLU811  SER814 

> <Gold.Protein.RotatedAtoms>
  150.7182  134.0631  159.3838 H   0  0  0  0  0  0  0  0  0  0  0  0  # atno 6907 bound_to 6896
  151.8612  135.0521  160.0479 H   0  0  0  0  0  0  0  0  0  0  0  0  # atno 6908 bound_to 6896
  152.2716  133.5352  159.5479 H   0  0  0  0  0  0  0  0  0  0  0  0  # atno 6909 bound_to 6896
  145.8086  139.3020  143.1113 H   0  0  0  0  0  0  0  0  0  0  0  0  # atno 7974 bound_to 7965
  155.4906  140.3471  155.4354 H   0  0  0  0  0  0  0  0  0  0  0  0  # atno 8008 bound_to 7997
  156.0979  140.1428  156.9534 H   0  0  0  0  0  0  0  0  0  0  0  0  # atno 8009 bound_to 7997
  154.4675  140.0912  156.7037 H   0  0  0  0  0  0  0  0  0  0  0  0  # atno 8010 bound_to 7997
  140.6530  143.7498  150.7606 H   0  0  0  0  0  0  0  0  0  0  0  0  # atno 10167 bound_to 10162
  157.4643  131.1076  150.9881 H   0  0  0  0  0  0  0  0  0  0  0  0  # atno 10718 bound_to 10713
  153.1076  135.4783  154.8979 H   0  0  0  0  0  0  0  0  0  0  0  0  # atno 10763 bound_to 10752
  154.7447  135.3091  154.8668 H   0  0  0  0  0  0  0  0  0  0  0  0  # atno 10764 bound_to 10752
  153.9267  135.6849  153.4800 H   0  0  0  0  0  0  0  0  0  0  0  0  # atno 10765 bound_to 10752
  140.0051  134.6382  155.9868 H   0  0  0  0  0  0  0  0  0  0  0  0  # atno 11005 bound_to 11000
  145.9802  140.8689  143.0118 LP  0  0  0  0  0  0  0  0  0  0  0  0  # atno 17320 bound_to 7965
  144.6760  140.2069  143.7381 LP  0  0  0  0  0  0  0  0  0  0  0  0  # atno 17321 bound_to 7965
  140.1152  143.4662  152.2346 LP  0  0  0  0  0  0  0  0  0  0  0  0  # atno 17342 bound_to 10162
  139.5748  144.7481  151.3795 LP  0  0  0  0  0  0  0  0  0  0  0  0  # atno 17343 bound_to 10162
  157.0668  130.5848  149.5395 LP  0  0  0  0  0  0  0  0  0  0  0  0  # atno 17370 bound_to 10713
  156.0043  130.5127  150.7775 LP  0  0  0  0  0  0  0  0  0  0  0  0  # atno 17371 bound_to 10713
  141.1671  133.6537  156.4517 LP  0  0  0  0  0  0  0  0  0  0  0  0  # atno 17394 bound_to 11000
  140.4656  134.6801  157.5106 LP  0  0  0  0  0  0  0  0  0  0  0  0  # atno 17395 bound_to 11000

$$$$
