#       Name:                AV-unprocessed.smi:2326
#       Creating user name   scv26
#       Creation time:       Fri Mar 27 12:51:56 2020


#       File generated by GOLD software.
#

@<TRIPOS>MOLECULE
AV-unprocessed.smi:2326
    42    43     1
SMALL
NO_CHARGES


@<TRIPOS>ATOM
      1 ****        -5.1540   1.2483  -0.1754 C.3            1 S1                 0.0000
      2 ****        -4.3533  -0.0279  -0.0212 C.ar           1 S1                 0.0000
      3 ****        -4.9871  -1.2503   0.2762 C.ar           1 S1                 0.0000
      4 ****        -4.1844  -2.3969   0.4132 C.ar           1 S1                 0.0000
      5 ****        -2.7909  -2.2748   0.2503 C.ar           1 S1                 0.0000
      6 ****        -2.2343  -1.0107  -0.0483 C.ar           1 S1                 0.0000
      7 ****        -0.8207  -0.9912  -0.1820 N.am           1 S1                 0.0000
      8 ****        -0.0297   0.0518  -0.4893 C.2            1 S1                 0.0000
      9 ****        -0.4272   1.1750  -0.7986 O.2            1 S1                 0.0000
     10 ****         1.2671  -0.2938  -0.4174 N.am           1 S1                 0.0000
     11 ****         2.4534   0.5471  -0.6386 C.3            1 S1                 0.0000
     12 ****         2.4948   1.0169  -2.1086 C.3            1 S1                 0.0000
     13 ****         2.4920   1.7576   0.3268 C.3            1 S1                 0.0000
     14 ****         2.6659   1.3206   1.7925 C.3            1 S1                 0.0000
     15 ****         3.8531   0.5479   1.9279 O.3            1 S1                 0.0000
     16 ****         3.8272  -0.6485   1.1585 C.3            1 S1                 0.0000
     17 ****         3.7014  -0.3119  -0.3400 C.3            1 S1                 0.0000
     18 ****        -3.0173   0.0892  -0.1792 N.ar           1 S1                 0.0000
     19 ****        -6.2234   1.0404  -0.2210 H              1 S1                 0.0000
     20 ****        -4.8711   1.7700  -1.0902 H              1 S1                 0.0000
     21 ****        -4.9705   1.9125   0.6696 H              1 S1                 0.0000
     22 ****        -6.0589  -1.3103   0.3977 H              1 S1                 0.0000
     23 ****        -4.6293  -3.3542   0.6414 H              1 S1                 0.0000
     24 ****        -2.1595  -3.1453   0.3554 H              1 S1                 0.0000
     25 ****        -0.3554  -1.8655   0.0114 H              1 S1                 0.0000
     26 ****         1.4624  -1.2501  -0.1601 H              1 S1                 0.0000
     27 ****         3.4080   1.5745  -2.3194 H              1 S1                 0.0000
     28 ****         1.6589   1.6727  -2.3519 H              1 S1                 0.0000
     29 ****         2.4625   0.1710  -2.7963 H              1 S1                 0.0000
     30 ****         3.3299   2.4032   0.0600 H              1 S1                 0.0000
     31 ****         1.6027   2.3792   0.2271 H              1 S1                 0.0000
     32 ****         2.7445   2.1977   2.4350 H              1 S1                 0.0000
     33 ****         1.8033   0.7508   2.1409 H              1 S1                 0.0000
     34 ****         4.7496  -1.2003   1.3398 H              1 S1                 0.0000
     35 ****         3.0087  -1.2885   1.4909 H              1 S1                 0.0000
     36 ****         3.6828  -1.2314  -0.9269 H              1 S1                 0.0000
     37 ****         4.5991   0.2261  -0.6485 H              1 S1                 0.0000
     38 ****        -1.4082   1.3657  -0.8353 LP             1 S1                 0.0000
     39 ****         0.2308   1.8967  -1.0132 LP             1 S1                 0.0000
     40 ****         3.9674   0.3051   2.8912 LP             1 S1                 0.0000
     41 ****         4.6301   1.1022   1.6294 LP             1 S1                 0.0000
     42 ****        -2.6095   0.9774  -0.3905 LP             1 S1                 0.0000
@<TRIPOS>BOND
    1    1    2 1     
    2    1   19 1     
    3    1   20 1     
    4    1   21 1     
    5    2   18 ar    
    6    2    3 ar    
    7    3    4 ar    
    8    3   22 1     
    9    4    5 ar    
   10    4   23 1     
   11    5    6 ar    
   12    5   24 1     
   13    6    7 1     
   14    6   18 ar    
   15    7    8 am    
   16    7   25 1     
   17    8    9 2     
   18    8   10 am    
   19   10   11 1     
   20   10   26 1     
   21   11   17 1     
   22   11   12 1     
   23   11   13 1     
   24   12   27 1     
   25   12   28 1     
   26   12   29 1     
   27   13   14 1     
   28   13   30 1     
   29   13   31 1     
   30   14   15 1     
   31   14   32 1     
   32   14   33 1     
   33   15   16 1     
   34   16   17 1     
   35   16   34 1     
   36   16   35 1     
   37   17   36 1     
   38   17   37 1     
   39    9   38 1     
   40    9   39 1     
   41   15   40 1     
   42   15   41 1     
   43   18   42 1     
@<TRIPOS>SUBSTRUCTURE
      1 S1             1
@<TRIPOS>SET
LONE_PAIRS      STATIC     ATOMS    <user>   **** ""
5 38 39 40 41 42
DONOR_HYDROGENS      STATIC     ATOMS    <user>   **** ""
2 25 26
ATOM$BLUE        STATIC     ATOMS    COLORGROUP SYSTEM
5 38 39 40 41 42
ATOM$RED        STATIC     ATOMS    COLORGROUP SYSTEM
2 25 26
