#       Name:                AV-unprocessed.smi:1965
#       Creating user name   scv26
#       Creation time:       Fri Mar 27 10:11:34 2020


#       File generated by GOLD software.
#

@<TRIPOS>MOLECULE
AV-unprocessed.smi:1965
    40    42     1
SMALL
NO_CHARGES


@<TRIPOS>ATOM
      1 ****        -2.0714  -2.5962   1.0412 O.2            1 S1                 0.0000
      2 ****        -0.8595  -2.6048   0.8298 C.2            1 S1                 0.0000
      3 ****        -0.1083  -3.7365   0.8242 N.pl3          1 S1                -1.0000
      4 ****         1.2068  -3.7322   0.5375 C.2            1 S1                 0.0000
      5 ****         2.1608  -3.6787   1.4742 N.2            1 S1                 0.0000
      6 ****         3.4547  -3.6843   0.9497 C.2            1 S1                 0.0000
      7 ****         3.4862  -3.7435  -0.4184 C.2            1 S1                 0.0000
      8 ****         1.8826  -3.8015  -1.0925 S.3            1 S1                 0.0000
      9 ****        -0.2335  -1.4374   0.5909 N.am           1 S1                 0.0000
     10 ****        -0.8649  -0.1253   0.5250 C.3            1 S1                 0.0000
     11 ****        -1.2784   0.4447   1.8907 C.3            1 S1                 0.0000
     12 ****        -0.9847   1.9556   1.8071 C.3            1 S1                 0.0000
     13 ****        -0.4855   2.2193   0.4371 N.4            1 S1                 1.0000
     14 ****        -1.5526   2.7503  -0.4550 C.3            1 S1                 0.0000
     15 ****        -1.1089   2.7983  -1.9231 C.3            1 S1                 0.0000
     16 ****        -0.6969   1.4018  -2.3957 C.3            1 S1                 0.0000
     17 ****         0.4385   0.8776  -1.5102 C.3            1 S1                 0.0000
     18 ****         0.1062   0.9328  -0.0021 C.3            1 S1                 0.0000
     19 ****         4.2965  -3.6428   1.6247 H              1 S1                 0.0000
     20 ****         4.3488  -3.7613  -1.0673 H              1 S1                 0.0000
     21 ****         0.7623  -1.4737   0.4292 H              1 S1                 0.0000
     22 ****        -1.7395  -0.1767  -0.1259 H              1 S1                 0.0000
     23 ****        -2.3308   0.2455   2.0957 H              1 S1                 0.0000
     24 ****        -0.6975  -0.0010   2.6996 H              1 S1                 0.0000
     25 ****        -1.8561   2.5620   2.0586 H              1 S1                 0.0000
     26 ****        -0.1975   2.2146   2.5161 H              1 S1                 0.0000
     27 ****        -2.4493   2.1342  -0.3695 H              1 S1                 0.0000
     28 ****        -1.8294   3.7504  -0.1195 H              1 S1                 0.0000
     29 ****        -1.9214   3.1756  -2.5447 H              1 S1                 0.0000
     30 ****        -0.2771   3.4941  -2.0401 H              1 S1                 0.0000
     31 ****        -1.5507   0.7245  -2.3551 H              1 S1                 0.0000
     32 ****        -0.3749   1.4351  -3.4368 H              1 S1                 0.0000
     33 ****         0.7041  -0.1394  -1.8012 H              1 S1                 0.0000
     34 ****         1.3275   1.4827  -1.6934 H              1 S1                 0.0000
     35 ****         1.0461   0.8217   0.5431 H              1 S1                 0.0000
     36 ****         0.2465   2.9140   0.4754 H              1 S1                 0.0000
     37 ****        -2.5536  -3.4535   1.2212 LP             1 S1                 0.0000
     38 ****        -2.5742  -1.7319   1.0331 LP             1 S1                 0.0000
     39 ****        -0.5496  -4.6071   1.0416 LP             1 S1                 0.0000
     40 ****         1.9661  -3.6386   2.4543 LP             1 S1                 0.0000
@<TRIPOS>BOND
    1    1    2 2     
    2    2    3 1     
    3    2    9 am    
    4    3    4 1     
    5    4    8 1     
    6    4    5 2     
    7    5    6 1     
    8    6    7 2     
    9    6   19 1     
   10    7    8 1     
   11    7   20 1     
   12    9   10 1     
   13    9   21 1     
   14   10   18 1     
   15   10   11 1     
   16   10   22 1     
   17   11   12 1     
   18   11   23 1     
   19   11   24 1     
   20   12   13 1     
   21   12   25 1     
   22   12   26 1     
   23   13   18 1     
   24   13   14 1     
   25   13   36 1     
   26   14   15 1     
   27   14   27 1     
   28   14   28 1     
   29   15   16 1     
   30   15   29 1     
   31   15   30 1     
   32   16   17 1     
   33   16   31 1     
   34   16   32 1     
   35   17   18 1     
   36   17   33 1     
   37   17   34 1     
   38   18   35 1     
   39    1   37 1     
   40    1   38 1     
   41    3   39 1     
   42    5   40 1     
@<TRIPOS>SUBSTRUCTURE
      1 S1             1
@<TRIPOS>SET
LONE_PAIRS      STATIC     ATOMS    <user>   **** ""
4 37 38 39 40
DONOR_HYDROGENS      STATIC     ATOMS    <user>   **** ""
2 21 36
ATOM$BLUE        STATIC     ATOMS    COLORGROUP SYSTEM
4 37 38 39 40
ATOM$RED        STATIC     ATOMS    COLORGROUP SYSTEM
2 21 36
