AV-unprocessed.smi:2802|AV-procd|sdf|10803|dock6
  -GOLD-   2272015233D 1   1.00000     0.00000
 Structure written by MMmdl.
 47 48  0  0  0  0  0  0  0  0  1 V2000
  150.8534  138.5923  154.4937 C   0  0  0  0  0  0  0  0  0  0  0  0
  149.3648  138.6891  154.1282 C   0  0  2  0  0  0  0  0  0  0  0  0
  148.8350  140.1198  154.3359 C   0  0  0  0  0  0  0  0  0  0  0  0
  147.3364  140.2797  153.9897 C   0  0  0  0  0  0  0  0  0  0  0  0
  146.8644  141.6611  154.4875 C   0  0  0  0  0  0  0  0  0  0  0  0
  147.1175  140.2550  152.4600 C   0  0  0  0  0  0  0  0  0  0  0  0
  146.5069  139.1882  154.7249 C   0  0  0  0  0  0  0  0  0  0  0  0
  147.0149  137.7192  154.6078 C   0  0  1  0  0  0  0  0  0  0  0  0
  146.2451  136.8380  155.6313 C   0  0  0  0  0  0  0  0  0  0  0  0
  146.6254  135.4771  155.5609 O   0  0  0  0  0  0  0  0  0  0  0  0
  146.8302  137.1849  153.2495 N   0  0  0  0  0  0  0  0  0  0  0  0
  145.7081  137.1246  152.5100 C   0  0  0  0  0  0  0  0  0  0  0  0
  144.6096  137.5270  152.8934 O   0  0  0  0  0  0  0  0  0  0  0  0
  145.8640  136.5130  151.1143 C   0  0  0  0  0  0  0  0  0  0  0  0
  145.5220  135.0327  151.1153 C   0  0  0  0  0  0  0  0  0  0  0  0
  144.3816  134.5511  150.4386 C   0  0  0  0  0  0  0  0  0  0  0  0
  144.1064  133.1705  150.4704 C   0  0  0  0  0  0  0  0  0  0  0  0
  144.9869  132.3274  151.1774 C   0  0  0  0  0  0  0  0  0  0  0  0
  146.0819  132.7764  151.8279 N   0  0  0  0  0  0  0  0  0  0  0  0
  146.3372  134.1021  151.7948 C   0  0  0  0  0  0  0  0  0  0  0  0
  148.5270  137.6871  154.9450 C   0  0  0  0  0  0  0  0  0  0  0  0
  151.0211  138.8324  155.5441 H   0  0  0  0  0  0  0  0  0  0  0  0
  151.4508  139.2808  153.8954 H   0  0  0  0  0  0  0  0  0  0  0  0
  151.2366  137.5869  154.3172 H   0  0  0  0  0  0  0  0  0  0  0  0
  149.2834  138.4324  153.0723 H   0  0  0  0  0  0  0  0  0  0  0  0
  148.9947  140.3973  155.3794 H   0  0  0  0  0  0  0  0  0  0  0  0
  149.4275  140.8223  153.7479 H   0  0  0  0  0  0  0  0  0  0  0  0
  145.8088  141.8232  154.2661 H   0  0  0  0  0  0  0  0  0  0  0  0
  147.4260  142.4683  154.0155 H   0  0  0  0  0  0  0  0  0  0  0  0
  146.9915  141.7662  155.5656 H   0  0  0  0  0  0  0  0  0  0  0  0
  146.0566  140.3047  152.2126 H   0  0  0  0  0  0  0  0  0  0  0  0
  147.5208  139.3635  151.9851 H   0  0  0  0  0  0  0  0  0  0  0  0
  147.6026  141.1058  151.9803 H   0  0  0  0  0  0  0  0  0  0  0  0
  146.5083  139.4408  155.7865 H   0  0  0  0  0  0  0  0  0  0  0  0
  145.4602  139.2605  154.4291 H   0  0  0  0  0  0  0  0  0  0  0  0
  146.4388  137.1831  156.6476 H   0  0  0  0  0  0  0  0  0  0  0  0
  145.1664  136.9070  155.4925 H   0  0  0  0  0  0  0  0  0  0  0  0
  146.1802  135.0055  156.2483 H   0  0  0  0  0  0  0  0  0  0  0  0
  147.6659  136.8152  152.8204 H   0  0  0  0  0  0  0  0  0  0  0  0
  145.2182  137.0275  150.4008 H   0  0  0  0  0  0  0  0  0  0  0  0
  146.8901  136.6594  150.7755 H   0  0  0  0  0  0  0  0  0  0  0  0
  143.7281  135.2265  149.9067 H   0  0  0  0  0  0  0  0  0  0  0  0
  143.2413  132.7670  149.9653 H   0  0  0  0  0  0  0  0  0  0  0  0
  144.8075  131.2633  151.2205 H   0  0  0  0  0  0  0  0  0  0  0  0
  147.2181  134.4291  152.3273 H   0  0  0  0  0  0  0  0  0  0  0  0
  148.9221  136.6815  154.7935 H   0  0  0  0  0  0  0  0  0  0  0  0
  148.6627  137.9029  156.0058 H   0  0  0  0  0  0  0  0  0  0  0  0
  1  2  1  0  0  0  0
  1 22  1  0  0  0  0
  1 23  1  0  0  0  0
  1 24  1  0  0  0  0
  2 21  1  0  0  0  0
  2  3  1  0  0  0  0
  2 25  1  0  0  0  0
  3  4  1  0  0  0  0
  3 26  1  0  0  0  0
  3 27  1  0  0  0  0
  4  5  1  0  0  0  0
  4  6  1  0  0  0  0
  4  7  1  0  0  0  0
  5 28  1  0  0  0  0
  5 29  1  0  0  0  0
  5 30  1  0  0  0  0
  6 31  1  0  0  0  0
  6 32  1  0  0  0  0
  6 33  1  0  0  0  0
  7  8  1  0  0  0  0
  7 34  1  0  0  0  0
  7 35  1  0  0  0  0
  8  9  1  0  0  0  0
  8 11  1  0  0  0  0
  8 21  1  0  0  0  0
  9 10  1  0  0  0  0
  9 36  1  0  0  0  0
  9 37  1  0  0  0  0
 10 38  1  0  0  0  0
 11 12  1  0  0  0  0
 11 39  1  0  0  0  0
 12 13  2  0  0  0  0
 12 14  1  0  0  0  0
 14 15  1  0  0  0  0
 14 40  1  0  0  0  0
 14 41  1  0  0  0  0
 15 20  1  0  0  0  0
 15 16  2  0  0  0  0
 16 17  1  0  0  0  0
 16 42  1  0  0  0  0
 17 18  2  0  0  0  0
 17 43  1  0  0  0  0
 18 19  1  0  0  0  0
 18 44  1  0  0  0  0
 19 20  2  0  0  0  0
 20 45  1  0  0  0  0
 21 46  1  0  0  0  0
 21 47  1  0  0  0  0
M  END
> <s_m_source_file>
AV-unprocessed.smi

> <i_m_source_file_index>
2802

> <i_lp_mmshare_version>
43012

> <i_f3d_flags>
0

> <s_epik_input>
W0NIM11DMShbQ0gzXSlbQ0gyXVtDQEBIXShbQ0gzXSlbQ0gyXVtDQF0oW0NIMl0xKShbQ0gyXVtPSF0pW05IXUMoPU8pW0NIMl1jMltjSF1bY0hdW2NIXW5bY0hdMg==

> <s_epik_cmdline>
J2VwaWtfcHl0aG9uJywgJy1waCcsICc3LjAnLCAnLXRuJywgJzgnLCAnLW1hJywgJzIwMCcsICctbWV0YWxfYmluZGluZycsICctaW1hZScsICc8aW5maWxlLm1hZT4nLCAnLW9tYWUnLCAnPG91dGZpbGUubWFlPic=

> <r_epik_Ionization_Penalty>
0.004793

> <r_epik_Ionization_Penalty_Charging>
0

> <r_epik_Ionization_Penalty_Neutral>
0.004793

> <r_epik_State_Penalty>
0.00347421

> <r_epik_Charging_Adjusted_Penalty>
0.00347421

> <i_epik_Tot_Q>
0

> <i_epik_Tot_abs_Q>
0

> <r_epik_Metal_State_Penalty>
-0

> <b_epik_Metal_Only>
0

> <s_lp_Force_Field>
OPLS_2005

> <r_lp_Energy>
18.2871

> <b_lp_Chiralities_Consistent>
1

> <s_lp_Variant>
AV-unprocessed.smi:2802-1

> <Gold.Version>
5.8.1

> <Gold.Id.Protein>
6NUR|6NUR_protein|mol2

> <Gold.PLP.Fitness>
36.6006

> <Gold.PLP.PLP>
-31.5377

> <Gold.PLP.part.hbond>
-1.0000

> <Gold.PLP.part.metal>
0.0000

> <Gold.PLP.part.buried>
-1.3186

> <Gold.PLP.part.nonpolar>
-30.0010

> <Gold.PLP.part.repulsive>
0.3474

> <Gold.PLP.ligand.clash>
0.0000

> <Gold.PLP.ligand.torsion>
0.4714

> <Gold.PLP.Chemscore.Hbond>
1.0000

> <Gold.PLP.Chemscore.CHOScore>
1.0000

> <Gold.PLP.Chemscore.Metal>
0.0000

> <Gold.Chemscore.Hbonds>
donor molecule, donor type, donor heavy atom, donor atom, acceptor molecule, acceptor atom, score
      L1  H    11    39       P1  7948  1.00
      L1  C    20    45       P1  7948  1.00

> <Gold.PLP.Chemscore.Internal.Correction>
0.0058

> <Gold.Rescore>
     Score         DG    S(hbond)    S(metal)    S(lipo)     H(rot)  DE(clash)    DE(int)     intcor
     13.44     -14.13       1.00        0.00      89.22       2.00       0.27       0.41       ----

> <Gold.Chemscore.Fitness>
13.4445

> <Gold.Chemscore.DG>
-14.1286

> <Gold.Chemscore.ZeroCoef>
-5.4800

> <Gold.Chemscore.Hbond>
0.9988

> <Gold.Chemscore.Metal>
0.0000

> <Gold.Chemscore.Lipo>
89.2238

> <Gold.Chemscore.Internal_Hbond>
0.0000

> <Gold.Chemscore.DEClash>
0.2722

> <Gold.Chemscore.DEInternal>
0.4119

> <Gold.Chemscore.Rot>
2.0026

> <Gold.Chemscore.Internal.Correction>
   9.000000E+99

> <Gold.Chemscore.Hbonds>
donor molecule, donor type, donor heavy atom, donor atom, acceptor molecule, acceptor atom, score
      L1  H    11    39       P1  7948  1.00

> <Gold.Chemscore.Hbond.Weighted>
-3.3361

> <Gold.Chemscore.Metal.Weighted>
-0.0000

> <Gold.Chemscore.Lipo.Weighted>
-10.4392

> <Gold.Chemscore.Internal_Hbond.Weighted>
0.0000

> <Gold.Chemscore.DEClash.Weighted>
0.2722

> <Gold.Chemscore.DEInternal.Weighted>
0.4119

> <Gold.Chemscore.Rot.Weighted>
5.1267

> <Gold.Chemscore.Internal.Correction.Weighted>
   9.000000E+99

> <Gold.Protein.RotatedTorsions>
[ 6907 6896 6895 6894 ] final  179.77 input  -60.11 | X-H torsion
[ 7974 7965 7964 7962 ] final  -29.68 input  175.53 | X-H torsion
[ 8008 7997 7996 7995 ] final  -19.83 input   59.86 | X-H torsion
[ 10167 10162 10161 10158 ] final   62.17 input  -65.29 | X-H torsion
[ 10718 10713 10712 10709 ] final   65.38 input   66.30 | X-H torsion
[ 10763 10752 10751 10750 ] final   98.73 input  -60.55 | X-H torsion
[ 11005 11000 10999 10996 ] final -110.39 input  -57.11 | X-H torsion

> <Gold.Protein.ActiveResidues>
 VAL166  LYS551  ARG553  GLY616  TRP617  ASP618  TYR619  PRO620  LYS621  CYS622 
 ASP623  PHE694  ASN695  SER759  ASP760  ASP761  ALA762  ILE779  LEU786  VAL792 
 PHE793  MET794  SER795  GLU796  ALA797  LYS798  CYS799  TRP800  GLU811  SER814 

> <Gold.Protein.RotatedAtoms>
  151.6663  133.3315  159.3185 H   0  0  0  0  0  0  0  0  0  0  0  0  # atno 6907 bound_to 6896
  150.7889  134.6901  159.6501 H   0  0  0  0  0  0  0  0  0  0  0  0  # atno 6908 bound_to 6896
  152.3965  134.6361  160.0139 H   0  0  0  0  0  0  0  0  0  0  0  0  # atno 6909 bound_to 6896
  146.1199  140.5443  142.8740 H   0  0  0  0  0  0  0  0  0  0  0  0  # atno 7974 bound_to 7965
  154.4810  140.2078  155.9764 H   0  0  0  0  0  0  0  0  0  0  0  0  # atno 8008 bound_to 7997
  156.1164  140.3220  155.8115 H   0  0  0  0  0  0  0  0  0  0  0  0  # atno 8009 bound_to 7997
  155.4544  140.0519  157.2988 H   0  0  0  0  0  0  0  0  0  0  0  0  # atno 8010 bound_to 7997
  140.1469  144.4500  150.6780 H   0  0  0  0  0  0  0  0  0  0  0  0  # atno 10167 bound_to 10162
  157.6102  130.9211  149.9969 H   0  0  0  0  0  0  0  0  0  0  0  0  # atno 10718 bound_to 10713
  153.2926  135.4138  155.1181 H   0  0  0  0  0  0  0  0  0  0  0  0  # atno 10763 bound_to 10752
  154.8525  135.3522  154.5960 H   0  0  0  0  0  0  0  0  0  0  0  0  # atno 10764 bound_to 10752
  153.6383  135.7058  153.5309 H   0  0  0  0  0  0  0  0  0  0  0  0  # atno 10765 bound_to 10752
  141.0794  133.9245  157.2320 H   0  0  0  0  0  0  0  0  0  0  0  0  # atno 11005 bound_to 11000
  144.7587  140.5371  143.6750 LP  0  0  0  0  0  0  0  0  0  0  0  0  # atno 17320 bound_to 7965
  145.5488  139.1476  143.3406 LP  0  0  0  0  0  0  0  0  0  0  0  0  # atno 17321 bound_to 7965
  140.6727  143.2292  151.5586 LP  0  0  0  0  0  0  0  0  0  0  0  0  # atno 17342 bound_to 10162
  139.5445  144.2559  152.1415 LP  0  0  0  0  0  0  0  0  0  0  0  0  # atno 17343 bound_to 10162
  156.1202  130.3646  149.9901 LP  0  0  0  0  0  0  0  0  0  0  0  0  # atno 17370 bound_to 10713
  156.7982  130.9281  151.3646 LP  0  0  0  0  0  0  0  0  0  0  0  0  # atno 17371 bound_to 10713
  139.9607  135.0155  156.9254 LP  0  0  0  0  0  0  0  0  0  0  0  0  # atno 17394 bound_to 11000
  140.5501  134.0635  155.7367 LP  0  0  0  0  0  0  0  0  0  0  0  0  # atno 17395 bound_to 11000

$$$$
