AV-unprocessed.smi:2438|AV-procd|sdf|9599|dock1
  -GOLD-   2272013233D 1   1.00000     0.00000
 Structure written by MMmdl.
 44 45  0  0  0  0  0  0  0  0  2 V2000
  145.5370  138.0894  159.0895 C   0  0  0  0  0  0  0  0  0  0  0  0
  145.2226  139.4999  158.8979 N   0  0  0  0  0  0  0  0  0  0  0  0
  144.4074  140.1223  159.9326 C   0  0  0  0  0  0  0  0  0  0  0  0
  144.8906  139.9028  157.5886 C   0  0  0  0  0  0  0  0  0  0  0  0
  143.6121  139.7400  157.1770 N   0  0  0  0  0  0  0  0  0  0  0  0
  143.2543  140.1281  155.9485 C   0  0  0  0  0  0  0  0  0  0  0  0
  144.1136  140.6759  155.0792 N   0  3  0  0  0  0  0  0  0  0  0  0
  145.4060  140.8572  155.4398 C   0  0  0  0  0  0  0  0  0  0  0  0
  145.8542  140.4824  156.7283 C   0  0  0  0  0  0  0  0  0  0  0  0
  147.2070  140.6106  157.1517 N   0  0  0  0  0  0  0  0  0  0  0  0
  148.2901  140.8536  156.3963 C   0  0  0  0  0  0  0  0  0  0  0  0
  148.2920  140.9452  155.1689 O   0  0  0  0  0  0  0  0  0  0  0  0
  149.3834  141.0113  157.1551 N   0  0  0  0  0  0  0  0  0  0  0  0
  150.7180  141.3474  156.6609 C   0  0  2  0  0  0  0  0  0  0  0  0
  151.7343  140.2765  157.1012 C   0  0  0  0  0  0  0  0  0  0  0  0
  152.0127  140.3283  158.6134 C   0  0  0  0  0  0  0  0  0  0  0  0
  152.4534  141.7327  159.0561 C   0  0  0  0  0  0  0  0  0  0  0  0
  151.4197  142.8070  158.6573 C   0  0  1  0  0  0  0  0  0  0  0  0
  151.8395  144.2176  159.1178 C   0  0  0  0  0  0  0  0  0  0  0  0
  152.2502  144.2010  160.3862 F   0  0  0  0  0  0  0  0  0  0  0  0
  152.8293  144.6719  158.3491 F   0  0  0  0  0  0  0  0  0  0  0  0
  150.8102  145.0576  159.0083 F   0  0  0  0  0  0  0  0  0  0  0  0
  151.1601  142.7497  157.1350 C   0  0  0  0  0  0  0  0  0  0  0  0
  146.2176  137.7331  158.3153 H   0  0  0  0  0  0  0  0  0  0  0  0
  144.6323  137.4807  159.0653 H   0  0  0  0  0  0  0  0  0  0  0  0
  146.0210  137.9393  160.0548 H   0  0  0  0  0  0  0  0  0  0  0  0
  144.2022  141.1720  159.7219 H   0  0  0  0  0  0  0  0  0  0  0  0
  144.9170  140.0684  160.8951 H   0  0  0  0  0  0  0  0  0  0  0  0
  143.4521  139.6043  160.0244 H   0  0  0  0  0  0  0  0  0  0  0  0
  142.2359  140.0014  155.6121 H   0  0  0  0  0  0  0  0  0  0  0  0
  146.0308  141.2810  154.6684 H   0  0  0  0  0  0  0  0  0  0  0  0
  147.3475  140.6311  158.1518 H   0  0  0  0  0  0  0  0  0  0  0  0
  149.2848  140.9149  158.1552 H   0  0  0  0  0  0  0  0  0  0  0  0
  150.6814  141.3440  155.5700 H   0  0  0  0  0  0  0  0  0  0  0  0
  151.3847  139.2829  156.8182 H   0  0  0  0  0  0  0  0  0  0  0  0
  152.6706  140.4316  156.5635 H   0  0  0  0  0  0  0  0  0  0  0  0
  151.1186  140.0351  159.1646 H   0  0  0  0  0  0  0  0  0  0  0  0
  152.7829  139.6009  158.8717 H   0  0  0  0  0  0  0  0  0  0  0  0
  152.6043  141.7392  160.1358 H   0  0  0  0  0  0  0  0  0  0  0  0
  153.4204  141.9668  158.6091 H   0  0  0  0  0  0  0  0  0  0  0  0
  150.4841  142.5713  159.1669 H   0  0  0  0  0  0  0  0  0  0  0  0
  152.0717  143.0286  156.6051 H   0  0  0  0  0  0  0  0  0  0  0  0
  150.4144  143.4931  156.8517 H   0  0  0  0  0  0  0  0  0  0  0  0
  143.8071  140.9522  154.1461 H   0  0  0  0  0  0  0  0  0  0  0  0
  1  2  1  0  0  0  0
  1 24  1  0  0  0  0
  1 25  1  0  0  0  0
  1 26  1  0  0  0  0
  2  3  1  0  0  0  0
  2  4  1  0  0  0  0
  3 27  1  0  0  0  0
  3 28  1  0  0  0  0
  3 29  1  0  0  0  0
  4  9  1  0  0  0  0
  4  5  2  0  0  0  0
  5  6  1  0  0  0  0
  6  7  2  0  0  0  0
  6 30  1  0  0  0  0
  7  8  1  0  0  0  0
  7 44  1  0  0  0  0
  8  9  2  0  0  0  0
  8 31  1  0  0  0  0
  9 10  1  0  0  0  0
 10 11  1  0  0  0  0
 10 32  1  0  0  0  0
 11 12  2  0  0  0  0
 11 13  1  0  0  0  0
 13 14  1  0  0  0  0
 13 33  1  0  0  0  0
 14 23  1  0  0  0  0
 14 15  1  0  0  0  0
 14 34  1  0  0  0  0
 15 16  1  0  0  0  0
 15 35  1  0  0  0  0
 15 36  1  0  0  0  0
 16 17  1  0  0  0  0
 16 37  1  0  0  0  0
 16 38  1  0  0  0  0
 17 18  1  0  0  0  0
 17 39  1  0  0  0  0
 17 40  1  0  0  0  0
 18 19  1  0  0  0  0
 18 23  1  0  0  0  0
 18 41  1  0  0  0  0
 19 20  1  0  0  0  0
 19 21  1  0  0  0  0
 19 22  1  0  0  0  0
 23 42  1  0  0  0  0
 23 43  1  0  0  0  0
M  CHG  1   7   1
M  END
> <s_m_source_file>
AV-unprocessed.smi

> <i_m_source_file_index>
2438

> <i_lp_mmshare_version>
43012

> <i_f3d_flags>
0

> <s_epik_input>
W0NIM11OKFtDSDNdKWMxbltjSF1uW2NIXWMxW05IXUMoPU8pW05IXVtDQEBIXTJbQ0gyXVtDSDJdW0NIMl1bQ0BASF0oQyhGKShGKUYpW0NIMl0y

> <s_epik_cmdline>
J2VwaWtfcHl0aG9uJywgJy1waCcsICc3LjAnLCAnLXRuJywgJzgnLCAnLW1hJywgJzIwMCcsICctbWV0YWxfYmluZGluZycsICctaW1hZScsICc8aW5maWxlLm1hZT4nLCAnLW9tYWUnLCAnPG91dGZpbGUubWFlPic=

> <r_lp_tautomer_probability>
0.999336

> <r_epik_Ionization_Penalty>
2.11643

> <r_epik_Ionization_Penalty_Charging>
2.11639

> <r_epik_Ionization_Penalty_Neutral>
4.47523e-05

> <r_epik_State_Penalty>
2.25369

> <r_epik_Charging_Adjusted_Penalty>
4.37008

> <i_epik_Tot_Q>
1

> <i_epik_Tot_abs_Q>
1

> <r_epik_Metal_State_Penalty>
2.27019

> <b_epik_Metal_Only>
0

> <s_lp_Force_Field>
OPLS_2005

> <r_lp_Energy>
15.0376

> <b_lp_Chiralities_Consistent>
1

> <s_lp_Variant>
AV-unprocessed.smi:2438-5

> <Gold.Version>
5.8.1

> <Gold.Id.Protein>
6NUR|6NUR_protein|mol2

> <Gold.PLP.Fitness>
38.8099

> <Gold.PLP.PLP>
-33.6466

> <Gold.PLP.part.hbond>
-1.7023

> <Gold.PLP.part.metal>
0.0000

> <Gold.PLP.part.buried>
-4.8077

> <Gold.PLP.part.nonpolar>
-27.9397

> <Gold.PLP.part.repulsive>
0.2104

> <Gold.PLP.ligand.clash>
0.0000

> <Gold.PLP.ligand.torsion>
0.6178

> <Gold.PLP.Chemscore.Hbond>
2.0000

> <Gold.PLP.Chemscore.CHOScore>
0.0000

> <Gold.PLP.Chemscore.Metal>
0.0000

> <Gold.Chemscore.Hbonds>
donor molecule, donor type, donor heavy atom, donor atom, acceptor molecule, acceptor atom, score
      L1  H     7    44       P1 10175  1.89

> <Gold.PLP.Chemscore.Internal.Correction>
0.3989

> <Gold.Rescore>
     Score         DG    S(hbond)    S(metal)    S(lipo)     H(rot)  DE(clash)    DE(int)     intcor
     11.10     -12.80       1.00        0.00      62.69       1.31       0.01       1.69       ----

> <Gold.Chemscore.Fitness>
11.1029

> <Gold.Chemscore.DG>
-12.8046

> <Gold.Chemscore.ZeroCoef>
-5.4800

> <Gold.Chemscore.Hbond>
0.9992

> <Gold.Chemscore.Metal>
0.0000

> <Gold.Chemscore.Lipo>
62.6941

> <Gold.Chemscore.Internal_Hbond>
0.0000

> <Gold.Chemscore.DEClash>
0.0069

> <Gold.Chemscore.DEInternal>
1.6947

> <Gold.Chemscore.Rot>
1.3078

> <Gold.Chemscore.Internal.Correction>
   9.000000E+99

> <Gold.Chemscore.Hbonds>
donor molecule, donor type, donor heavy atom, donor atom, acceptor molecule, acceptor atom, score
      L1  H     7    44       P1 10175  0.78

> <Gold.Chemscore.Hbond.Weighted>
-3.3374

> <Gold.Chemscore.Metal.Weighted>
-0.0000

> <Gold.Chemscore.Lipo.Weighted>
-7.3352

> <Gold.Chemscore.Internal_Hbond.Weighted>
0.0000

> <Gold.Chemscore.DEClash.Weighted>
0.0069

> <Gold.Chemscore.DEInternal.Weighted>
1.6947

> <Gold.Chemscore.Rot.Weighted>
3.3481

> <Gold.Chemscore.Internal.Correction.Weighted>
   9.000000E+99

> <Gold.Protein.RotatedTorsions>
[ 6907 6896 6895 6894 ] final   83.18 input  -60.11 | X-H torsion
[ 7974 7965 7964 7962 ] final   30.82 input  175.53 | X-H torsion
[ 8008 7997 7996 7995 ] final  -82.76 input   59.86 | X-H torsion
[ 10167 10162 10161 10158 ] final  -84.44 input  -65.29 | X-H torsion
[ 10718 10713 10712 10709 ] final -163.33 input   66.30 | X-H torsion
[ 10763 10752 10751 10750 ] final  146.42 input  -60.55 | X-H torsion
[ 11005 11000 10999 10996 ] final  176.30 input  -57.11 | X-H torsion

> <Gold.Protein.ActiveResidues>
 VAL166  LYS551  ARG553  GLY616  TRP617  ASP618  TYR619  PRO620  LYS621  CYS622 
 ASP623  PHE694  ASN695  SER759  ASP760  ASP761  ALA762  ILE779  LEU786  VAL792 
 PHE793  MET794  SER795  GLU796  ALA797  LYS798  CYS799  TRP800  GLU811  SER814 

> <Gold.Protein.RotatedAtoms>
  152.5320  134.2935  159.9051 H   0  0  0  0  0  0  0  0  0  0  0  0  # atno 6907 bound_to 6896
  151.2886  133.4169  159.2639 H   0  0  0  0  0  0  0  0  0  0  0  0  # atno 6908 bound_to 6896
  151.0220  134.9492  159.8122 H   0  0  0  0  0  0  0  0  0  0  0  0  # atno 6909 bound_to 6896
  146.1588  139.6738  142.9048 H   0  0  0  0  0  0  0  0  0  0  0  0  # atno 7974 bound_to 7965
  154.6119  140.0628  156.9505 H   0  0  0  0  0  0  0  0  0  0  0  0  # atno 8008 bound_to 7997
  155.1958  140.3311  155.4333 H   0  0  0  0  0  0  0  0  0  0  0  0  # atno 8009 bound_to 7997
  156.2382  140.1873  156.7045 H   0  0  0  0  0  0  0  0  0  0  0  0  # atno 8010 bound_to 7997
  140.4132  143.2614  151.8990 H   0  0  0  0  0  0  0  0  0  0  0  0  # atno 10167 bound_to 10162
  156.6231  130.8898  151.2962 H   0  0  0  0  0  0  0  0  0  0  0  0  # atno 10718 bound_to 10713
  154.0216  135.2905  155.3380 H   0  0  0  0  0  0  0  0  0  0  0  0  # atno 10763 bound_to 10752
  154.7043  135.5176  153.8575 H   0  0  0  0  0  0  0  0  0  0  0  0  # atno 10764 bound_to 10752
  153.0679  135.6637  154.0437 H   0  0  0  0  0  0  0  0  0  0  0  0  # atno 10765 bound_to 10752
  140.3716  134.7025  157.4396 H   0  0  0  0  0  0  0  0  0  0  0  0  # atno 11005 bound_to 11000
  145.4640  141.0434  143.2736 LP  0  0  0  0  0  0  0  0  0  0  0  0  # atno 17320 bound_to 7965
  144.7999  139.6160  143.7076 LP  0  0  0  0  0  0  0  0  0  0  0  0  # atno 17321 bound_to 7965
  139.4782  144.5515  151.8378 LP  0  0  0  0  0  0  0  0  0  0  0  0  # atno 17342 bound_to 10162
  140.4615  144.1715  150.5907 LP  0  0  0  0  0  0  0  0  0  0  0  0  # atno 17343 bound_to 10162
  157.7222  130.9573  150.1484 LP  0  0  0  0  0  0  0  0  0  0  0  0  # atno 17370 bound_to 10713
  156.2295  130.3681  149.8461 LP  0  0  0  0  0  0  0  0  0  0  0  0  # atno 17371 bound_to 10713
  140.0547  134.6080  155.8819 LP  0  0  0  0  0  0  0  0  0  0  0  0  # atno 17394 bound_to 11000
  141.1952  133.6586  156.5634 LP  0  0  0  0  0  0  0  0  0  0  0  0  # atno 17395 bound_to 11000

$$$$
