AV-unprocessed.smi:220|AV-procd|sdf|1683|dock3
  -GOLD-   2262020113D 1   1.00000     0.00000
 Structure written by MMmdl.
 51 55  0  0  0  0  0  0  0  0  1 V2000
  147.1101  133.8751  151.8561 N   0  0  0  0  0  0  0  0  0  0  0  0
  146.1189  134.0499  152.7332 C   0  0  0  0  0  0  0  0  0  0  0  0
  145.9829  135.1005  153.3586 O   0  0  0  0  0  0  0  0  0  0  0  0
  145.1571  132.8584  152.9403 C   0  0  1  0  0  0  0  0  0  0  0  0
  144.4043  132.3707  151.6711 C   0  0  1  0  0  0  0  0  0  0  0  0
  144.1901  133.3194  150.4661 C   0  0  0  0  0  0  0  0  0  0  0  0
  144.5831  132.4952  149.2359 C   0  0  0  0  0  0  0  0  0  0  0  0
  145.6766  131.5559  149.7437 C   0  0  0  0  0  0  0  0  0  0  0  0
  145.1901  131.1650  151.1420 C   0  0  1  0  0  0  0  0  0  0  0  0
  146.2655  130.8694  152.1910 C   0  0  0  0  0  0  0  0  0  0  0  0
  145.8789  131.6539  153.3593 N   0  0  0  0  0  0  0  0  0  0  0  0
  146.5894  131.5812  154.5211 C   0  0  0  0  0  0  0  0  0  0  0  0
  146.2714  132.4382  155.5283 N   0  0  0  0  0  0  0  0  0  0  0  0
  146.9302  132.4047  156.6891 C   0  0  0  0  0  0  0  0  0  0  0  0
  147.9332  131.6069  157.0539 N   0  0  0  0  0  0  0  0  0  0  0  0
  148.2710  130.7485  156.0505 C   0  0  0  0  0  0  0  0  0  0  0  0
  147.6622  130.6699  154.7636 C   0  0  0  0  0  0  0  0  0  0  0  0
  148.2954  129.6828  154.0156 N   0  0  0  0  0  0  0  0  0  0  0  0
  149.2095  129.2025  154.8115 C   0  0  0  0  0  0  0  0  0  0  0  0
  149.2583  129.7774  156.0595 N   0  0  0  0  0  0  0  0  0  0  0  0
  150.1711  129.4382  157.1409 C   0  0  0  0  0  0  0  0  0  0  0  0
  151.5843  130.0309  156.9688 C   0  0  0  0  0  0  0  0  0  0  0  0
  152.3131  129.3508  155.7966 C   0  0  0  0  0  0  0  0  0  0  0  0
  152.3139  127.9449  155.9378 O   0  0  0  0  0  0  0  0  0  0  0  0
  151.6742  131.5638  156.9662 C   0  0  0  0  0  0  0  0  0  0  0  0
  152.7008  131.5630  157.9803 O   0  0  0  0  0  0  0  0  0  0  0  0
  152.4133  130.1749  158.2525 C   0  0  0  0  0  0  0  0  0  0  0  0
  147.7625  134.6258  151.6823 H   0  0  0  0  0  0  0  0  0  0  0  0
  147.2017  132.9965  151.3670 H   0  0  0  0  0  0  0  0  0  0  0  0
  144.4056  133.1281  153.6811 H   0  0  0  0  0  0  0  0  0  0  0  0
  143.4265  132.0038  151.9877 H   0  0  0  0  0  0  0  0  0  0  0  0
  143.1593  133.6694  150.4038 H   0  0  0  0  0  0  0  0  0  0  0  0
  144.8188  134.2069  150.4967 H   0  0  0  0  0  0  0  0  0  0  0  0
  143.7274  131.9112  148.8939 H   0  0  0  0  0  0  0  0  0  0  0  0
  144.9160  133.1163  148.4038 H   0  0  0  0  0  0  0  0  0  0  0  0
  145.8269  130.6928  149.0950 H   0  0  0  0  0  0  0  0  0  0  0  0
  146.6201  132.1005  149.8023 H   0  0  0  0  0  0  0  0  0  0  0  0
  144.5085  130.3166  151.0614 H   0  0  0  0  0  0  0  0  0  0  0  0
  146.2959  129.8035  152.4213 H   0  0  0  0  0  0  0  0  0  0  0  0
  147.2574  131.1694  151.8499 H   0  0  0  0  0  0  0  0  0  0  0  0
  146.6066  133.1190  157.4316 H   0  0  0  0  0  0  0  0  0  0  0  0
  149.8757  128.4098  154.5048 H   0  0  0  0  0  0  0  0  0  0  0  0
  149.7223  129.7887  158.0712 H   0  0  0  0  0  0  0  0  0  0  0  0
  150.2154  128.3524  157.2322 H   0  0  0  0  0  0  0  0  0  0  0  0
  151.8678  129.6134  154.8370 H   0  0  0  0  0  0  0  0  0  0  0  0
  153.3515  129.6800  155.7470 H   0  0  0  0  0  0  0  0  0  0  0  0
  151.9559  127.5632  155.1508 H   0  0  0  0  0  0  0  0  0  0  0  0
  152.0160  131.9883  156.0214 H   0  0  0  0  0  0  0  0  0  0  0  0
  150.7710  132.0665  157.3148 H   0  0  0  0  0  0  0  0  0  0  0  0
  151.8348  130.0543  159.1697 H   0  0  0  0  0  0  0  0  0  0  0  0
  153.3118  129.5573  158.2760 H   0  0  0  0  0  0  0  0  0  0  0  0
  1  2  1  0  0  0  0
  1 28  1  0  0  0  0
  1 29  1  0  0  0  0
  2  3  2  0  0  0  0
  2  4  1  0  0  0  0
  4 11  1  0  0  0  0
  4  5  1  0  0  0  0
  4 30  1  0  0  0  0
  5  9  1  0  0  0  0
  5  6  1  0  0  0  0
  5 31  1  0  0  0  0
  6  7  1  0  0  0  0
  6 32  1  0  0  0  0
  6 33  1  0  0  0  0
  7  8  1  0  0  0  0
  7 34  1  0  0  0  0
  7 35  1  0  0  0  0
  8  9  1  0  0  0  0
  8 36  1  0  0  0  0
  8 37  1  0  0  0  0
  9 10  1  0  0  0  0
  9 38  1  0  0  0  0
 10 11  1  0  0  0  0
 10 39  1  0  0  0  0
 10 40  1  0  0  0  0
 11 12  1  0  0  0  0
 12 17  1  0  0  0  0
 12 13  2  0  0  0  0
 13 14  1  0  0  0  0
 14 15  2  0  0  0  0
 14 41  1  0  0  0  0
 15 16  1  0  0  0  0
 16 20  1  0  0  0  0
 16 17  2  0  0  0  0
 17 18  1  0  0  0  0
 18 19  2  0  0  0  0
 19 20  1  0  0  0  0
 19 42  1  0  0  0  0
 20 21  1  0  0  0  0
 21 22  1  0  0  0  0
 21 43  1  0  0  0  0
 21 44  1  0  0  0  0
 22 27  1  0  0  0  0
 22 23  1  0  0  0  0
 22 25  1  0  0  0  0
 23 24  1  0  0  0  0
 23 45  1  0  0  0  0
 23 46  1  0  0  0  0
 24 47  1  0  0  0  0
 25 26  1  0  0  0  0
 25 48  1  0  0  0  0
 25 49  1  0  0  0  0
 26 27  1  0  0  0  0
 27 50  1  0  0  0  0
 27 51  1  0  0  0  0
M  END
> <s_m_source_file>
AV-unprocessed.smi

> <i_m_source_file_index>
220

> <i_lp_mmshare_version>
43012

> <i_f3d_flags>
0

> <s_epik_input>
W0NIMl0xW0NIMl1bQ0gyXVtDQEhdKFtDQEhdMTIpW0NIMl1OKFtDQEBIXTJDKD1PKVtOSDJdKWMobltjSF1uMyljKGMzNCluW2NIXW40W0NIMl1DNShbQ0gyXVtPSF0pW0NIMl1PW0NIMl01

> <s_epik_cmdline>
J2VwaWtfcHl0aG9uJywgJy1waCcsICc3LjAnLCAnLXRuJywgJzgnLCAnLW1hJywgJzIwMCcsICctbWV0YWxfYmluZGluZycsICctaW1hZScsICc8aW5maWxlLm1hZT4nLCAnLW9tYWUnLCAnPG91dGZpbGUubWFlPic=

> <r_lp_tautomer_probability>
1

> <r_epik_Ionization_Penalty>
0.00118987

> <r_epik_Ionization_Penalty_Charging>
0

> <r_epik_Ionization_Penalty_Neutral>
0.00118987

> <r_epik_State_Penalty>
0.000654261

> <r_epik_Charging_Adjusted_Penalty>
0.000654261

> <i_epik_Tot_Q>
0

> <i_epik_Tot_abs_Q>
0

> <r_epik_Metal_State_Penalty>
-0

> <b_epik_Metal_Only>
0

> <s_lp_Force_Field>
OPLS_2005

> <r_lp_Energy>
61.4398

> <b_lp_Chiralities_Consistent>
1

> <s_lp_Variant>
AV-unprocessed.smi:220-2

> <Gold.Version>
5.8.1

> <Gold.Id.Protein>
6NUR|6NUR_protein|mol2

> <Gold.PLP.Fitness>
42.5376

> <Gold.PLP.PLP>
-34.2455

> <Gold.PLP.part.hbond>
-2.0000

> <Gold.PLP.part.metal>
0.0000

> <Gold.PLP.part.buried>
-2.2931

> <Gold.PLP.part.nonpolar>
-28.6065

> <Gold.PLP.part.repulsive>
0.3576

> <Gold.PLP.ligand.clash>
0.0000

> <Gold.PLP.ligand.torsion>
0.6433

> <Gold.PLP.Chemscore.Hbond>
2.0000

> <Gold.PLP.Chemscore.CHOScore>
1.0000

> <Gold.PLP.Chemscore.Metal>
0.0000

> <Gold.Chemscore.Hbonds>
donor molecule, donor type, donor heavy atom, donor atom, acceptor molecule, acceptor atom, score
      L1  H     1    28       P1  7948  0.95

> <Gold.PLP.Chemscore.Internal.Correction>
0.5787

> <Gold.Rescore>
     Score         DG    S(hbond)    S(metal)    S(lipo)     H(rot)  DE(clash)    DE(int)     intcor
     10.71     -14.28       1.87        0.00      85.00       2.89       1.25       2.32       ----

> <Gold.Chemscore.Fitness>
10.7132

> <Gold.Chemscore.DG>
-14.2781

> <Gold.Chemscore.ZeroCoef>
-5.4800

> <Gold.Chemscore.Hbond>
1.8695

> <Gold.Chemscore.Metal>
0.0000

> <Gold.Chemscore.Lipo>
84.9954

> <Gold.Chemscore.Internal_Hbond>
0.0000

> <Gold.Chemscore.DEClash>
1.2455

> <Gold.Chemscore.DEInternal>
2.3194

> <Gold.Chemscore.Rot>
2.8869

> <Gold.Chemscore.Internal.Correction>
   9.000000E+99

> <Gold.Chemscore.Hbonds>
donor molecule, donor type, donor heavy atom, donor atom, acceptor molecule, acceptor atom, score
      L1  H     1    28       P1  7948  0.21

> <Gold.Chemscore.Hbond.Weighted>
-6.2441

> <Gold.Chemscore.Metal.Weighted>
-0.0000

> <Gold.Chemscore.Lipo.Weighted>
-9.9445

> <Gold.Chemscore.Internal_Hbond.Weighted>
0.0000

> <Gold.Chemscore.DEClash.Weighted>
1.2455

> <Gold.Chemscore.DEInternal.Weighted>
2.3194

> <Gold.Chemscore.Rot.Weighted>
7.3905

> <Gold.Chemscore.Internal.Correction.Weighted>
   9.000000E+99

> <Gold.Protein.RotatedTorsions>
[ 6907 6896 6895 6894 ] final -145.48 input  -60.11 | X-H torsion
[ 7974 7965 7964 7962 ] final   34.52 input  175.53 | X-H torsion
[ 8008 7997 7996 7995 ] final   99.01 input   59.86 | X-H torsion
[ 10167 10162 10161 10158 ] final  -99.55 input  -65.29 | X-H torsion
[ 10718 10713 10712 10709 ] final -137.38 input   66.30 | X-H torsion
[ 10763 10752 10751 10750 ] final  108.26 input  -60.55 | X-H torsion
[ 11005 11000 10999 10996 ] final  -14.98 input  -57.11 | X-H torsion

> <Gold.Protein.ActiveResidues>
 VAL166  LYS551  ARG553  GLY616  TRP617  ASP618  TYR619  PRO620  LYS621  CYS622 
 ASP623  PHE694  ASN695  SER759  ASP760  ASP761  ALA762  ILE779  LEU786  VAL792 
 PHE793  MET794  SER795  GLU796  ALA797  LYS798  CYS799  TRP800  GLU811  SER814 

> <Gold.Protein.RotatedAtoms>
  151.1283  133.5055  159.2599 H   0  0  0  0  0  0  0  0  0  0  0  0  # atno 6907 bound_to 6896
  151.1785  135.0350  159.8792 H   0  0  0  0  0  0  0  0  0  0  0  0  # atno 6908 bound_to 6896
  152.5459  134.1138  159.8423 H   0  0  0  0  0  0  0  0  0  0  0  0  # atno 6909 bound_to 6896
  146.1347  139.6259  142.9203 H   0  0  0  0  0  0  0  0  0  0  0  0  # atno 7974 bound_to 7965
  156.1062  140.3235  155.8009 H   0  0  0  0  0  0  0  0  0  0  0  0  # atno 8008 bound_to 7997
  155.4752  140.0549  157.2991 H   0  0  0  0  0  0  0  0  0  0  0  0  # atno 8009 bound_to 7997
  154.4729  140.2019  155.9964 H   0  0  0  0  0  0  0  0  0  0  0  0  # atno 8010 bound_to 7997
  140.2613  143.3405  152.0623 H   0  0  0  0  0  0  0  0  0  0  0  0  # atno 10167 bound_to 10162
  156.2875  130.7356  151.1371 H   0  0  0  0  0  0  0  0  0  0  0  0  # atno 10718 bound_to 10713
  153.4182  135.3818  155.2094 H   0  0  0  0  0  0  0  0  0  0  0  0  # atno 10763 bound_to 10752
  154.8743  135.3810  154.4417 H   0  0  0  0  0  0  0  0  0  0  0  0  # atno 10764 bound_to 10752
  153.4934  135.7088  153.5934 H   0  0  0  0  0  0  0  0  0  0  0  0  # atno 10765 bound_to 10752
  140.7920  133.8281  155.9388 H   0  0  0  0  0  0  0  0  0  0  0  0  # atno 11005 bound_to 11000
  145.5182  141.0433  143.2450 LP  0  0  0  0  0  0  0  0  0  0  0  0  # atno 17320 bound_to 7965
  144.7727  139.6698  143.7188 LP  0  0  0  0  0  0  0  0  0  0  0  0  # atno 17321 bound_to 7965
  139.5016  144.6717  151.6227 LP  0  0  0  0  0  0  0  0  0  0  0  0  # atno 17342 bound_to 10162
  140.5963  143.9689  150.6357 LP  0  0  0  0  0  0  0  0  0  0  0  0  # atno 17343 bound_to 10162
  157.7333  131.0592  150.5586 LP  0  0  0  0  0  0  0  0  0  0  0  0  # atno 17370 bound_to 10713
  156.5698  130.4277  149.6024 LP  0  0  0  0  0  0  0  0  0  0  0  0  # atno 17371 bound_to 10713
  140.9380  134.1937  157.4818 LP  0  0  0  0  0  0  0  0  0  0  0  0  # atno 17394 bound_to 11000
  139.8730  134.9860  156.5306 LP  0  0  0  0  0  0  0  0  0  0  0  0  # atno 17395 bound_to 11000

$$$$
