AV-unprocessed.smi:153|AV-procd|sdf|1257|dock3
  -GOLD-   2262018493D 1   1.00000     0.00000
 Structure written by MMmdl.
 60 63  0  0  0  0  0  0  0  0  2 V2000
  148.0770  141.5255  156.7865 C   0  0  0  0  0  0  0  0  0  0  0  0
  149.0714  141.3851  155.6225 C   0  0  1  0  0  0  0  0  0  0  0  0
  150.1509  140.6138  156.1545 O   0  0  0  0  0  0  0  0  0  0  0  0
  150.4914  139.5523  155.2769 C   0  0  0  0  0  0  0  0  0  0  0  0
  149.1828  139.2343  154.5689 C   0  0  0  0  0  0  0  0  0  0  0  0
  148.5713  140.6132  154.3695 C   0  0  2  0  0  0  0  0  0  0  0  0
  149.1896  141.1852  153.2289 O   0  0  0  0  0  0  0  0  0  0  0  0
  147.0417  140.5498  154.1017 C   0  0  0  0  0  0  0  0  0  0  0  0
  146.5815  139.4173  153.3028 N   0  0  0  0  0  0  0  0  0  0  0  0
  146.9521  139.0789  152.0194 C   0  0  0  0  0  0  0  0  0  0  0  0
  146.4058  137.9918  151.5498 N   0  0  0  0  0  0  0  0  0  0  0  0
  145.6110  137.5235  152.5892 C   0  0  0  0  0  0  0  0  0  0  0  0
  144.7629  136.3886  152.7704 C   0  0  0  0  0  0  0  0  0  0  0  0
  144.5262  135.4368  151.8256 N   0  0  0  0  0  0  0  0  0  0  0  0
  145.1492  135.5559  150.5135 C   0  0  0  0  0  0  0  0  0  0  0  0
  143.9194  134.1567  152.2066 C   0  0  0  0  0  0  0  0  0  0  0  0
  144.6307  132.9190  151.6120 C   0  0  1  0  0  0  0  0  0  0  0  0
  144.1918  132.7219  150.2827 O   0  0  0  0  0  0  0  0  0  0  0  0
  146.1732  132.9704  151.6633 C   0  0  0  0  0  0  0  0  0  0  0  0
  146.7756  131.6734  152.0606 N   0  3  0  0  0  0  0  0  0  0  0  0
  147.1452  131.6365  153.4958 C   0  0  0  0  0  0  0  0  0  0  0  0
  147.8155  130.2972  153.8450 C   0  0  0  0  0  0  0  0  0  0  0  0
  146.9438  129.2252  153.5086 O   0  0  0  0  0  0  0  0  0  0  0  0
  146.6502  129.1953  152.1174 C   0  0  0  0  0  0  0  0  0  0  0  0
  145.9400  130.4976  151.7112 C   0  0  0  0  0  0  0  0  0  0  0  0
  144.1723  136.2485  153.9863 N   0  0  0  0  0  0  0  0  0  0  0  0
  144.3762  137.1474  154.9523 C   0  0  0  0  0  0  0  0  0  0  0  0
  145.1285  138.2469  154.9198 N   0  0  0  0  0  0  0  0  0  0  0  0
  145.7336  138.3984  153.7074 C   0  0  0  0  0  0  0  0  0  0  0  0
  147.2806  142.2293  156.5563 H   0  0  0  0  0  0  0  0  0  0  0  0
  148.5800  141.9064  157.6756 H   0  0  0  0  0  0  0  0  0  0  0  0
  147.6270  140.5677  157.0485 H   0  0  0  0  0  0  0  0  0  0  0  0
  149.4382  142.3767  155.3520 H   0  0  0  0  0  0  0  0  0  0  0  0
  151.2452  139.8970  154.5677 H   0  0  0  0  0  0  0  0  0  0  0  0
  150.8965  138.6982  155.8197 H   0  0  0  0  0  0  0  0  0  0  0  0
  149.3222  138.6759  153.6423 H   0  0  0  0  0  0  0  0  0  0  0  0
  148.5549  138.6337  155.2289 H   0  0  0  0  0  0  0  0  0  0  0  0
  149.3985  140.4920  152.6217 H   0  0  0  0  0  0  0  0  0  0  0  0
  146.4997  140.5289  155.0478 H   0  0  0  0  0  0  0  0  0  0  0  0
  146.7253  141.4673  153.6048 H   0  0  0  0  0  0  0  0  0  0  0  0
  147.6479  139.6556  151.4293 H   0  0  0  0  0  0  0  0  0  0  0  0
  145.0988  136.5825  150.1485 H   0  0  0  0  0  0  0  0  0  0  0  0
  144.6376  134.9229  149.7882 H   0  0  0  0  0  0  0  0  0  0  0  0
  146.1939  135.2466  150.5520 H   0  0  0  0  0  0  0  0  0  0  0  0
  143.8889  134.0560  153.2912 H   0  0  0  0  0  0  0  0  0  0  0  0
  142.8725  134.1603  151.9008 H   0  0  0  0  0  0  0  0  0  0  0  0
  144.2772  132.0571  152.1767 H   0  0  0  0  0  0  0  0  0  0  0  0
  143.7357  133.4996  149.9981 H   0  0  0  0  0  0  0  0  0  0  0  0
  146.5457  133.2498  150.6766 H   0  0  0  0  0  0  0  0  0  0  0  0
  146.5098  133.7489  152.3499 H   0  0  0  0  0  0  0  0  0  0  0  0
  147.8280  132.4557  153.7248 H   0  0  0  0  0  0  0  0  0  0  0  0
  146.2535  131.7812  154.1079 H   0  0  0  0  0  0  0  0  0  0  0  0
  148.7660  130.1880  153.3202 H   0  0  0  0  0  0  0  0  0  0  0  0
  148.0343  130.2537  154.9120 H   0  0  0  0  0  0  0  0  0  0  0  0
  147.5665  129.0547  151.5417 H   0  0  0  0  0  0  0  0  0  0  0  0
  146.0096  128.3379  151.9104 H   0  0  0  0  0  0  0  0  0  0  0  0
  144.9768  130.5677  152.2191 H   0  0  0  0  0  0  0  0  0  0  0  0
  145.7351  130.4773  150.6414 H   0  0  0  0  0  0  0  0  0  0  0  0
  143.8620  136.9598  155.8833 H   0  0  0  0  0  0  0  0  0  0  0  0
  147.6397  131.5902  151.5434 H   0  0  0  0  0  0  0  0  0  0  0  0
  1  2  1  0  0  0  0
  1 30  1  0  0  0  0
  1 31  1  0  0  0  0
  1 32  1  0  0  0  0
  2  6  1  0  0  0  0
  2  3  1  0  0  0  0
  2 33  1  0  0  0  0
  3  4  1  0  0  0  0
  4  5  1  0  0  0  0
  4 34  1  0  0  0  0
  4 35  1  0  0  0  0
  5  6  1  0  0  0  0
  5 36  1  0  0  0  0
  5 37  1  0  0  0  0
  6  7  1  0  0  0  0
  6  8  1  0  0  0  0
  7 38  1  0  0  0  0
  8  9  1  0  0  0  0
  8 39  1  0  0  0  0
  8 40  1  0  0  0  0
  9 29  1  0  0  0  0
  9 10  1  0  0  0  0
 10 11  2  0  0  0  0
 10 41  1  0  0  0  0
 11 12  1  0  0  0  0
 12 29  2  0  0  0  0
 12 13  1  0  0  0  0
 13 14  1  0  0  0  0
 13 26  2  0  0  0  0
 14 15  1  0  0  0  0
 14 16  1  0  0  0  0
 15 42  1  0  0  0  0
 15 43  1  0  0  0  0
 15 44  1  0  0  0  0
 16 17  1  0  0  0  0
 16 45  1  0  0  0  0
 16 46  1  0  0  0  0
 17 18  1  0  0  0  0
 17 19  1  0  0  0  0
 17 47  1  0  0  0  0
 18 48  1  0  0  0  0
 19 20  1  0  0  0  0
 19 49  1  0  0  0  0
 19 50  1  0  0  0  0
 20 25  1  0  0  0  0
 20 21  1  0  0  0  0
 20 60  1  0  0  0  0
 21 22  1  0  0  0  0
 21 51  1  0  0  0  0
 21 52  1  0  0  0  0
 22 23  1  0  0  0  0
 22 53  1  0  0  0  0
 22 54  1  0  0  0  0
 23 24  1  0  0  0  0
 24 25  1  0  0  0  0
 24 55  1  0  0  0  0
 24 56  1  0  0  0  0
 25 57  1  0  0  0  0
 25 58  1  0  0  0  0
 26 27  1  0  0  0  0
 27 28  2  0  0  0  0
 27 59  1  0  0  0  0
 28 29  1  0  0  0  0
M  CHG  1  20   1
M  END
> <s_m_source_file>
AV-unprocessed.smi

> <i_m_source_file_index>
153

> <i_lp_mmshare_version>
43012

> <i_f3d_flags>
0

> <s_epik_input>
W0NIMl0xW0NIMl1PW0NAQEhdKFtDSDNdKVtDQEBdMShbT0hdKVtDSDJdbihbY0hdbjIpYyhjMjMpbltjSF1uYzNOKFtDSDNdKVtDSDJdW0NASF0oW09IXSlbQ0gyXU40W0NIMl1bQ0gyXU9bQ0gyXVtDSDJdNA==

> <s_epik_cmdline>
J2VwaWtfcHl0aG9uJywgJy1waCcsICc3LjAnLCAnLXRuJywgJzgnLCAnLW1hJywgJzIwMCcsICctbWV0YWxfYmluZGluZycsICctaW1hZScsICc8aW5maWxlLm1hZT4nLCAnLW9tYWUnLCAnPG91dGZpbGUubWFlPic=

> <r_lp_tautomer_probability>
1

> <r_epik_Ionization_Penalty>
0.403509

> <r_epik_Ionization_Penalty_Charging>
0.40072

> <r_epik_Ionization_Penalty_Neutral>
0.00278876

> <r_epik_State_Penalty>
0.400058

> <r_epik_Charging_Adjusted_Penalty>
0.800778

> <i_epik_Tot_Q>
1

> <i_epik_Tot_abs_Q>
1

> <r_epik_Metal_State_Penalty>
0.400321

> <b_epik_Metal_Only>
0

> <s_lp_Force_Field>
OPLS_2005

> <r_lp_Energy>
51.1355

> <b_lp_Chiralities_Consistent>
1

> <s_lp_Variant>
AV-unprocessed.smi:153-8

> <Gold.Version>
5.8.1

> <Gold.Id.Protein>
6NUR|6NUR_protein|mol2

> <Gold.PLP.Fitness>
51.9664

> <Gold.PLP.PLP>
-44.0993

> <Gold.PLP.part.hbond>
-3.2973

> <Gold.PLP.part.metal>
0.0000

> <Gold.PLP.part.buried>
-6.9175

> <Gold.PLP.part.nonpolar>
-36.7308

> <Gold.PLP.part.repulsive>
0.9453

> <Gold.PLP.ligand.clash>
0.0000

> <Gold.PLP.ligand.torsion>
1.9148

> <Gold.PLP.Chemscore.Hbond>
2.7089

> <Gold.PLP.Chemscore.CHOScore>
1.0000

> <Gold.PLP.Chemscore.Metal>
0.0000

> <Gold.Chemscore.Hbonds>
donor molecule, donor type, donor heavy atom, donor atom, acceptor molecule, acceptor atom, score
      L1  H     7    38       P1  7957  0.96
      L1  H    20    60       P1 10747  1.00
      P1  H  7954  7966       L1    11  0.01
      P1  H  8011  8017       L1     7  0.80
      L1  C    10    41       P1  7957  0.85

> <Gold.PLP.Chemscore.Internal.Correction>
0.5701

> <Gold.Rescore>
     Score         DG    S(hbond)    S(metal)    S(lipo)     H(rot)  DE(clash)    DE(int)     intcor
      9.73     -14.81       2.28        0.00      93.76       3.62       0.71       4.37       ----

> <Gold.Chemscore.Fitness>
9.7332

> <Gold.Chemscore.DG>
-14.8066

> <Gold.Chemscore.ZeroCoef>
-5.4800

> <Gold.Chemscore.Hbond>
2.2813

> <Gold.Chemscore.Metal>
0.0000

> <Gold.Chemscore.Lipo>
93.7571

> <Gold.Chemscore.Internal_Hbond>
0.0000

> <Gold.Chemscore.DEClash>
0.7051

> <Gold.Chemscore.DEInternal>
4.3683

> <Gold.Chemscore.Rot>
3.6182

> <Gold.Chemscore.Internal.Correction>
   9.000000E+99

> <Gold.Chemscore.Hbonds>
donor molecule, donor type, donor heavy atom, donor atom, acceptor molecule, acceptor atom, score
      L1  H     7    38       P1  7957  0.87
      L1  H    20    60       P1 10747  0.97
      P1  H  8011  8017       L1     7  0.12

> <Gold.Chemscore.Hbond.Weighted>
-7.6195

> <Gold.Chemscore.Metal.Weighted>
-0.0000

> <Gold.Chemscore.Lipo.Weighted>
-10.9696

> <Gold.Chemscore.Internal_Hbond.Weighted>
0.0000

> <Gold.Chemscore.DEClash.Weighted>
0.7051

> <Gold.Chemscore.DEInternal.Weighted>
4.3683

> <Gold.Chemscore.Rot.Weighted>
9.2625

> <Gold.Chemscore.Internal.Correction.Weighted>
   9.000000E+99

> <Gold.Protein.RotatedTorsions>
[ 6907 6896 6895 6894 ] final  -89.48 input  -60.11 | X-H torsion
[ 7974 7965 7964 7962 ] final  157.45 input  175.53 | X-H torsion
[ 8008 7997 7996 7995 ] final  -47.24 input   59.86 | X-H torsion
[ 10167 10162 10161 10158 ] final  -19.68 input  -65.29 | X-H torsion
[ 10718 10713 10712 10709 ] final -139.29 input   66.30 | X-H torsion
[ 10763 10752 10751 10750 ] final   99.90 input  -60.55 | X-H torsion
[ 11005 11000 10999 10996 ] final  104.28 input  -57.11 | X-H torsion

> <Gold.Protein.ActiveResidues>
 VAL166  LYS551  ARG553  GLY616  TRP617  ASP618  TYR619  PRO620  LYS621  CYS622 
 ASP623  PHE694  ASN695  SER759  ASP760  ASP761  ALA762  ILE779  LEU786  VAL792 
 PHE793  MET794  SER795  GLU796  ALA797  LYS798  CYS799  TRP800  GLU811  SER814 

> <Gold.Protein.RotatedAtoms>
  150.6874  134.2580  159.4537 H   0  0  0  0  0  0  0  0  0  0  0  0  # atno 6907 bound_to 6896
  152.0512  134.9650  160.0584 H   0  0  0  0  0  0  0  0  0  0  0  0  # atno 6908 bound_to 6896
  152.1113  133.4268  159.4669 H   0  0  0  0  0  0  0  0  0  0  0  0  # atno 6909 bound_to 6896
  144.7902  139.7343  143.6224 H   0  0  0  0  0  0  0  0  0  0  0  0  # atno 7974 bound_to 7965
  154.4015  140.1351  156.4142 H   0  0  0  0  0  0  0  0  0  0  0  0  # atno 8008 bound_to 7997
  155.7704  140.3484  155.5224 H   0  0  0  0  0  0  0  0  0  0  0  0  # atno 8009 bound_to 7997
  155.8772  140.0981  157.1500 H   0  0  0  0  0  0  0  0  0  0  0  0  # atno 8010 bound_to 7997
  140.7270  143.4795  151.0136 H   0  0  0  0  0  0  0  0  0  0  0  0  # atno 10167 bound_to 10162
  156.3091  130.7472  151.1543 H   0  0  0  0  0  0  0  0  0  0  0  0  # atno 10718 bound_to 10713
  153.3072  135.4097  155.1304 H   0  0  0  0  0  0  0  0  0  0  0  0  # atno 10763 bound_to 10752
  154.8566  135.3555  154.5773 H   0  0  0  0  0  0  0  0  0  0  0  0  # atno 10764 bound_to 10752
  153.6200  135.7065  153.5372 H   0  0  0  0  0  0  0  0  0  0  0  0  # atno 10765 bound_to 10752
  139.8790  134.9294  156.5338 H   0  0  0  0  0  0  0  0  0  0  0  0  # atno 11005 bound_to 11000
  146.2151  139.5535  142.9655 LP  0  0  0  0  0  0  0  0  0  0  0  0  # atno 17320 bound_to 7965
  145.5814  141.0382  143.2120 LP  0  0  0  0  0  0  0  0  0  0  0  0  # atno 17321 bound_to 7965
  139.8493  143.7460  152.3178 LP  0  0  0  0  0  0  0  0  0  0  0  0  # atno 17342 bound_to 10162
  139.7636  144.7499  151.0327 LP  0  0  0  0  0  0  0  0  0  0  0  0  # atno 17343 bound_to 10162
  157.7387  131.0538  150.5280 LP  0  0  0  0  0  0  0  0  0  0  0  0  # atno 17370 bound_to 10713
  156.5417  130.4210  149.6150 LP  0  0  0  0  0  0  0  0  0  0  0  0  # atno 17371 bound_to 10713
  140.8361  133.8241  155.9030 LP  0  0  0  0  0  0  0  0  0  0  0  0  # atno 17394 bound_to 11000
  140.9282  134.2055  157.4881 LP  0  0  0  0  0  0  0  0  0  0  0  0  # atno 17395 bound_to 11000

$$$$
