AV-unprocessed.smi:2682|AV-procd|sdf|10375|dock7
  -GOLD-   2272014403D 1   1.00000     0.00000
 Structure written by MMmdl.
 29 29  0  0  0  0  0  0  0  0  2 V2000
  144.5068  144.8421  153.7243 C   0  0  0  0  0  0  0  0  0  0  0  0
  145.4387  143.8401  153.3576 O   0  0  0  0  0  0  0  0  0  0  0  0
  145.8265  143.0316  154.4561 C   0  0  0  0  0  0  0  0  0  0  0  0
  146.8268  141.9762  153.9755 C   0  0  0  0  0  0  0  0  0  0  0  0
  147.9621  141.9928  154.8242 O   0  0  0  0  0  0  0  0  0  0  0  0
  148.9519  141.0540  154.4330 C   0  0  0  0  0  0  0  0  0  0  0  0
  150.1458  141.1611  155.3807 C   0  0  0  0  0  0  0  0  0  0  0  0
  151.0590  140.3425  155.2854 O   0  0  0  0  0  0  0  0  0  0  0  0
  150.0915  142.1801  156.2611 N   0  0  0  0  0  0  0  0  0  0  0  0
  151.0174  142.5841  157.2392 C   0  0  0  0  0  0  0  0  0  0  0  0
  151.4109  143.8692  157.4640 C   0  0  0  0  0  0  0  0  0  0  0  0
  152.3685  144.2019  158.5046 C   0  0  0  0  0  0  0  0  0  0  0  0
  152.8115  143.1093  159.2163 C   0  0  0  0  0  0  0  0  0  0  0  0
  152.4664  141.8130  159.0605 N   0  5  0  0  0  0  0  0  0  0  0  0
  151.5692  141.4990  158.0813 C   0  0  0  0  0  0  0  0  0  0  0  0
  151.2118  140.3361  157.8876 O   0  0  0  0  0  0  0  0  0  0  0  0
  144.2366  145.4298  152.8471 H   0  0  0  0  0  0  0  0  0  0  0  0
  144.9291  145.5203  154.4669 H   0  0  0  0  0  0  0  0  0  0  0  0
  143.5943  144.4026  154.1294 H   0  0  0  0  0  0  0  0  0  0  0  0
  146.2979  143.6599  155.2131 H   0  0  0  0  0  0  0  0  0  0  0  0
  144.9608  142.5545  154.9185 H   0  0  0  0  0  0  0  0  0  0  0  0
  146.3636  140.9883  153.9577 H   0  0  0  0  0  0  0  0  0  0  0  0
  147.1394  142.2109  152.9569 H   0  0  0  0  0  0  0  0  0  0  0  0
  148.5457  140.0412  154.4583 H   0  0  0  0  0  0  0  0  0  0  0  0
  149.2884  141.2539  153.4145 H   0  0  0  0  0  0  0  0  0  0  0  0
  149.2496  142.7373  156.2373 H   0  0  0  0  0  0  0  0  0  0  0  0
  151.0213  144.6914  156.8879 H   0  0  0  0  0  0  0  0  0  0  0  0
  152.7013  145.2103  158.6999 H   0  0  0  0  0  0  0  0  0  0  0  0
  153.5471  143.3070  160.0250 H   0  0  0  0  0  0  0  0  0  0  0  0
  1  2  1  0  0  0  0
  1 17  1  0  0  0  0
  1 18  1  0  0  0  0
  1 19  1  0  0  0  0
  2  3  1  0  0  0  0
  3  4  1  0  0  0  0
  3 20  1  0  0  0  0
  3 21  1  0  0  0  0
  4  5  1  0  0  0  0
  4 22  1  0  0  0  0
  4 23  1  0  0  0  0
  5  6  1  0  0  0  0
  6  7  1  0  0  0  0
  6 24  1  0  0  0  0
  6 25  1  0  0  0  0
  7  8  2  0  0  0  0
  7  9  1  0  0  0  0
  9 26  1  0  0  0  0
  9 10  1  0  0  0  0
 10 11  2  0  0  0  0
 10 15  1  0  0  0  0
 11 12  1  0  0  0  0
 11 27  1  0  0  0  0
 12 13  2  0  0  0  0
 12 28  1  0  0  0  0
 13 14  1  0  0  0  0
 13 29  1  0  0  0  0
 14 15  1  0  0  0  0
 15 16  2  0  0  0  0
M  CHG  1  14  -1
M  END
> <s_m_source_file>
AV-unprocessed.smi

> <i_m_source_file_index>
2682

> <i_lp_mmshare_version>
43012

> <i_f3d_flags>
0

> <s_epik_input>
W0NIM11PW0NIMl1bQ0gyXU9bQ0gyXUMoPU8pW05IXWMxW2NIXVtjSF1bY0hdbmMxW09IXQ==

> <s_epik_cmdline>
J2VwaWtfcHl0aG9uJywgJy1waCcsICc3LjAnLCAnLXRuJywgJzgnLCAnLW1hJywgJzIwMCcsICctbWV0YWxfYmluZGluZycsICctaW1hZScsICc8aW5maWxlLm1hZT4nLCAnLW9tYWUnLCAnPG91dGZpbGUubWFlPic=

> <r_lp_tautomer_probability>
1

> <r_epik_Ionization_Penalty>
5.6643

> <r_epik_Ionization_Penalty_Charging>
0.525144

> <r_epik_Ionization_Penalty_Neutral>
5.13916

> <r_epik_State_Penalty>
5.13906

> <r_epik_Charging_Adjusted_Penalty>
5.6642

> <i_epik_Tot_Q>
-1

> <i_epik_Tot_abs_Q>
1

> <r_epik_Metal_State_Penalty>
1.22048

> <b_epik_Metal_Only>
1

> <s_lp_Force_Field>
OPLS_2005

> <r_lp_Energy>
18.608

> <b_lp_Chiralities_Consistent>
1

> <s_lp_Variant>
AV-unprocessed.smi:2682-2

> <Gold.Version>
5.8.1

> <Gold.Id.Protein>
6NUR|6NUR_protein|mol2

> <Gold.PLP.Fitness>
39.9086

> <Gold.PLP.PLP>
-37.1215

> <Gold.PLP.part.hbond>
-2.4022

> <Gold.PLP.part.metal>
0.0000

> <Gold.PLP.part.buried>
-5.6423

> <Gold.PLP.part.nonpolar>
-30.5774

> <Gold.PLP.part.repulsive>
1.8220

> <Gold.PLP.ligand.clash>
0.0000

> <Gold.PLP.ligand.torsion>
0.7880

> <Gold.PLP.Chemscore.Hbond>
1.4520

> <Gold.PLP.Chemscore.CHOScore>
0.0000

> <Gold.PLP.Chemscore.Metal>
0.0000

> <Gold.Chemscore.Hbonds>
donor molecule, donor type, donor heavy atom, donor atom, acceptor molecule, acceptor atom, score
      L1  H     9    26       P1  8028  0.54
      P1  H  7989  7998       L1     8  0.80

> <Gold.PLP.Chemscore.Internal.Correction>
0.0071

> <Gold.Rescore>
     Score         DG    S(hbond)    S(metal)    S(lipo)     H(rot)  DE(clash)    DE(int)     intcor
      8.30     -12.58       0.90        0.00      81.16       2.11       0.62       3.66       ----

> <Gold.Chemscore.Fitness>
8.3038

> <Gold.Chemscore.DG>
-12.5828

> <Gold.Chemscore.ZeroCoef>
-5.4800

> <Gold.Chemscore.Hbond>
0.9044

> <Gold.Chemscore.Metal>
0.0000

> <Gold.Chemscore.Lipo>
81.1555

> <Gold.Chemscore.Internal_Hbond>
0.0000

> <Gold.Chemscore.DEClash>
0.6224

> <Gold.Chemscore.DEInternal>
3.6566

> <Gold.Chemscore.Rot>
2.1146

> <Gold.Chemscore.Internal.Correction>
   9.000000E+99

> <Gold.Chemscore.Hbonds>
donor molecule, donor type, donor heavy atom, donor atom, acceptor molecule, acceptor atom, score
      L1  H     9    26       P1  8028  0.54
      P1  H  7989  7998       L1     8  0.11

> <Gold.Chemscore.Hbond.Weighted>
-3.0208

> <Gold.Chemscore.Metal.Weighted>
-0.0000

> <Gold.Chemscore.Lipo.Weighted>
-9.4952

> <Gold.Chemscore.Internal_Hbond.Weighted>
0.0000

> <Gold.Chemscore.DEClash.Weighted>
0.6224

> <Gold.Chemscore.DEInternal.Weighted>
3.6566

> <Gold.Chemscore.Rot.Weighted>
5.4133

> <Gold.Chemscore.Internal.Correction.Weighted>
   9.000000E+99

> <Gold.Protein.RotatedTorsions>
[ 6907 6896 6895 6894 ] final   -4.00 input  -60.11 | X-H torsion
[ 7974 7965 7964 7962 ] final -161.91 input  175.53 | X-H torsion
[ 8008 7997 7996 7995 ] final  -96.16 input   59.86 | X-H torsion
[ 10167 10162 10161 10158 ] final -146.59 input  -65.29 | X-H torsion
[ 10718 10713 10712 10709 ] final -105.30 input   66.30 | X-H torsion
[ 10763 10752 10751 10750 ] final -173.79 input  -60.55 | X-H torsion
[ 11005 11000 10999 10996 ] final  -89.85 input  -57.11 | X-H torsion

> <Gold.Protein.ActiveResidues>
 VAL166  LYS551  ARG553  GLY616  TRP617  ASP618  TYR619  PRO620  LYS621  CYS622 
 ASP623  PHE694  ASN695  SER759  ASP760  ASP761  ALA762  ILE779  LEU786  VAL792 
 PHE793  MET794  SER795  GLU796  ALA797  LYS798  CYS799  TRP800  GLU811  SER814 

> <Gold.Protein.RotatedAtoms>
  151.5047  135.1063  159.9837 H   0  0  0  0  0  0  0  0  0  0  0  0  # atno 6907 bound_to 6896
  152.4687  133.7976  159.6946 H   0  0  0  0  0  0  0  0  0  0  0  0  # atno 6908 bound_to 6896
  150.8684  133.7478  159.2995 H   0  0  0  0  0  0  0  0  0  0  0  0  # atno 6909 bound_to 6896
  144.7375  140.3329  143.6149 H   0  0  0  0  0  0  0  0  0  0  0  0  # atno 7974 bound_to 7965
  154.7708  140.0474  157.1050 H   0  0  0  0  0  0  0  0  0  0  0  0  # atno 8008 bound_to 7997
  154.9822  140.3103  155.4922 H   0  0  0  0  0  0  0  0  0  0  0  0  # atno 8009 bound_to 7997
  156.2921  140.2234  156.4922 H   0  0  0  0  0  0  0  0  0  0  0  0  # atno 8010 bound_to 7997
  139.7699  143.8253  152.2622 H   0  0  0  0  0  0  0  0  0  0  0  0  # atno 10167 bound_to 10162
  156.0340  130.5557  150.7520 H   0  0  0  0  0  0  0  0  0  0  0  0  # atno 10718 bound_to 10713
  154.6038  135.2857  155.0507 H   0  0  0  0  0  0  0  0  0  0  0  0  # atno 10763 bound_to 10752
  154.1762  135.6464  153.5026 H   0  0  0  0  0  0  0  0  0  0  0  0  # atno 10764 bound_to 10752
  153.0167  135.5413  154.6766 H   0  0  0  0  0  0  0  0  0  0  0  0  # atno 10765 bound_to 10752
  141.1577  133.7655  156.9653 H   0  0  0  0  0  0  0  0  0  0  0  0  # atno 11005 bound_to 11000
  145.7453  139.1777  143.2352 LP  0  0  0  0  0  0  0  0  0  0  0  0  # atno 17320 bound_to 7965
  146.1102  140.7437  142.9507 LP  0  0  0  0  0  0  0  0  0  0  0  0  # atno 17321 bound_to 7965
  139.8284  144.7264  150.9482 LP  0  0  0  0  0  0  0  0  0  0  0  0  # atno 17342 bound_to 10162
  140.7813  143.4092  151.1020 LP  0  0  0  0  0  0  0  0  0  0  0  0  # atno 17343 bound_to 10162
  157.5062  131.0922  151.0255 LP  0  0  0  0  0  0  0  0  0  0  0  0  # atno 17370 bound_to 10713
  157.0622  130.5830  149.5388 LP  0  0  0  0  0  0  0  0  0  0  0  0  # atno 17371 bound_to 10713
  140.1165  134.9444  157.2142 LP  0  0  0  0  0  0  0  0  0  0  0  0  # atno 17394 bound_to 11000
  140.3126  134.3006  155.7263 LP  0  0  0  0  0  0  0  0  0  0  0  0  # atno 17395 bound_to 11000

$$$$
