#       Name:                AV-unprocessed.smi:625
#       Creating user name   scv26
#       Creation time:       Fri Mar 27 00:02:37 2020


#       File generated by GOLD software.
#

@<TRIPOS>MOLECULE
AV-unprocessed.smi:625
    55    57     1
SMALL
NO_CHARGES


@<TRIPOS>ATOM
      1 ****        -2.0117   4.6303  -3.6188 C.3            1 S1                 0.0000
      2 ****        -2.1711   3.3460  -2.9536 N.am           1 S1                 0.0000
      3 ****        -2.8294   3.1640  -1.7956 C.2            1 S1                 0.0000
      4 ****        -3.3628   4.1029  -1.2030 O.2            1 S1                 0.0000
      5 ****        -2.8455   1.7768  -1.3220 C.2            1 S1                 0.0000
      6 ****        -3.5224   1.4622  -0.0785 C.2            1 S1                 0.0000
      7 ****        -3.5392   0.2024   0.3988 C.2            1 S1                 0.0000
      8 ****        -2.8820  -0.8983  -0.3105 C.2            1 S1                 0.0000
      9 ****        -2.8736  -2.0474   0.1308 O.2            1 S1                 0.0000
     10 ****        -2.2704  -0.5650  -1.4881 N.am           1 S1                 0.0000
     11 ****        -1.5649  -1.5843  -2.2874 C.3            1 S1                 0.0000
     12 ****        -0.1107  -1.8447  -1.8573 C.2            1 S1                 0.0000
     13 ****         0.5207  -2.7517  -2.3978 O.2            1 S1                 0.0000
     14 ****         0.4109  -1.0648  -0.8953 N.am           1 S1                 0.0000
     15 ****         1.7438  -1.1880  -0.3124 C.3            1 S1                 0.0000
     16 ****         2.7416  -0.3873  -1.1686 C.3            1 S1                 0.0000
     17 ****         1.6942  -0.7106   1.1602 C.3            1 S1                 0.0000
     18 ****         0.6468  -1.4605   2.0233 C.3            1 S1                 0.0000
     19 ****         1.4671  -1.9559   3.2267 C.3            1 S1                 0.0000
     20 ****         1.8839  -0.7569   4.0975 C.3            1 S1                 0.0000
     21 ****         2.9628  -0.0739   3.2368 C.3            1 S1                 0.0000
     22 ****         2.9938  -0.9507   1.9699 C.3            1 S1                 0.0000
     23 ****         2.7811  -2.3408   2.5611 C.3            1 S1                 0.0000
     24 ****        -2.2508   0.7561  -1.9782 C.2            1 S1                 0.0000
     25 ****        -1.4555   4.5015  -4.5472 H              1 S1                 0.0000
     26 ****        -1.4625   5.3286  -2.9864 H              1 S1                 0.0000
     27 ****        -2.9815   5.0667  -3.8601 H              1 S1                 0.0000
     28 ****        -1.7532   2.5416  -3.3982 H              1 S1                 0.0000
     29 ****        -4.0238   2.2379   0.4824 H              1 S1                 0.0000
     30 ****        -4.0500  -0.0032   1.3280 H              1 S1                 0.0000
     31 ****        -2.1085  -2.5304  -2.2603 H              1 S1                 0.0000
     32 ****        -1.5583  -1.2980  -3.3400 H              1 S1                 0.0000
     33 ****        -0.1801  -0.3423  -0.5102 H              1 S1                 0.0000
     34 ****         2.0395  -2.2384  -0.3270 H              1 S1                 0.0000
     35 ****         3.7652  -0.5063  -0.8162 H              1 S1                 0.0000
     36 ****         2.5074   0.6777  -1.1593 H              1 S1                 0.0000
     37 ****         2.7240  -0.7205  -2.2068 H              1 S1                 0.0000
     38 ****         1.4608   0.3556   1.1573 H              1 S1                 0.0000
     39 ****        -0.1829  -0.8181   2.3206 H              1 S1                 0.0000
     40 ****         0.2246  -2.3153   1.4927 H              1 S1                 0.0000
     41 ****         0.9818  -2.7561   3.7863 H              1 S1                 0.0000
     42 ****         1.0448  -0.0958   4.3177 H              1 S1                 0.0000
     43 ****         2.3059  -1.0917   5.0459 H              1 S1                 0.0000
     44 ****         2.7270   0.9687   3.0203 H              1 S1                 0.0000
     45 ****         3.9276  -0.0968   3.7454 H              1 S1                 0.0000
     46 ****         3.9157  -0.8345   1.4015 H              1 S1                 0.0000
     47 ****         3.5563  -2.6328   3.2718 H              1 S1                 0.0000
     48 ****         2.6734  -3.1244   1.8096 H              1 S1                 0.0000
     49 ****        -1.7096   0.8658  -2.9071 H              1 S1                 0.0000
     50 ****        -3.3120   5.0269  -1.5819 LP             1 S1                 0.0000
     51 ****        -3.8467   3.9411  -0.3429 LP             1 S1                 0.0000
     52 ****        -3.3249  -2.2528   0.9993 LP             1 S1                 0.0000
     53 ****        -2.4155  -2.7755  -0.3791 LP             1 S1                 0.0000
     54 ****         0.0880  -3.3085  -3.1068 LP             1 S1                 0.0000
     55 ****         1.4666  -2.9321  -2.1281 LP             1 S1                 0.0000
@<TRIPOS>BOND
    1    1    2 1     
    2    1   25 1     
    3    1   26 1     
    4    1   27 1     
    5    2    3 am    
    6    2   28 1     
    7    3    4 2     
    8    3    5 1     
    9    5   24 2     
   10    5    6 1     
   11    6    7 2     
   12    6   29 1     
   13    7    8 1     
   14    7   30 1     
   15    8    9 2     
   16    8   10 am    
   17   10   11 1     
   18   10   24 1     
   19   11   12 1     
   20   11   31 1     
   21   11   32 1     
   22   12   13 2     
   23   12   14 am    
   24   14   15 1     
   25   14   33 1     
   26   15   16 1     
   27   15   17 1     
   28   15   34 1     
   29   16   35 1     
   30   16   36 1     
   31   16   37 1     
   32   17   22 1     
   33   17   18 1     
   34   17   38 1     
   35   18   19 1     
   36   18   39 1     
   37   18   40 1     
   38   19   23 1     
   39   19   20 1     
   40   19   41 1     
   41   20   21 1     
   42   20   42 1     
   43   20   43 1     
   44   21   22 1     
   45   21   44 1     
   46   21   45 1     
   47   22   23 1     
   48   22   46 1     
   49   23   47 1     
   50   23   48 1     
   51   24   49 1     
   52    4   50 1     
   53    4   51 1     
   54    9   52 1     
   55    9   53 1     
   56   13   54 1     
   57   13   55 1     
@<TRIPOS>SUBSTRUCTURE
      1 S1             1
@<TRIPOS>SET
LONE_PAIRS      STATIC     ATOMS    <user>   **** ""
6 50 51 52 53 54 55
DONOR_HYDROGENS      STATIC     ATOMS    <user>   **** ""
2 28 33
ATOM$BLUE        STATIC     ATOMS    COLORGROUP SYSTEM
6 50 51 52 53 54 55
ATOM$RED        STATIC     ATOMS    COLORGROUP SYSTEM
2 28 33
