AV-unprocessed.smi:3181|AV-procd|sdf|12150|dock3
  -GOLD-   2272017583D 1   1.00000     0.00000
 Structure written by MMmdl.
 42 43  0  0  0  0  0  0  0  0  2 V2000
  144.4474  137.4595  152.9492 C   0  0  0  0  0  0  0  0  0  0  0  0
  145.8288  137.5248  152.2774 C   0  0  1  0  0  0  0  0  0  0  0  0
  145.8561  136.8419  150.8932 C   0  0  0  0  0  0  0  0  0  0  0  0
  145.4898  135.4389  150.9491 N   0  0  0  0  0  0  0  0  0  0  0  0
  146.1047  134.4051  151.5258 C   0  0  0  0  0  0  0  0  0  0  0  0
  145.4697  133.2518  151.3722 N   0  0  0  0  0  0  0  0  0  0  0  0
  144.4000  133.6758  150.6354 C   0  0  0  0  0  0  0  0  0  0  0  0
  144.3651  134.9785  150.3535 N   0  0  0  0  0  0  0  0  0  0  0  0
  146.2454  138.9397  152.1476 N   0  3  0  0  0  0  0  0  0  0  0  0
  146.9571  139.5227  153.3084 C   0  0  1  0  0  0  0  0  0  0  0  0
  148.3168  138.8370  153.5546 C   0  0  0  0  0  0  0  0  0  0  0  0
  149.0812  139.4946  154.7145 C   0  0  0  0  0  0  0  0  0  0  0  0
  149.2687  141.0073  154.4861 C   0  0  2  0  0  0  0  0  0  0  0  0
  150.1052  141.6546  155.6020 C   0  0  0  0  0  0  0  0  0  0  0  0
  147.9133  141.7189  154.2417 C   0  0  2  0  0  0  0  0  0  0  0  0
  147.0308  141.8519  155.4993 C   0  0  0  0  0  0  0  0  0  0  0  0
  147.1560  141.0351  153.0839 C   0  0  0  0  0  0  0  0  0  0  0  0
  144.1425  136.4306  153.1417 H   0  0  0  0  0  0  0  0  0  0  0  0
  143.6811  137.9234  152.3276 H   0  0  0  0  0  0  0  0  0  0  0  0
  144.4550  137.9762  153.9097 H   0  0  0  0  0  0  0  0  0  0  0  0
  146.5274  137.0037  152.9339 H   0  0  0  0  0  0  0  0  0  0  0  0
  145.1795  137.3533  150.2062 H   0  0  0  0  0  0  0  0  0  0  0  0
  146.8506  136.9091  150.4515 H   0  0  0  0  0  0  0  0  0  0  0  0
  147.0332  134.4979  152.0699 H   0  0  0  0  0  0  0  0  0  0  0  0
  143.6247  133.0048  150.2961 H   0  0  0  0  0  0  0  0  0  0  0  0
  146.8168  139.0413  151.3211 H   0  0  0  0  0  0  0  0  0  0  0  0
  146.3236  139.3850  154.1855 H   0  0  0  0  0  0  0  0  0  0  0  0
  148.1792  137.7793  153.7798 H   0  0  0  0  0  0  0  0  0  0  0  0
  148.9231  138.8838  152.6490 H   0  0  0  0  0  0  0  0  0  0  0  0
  148.5506  139.3184  155.6507 H   0  0  0  0  0  0  0  0  0  0  0  0
  150.0540  139.0135  154.8228 H   0  0  0  0  0  0  0  0  0  0  0  0
  149.8502  141.1184  153.5694 H   0  0  0  0  0  0  0  0  0  0  0  0
  149.6487  141.5166  156.5823 H   0  0  0  0  0  0  0  0  0  0  0  0
  150.2236  142.7253  155.4342 H   0  0  0  0  0  0  0  0  0  0  0  0
  151.1031  141.2172  155.6440 H   0  0  0  0  0  0  0  0  0  0  0  0
  148.1349  142.7367  153.9169 H   0  0  0  0  0  0  0  0  0  0  0  0
  146.8023  140.8858  155.9482 H   0  0  0  0  0  0  0  0  0  0  0  0
  146.0830  142.3344  155.2588 H   0  0  0  0  0  0  0  0  0  0  0  0
  147.5115  142.4650  156.2611 H   0  0  0  0  0  0  0  0  0  0  0  0
  147.7146  141.1890  152.1593 H   0  0  0  0  0  0  0  0  0  0  0  0
  146.1912  141.5219  152.9343 H   0  0  0  0  0  0  0  0  0  0  0  0
  145.4042  139.4830  152.0157 H   0  0  0  0  0  0  0  0  0  0  0  0
  1  2  1  0  0  0  0
  1 18  1  0  0  0  0
  1 19  1  0  0  0  0
  1 20  1  0  0  0  0
  2  3  1  0  0  0  0
  2  9  1  0  0  0  0
  2 21  1  0  0  0  0
  3  4  1  0  0  0  0
  3 22  1  0  0  0  0
  3 23  1  0  0  0  0
  4  8  1  0  0  0  0
  4  5  1  0  0  0  0
  5  6  2  0  0  0  0
  5 24  1  0  0  0  0
  6  7  1  0  0  0  0
  7  8  2  0  0  0  0
  7 25  1  0  0  0  0
  9 10  1  0  0  0  0
  9 26  1  0  0  0  0
  9 42  1  0  0  0  0
 10 17  1  0  0  0  0
 10 11  1  0  0  0  0
 10 27  1  0  0  0  0
 11 12  1  0  0  0  0
 11 28  1  0  0  0  0
 11 29  1  0  0  0  0
 12 13  1  0  0  0  0
 12 30  1  0  0  0  0
 12 31  1  0  0  0  0
 13 14  1  0  0  0  0
 13 15  1  0  0  0  0
 13 32  1  0  0  0  0
 14 33  1  0  0  0  0
 14 34  1  0  0  0  0
 14 35  1  0  0  0  0
 15 16  1  0  0  0  0
 15 17  1  0  0  0  0
 15 36  1  0  0  0  0
 16 37  1  0  0  0  0
 16 38  1  0  0  0  0
 16 39  1  0  0  0  0
 17 40  1  0  0  0  0
 17 41  1  0  0  0  0
M  CHG  1   9   1
M  END
> <s_m_source_file>
AV-unprocessed.smi

> <i_m_source_file_index>
3181

> <i_lp_mmshare_version>
43012

> <i_f3d_flags>
0

> <s_epik_input>
bjFbY0hdbltjSF1uMVtDSDJdW0NAQEhdKFtDSDNdKVtOSF1bQ0BASF0yW0NIMl1bQ0gyXVtDQEBIXShbQ0gzXSlbQ0BASF0oW0NIM10pW0NIMl0y

> <s_epik_cmdline>
J2VwaWtfcHl0aG9uJywgJy1waCcsICc3LjAnLCAnLXRuJywgJzgnLCAnLW1hJywgJzIwMCcsICctbWV0YWxfYmluZGluZycsICctaW1hZScsICc8aW5maWxlLm1hZT4nLCAnLW9tYWUnLCAnPG91dGZpbGUubWFlPic=

> <r_lp_tautomer_probability>
1

> <r_epik_Ionization_Penalty>
0.000617007

> <r_epik_Ionization_Penalty_Charging>
0.000616215

> <r_epik_Ionization_Penalty_Neutral>
7.92544e-07

> <r_epik_State_Penalty>
0.000388807

> <r_epik_Charging_Adjusted_Penalty>
0.00100502

> <i_epik_Tot_Q>
1

> <i_epik_Tot_abs_Q>
1

> <r_epik_Metal_State_Penalty>
-0

> <b_epik_Metal_Only>
0

> <s_lp_Force_Field>
OPLS_2005

> <r_lp_Energy>
21.8546

> <b_lp_Chiralities_Consistent>
1

> <s_lp_Variant>
AV-unprocessed.smi:3181-16

> <Gold.Version>
5.8.1

> <Gold.Id.Protein>
6NUR|6NUR_protein|mol2

> <Gold.PLP.Fitness>
39.1739

> <Gold.PLP.PLP>
-30.9747

> <Gold.PLP.part.hbond>
-1.0609

> <Gold.PLP.part.metal>
0.0000

> <Gold.PLP.part.buried>
1.4517

> <Gold.PLP.part.nonpolar>
-31.7143

> <Gold.PLP.part.repulsive>
0.4222

> <Gold.PLP.ligand.clash>
0.0000

> <Gold.PLP.ligand.torsion>
0.4146

> <Gold.PLP.Chemscore.Hbond>
2.0000

> <Gold.PLP.Chemscore.CHOScore>
1.0000

> <Gold.PLP.Chemscore.Metal>
0.0000

> <Gold.Chemscore.Hbonds>
donor molecule, donor type, donor heavy atom, donor atom, acceptor molecule, acceptor atom, score
      L1  H     9    42       P1 10175  2.00
      L1  C     5    24       P1  7948  0.95

> <Gold.PLP.Chemscore.Internal.Correction>
0.0283

> <Gold.Rescore>
     Score         DG    S(hbond)    S(metal)    S(lipo)     H(rot)  DE(clash)    DE(int)     intcor
     10.15     -10.88       0.96        0.00      64.88       2.11       0.33       0.40       ----

> <Gold.Chemscore.Fitness>
10.1504

> <Gold.Chemscore.DG>
-10.8766

> <Gold.Chemscore.ZeroCoef>
-5.4800

> <Gold.Chemscore.Hbond>
0.9600

> <Gold.Chemscore.Metal>
0.0000

> <Gold.Chemscore.Lipo>
64.8759

> <Gold.Chemscore.Internal_Hbond>
0.0000

> <Gold.Chemscore.DEClash>
0.3279

> <Gold.Chemscore.DEInternal>
0.3983

> <Gold.Chemscore.Rot>
2.1095

> <Gold.Chemscore.Internal.Correction>
   9.000000E+99

> <Gold.Chemscore.Hbonds>
donor molecule, donor type, donor heavy atom, donor atom, acceptor molecule, acceptor atom, score
      L1  H     9    42       P1 10175  0.89

> <Gold.Chemscore.Hbond.Weighted>
-3.2064

> <Gold.Chemscore.Metal.Weighted>
-0.0000

> <Gold.Chemscore.Lipo.Weighted>
-7.5905

> <Gold.Chemscore.Internal_Hbond.Weighted>
0.0000

> <Gold.Chemscore.DEClash.Weighted>
0.3279

> <Gold.Chemscore.DEInternal.Weighted>
0.3983

> <Gold.Chemscore.Rot.Weighted>
5.4003

> <Gold.Chemscore.Internal.Correction.Weighted>
   9.000000E+99

> <Gold.Protein.RotatedTorsions>
[ 6907 6896 6895 6894 ] final  -58.09 input  -60.11 | X-H torsion
[ 7974 7965 7964 7962 ] final  -85.59 input  175.53 | X-H torsion
[ 8008 7997 7996 7995 ] final   52.67 input   59.86 | X-H torsion
[ 10167 10162 10161 10158 ] final  -28.95 input  -65.29 | X-H torsion
[ 10718 10713 10712 10709 ] final  -48.81 input   66.30 | X-H torsion
[ 10763 10752 10751 10750 ] final  166.85 input  -60.55 | X-H torsion
[ 11005 11000 10999 10996 ] final  152.10 input  -57.11 | X-H torsion

> <Gold.Protein.ActiveResidues>
 VAL166  LYS551  ARG553  GLY616  TRP617  ASP618  TYR619  PRO620  LYS621  CYS622 
 ASP623  PHE694  ASN695  SER759  ASP760  ASP761  ALA762  ILE779  LEU786  VAL792 
 PHE793  MET794  SER795  GLU796  ALA797  LYS798  CYS799  TRP800  GLU811  SER814 

> <Gold.Protein.RotatedAtoms>
  150.8034  134.7143  159.6621 H   0  0  0  0  0  0  0  0  0  0  0  0  # atno 6907 bound_to 6896
  152.4152  134.6050  160.0020 H   0  0  0  0  0  0  0  0  0  0  0  0  # atno 6908 bound_to 6896
  151.6281  133.3297  159.3139 H   0  0  0  0  0  0  0  0  0  0  0  0  # atno 6909 bound_to 6896
  145.4912  140.9552  143.1811 H   0  0  0  0  0  0  0  0  0  0  0  0  # atno 7974 bound_to 7965
  155.4556  140.3460  155.4306 H   0  0  0  0  0  0  0  0  0  0  0  0  # atno 8008 bound_to 7997
  156.1193  140.1482  156.9257 H   0  0  0  0  0  0  0  0  0  0  0  0  # atno 8009 bound_to 7997
  154.4811  140.0869  156.7359 H   0  0  0  0  0  0  0  0  0  0  0  0  # atno 8010 bound_to 7997
  140.7265  143.3968  151.1334 H   0  0  0  0  0  0  0  0  0  0  0  0  # atno 10167 bound_to 10162
  156.1952  130.4154  149.9316 H   0  0  0  0  0  0  0  0  0  0  0  0  # atno 10718 bound_to 10713
  154.3451  135.2753  155.2402 H   0  0  0  0  0  0  0  0  0  0  0  0  # atno 10763 bound_to 10752
  154.4656  135.5896  153.6289 H   0  0  0  0  0  0  0  0  0  0  0  0  # atno 10764 bound_to 10752
  152.9854  135.6075  154.3656 H   0  0  0  0  0  0  0  0  0  0  0  0  # atno 10765 bound_to 10752
  140.1277  134.8822  157.2161 H   0  0  0  0  0  0  0  0  0  0  0  0  # atno 11005 bound_to 11000
  144.7832  139.6481  143.7145 LP  0  0  0  0  0  0  0  0  0  0  0  0  # atno 17320 bound_to 7965
  146.2283  139.5764  142.9572 LP  0  0  0  0  0  0  0  0  0  0  0  0  # atno 17321 bound_to 7965
  139.7581  143.8676  152.3094 LP  0  0  0  0  0  0  0  0  0  0  0  0  # atno 17342 bound_to 10162
  139.8553  144.7144  150.9165 LP  0  0  0  0  0  0  0  0  0  0  0  0  # atno 17343 bound_to 10162
  156.7043  130.8945  151.3603 LP  0  0  0  0  0  0  0  0  0  0  0  0  # atno 17370 bound_to 10713
  157.6953  130.9276  150.0628 LP  0  0  0  0  0  0  0  0  0  0  0  0  # atno 17371 bound_to 10713
  140.2882  134.3271  155.7323 LP  0  0  0  0  0  0  0  0  0  0  0  0  # atno 17394 bound_to 11000
  141.2164  133.7519  156.9464 LP  0  0  0  0  0  0  0  0  0  0  0  0  # atno 17395 bound_to 11000

$$$$
