AV-unprocessed.smi:3139|AV-procd|sdf|11957|dock4
  -GOLD-   2272017353D 1   1.00000     0.00000
 Structure written by MMmdl.
 33 33  0  0  0  0  0  0  0  0  2 V2000
  153.9824  141.2941  159.8995 C   0  0  0  0  0  0  0  0  0  0  0  0
  153.0319  142.0467  158.9444 C   0  0  1  0  0  0  0  0  0  0  0  0
  151.8981  141.1582  158.4131 C   0  0  0  0  0  0  0  0  0  0  0  0
  150.7439  141.2945  158.8211 O   0  0  0  0  0  0  0  0  0  0  0  0
  152.2481  140.2746  157.4662 N   0  0  0  0  0  0  0  0  0  0  0  0
  151.3316  139.4684  156.6620 C   0  0  0  0  0  0  0  0  0  0  0  0
  152.0421  138.7017  155.5084 C   0  0  0  0  0  0  0  0  0  0  0  0
  151.1368  137.5465  155.0338 C   0  0  0  0  0  0  0  0  0  0  0  0
  152.2977  139.6569  154.3164 C   0  0  0  0  0  0  0  0  0  0  0  0
  153.3791  138.0939  156.0104 C   0  0  0  0  0  0  0  0  0  0  0  0
  153.5532  136.8580  155.9164 O   0  0  0  0  0  0  0  0  0  0  0  0
  154.2229  138.8896  156.4807 O   0  5  0  0  0  0  0  0  0  0  0  0
  152.4636  143.2539  159.5375 N   0  0  0  0  0  0  0  0  0  0  0  0
  151.6967  144.2192  158.9151 C   0  0  0  0  0  0  0  0  0  0  0  0
  151.3256  145.1274  159.8642 C   0  0  0  0  0  0  0  0  0  0  0  0
  151.9049  144.6205  161.0598 C   0  0  0  0  0  0  0  0  0  0  0  0
  152.5762  143.4976  160.8644 N   0  0  0  0  0  0  0  0  0  0  0  0
  154.4381  140.4371  159.4024 H   0  0  0  0  0  0  0  0  0  0  0  0
  153.4674  140.9234  160.7868 H   0  0  0  0  0  0  0  0  0  0  0  0
  154.7908  141.9448  160.2340 H   0  0  0  0  0  0  0  0  0  0  0  0
  153.6274  142.3655  158.0872 H   0  0  0  0  0  0  0  0  0  0  0  0
  153.2221  140.2329  157.2022 H   0  0  0  0  0  0  0  0  0  0  0  0
  150.8530  138.7605  157.3402 H   0  0  0  0  0  0  0  0  0  0  0  0
  150.5206  140.0808  156.2643 H   0  0  0  0  0  0  0  0  0  0  0  0
  150.1916  137.9241  154.6428 H   0  0  0  0  0  0  0  0  0  0  0  0
  150.8986  136.8574  155.8453 H   0  0  0  0  0  0  0  0  0  0  0  0
  151.6103  136.9678  154.2395 H   0  0  0  0  0  0  0  0  0  0  0  0
  151.3703  140.1218  153.9811 H   0  0  0  0  0  0  0  0  0  0  0  0
  152.7201  139.1284  153.4607 H   0  0  0  0  0  0  0  0  0  0  0  0
  152.9859  140.4627  154.5758 H   0  0  0  0  0  0  0  0  0  0  0  0
  151.4722  144.1749  157.8595 H   0  0  0  0  0  0  0  0  0  0  0  0
  150.7208  146.0111  159.7262 H   0  0  0  0  0  0  0  0  0  0  0  0
  151.8522  145.0284  162.0583 H   0  0  0  0  0  0  0  0  0  0  0  0
  1  2  1  0  0  0  0
  1 18  1  0  0  0  0
  1 19  1  0  0  0  0
  1 20  1  0  0  0  0
  2  3  1  0  0  0  0
  2 13  1  0  0  0  0
  2 21  1  0  0  0  0
  3  4  2  0  0  0  0
  3  5  1  0  0  0  0
  5  6  1  0  0  0  0
  5 22  1  0  0  0  0
  6  7  1  0  0  0  0
  6 23  1  0  0  0  0
  6 24  1  0  0  0  0
  7  8  1  0  0  0  0
  7  9  1  0  0  0  0
  7 10  1  0  0  0  0
  8 25  1  0  0  0  0
  8 26  1  0  0  0  0
  8 27  1  0  0  0  0
  9 28  1  0  0  0  0
  9 29  1  0  0  0  0
  9 30  1  0  0  0  0
 10 11  2  0  0  0  0
 10 12  1  0  0  0  0
 13 17  1  0  0  0  0
 13 14  1  0  0  0  0
 14 15  2  0  0  0  0
 14 31  1  0  0  0  0
 15 16  1  0  0  0  0
 15 32  1  0  0  0  0
 16 17  2  0  0  0  0
 16 33  1  0  0  0  0
M  CHG  1  12  -1
M  END
> <s_m_source_file>
AV-unprocessed.smi

> <i_m_source_file_index>
3139

> <i_lp_mmshare_version>
43012

> <i_f3d_flags>
0

> <s_epik_input>
bjFbY0hdW2NIXVtjSF1uMVtDQEhdKFtDSDNdKUMoPU8pW05IXVtDSDJdQyhbQ0gzXSkoW0NIM10pQyg9TylbT0hd

> <s_epik_cmdline>
J2VwaWtfcHl0aG9uJywgJy1waCcsICc3LjAnLCAnLXRuJywgJzgnLCAnLW1hJywgJzIwMCcsICctbWV0YWxfYmluZGluZycsICctaW1hZScsICc8aW5maWxlLm1hZT4nLCAnLW9tYWUnLCAnPG91dGZpbGUubWFlPic=

> <r_lp_tautomer_probability>
1

> <r_epik_Ionization_Penalty>
0.00184643

> <r_epik_Ionization_Penalty_Charging>
0.00181045

> <r_epik_Ionization_Penalty_Neutral>
3.59763e-05

> <r_epik_State_Penalty>
0.00122842

> <r_epik_Charging_Adjusted_Penalty>
0.00303887

> <i_epik_Tot_Q>
-1

> <i_epik_Tot_abs_Q>
1

> <r_epik_Metal_State_Penalty>
-0

> <b_epik_Metal_Only>
0

> <s_lp_Force_Field>
OPLS_2005

> <r_lp_Energy>
4.69511

> <b_lp_Chiralities_Consistent>
1

> <s_lp_Variant>
AV-unprocessed.smi:3139-2

> <Gold.Version>
5.8.1

> <Gold.Id.Protein>
6NUR|6NUR_protein|mol2

> <Gold.PLP.Fitness>
47.0499

> <Gold.PLP.PLP>
-37.5372

> <Gold.PLP.part.hbond>
-2.0000

> <Gold.PLP.part.metal>
0.0000

> <Gold.PLP.part.buried>
-4.2062

> <Gold.PLP.part.nonpolar>
-32.1138

> <Gold.PLP.part.repulsive>
0.1902

> <Gold.PLP.ligand.clash>
0.0000

> <Gold.PLP.ligand.torsion>
0.8904

> <Gold.PLP.Chemscore.Hbond>
3.6960

> <Gold.PLP.Chemscore.CHOScore>
0.0000

> <Gold.PLP.Chemscore.Metal>
0.0000

> <Gold.Chemscore.Hbonds>
donor molecule, donor type, donor heavy atom, donor atom, acceptor molecule, acceptor atom, score
      P1  H  7997  8010       L1    12  0.17
      P1  H 10752 10763       L1    11  0.80

> <Gold.PLP.Chemscore.Internal.Correction>
0.2055

> <Gold.Rescore>
     Score         DG    S(hbond)    S(metal)    S(lipo)     H(rot)  DE(clash)    DE(int)     intcor
     12.92     -15.61       1.72        0.00      88.32       2.32       0.46       2.24       ----

> <Gold.Chemscore.Fitness>
12.9217

> <Gold.Chemscore.DG>
-15.6143

> <Gold.Chemscore.ZeroCoef>
-5.4800

> <Gold.Chemscore.Hbond>
1.7217

> <Gold.Chemscore.Metal>
0.0000

> <Gold.Chemscore.Lipo>
88.3196

> <Gold.Chemscore.Internal_Hbond>
0.0000

> <Gold.Chemscore.DEClash>
0.4551

> <Gold.Chemscore.DEInternal>
2.2374

> <Gold.Chemscore.Rot>
2.3241

> <Gold.Chemscore.Internal.Correction>
   9.000000E+99

> <Gold.Chemscore.Hbonds>
donor molecule, donor type, donor heavy atom, donor atom, acceptor molecule, acceptor atom, score
      P1  H  7997  8010       L1    12  0.09
      P1  H 10752 10763       L1    11  0.39

> <Gold.Chemscore.Hbond.Weighted>
-5.7506

> <Gold.Chemscore.Metal.Weighted>
-0.0000

> <Gold.Chemscore.Lipo.Weighted>
-10.3334

> <Gold.Chemscore.Internal_Hbond.Weighted>
0.0000

> <Gold.Chemscore.DEClash.Weighted>
0.4551

> <Gold.Chemscore.DEInternal.Weighted>
2.2374

> <Gold.Chemscore.Rot.Weighted>
5.9498

> <Gold.Chemscore.Internal.Correction.Weighted>
   9.000000E+99

> <Gold.Protein.RotatedTorsions>
[ 6907 6896 6895 6894 ] final -177.59 input  -60.11 | X-H torsion
[ 7974 7965 7964 7962 ] final  143.96 input  175.53 | X-H torsion
[ 8008 7997 7996 7995 ] final   39.65 input   59.86 | X-H torsion
[ 10167 10162 10161 10158 ] final -105.26 input  -65.29 | X-H torsion
[ 10718 10713 10712 10709 ] final  135.60 input   66.30 | X-H torsion
[ 10763 10752 10751 10750 ] final  101.81 input  -60.55 | X-H torsion
[ 11005 11000 10999 10996 ] final  -16.93 input  -57.11 | X-H torsion

> <Gold.Protein.ActiveResidues>
 VAL166  LYS551  ARG553  GLY616  TRP617  ASP618  TYR619  PRO620  LYS621  CYS622 
 ASP623  PHE694  ASN695  SER759  ASP760  ASP761  ALA762  ILE779  LEU786  VAL792 
 PHE793  MET794  SER795  GLU796  ALA797  LYS798  CYS799  TRP800  GLU811  SER814 

> <Gold.Protein.RotatedAtoms>
  151.6235  133.3337  159.3092 H   0  0  0  0  0  0  0  0  0  0  0  0  # atno 6907 bound_to 6896
  150.8094  134.7242  159.6685 H   0  0  0  0  0  0  0  0  0  0  0  0  # atno 6908 bound_to 6896
  152.4190  134.5994  160.0047 H   0  0  0  0  0  0  0  0  0  0  0  0  # atno 6909 bound_to 6896
  144.8876  139.5606  143.5813 H   0  0  0  0  0  0  0  0  0  0  0  0  # atno 7974 bound_to 7965
  155.2402  140.3345  155.4293 H   0  0  0  0  0  0  0  0  0  0  0  0  # atno 8008 bound_to 7997
  156.2259  140.1829  156.7409 H   0  0  0  0  0  0  0  0  0  0  0  0  # atno 8009 bound_to 7997
  154.5898  140.0640  156.9208 H   0  0  0  0  0  0  0  0  0  0  0  0  # atno 8010 bound_to 7997
  140.2004  143.3823  152.1134 H   0  0  0  0  0  0  0  0  0  0  0  0  # atno 10167 bound_to 10162
  157.4553  131.1069  150.9985 H   0  0  0  0  0  0  0  0  0  0  0  0  # atno 10718 bound_to 10713
  153.3315  135.4032  155.1499 H   0  0  0  0  0  0  0  0  0  0  0  0  # atno 10763 bound_to 10752
  154.8624  135.3611  154.5465 H   0  0  0  0  0  0  0  0  0  0  0  0  # atno 10764 bound_to 10752
  153.5904  135.7074  153.5485 H   0  0  0  0  0  0  0  0  0  0  0  0  # atno 10765 bound_to 10752
  140.8117  133.8135  155.9570 H   0  0  0  0  0  0  0  0  0  0  0  0  # atno 11005 bound_to 11000
  146.3034  139.7500  142.9074 LP  0  0  0  0  0  0  0  0  0  0  0  0  # atno 17320 bound_to 7965
  145.3841  141.0363  143.3161 LP  0  0  0  0  0  0  0  0  0  0  0  0  # atno 17321 bound_to 7965
  139.5219  144.7052  151.5374 LP  0  0  0  0  0  0  0  0  0  0  0  0  # atno 17342 bound_to 10162
  140.6394  143.8919  150.6678 LP  0  0  0  0  0  0  0  0  0  0  0  0  # atno 17343 bound_to 10162
  157.0800  130.5899  149.5418 LP  0  0  0  0  0  0  0  0  0  0  0  0  # atno 17370 bound_to 10713
  156.0005  130.5083  150.7643 LP  0  0  0  0  0  0  0  0  0  0  0  0  # atno 17371 bound_to 10713
  140.9190  134.2165  157.4938 LP  0  0  0  0  0  0  0  0  0  0  0  0  # atno 17394 bound_to 11000
  139.8713  134.9784  156.4996 LP  0  0  0  0  0  0  0  0  0  0  0  0  # atno 17395 bound_to 11000

$$$$
