AV-unprocessed.smi:113|AV-procd|sdf|1100|dock3
  -GOLD-   2262018213D 1   1.00000     0.00000
 Structure written by MMmdl.
 53 56  0  0  0  0  0  0  0  0  2 V2000
  148.9982  133.3615  153.5886 C   0  0  0  0  0  0  0  0  0  0  0  0
  147.6937  133.5315  152.8392 C   0  0  0  0  0  0  0  0  0  0  0  0
  146.6691  134.3790  153.3028 C   0  0  0  0  0  0  0  0  0  0  0  0
  145.4661  134.5044  152.5644 C   0  0  0  0  0  0  0  0  0  0  0  0
  144.3325  135.4161  153.0462 C   0  0  0  0  0  0  0  0  0  0  0  0
  144.7033  136.5262  153.9125 N   0  0  0  0  0  0  0  0  0  0  0  0
  144.1161  136.5833  155.1988 C   0  0  0  0  0  0  0  0  0  0  0  0
  143.3256  135.7193  155.5847 O   0  0  0  0  0  0  0  0  0  0  0  0
  144.5320  137.7208  156.0216 C   0  0  0  0  0  0  0  0  0  0  0  0
  143.9087  137.8692  157.4012 C   0  0  0  0  0  0  0  0  0  0  0  0
  145.4421  138.6038  155.5426 C   0  0  0  0  0  0  0  0  0  0  0  0
  146.0308  138.5054  154.2894 N   0  0  0  0  0  0  0  0  0  0  0  0
  147.0818  139.4755  153.7801 C   0  0  1  0  0  0  0  0  0  0  0  0
  146.7036  140.9537  153.8178 C   0  0  0  0  0  0  0  0  0  0  0  0
  148.0797  141.5761  153.6996 C   0  0  1  0  0  0  0  0  0  0  0  0
  148.0797  142.9028  154.1893 O   0  0  0  0  0  0  0  0  0  0  0  0
  148.9782  140.5822  154.4731 C   0  0  1  0  0  0  0  0  0  0  0  0
  149.4164  141.0078  155.8876 C   0  0  0  0  0  0  0  0  0  0  0  0
  150.0837  142.2522  155.8519 O   0  0  0  0  0  0  0  0  0  0  0  0
  148.1932  139.3967  154.6146 O   0  0  0  0  0  0  0  0  0  0  0  0
  145.6599  137.4477  153.4321 C   0  0  0  0  0  0  0  0  0  0  0  0
  146.1667  137.3320  152.3131 O   0  0  0  0  0  0  0  0  0  0  0  0
  145.3346  133.7609  151.3593 C   0  0  0  0  0  0  0  0  0  0  0  0
  144.1705  133.8258  150.5564 C   0  0  0  0  0  0  0  0  0  0  0  0
  144.0780  133.0737  149.3688 C   0  0  0  0  0  0  0  0  0  0  0  0
  145.1443  132.2477  148.9662 C   0  0  0  0  0  0  0  0  0  0  0  0
  146.3089  132.1717  149.7522 C   0  0  0  0  0  0  0  0  0  0  0  0
  146.4036  132.9232  150.9406 C   0  0  0  0  0  0  0  0  0  0  0  0
  147.5235  132.8463  151.6902 N   0  3  0  0  0  0  0  0  0  0  0  0
  148.8727  133.6016  154.6449 H   0  0  0  0  0  0  0  0  0  0  0  0
  149.7597  134.0229  153.1750 H   0  0  0  0  0  0  0  0  0  0  0  0
  149.3564  132.3341  153.5159 H   0  0  0  0  0  0  0  0  0  0  0  0
  146.8208  134.9235  154.2228 H   0  0  0  0  0  0  0  0  0  0  0  0
  143.7967  135.8325  152.1917 H   0  0  0  0  0  0  0  0  0  0  0  0
  143.5785  134.8316  153.5761 H   0  0  0  0  0  0  0  0  0  0  0  0
  144.2883  138.7448  157.9287 H   0  0  0  0  0  0  0  0  0  0  0  0
  144.1247  136.9930  158.0136 H   0  0  0  0  0  0  0  0  0  0  0  0
  142.8260  137.9730  157.3211 H   0  0  0  0  0  0  0  0  0  0  0  0
  145.6919  139.4284  156.1898 H   0  0  0  0  0  0  0  0  0  0  0  0
  147.3259  139.1391  152.7698 H   0  0  0  0  0  0  0  0  0  0  0  0
  146.0158  141.2218  153.0153 H   0  0  0  0  0  0  0  0  0  0  0  0
  146.2783  141.2127  154.7881 H   0  0  0  0  0  0  0  0  0  0  0  0
  148.3791  141.5904  152.6505 H   0  0  0  0  0  0  0  0  0  0  0  0
  148.3360  142.8875  155.0994 H   0  0  0  0  0  0  0  0  0  0  0  0
  149.8553  140.3349  153.8733 H   0  0  0  0  0  0  0  0  0  0  0  0
  148.5671  141.0534  156.5699 H   0  0  0  0  0  0  0  0  0  0  0  0
  150.1128  140.2755  156.2968 H   0  0  0  0  0  0  0  0  0  0  0  0
  149.4390  142.9372  155.7606 H   0  0  0  0  0  0  0  0  0  0  0  0
  143.3327  134.4482  150.8323 H   0  0  0  0  0  0  0  0  0  0  0  0
  143.1845  133.1312  148.7642 H   0  0  0  0  0  0  0  0  0  0  0  0
  145.0684  131.6731  148.0545 H   0  0  0  0  0  0  0  0  0  0  0  0
  147.1243  131.5364  149.4377 H   0  0  0  0  0  0  0  0  0  0  0  0
  148.2785  132.2393  151.3713 H   0  0  0  0  0  0  0  0  0  0  0  0
  1  2  1  0  0  0  0
  1 30  1  0  0  0  0
  1 31  1  0  0  0  0
  1 32  1  0  0  0  0
  2 29  1  0  0  0  0
  2  3  2  0  0  0  0
  3  4  1  0  0  0  0
  3 33  1  0  0  0  0
  4  5  1  0  0  0  0
  4 23  2  0  0  0  0
  5  6  1  0  0  0  0
  5 34  1  0  0  0  0
  5 35  1  0  0  0  0
  6 21  1  0  0  0  0
  6  7  1  0  0  0  0
  7  8  2  0  0  0  0
  7  9  1  0  0  0  0
  9 10  1  0  0  0  0
  9 11  2  0  0  0  0
 10 36  1  0  0  0  0
 10 37  1  0  0  0  0
 10 38  1  0  0  0  0
 11 12  1  0  0  0  0
 11 39  1  0  0  0  0
 12 13  1  0  0  0  0
 12 21  1  0  0  0  0
 13 20  1  0  0  0  0
 13 14  1  0  0  0  0
 13 40  1  0  0  0  0
 14 15  1  0  0  0  0
 14 41  1  0  0  0  0
 14 42  1  0  0  0  0
 15 16  1  0  0  0  0
 15 17  1  0  0  0  0
 15 43  1  0  0  0  0
 16 44  1  0  0  0  0
 17 18  1  0  0  0  0
 17 20  1  0  0  0  0
 17 45  1  0  0  0  0
 18 19  1  0  0  0  0
 18 46  1  0  0  0  0
 18 47  1  0  0  0  0
 19 48  1  0  0  0  0
 21 22  2  0  0  0  0
 23 28  1  0  0  0  0
 23 24  1  0  0  0  0
 24 25  2  0  0  0  0
 24 49  1  0  0  0  0
 25 26  1  0  0  0  0
 25 50  1  0  0  0  0
 26 27  2  0  0  0  0
 26 51  1  0  0  0  0
 27 28  1  0  0  0  0
 27 52  1  0  0  0  0
 28 29  2  0  0  0  0
 29 53  1  0  0  0  0
M  CHG  1  29   1
M  END
> <s_m_source_file>
AV-unprocessed.smi

> <i_m_source_file_index>
113

> <i_lp_mmshare_version>
43012

> <i_f3d_flags>
0

> <s_epik_input>
W2NIXTFbY0hdW2NIXVtjSF1jKGMxMiluYyhbQ0gzXSlbY0hdYzJbQ0gyXW4zYyg9TyljKFtDSDNdKVtjSF1uKGMzPU8pW0NAQEhdNFtDSDJdW0NAQEhdKFtPSF0pW0NASF0oTzQpW0NIMl1bT0hd

> <s_epik_cmdline>
J2VwaWtfcHl0aG9uJywgJy1waCcsICc3LjAnLCAnLXRuJywgJzgnLCAnLW1hJywgJzIwMCcsICctbWV0YWxfYmluZGluZycsICctaW1hZScsICc8aW5maWxlLm1hZT4nLCAnLW9tYWUnLCAnPG91dGZpbGUubWFlPic=

> <r_lp_tautomer_probability>
1

> <r_epik_Ionization_Penalty>
0.705471

> <r_epik_Ionization_Penalty_Charging>
0.70547

> <r_epik_Ionization_Penalty_Neutral>
1.19947e-07

> <r_epik_State_Penalty>
0.728574

> <r_epik_Charging_Adjusted_Penalty>
1.43404

> <i_epik_Tot_Q>
1

> <i_epik_Tot_abs_Q>
1

> <r_epik_Metal_State_Penalty>
4.61665

> <b_epik_Metal_Only>
0

> <s_epik_Chemistry_Notes>
This compound contains an acetal/aminal-like group ( X-CH(R)-Y where X, Y are N, S, or O) that may be acid/base labile, releasing an aldehyde.

> <s_lp_Force_Field>
OPLS_2005

> <r_lp_Energy>
46.487

> <b_lp_Chiralities_Consistent>
1

> <s_lp_Variant>
AV-unprocessed.smi:113-10

> <Gold.Version>
5.8.1

> <Gold.Id.Protein>
6NUR|6NUR_protein|mol2

> <Gold.PLP.Fitness>
48.3518

> <Gold.PLP.PLP>
-39.5890

> <Gold.PLP.part.hbond>
-4.9204

> <Gold.PLP.part.metal>
0.0000

> <Gold.PLP.part.buried>
-2.1471

> <Gold.PLP.part.nonpolar>
-32.7738

> <Gold.PLP.part.repulsive>
1.3395

> <Gold.PLP.ligand.clash>
0.0000

> <Gold.PLP.ligand.torsion>
0.4088

> <Gold.PLP.Chemscore.Hbond>
3.1840

> <Gold.PLP.Chemscore.CHOScore>
0.0000

> <Gold.PLP.Chemscore.Metal>
0.0000

> <Gold.Chemscore.Hbonds>
donor molecule, donor type, donor heavy atom, donor atom, acceptor molecule, acceptor atom, score
      L1  H    16    44       P1  8028  0.16
      L1  H    19    48       P1  8028  1.00
      L1  H    29    53       P1 10747  1.00
      P1  H  8022  8030       L1    16  0.98

> <Gold.PLP.Chemscore.Internal.Correction>
0.0283

> <Gold.Rescore>
     Score         DG    S(hbond)    S(metal)    S(lipo)     H(rot)  DE(clash)    DE(int)     intcor
     16.33     -18.17       2.49        0.00     103.41       3.01       0.22       1.62       ----

> <Gold.Chemscore.Fitness>
16.3299

> <Gold.Chemscore.DG>
-18.1684

> <Gold.Chemscore.ZeroCoef>
-5.4800

> <Gold.Chemscore.Hbond>
2.4851

> <Gold.Chemscore.Metal>
0.0000

> <Gold.Chemscore.Lipo>
103.4102

> <Gold.Chemscore.Internal_Hbond>
0.0000

> <Gold.Chemscore.DEClash>
0.2185

> <Gold.Chemscore.DEInternal>
1.6200

> <Gold.Chemscore.Rot>
3.0120

> <Gold.Chemscore.Internal.Correction>
   9.000000E+99

> <Gold.Chemscore.Hbonds>
donor molecule, donor type, donor heavy atom, donor atom, acceptor molecule, acceptor atom, score
      L1  H    16    44       P1  8028  0.16
      L1  H    19    48       P1  8028  0.98
      L1  H    29    53       P1 10747  0.97
      P1  H  8022  8030       L1    16  0.36

> <Gold.Chemscore.Hbond.Weighted>
-8.3002

> <Gold.Chemscore.Metal.Weighted>
-0.0000

> <Gold.Chemscore.Lipo.Weighted>
-12.0990

> <Gold.Chemscore.Internal_Hbond.Weighted>
0.0000

> <Gold.Chemscore.DEClash.Weighted>
0.2185

> <Gold.Chemscore.DEInternal.Weighted>
1.6200

> <Gold.Chemscore.Rot.Weighted>
7.7108

> <Gold.Chemscore.Internal.Correction.Weighted>
   9.000000E+99

> <Gold.Protein.RotatedTorsions>
[ 6907 6896 6895 6894 ] final   33.45 input  -60.11 | X-H torsion
[ 7974 7965 7964 7962 ] final  -51.04 input  175.53 | X-H torsion
[ 8008 7997 7996 7995 ] final  -18.30 input   59.86 | X-H torsion
[ 10167 10162 10161 10158 ] final  174.18 input  -65.29 | X-H torsion
[ 10718 10713 10712 10709 ] final   74.85 input   66.30 | X-H torsion
[ 10763 10752 10751 10750 ] final  -37.20 input  -60.55 | X-H torsion
[ 11005 11000 10999 10996 ] final   79.45 input  -57.11 | X-H torsion

> <Gold.Protein.ActiveResidues>
 VAL166  LYS551  ARG553  GLY616  TRP617  ASP618  TYR619  PRO620  LYS621  CYS622 
 ASP623  PHE694  ASN695  SER759  ASP760  ASP761  ALA762  ILE779  LEU786  VAL792 
 PHE793  MET794  SER795  GLU796  ALA797  LYS798  CYS799  TRP800  GLU811  SER814 

> <Gold.Protein.RotatedAtoms>
  152.0886  134.9422  160.0572 H   0  0  0  0  0  0  0  0  0  0  0  0  # atno 6907 bound_to 6896
  152.0682  133.4089  159.4456 H   0  0  0  0  0  0  0  0  0  0  0  0  # atno 6908 bound_to 6896
  150.6836  134.3042  159.4762 H   0  0  0  0  0  0  0  0  0  0  0  0  # atno 6909 bound_to 6896
  145.9233  140.7814  142.9636 H   0  0  0  0  0  0  0  0  0  0  0  0  # atno 7974 bound_to 7965
  154.4916  140.2119  155.9536 H   0  0  0  0  0  0  0  0  0  0  0  0  # atno 8008 bound_to 7997
  156.1313  140.3196  155.8322 H   0  0  0  0  0  0  0  0  0  0  0  0  # atno 8009 bound_to 7997
  155.4291  140.0502  157.3010 H   0  0  0  0  0  0  0  0  0  0  0  0  # atno 8010 bound_to 7997
  139.5133  144.3176  152.0233 H   0  0  0  0  0  0  0  0  0  0  0  0  # atno 10167 bound_to 10162
  157.6609  130.9698  150.1269 H   0  0  0  0  0  0  0  0  0  0  0  0  # atno 10718 bound_to 10713
  153.8924  135.6811  153.4760 H   0  0  0  0  0  0  0  0  0  0  0  0  # atno 10763 bound_to 10752
  153.1174  135.4755  154.9135 H   0  0  0  0  0  0  0  0  0  0  0  0  # atno 10764 bound_to 10752
  154.7616  135.3212  154.8321 H   0  0  0  0  0  0  0  0  0  0  0  0  # atno 10765 bound_to 10752
  139.9172  134.7843  156.1780 H   0  0  0  0  0  0  0  0  0  0  0  0  # atno 11005 bound_to 11000
  144.6755  140.2011  143.7387 LP  0  0  0  0  0  0  0  0  0  0  0  0  # atno 17320 bound_to 7965
  145.8521  139.2180  143.1766 LP  0  0  0  0  0  0  0  0  0  0  0  0  # atno 17321 bound_to 7965
  140.2618  144.4059  150.6183 LP  0  0  0  0  0  0  0  0  0  0  0  0  # atno 17342 bound_to 10162
  140.6151  143.2172  151.6807 LP  0  0  0  0  0  0  0  0  0  0  0  0  # atno 17343 bound_to 10162
  156.2126  130.3668  149.8652 LP  0  0  0  0  0  0  0  0  0  0  0  0  # atno 17370 bound_to 10713
  156.6527  130.8750  151.3534 LP  0  0  0  0  0  0  0  0  0  0  0  0  # atno 17371 bound_to 10713
  141.0660  133.6819  156.2045 LP  0  0  0  0  0  0  0  0  0  0  0  0  # atno 17394 bound_to 11000
  140.6585  134.4993  157.5582 LP  0  0  0  0  0  0  0  0  0  0  0  0  # atno 17395 bound_to 11000

$$$$
