#       Name:                AV-unprocessed.smi:2039
#       Creating user name   scv26
#       Creation time:       Fri Mar 27 10:55:20 2020


#       File generated by GOLD software.
#

@<TRIPOS>MOLECULE
AV-unprocessed.smi:2039
    39    40     1
SMALL
NO_CHARGES


@<TRIPOS>ATOM
      1 ****        -6.5271   2.5030  -0.8991 C.3            1 S1                 0.0000
      2 ****        -5.1785   2.2911  -0.3013 C.2            1 S1                 0.0000
      3 ****        -4.9944   2.0478   0.9987 N.2            1 S1                 0.0000
      4 ****        -3.6533   1.8832   1.3148 N.2            1 S1                 0.0000
      5 ****        -2.8452   1.9913   0.2504 C.2            1 S1                 0.0000
      6 ****        -1.5109   1.8629   0.3398 N.pl3          1 S1                -1.0000
      7 ****        -0.9267   0.6773   0.0521 C.2            1 S1                 0.0000
      8 ****        -1.5058  -0.3603  -0.2782 O.2            1 S1                 0.0000
      9 ****         0.4108   0.6965   0.1506 N.am           1 S1                 0.0000
     10 ****         1.3101  -0.4248  -0.1094 C.3            1 S1                 0.0000
     11 ****         1.4706  -1.2958   1.1534 C.3            1 S1                 0.0000
     12 ****         2.4717  -2.4397   0.9231 C.3            1 S1                 0.0000
     13 ****         3.8315  -1.9012   0.4453 C.3            1 S1                 0.0000
     14 ****         4.6978  -2.9826   0.1717 O.3            1 S1                 0.0000
     15 ****         3.6730  -1.0386  -0.8186 C.3            1 S1                 0.0000
     16 ****         2.6756   0.1072  -0.5841 C.3            1 S1                 0.0000
     17 ****        -3.7030   2.3361  -1.2511 S.3            1 S1                 0.0000
     18 ****        -7.0446   1.5486  -0.9979 H              1 S1                 0.0000
     19 ****        -6.4372   2.9568  -1.8863 H              1 S1                 0.0000
     20 ****        -7.1212   3.1621  -0.2655 H              1 S1                 0.0000
     21 ****         0.8395   1.5678   0.4263 H              1 S1                 0.0000
     22 ****         0.8944  -1.0397  -0.9101 H              1 S1                 0.0000
     23 ****         1.8114  -0.6788   1.9863 H              1 S1                 0.0000
     24 ****         0.5060  -1.7086   1.4508 H              1 S1                 0.0000
     25 ****         2.5962  -3.0107   1.8439 H              1 S1                 0.0000
     26 ****         2.0644  -3.1298   0.1828 H              1 S1                 0.0000
     27 ****         4.2820  -1.3022   1.2377 H              1 S1                 0.0000
     28 ****         4.3130  -3.5077  -0.5133 H              1 S1                 0.0000
     29 ****         4.6387  -0.6307  -1.1195 H              1 S1                 0.0000
     30 ****         3.3244  -1.6550  -1.6488 H              1 S1                 0.0000
     31 ****         2.5538   0.6810  -1.5036 H              1 S1                 0.0000
     32 ****         3.0840   0.7949   0.1579 H              1 S1                 0.0000
     33 ****        -5.7365   1.9908   1.6666 LP             1 S1                 0.0000
     34 ****        -3.3234   1.7025   2.2414 LP             1 S1                 0.0000
     35 ****        -0.9504   2.6427   0.6187 LP             1 S1                 0.0000
     36 ****        -2.5029  -0.3741  -0.3538 LP             1 S1                 0.0000
     37 ****        -0.9783  -1.1879  -0.4704 LP             1 S1                 0.0000
     38 ****         4.8166  -3.5368   0.9956 LP             1 S1                 0.0000
     39 ****         5.5866  -2.6358  -0.1277 LP             1 S1                 0.0000
@<TRIPOS>BOND
    1    1    2 1     
    2    1   18 1     
    3    1   19 1     
    4    1   20 1     
    5    2   17 1     
    6    2    3 2     
    7    3    4 1     
    8    4    5 2     
    9    5    6 1     
   10    5   17 1     
   11    6    7 1     
   12    7    8 2     
   13    7    9 am    
   14    9   10 1     
   15    9   21 1     
   16   10   16 1     
   17   10   11 1     
   18   10   22 1     
   19   11   12 1     
   20   11   23 1     
   21   11   24 1     
   22   12   13 1     
   23   12   25 1     
   24   12   26 1     
   25   13   14 1     
   26   13   15 1     
   27   13   27 1     
   28   14   28 1     
   29   15   16 1     
   30   15   29 1     
   31   15   30 1     
   32   16   31 1     
   33   16   32 1     
   34    3   33 1     
   35    4   34 1     
   36    6   35 1     
   37    8   36 1     
   38    8   37 1     
   39   14   38 1     
   40   14   39 1     
@<TRIPOS>SUBSTRUCTURE
      1 S1             1
@<TRIPOS>SET
LONE_PAIRS      STATIC     ATOMS    <user>   **** ""
7 33 34 35 36 37 38 39
DONOR_HYDROGENS      STATIC     ATOMS    <user>   **** ""
2 21 28
ATOM$BLUE        STATIC     ATOMS    COLORGROUP SYSTEM
7 33 34 35 36 37 38 39
ATOM$RED        STATIC     ATOMS    COLORGROUP SYSTEM
2 21 28
