AV-unprocessed.smi:149|AV-procd|sdf|1236|dock5
  -GOLD-   2262018443D 1   1.00000     0.00000
 Structure written by MMmdl.
 60 64  0  0  0  0  0  0  0  0  2 V2000
  152.9210  129.7931  155.0726 C   0  0  0  0  0  0  0  0  0  0  0  0
  151.6637  129.2249  155.7619 C   0  0  2  0  0  0  0  0  0  0  0  0
  150.4369  129.3570  154.8436 C   0  0  0  0  0  0  0  0  0  0  0  0
  149.7216  130.5462  155.2901 N   0  0  0  0  0  0  0  0  0  0  0  0
  148.9749  131.2850  154.4290 C   0  0  0  0  0  0  0  0  0  0  0  0
  149.1419  132.6341  154.4115 N   0  0  0  0  0  0  0  0  0  0  0  0
  148.4222  133.3961  153.5830 C   0  0  0  0  0  0  0  0  0  0  0  0
  147.4927  133.0226  152.7028 N   0  0  0  0  0  0  0  0  0  0  0  0
  147.3119  131.6711  152.7165 C   0  0  0  0  0  0  0  0  0  0  0  0
  147.9989  130.7370  153.5449 C   0  0  0  0  0  0  0  0  0  0  0  0
  147.5219  129.4546  153.2959 N   0  0  0  0  0  0  0  0  0  0  0  0
  146.6126  129.6207  152.3754 C   0  0  0  0  0  0  0  0  0  0  0  0
  146.4431  130.9168  151.9460 N   0  0  0  0  0  0  0  0  0  0  0  0
  145.4881  131.3795  150.9813 C   0  0  0  0  0  0  0  0  0  0  0  0
  145.8854  132.3927  149.9025 C   0  0  0  0  0  0  0  0  0  0  0  0
  144.5000  133.0688  150.0080 C   0  0  0  0  0  0  0  0  0  0  0  0
  144.5477  134.6028  150.0779 C   0  0  0  0  0  0  0  0  0  0  0  0
  143.4593  135.1234  150.8137 O   0  0  0  0  0  0  0  0  0  0  0  0
  143.4715  132.6931  148.9180 C   0  0  0  0  0  0  0  0  0  0  0  0
  143.5718  133.4905  147.7555 O   0  0  0  0  0  0  0  0  0  0  0  0
  144.3740  132.3551  151.3720 C   0  0  0  0  0  0  0  0  0  0  0  0
  150.4091  131.1506  156.4212 C   0  0  0  0  0  0  0  0  0  0  0  0
  151.2239  129.9997  157.0211 C   0  0  2  0  0  0  0  0  0  0  0  0
  152.3333  130.4099  157.9277 N   0  3  0  0  0  0  0  0  0  0  0  0
  153.0713  131.6148  157.4689 C   0  0  0  0  0  0  0  0  0  0  0  0
  154.2168  131.9511  158.4395 C   0  0  0  0  0  0  0  0  0  0  0  0
  153.6990  132.1355  159.7500 O   0  0  0  0  0  0  0  0  0  0  0  0
  153.0694  130.9592  160.2392 C   0  0  0  0  0  0  0  0  0  0  0  0
  151.8833  130.5964  159.3311 C   0  0  0  0  0  0  0  0  0  0  0  0
  152.7989  130.8454  154.8147 H   0  0  0  0  0  0  0  0  0  0  0  0
  153.1328  129.2528  154.1495 H   0  0  0  0  0  0  0  0  0  0  0  0
  153.8047  129.7054  155.7042 H   0  0  0  0  0  0  0  0  0  0  0  0
  151.8418  128.1748  155.9958 H   0  0  0  0  0  0  0  0  0  0  0  0
  150.7280  129.4218  153.7942 H   0  0  0  0  0  0  0  0  0  0  0  0
  149.7801  128.4941  154.9580 H   0  0  0  0  0  0  0  0  0  0  0  0
  148.6196  134.4567  153.6313 H   0  0  0  0  0  0  0  0  0  0  0  0
  146.0404  128.7942  151.9794 H   0  0  0  0  0  0  0  0  0  0  0  0
  145.0674  130.4809  150.5288 H   0  0  0  0  0  0  0  0  0  0  0  0
  146.6995  133.0438  150.2250 H   0  0  0  0  0  0  0  0  0  0  0  0
  146.1074  131.9495  148.9313 H   0  0  0  0  0  0  0  0  0  0  0  0
  145.4647  134.9408  150.5617 H   0  0  0  0  0  0  0  0  0  0  0  0
  144.5453  135.0441  149.0807 H   0  0  0  0  0  0  0  0  0  0  0  0
  142.6826  134.6345  150.5882 H   0  0  0  0  0  0  0  0  0  0  0  0
  143.5911  131.6542  148.6093 H   0  0  0  0  0  0  0  0  0  0  0  0
  142.4538  132.7903  149.2974 H   0  0  0  0  0  0  0  0  0  0  0  0
  144.4282  133.8894  147.7383 H   0  0  0  0  0  0  0  0  0  0  0  0
  143.4079  131.8833  151.5533 H   0  0  0  0  0  0  0  0  0  0  0  0
  144.6580  132.9930  152.2108 H   0  0  0  0  0  0  0  0  0  0  0  0
  151.0574  131.9563  156.0731 H   0  0  0  0  0  0  0  0  0  0  0  0
  149.6976  131.5609  157.1390 H   0  0  0  0  0  0  0  0  0  0  0  0
  150.5357  129.3707  157.5897 H   0  0  0  0  0  0  0  0  0  0  0  0
  153.4923  131.4537  156.4768 H   0  0  0  0  0  0  0  0  0  0  0  0
  152.3837  132.4589  157.3936 H   0  0  0  0  0  0  0  0  0  0  0  0
  154.9703  131.1618  158.4414 H   0  0  0  0  0  0  0  0  0  0  0  0
  154.7178  132.8673  158.1265 H   0  0  0  0  0  0  0  0  0  0  0  0
  153.7877  130.1393  160.2916 H   0  0  0  0  0  0  0  0  0  0  0  0
  152.7208  131.1429  161.2557 H   0  0  0  0  0  0  0  0  0  0  0  0
  151.1317  131.3865  159.3720 H   0  0  0  0  0  0  0  0  0  0  0  0
  151.4098  129.6895  159.7059 H   0  0  0  0  0  0  0  0  0  0  0  0
  152.9994  129.6506  157.9296 H   0  0  0  0  0  0  0  0  0  0  0  0
  1  2  1  0  0  0  0
  1 30  1  0  0  0  0
  1 31  1  0  0  0  0
  1 32  1  0  0  0  0
  2 23  1  0  0  0  0
  2  3  1  0  0  0  0
  2 33  1  0  0  0  0
  3  4  1  0  0  0  0
  3 34  1  0  0  0  0
  3 35  1  0  0  0  0
  4  5  1  0  0  0  0
  4 22  1  0  0  0  0
  5 10  1  0  0  0  0
  5  6  2  0  0  0  0
  6  7  1  0  0  0  0
  7  8  2  0  0  0  0
  7 36  1  0  0  0  0
  8  9  1  0  0  0  0
  9 13  1  0  0  0  0
  9 10  2  0  0  0  0
 10 11  1  0  0  0  0
 11 12  2  0  0  0  0
 12 13  1  0  0  0  0
 12 37  1  0  0  0  0
 13 14  1  0  0  0  0
 14 21  1  0  0  0  0
 14 15  1  0  0  0  0
 14 38  1  0  0  0  0
 15 16  1  0  0  0  0
 15 39  1  0  0  0  0
 15 40  1  0  0  0  0
 16 17  1  0  0  0  0
 16 19  1  0  0  0  0
 16 21  1  0  0  0  0
 17 18  1  0  0  0  0
 17 41  1  0  0  0  0
 17 42  1  0  0  0  0
 18 43  1  0  0  0  0
 19 20  1  0  0  0  0
 19 44  1  0  0  0  0
 19 45  1  0  0  0  0
 20 46  1  0  0  0  0
 21 47  1  0  0  0  0
 21 48  1  0  0  0  0
 22 23  1  0  0  0  0
 22 49  1  0  0  0  0
 22 50  1  0  0  0  0
 23 24  1  0  0  0  0
 23 51  1  0  0  0  0
 24 29  1  0  0  0  0
 24 25  1  0  0  0  0
 24 60  1  0  0  0  0
 25 26  1  0  0  0  0
 25 52  1  0  0  0  0
 25 53  1  0  0  0  0
 26 27  1  0  0  0  0
 26 54  1  0  0  0  0
 26 55  1  0  0  0  0
 27 28  1  0  0  0  0
 28 29  1  0  0  0  0
 28 56  1  0  0  0  0
 28 57  1  0  0  0  0
 29 58  1  0  0  0  0
 29 59  1  0  0  0  0
M  CHG  1  24   1
M  END
> <s_m_source_file>
AV-unprocessed.smi

> <i_m_source_file_index>
149

> <i_lp_mmshare_version>
43012

> <i_f3d_flags>
0

> <s_epik_input>
W0NIMl0xW0NIMl1PW0NIMl1bQ0gyXU4xW0NAQEhdMltDSDJdTihbQ0gyXVtDQEhdMltDSDNdKWMobltjSF1uMyljKGMzNCluW2NIXW40W0NIXShbQ0gyXTUpW0NIMl1DNShbQ0gyXVtPSF0pW0NIMl1bT0hd

> <s_epik_cmdline>
J2VwaWtfcHl0aG9uJywgJy1waCcsICc3LjAnLCAnLXRuJywgJzgnLCAnLW1hJywgJzIwMCcsICctbWV0YWxfYmluZGluZycsICctaW1hZScsICc8aW5maWxlLm1hZT4nLCAnLW9tYWUnLCAnPG91dGZpbGUubWFlPic=

> <r_lp_tautomer_probability>
1

> <r_epik_Ionization_Penalty>
0.404847

> <r_epik_Ionization_Penalty_Charging>
0.404623

> <r_epik_Ionization_Penalty_Neutral>
0.000224096

> <r_epik_State_Penalty>
0.238803

> <r_epik_Charging_Adjusted_Penalty>
0.643425

> <i_epik_Tot_Q>
1

> <i_epik_Tot_abs_Q>
1

> <r_epik_Metal_State_Penalty>
0.239083

> <b_epik_Metal_Only>
0

> <s_lp_Force_Field>
OPLS_2005

> <r_lp_Energy>
71.321

> <b_lp_Chiralities_Consistent>
1

> <s_lp_Variant>
AV-unprocessed.smi:149-3

> <Gold.Version>
5.8.1

> <Gold.Id.Protein>
6NUR|6NUR_protein|mol2

> <Gold.PLP.Fitness>
53.2592

> <Gold.PLP.PLP>
-43.9608

> <Gold.PLP.part.hbond>
-4.7363

> <Gold.PLP.part.metal>
0.0000

> <Gold.PLP.part.buried>
1.0486

> <Gold.PLP.part.nonpolar>
-40.5402

> <Gold.PLP.part.repulsive>
0.3671

> <Gold.PLP.ligand.clash>
0.0000

> <Gold.PLP.ligand.torsion>
1.6796

> <Gold.PLP.Chemscore.Hbond>
2.9900

> <Gold.PLP.Chemscore.CHOScore>
1.0000

> <Gold.PLP.Chemscore.Metal>
0.0000

> <Gold.Chemscore.Hbonds>
donor molecule, donor type, donor heavy atom, donor atom, acceptor molecule, acceptor atom, score
      L1  H    18    43       P1 10186  0.95
      L1  H    20    46       P1  7921  1.00
      P1  H  6896  6908       L1    27  0.98
      P1  H 10192 10197       L1    20  0.18
      L1  C     7    36       P1  7948  1.00

> <Gold.PLP.Chemscore.Internal.Correction>
0.6876

> <Gold.Rescore>
     Score         DG    S(hbond)    S(metal)    S(lipo)     H(rot)  DE(clash)    DE(int)     intcor
     11.50     -16.16       2.00        0.00     101.76       3.09       2.89       1.77       ----

> <Gold.Chemscore.Fitness>
11.4962

> <Gold.Chemscore.DG>
-16.1627

> <Gold.Chemscore.ZeroCoef>
-5.4800

> <Gold.Chemscore.Hbond>
2.0031

> <Gold.Chemscore.Metal>
0.0000

> <Gold.Chemscore.Lipo>
101.7588

> <Gold.Chemscore.Internal_Hbond>
0.0000

> <Gold.Chemscore.DEClash>
2.8928

> <Gold.Chemscore.DEInternal>
1.7737

> <Gold.Chemscore.Rot>
3.0912

> <Gold.Chemscore.Internal.Correction>
   9.000000E+99

> <Gold.Chemscore.Hbonds>
donor molecule, donor type, donor heavy atom, donor atom, acceptor molecule, acceptor atom, score
      L1  H    18    43       P1 10186  0.20
      L1  H    20    46       P1  7921  1.00
      P1  H  6896  6908       L1    27  0.38
      P1  H 10192 10197       L1    20  0.12

> <Gold.Chemscore.Hbond.Weighted>
-6.6904

> <Gold.Chemscore.Metal.Weighted>
-0.0000

> <Gold.Chemscore.Lipo.Weighted>
-11.9058

> <Gold.Chemscore.Internal_Hbond.Weighted>
0.0000

> <Gold.Chemscore.DEClash.Weighted>
2.8928

> <Gold.Chemscore.DEInternal.Weighted>
1.7737

> <Gold.Chemscore.Rot.Weighted>
7.9135

> <Gold.Chemscore.Internal.Correction.Weighted>
   9.000000E+99

> <Gold.Protein.RotatedTorsions>
[ 6907 6896 6895 6894 ] final    8.43 input  -60.11 | X-H torsion
[ 7974 7965 7964 7962 ] final   41.20 input  175.53 | X-H torsion
[ 8008 7997 7996 7995 ] final -151.14 input   59.86 | X-H torsion
[ 10167 10162 10161 10158 ] final  134.05 input  -65.29 | X-H torsion
[ 10718 10713 10712 10709 ] final  112.74 input   66.30 | X-H torsion
[ 10763 10752 10751 10750 ] final -171.91 input  -60.55 | X-H torsion
[ 11005 11000 10999 10996 ] final  -93.86 input  -57.11 | X-H torsion

> <Gold.Protein.ActiveResidues>
 VAL166  LYS551  ARG553  GLY616  TRP617  ASP618  TYR619  PRO620  LYS621  CYS622 
 ASP623  PHE694  ASN695  SER759  ASP760  ASP761  ALA762  ILE779  LEU786  VAL792 
 PHE793  MET794  SER795  GLU796  ALA797  LYS798  CYS799  TRP800  GLU811  SER814 

> <Gold.Protein.RotatedAtoms>
  151.7059  135.0921  160.0258 H   0  0  0  0  0  0  0  0  0  0  0  0  # atno 6907 bound_to 6896
  152.3691  133.6392  159.6082 H   0  0  0  0  0  0  0  0  0  0  0  0  # atno 6908 bound_to 6896
  150.7660  133.9215  159.3441 H   0  0  0  0  0  0  0  0  0  0  0  0  # atno 6909 bound_to 6896
  146.0842  139.5443  142.9517 H   0  0  0  0  0  0  0  0  0  0  0  0  # atno 7974 bound_to 7965
  155.6346  140.0695  157.2638 H   0  0  0  0  0  0  0  0  0  0  0  0  # atno 8008 bound_to 7997
  154.4198  140.1761  156.1558 H   0  0  0  0  0  0  0  0  0  0  0  0  # atno 8009 bound_to 7997
  155.9905  140.3345  155.6751 H   0  0  0  0  0  0  0  0  0  0  0  0  # atno 8010 bound_to 7997
  139.5272  144.6586  151.5084 H   0  0  0  0  0  0  0  0  0  0  0  0  # atno 10167 bound_to 10162
  157.6376  131.0972  150.6939 H   0  0  0  0  0  0  0  0  0  0  0  0  # atno 10718 bound_to 10713
  154.6252  135.2880  155.0280 H   0  0  0  0  0  0  0  0  0  0  0  0  # atno 10763 bound_to 10752
  154.1460  135.6511  153.4956 H   0  0  0  0  0  0  0  0  0  0  0  0  # atno 10764 bound_to 10752
  153.0254  135.5344  154.7058 H   0  0  0  0  0  0  0  0  0  0  0  0  # atno 10765 bound_to 10752
  141.1486  133.7916  157.0217 H   0  0  0  0  0  0  0  0  0  0  0  0  # atno 11005 bound_to 11000
  145.6160  141.0331  143.1940 LP  0  0  0  0  0  0  0  0  0  0  0  0  # atno 17320 bound_to 7965
  144.7314  139.7714  143.7345 LP  0  0  0  0  0  0  0  0  0  0  0  0  # atno 17321 bound_to 7965
  140.6424  143.8863  150.6704 LP  0  0  0  0  0  0  0  0  0  0  0  0  # atno 17342 bound_to 10162
  140.2202  143.3815  152.1649 LP  0  0  0  0  0  0  0  0  0  0  0  0  # atno 17343 bound_to 10162
  156.7268  130.4697  149.5509 LP  0  0  0  0  0  0  0  0  0  0  0  0  # atno 17370 bound_to 10713
  156.1628  130.6385  151.0741 LP  0  0  0  0  0  0  0  0  0  0  0  0  # atno 17371 bound_to 10713
  140.0811  134.9647  157.1626 LP  0  0  0  0  0  0  0  0  0  0  0  0  # atno 17394 bound_to 11000
  140.3575  134.2530  155.7191 LP  0  0  0  0  0  0  0  0  0  0  0  0  # atno 17395 bound_to 11000

$$$$
