AV-unprocessed.smi:552|AV-procd|sdf|2902|dock4
  -GOLD-   2262023393D 1   1.00000     0.00000
 Structure written by MMmdl.
 42 43  0  0  0  0  0  0  0  0  1 V2000
  143.1490  137.2024  152.9886 C   0  0  0  0  0  0  0  0  0  0  0  0
  144.6157  137.3488  153.4194 C   0  0  0  0  0  0  0  0  0  0  0  0
  145.6050  137.3996  152.2399 C   0  0  2  0  0  0  0  0  0  0  0  0
  145.5027  136.1428  151.3613 C   0  0  0  0  0  0  0  0  0  0  0  0
  146.9724  137.5521  152.7334 N   0  0  0  0  0  0  0  0  0  0  0  0
  147.3837  138.4766  153.6131 C   0  0  0  0  0  0  0  0  0  0  0  0
  146.6401  139.3223  154.1100 O   0  0  0  0  0  0  0  0  0  0  0  0
  148.7015  138.3655  153.8528 N   0  0  0  0  0  0  0  0  0  0  0  0
  149.5050  139.1464  154.7262 C   0  0  0  0  0  0  0  0  0  0  0  0
  150.9177  139.1815  154.6866 C   0  0  0  0  0  0  0  0  0  0  0  0
  151.6050  140.0106  155.5935 C   0  0  0  0  0  0  0  0  0  0  0  0
  150.8685  140.7897  156.5173 C   0  0  0  0  0  0  0  0  0  0  0  0
  151.5381  141.6228  157.4408 N   0  0  0  0  0  0  0  0  0  0  0  0
  151.2502  143.0561  157.4055 C   0  0  0  0  0  0  0  0  0  0  0  0
  152.2649  143.8300  158.2640 C   0  0  0  0  0  0  0  0  0  0  0  0
  152.2735  143.3044  159.5868 O   0  0  0  0  0  0  0  0  0  0  0  0
  152.6670  141.9365  159.6088 C   0  0  0  0  0  0  0  0  0  0  0  0
  151.6695  141.0928  158.7963 C   0  0  0  0  0  0  0  0  0  0  0  0
  149.5128  140.7689  156.5358 N   0  0  0  0  0  0  0  0  0  0  0  0
  148.8577  139.9743  155.6641 C   0  0  0  0  0  0  0  0  0  0  0  0
  142.4967  137.1281  153.8588 H   0  0  0  0  0  0  0  0  0  0  0  0
  143.0045  136.3034  152.3887 H   0  0  0  0  0  0  0  0  0  0  0  0
  142.8152  138.0565  152.3990 H   0  0  0  0  0  0  0  0  0  0  0  0
  144.7242  138.2442  154.0328 H   0  0  0  0  0  0  0  0  0  0  0  0
  144.8718  136.5078  154.0650 H   0  0  0  0  0  0  0  0  0  0  0  0
  145.3456  138.2645  151.6265 H   0  0  0  0  0  0  0  0  0  0  0  0
  144.4932  136.0209  150.9677 H   0  0  0  0  0  0  0  0  0  0  0  0
  145.7510  135.2427  151.9245 H   0  0  0  0  0  0  0  0  0  0  0  0
  146.1805  136.1997  150.5088 H   0  0  0  0  0  0  0  0  0  0  0  0
  147.6565  136.9014  152.3760 H   0  0  0  0  0  0  0  0  0  0  0  0
  149.1988  137.6826  153.3002 H   0  0  0  0  0  0  0  0  0  0  0  0
  151.4845  138.6060  153.9712 H   0  0  0  0  0  0  0  0  0  0  0  0
  152.6831  140.0513  155.5554 H   0  0  0  0  0  0  0  0  0  0  0  0
  151.2914  143.4258  156.3801 H   0  0  0  0  0  0  0  0  0  0  0  0
  150.2388  143.2299  157.7755 H   0  0  0  0  0  0  0  0  0  0  0  0
  153.2651  143.7726  157.8312 H   0  0  0  0  0  0  0  0  0  0  0  0
  151.9953  144.8856  158.3030 H   0  0  0  0  0  0  0  0  0  0  0  0
  153.6783  141.8312  159.2125 H   0  0  0  0  0  0  0  0  0  0  0  0
  152.6937  141.5924  160.6429 H   0  0  0  0  0  0  0  0  0  0  0  0
  150.6898  141.1098  159.2758 H   0  0  0  0  0  0  0  0  0  0  0  0
  152.0037  140.0566  158.7969 H   0  0  0  0  0  0  0  0  0  0  0  0
  147.7793  139.9975  155.7236 H   0  0  0  0  0  0  0  0  0  0  0  0
  1  2  1  0  0  0  0
  1 21  1  0  0  0  0
  1 22  1  0  0  0  0
  1 23  1  0  0  0  0
  2  3  1  0  0  0  0
  2 24  1  0  0  0  0
  2 25  1  0  0  0  0
  3  4  1  0  0  0  0
  3  5  1  0  0  0  0
  3 26  1  0  0  0  0
  4 27  1  0  0  0  0
  4 28  1  0  0  0  0
  4 29  1  0  0  0  0
  5  6  1  0  0  0  0
  5 30  1  0  0  0  0
  6  7  2  0  0  0  0
  6  8  1  0  0  0  0
  8  9  1  0  0  0  0
  8 31  1  0  0  0  0
  9 20  1  0  0  0  0
  9 10  2  0  0  0  0
 10 11  1  0  0  0  0
 10 32  1  0  0  0  0
 11 12  2  0  0  0  0
 11 33  1  0  0  0  0
 12 13  1  0  0  0  0
 12 19  1  0  0  0  0
 13 18  1  0  0  0  0
 13 14  1  0  0  0  0
 14 15  1  0  0  0  0
 14 34  1  0  0  0  0
 14 35  1  0  0  0  0
 15 16  1  0  0  0  0
 15 36  1  0  0  0  0
 15 37  1  0  0  0  0
 16 17  1  0  0  0  0
 17 18  1  0  0  0  0
 17 38  1  0  0  0  0
 17 39  1  0  0  0  0
 18 40  1  0  0  0  0
 18 41  1  0  0  0  0
 19 20  2  0  0  0  0
 20 42  1  0  0  0  0
M  END
> <s_m_source_file>
AV-unprocessed.smi

> <i_m_source_file_index>
552

> <i_lp_mmshare_version>
43012

> <i_f3d_flags>
0

> <s_epik_input>
W0NIM11bQ0gyXVtDQEhdKFtDSDNdKVtOSF1DKD1PKVtOSF1jMVtjSF1bY0hdYyhuW2NIXTEpTjJbQ0gyXVtDSDJdT1tDSDJdW0NIMl0y

> <s_epik_cmdline>
J2VwaWtfcHl0aG9uJywgJy1waCcsICc3LjAnLCAnLXRuJywgJzgnLCAnLW1hJywgJzIwMCcsICctbWV0YWxfYmluZGluZycsICctaW1hZScsICc8aW5maWxlLm1hZT4nLCAnLW9tYWUnLCAnPG91dGZpbGUubWFlPic=

> <r_lp_tautomer_probability>
1

> <r_epik_Ionization_Penalty>
0.00215965

> <r_epik_Ionization_Penalty_Charging>
0

> <r_epik_Ionization_Penalty_Neutral>
0.00215965

> <r_epik_State_Penalty>
0.00145276

> <r_epik_Charging_Adjusted_Penalty>
0.00145276

> <i_epik_Tot_Q>
0

> <i_epik_Tot_abs_Q>
0

> <r_epik_Metal_State_Penalty>
-0

> <b_epik_Metal_Only>
0

> <s_lp_Force_Field>
OPLS_2005

> <r_lp_Energy>
20.9108

> <b_lp_Chiralities_Consistent>
1

> <s_lp_Variant>
AV-unprocessed.smi:552-1

> <Gold.Version>
5.8.1

> <Gold.Id.Protein>
6NUR|6NUR_protein|mol2

> <Gold.PLP.Fitness>
39.9748

> <Gold.PLP.PLP>
-34.7373

> <Gold.PLP.part.hbond>
-2.0916

> <Gold.PLP.part.metal>
0.0000

> <Gold.PLP.part.buried>
-3.7220

> <Gold.PLP.part.nonpolar>
-30.1311

> <Gold.PLP.part.repulsive>
0.2809

> <Gold.PLP.ligand.clash>
0.0000

> <Gold.PLP.ligand.torsion>
0.3895

> <Gold.PLP.Chemscore.Hbond>
1.8882

> <Gold.PLP.Chemscore.CHOScore>
0.0000

> <Gold.PLP.Chemscore.Metal>
0.0000

> <Gold.Chemscore.Hbonds>
donor molecule, donor type, donor heavy atom, donor atom, acceptor molecule, acceptor atom, score
      L1  H     5    30       P1  7948  1.00
      L1  H     8    31       P1  7948  0.87

> <Gold.PLP.Chemscore.Internal.Correction>
0.3521

> <Gold.Rescore>
     Score         DG    S(hbond)    S(metal)    S(lipo)     H(rot)  DE(clash)    DE(int)     intcor
     15.15     -18.07       1.96        0.00      81.29       1.35       0.08       2.83       ----

> <Gold.Chemscore.Fitness>
15.1513

> <Gold.Chemscore.DG>
-18.0680

> <Gold.Chemscore.ZeroCoef>
-5.4800

> <Gold.Chemscore.Hbond>
1.9583

> <Gold.Chemscore.Metal>
0.0000

> <Gold.Chemscore.Lipo>
81.2898

> <Gold.Chemscore.Internal_Hbond>
0.0000

> <Gold.Chemscore.DEClash>
0.0825

> <Gold.Chemscore.DEInternal>
2.8342

> <Gold.Chemscore.Rot>
1.3530

> <Gold.Chemscore.Internal.Correction>
   9.000000E+99

> <Gold.Chemscore.Hbonds>
donor molecule, donor type, donor heavy atom, donor atom, acceptor molecule, acceptor atom, score
      L1  H     5    30       P1  7948  0.94
      L1  H     8    31       P1  7948  0.79

> <Gold.Chemscore.Hbond.Weighted>
-6.5409

> <Gold.Chemscore.Metal.Weighted>
-0.0000

> <Gold.Chemscore.Lipo.Weighted>
-9.5109

> <Gold.Chemscore.Internal_Hbond.Weighted>
0.0000

> <Gold.Chemscore.DEClash.Weighted>
0.0825

> <Gold.Chemscore.DEInternal.Weighted>
2.8342

> <Gold.Chemscore.Rot.Weighted>
3.4638

> <Gold.Chemscore.Internal.Correction.Weighted>
   9.000000E+99

> <Gold.Protein.RotatedTorsions>
[ 6907 6896 6895 6894 ] final  -95.33 input  -60.11 | X-H torsion
[ 7974 7965 7964 7962 ] final   85.81 input  175.53 | X-H torsion
[ 8008 7997 7996 7995 ] final  -57.92 input   59.86 | X-H torsion
[ 10167 10162 10161 10158 ] final  146.91 input  -65.29 | X-H torsion
[ 10718 10713 10712 10709 ] final  -78.56 input   66.30 | X-H torsion
[ 10763 10752 10751 10750 ] final   58.91 input  -60.55 | X-H torsion
[ 11005 11000 10999 10996 ] final  -95.59 input  -57.11 | X-H torsion

> <Gold.Protein.ActiveResidues>
 VAL166  LYS551  ARG553  GLY616  TRP617  ASP618  TYR619  PRO620  LYS621  CYS622 
 ASP623  PHE694  ASN695  SER759  ASP760  ASP761  ALA762  ILE779  LEU786  VAL792 
 PHE793  MET794  SER795  GLU796  ALA797  LYS798  CYS799  TRP800  GLU811  SER814 

> <Gold.Protein.RotatedAtoms>
  150.6961  134.1675  159.4199 H   0  0  0  0  0  0  0  0  0  0  0  0  # atno 6907 bound_to 6896
  151.9653  135.0101  160.0559 H   0  0  0  0  0  0  0  0  0  0  0  0  # atno 6908 bound_to 6896
  152.1890  133.4725  159.5034 H   0  0  0  0  0  0  0  0  0  0  0  0  # atno 6909 bound_to 6896
  145.5806  139.2324  143.2355 H   0  0  0  0  0  0  0  0  0  0  0  0  # atno 7974 bound_to 7965
  154.4287  140.1096  156.5874 H   0  0  0  0  0  0  0  0  0  0  0  0  # atno 8008 bound_to 7997
  155.6048  140.3493  155.4586 H   0  0  0  0  0  0  0  0  0  0  0  0  # atno 8009 bound_to 7997
  156.0145  140.1226  157.0410 H   0  0  0  0  0  0  0  0  0  0  0  0  # atno 8010 bound_to 7997
  139.4899  144.5795  151.6900 H   0  0  0  0  0  0  0  0  0  0  0  0  # atno 10167 bound_to 10162
  156.0114  130.4521  150.3516 H   0  0  0  0  0  0  0  0  0  0  0  0  # atno 10718 bound_to 10713
  152.9881  135.5590  154.5627 H   0  0  0  0  0  0  0  0  0  0  0  0  # atno 10763 bound_to 10752
  154.5043  135.2799  155.1397 H   0  0  0  0  0  0  0  0  0  0  0  0  # atno 10764 bound_to 10752
  154.2815  135.6344  153.5402 H   0  0  0  0  0  0  0  0  0  0  0  0  # atno 10765 bound_to 10752
  141.1437  133.8037  157.0456 H   0  0  0  0  0  0  0  0  0  0  0  0  # atno 11005 bound_to 11000
  146.1719  140.6633  142.9229 LP  0  0  0  0  0  0  0  0  0  0  0  0  # atno 17320 bound_to 7965
  144.7396  140.4904  143.6879 LP  0  0  0  0  0  0  0  0  0  0  0  0  # atno 17321 bound_to 7965
  140.5398  144.0597  150.6084 LP  0  0  0  0  0  0  0  0  0  0  0  0  # atno 17342 bound_to 10162
  140.3616  143.2905  152.0378 LP  0  0  0  0  0  0  0  0  0  0  0  0  # atno 17343 bound_to 10162
  157.1608  131.0344  151.2842 LP  0  0  0  0  0  0  0  0  0  0  0  0  # atno 17370 bound_to 10713
  157.4313  130.7492  149.6992 LP  0  0  0  0  0  0  0  0  0  0  0  0  # atno 17371 bound_to 10713
  140.0665  134.9726  157.1394 LP  0  0  0  0  0  0  0  0  0  0  0  0  # atno 17394 bound_to 11000
  140.3773  134.2326  155.7173 LP  0  0  0  0  0  0  0  0  0  0  0  0  # atno 17395 bound_to 11000

$$$$
