AV-unprocessed.smi:158|AV-procd|sdf|1324|dock2
  -GOLD-   2262019 13D 1   1.00000     0.00000
 Structure written by MMmdl.
 31 33  0  0  0  0  0  0  0  0  1 V2000
  146.8001  140.4456  152.2925 N   0  0  0  0  0  0  0  0  0  0  0  0
  146.5823  139.2348  152.8250 C   0  0  0  0  0  0  0  0  0  0  0  0
  146.5717  139.1163  154.1732 N   0  0  0  0  0  0  0  0  0  0  0  0
  146.3575  137.9250  154.7450 C   0  0  0  0  0  0  0  0  0  0  0  0
  146.3652  137.8876  156.4686 Cl  0  0  0  0  0  0  0  0  0  0  0  0
  146.1355  136.7587  154.1300 N   0  0  0  0  0  0  0  0  0  0  0  0
  146.1456  136.8729  152.7706 C   0  0  0  0  0  0  0  0  0  0  0  0
  146.3623  138.0741  152.0437 C   0  0  0  0  0  0  0  0  0  0  0  0
  146.3048  137.8196  150.6805 N   0  0  0  0  0  0  0  0  0  0  0  0
  146.0674  136.5368  150.6110 C   0  0  0  0  0  0  0  0  0  0  0  0
  145.9495  135.8894  151.8217 N   0  0  0  0  0  0  0  0  0  0  0  0
  145.6918  134.4347  152.0545 C   0  0  1  0  0  0  0  0  0  0  0  0
  144.4619  134.0980  151.4856 O   0  0  0  0  0  0  0  0  0  0  0  0
  144.6256  133.0892  150.4894 C   0  0  2  0  0  0  0  0  0  0  0  0
  143.4142  132.1438  150.5015 C   0  0  0  0  0  0  0  0  0  0  0  0
  142.8219  132.0947  149.2212 O   0  0  0  0  0  0  0  0  0  0  0  0
  145.9356  132.4002  150.8839 C   0  0  1  0  0  0  0  0  0  0  0  0
  146.5580  131.7890  149.7718 O   0  0  0  0  0  0  0  0  0  0  0  0
  146.7641  133.5600  151.4001 C   0  0  2  0  0  0  0  0  0  0  0  0
  147.6540  133.1671  152.3121 F   0  0  0  0  0  0  0  0  0  0  0  0
  145.6375  134.3198  153.1380 H   0  0  0  0  0  0  0  0  0  0  0  0
  144.7407  133.5629  149.5132 H   0  0  0  0  0  0  0  0  0  0  0  0
  145.7639  131.6715  151.6776 H   0  0  0  0  0  0  0  0  0  0  0  0
  147.2771  134.0945  150.5994 H   0  0  0  0  0  0  0  0  0  0  0  0
  146.8121  140.5585  151.2888 H   0  0  0  0  0  0  0  0  0  0  0  0
  146.9538  141.2415  152.8946 H   0  0  0  0  0  0  0  0  0  0  0  0
  145.9682  136.0239  149.6653 H   0  0  0  0  0  0  0  0  0  0  0  0
  143.7318  131.1310  150.7520 H   0  0  0  0  0  0  0  0  0  0  0  0
  142.6812  132.4473  151.2494 H   0  0  0  0  0  0  0  0  0  0  0  0
  142.1834  132.7883  149.1584 H   0  0  0  0  0  0  0  0  0  0  0  0
  147.4732  131.6624  149.9714 H   0  0  0  0  0  0  0  0  0  0  0  0
  1  2  1  0  0  0  0
  1 25  1  0  0  0  0
  1 26  1  0  0  0  0
  2  8  1  0  0  0  0
  2  3  2  0  0  0  0
  3  4  1  0  0  0  0
  4  5  1  0  0  0  0
  4  6  2  0  0  0  0
  6  7  1  0  0  0  0
  7 11  1  0  0  0  0
  7  8  2  0  0  0  0
  8  9  1  0  0  0  0
  9 10  2  0  0  0  0
 10 11  1  0  0  0  0
 10 27  1  0  0  0  0
 11 12  1  0  0  0  0
 12 21  1  0  0  0  0
 12 19  1  0  0  0  0
 12 13  1  0  0  0  0
 13 14  1  0  0  0  0
 14 22  1  0  0  0  0
 14 15  1  0  0  0  0
 14 17  1  0  0  0  0
 15 16  1  0  0  0  0
 15 28  1  0  0  0  0
 15 29  1  0  0  0  0
 16 30  1  0  0  0  0
 17 23  1  0  0  0  0
 17 18  1  0  0  0  0
 17 19  1  0  0  0  0
 18 31  1  0  0  0  0
 19 24  1  0  0  0  0
 19 20  1  0  0  0  0
M  END
> <s_m_source_file>
AV-unprocessed.smi

> <i_m_source_file_index>
158

> <i_lp_mmshare_version>
43012

> <i_f3d_flags>
0

> <s_epik_input>
Q2xjKG4xKW5jKFtOSDJdKWMoYzEyKW5bY0hdbjJbQ0BASF0zT1tDQEhdKFtDSDJdW09IXSlbQ0BASF0oW09IXSlbQ0BASF0zRg==

> <s_epik_cmdline>
J2VwaWtfcHl0aG9uJywgJy1waCcsICc3LjAnLCAnLXRuJywgJzgnLCAnLW1hJywgJzIwMCcsICctbWV0YWxfYmluZGluZycsICctaW1hZScsICc8aW5maWxlLm1hZT4nLCAnLW9tYWUnLCAnPG91dGZpbGUubWFlPic=

> <r_lp_tautomer_probability>
1

> <r_epik_Ionization_Penalty>
6.51543e-05

> <r_epik_Ionization_Penalty_Charging>
0

> <r_epik_Ionization_Penalty_Neutral>
6.51543e-05

> <r_epik_State_Penalty>
-0

> <r_epik_Charging_Adjusted_Penalty>
0

> <i_epik_Tot_Q>
0

> <i_epik_Tot_abs_Q>
0

> <r_epik_Metal_State_Penalty>
-0

> <b_epik_Metal_Only>
0

> <s_epik_Chemistry_Notes>
This compound contains an acetal/aminal-like group ( X-CH(R)-Y where X, Y are N, S, or O) that may be acid/base labile, releasing an aldehyde.

> <s_lp_Force_Field>
OPLS_2005

> <r_lp_Energy>
33.0982

> <b_lp_Chiralities_Consistent>
1

> <s_lp_Variant>
AV-unprocessed.smi:158-2

> <Gold.Version>
5.8.1

> <Gold.Id.Protein>
6NUR|6NUR_protein|mol2

> <Gold.PLP.Fitness>
40.8117

> <Gold.PLP.PLP>
-27.4254

> <Gold.PLP.part.hbond>
-6.7364

> <Gold.PLP.part.metal>
0.0000

> <Gold.PLP.part.buried>
-0.0479

> <Gold.PLP.part.nonpolar>
-24.7311

> <Gold.PLP.part.repulsive>
3.5166

> <Gold.PLP.ligand.clash>
0.0000

> <Gold.PLP.ligand.torsion>
0.7486

> <Gold.PLP.Chemscore.Hbond>
3.9583

> <Gold.PLP.Chemscore.CHOScore>
1.0000

> <Gold.PLP.Chemscore.Metal>
0.0000

> <Gold.Chemscore.Hbonds>
donor molecule, donor type, donor heavy atom, donor atom, acceptor molecule, acceptor atom, score
      L1  H    16    30       P1 10186  0.99
      L1  H    18    31       P1 10747  1.00
      P1  H  7954  7966       L1     9  0.99
      P1  H 10785 10796       L1    16  0.98
      L1  C    10    27       P1  7921  1.00

> <Gold.PLP.Chemscore.Internal.Correction>
0.0087

> <Gold.Rescore>
     Score         DG    S(hbond)    S(metal)    S(lipo)     H(rot)  DE(clash)    DE(int)     intcor
      7.60     -11.69       2.92        0.00      38.03       3.12       3.33       0.75       ----

> <Gold.Chemscore.Fitness>
7.6006

> <Gold.Chemscore.DG>
-11.6856

> <Gold.Chemscore.ZeroCoef>
-5.4800

> <Gold.Chemscore.Hbond>
2.9194

> <Gold.Chemscore.Metal>
0.0000

> <Gold.Chemscore.Lipo>
38.0325

> <Gold.Chemscore.Internal_Hbond>
0.0000

> <Gold.Chemscore.DEClash>
3.3345

> <Gold.Chemscore.DEInternal>
0.7505

> <Gold.Chemscore.Rot>
3.1230

> <Gold.Chemscore.Internal.Correction>
   9.000000E+99

> <Gold.Chemscore.Hbonds>
donor molecule, donor type, donor heavy atom, donor atom, acceptor molecule, acceptor atom, score
      L1  H    16    30       P1 10186  0.92
      L1  H    18    31       P1 10747  1.00
      P1  H  7954  7966       L1     9  0.18
      P1  H 10785 10796       L1    16  0.23

> <Gold.Chemscore.Hbond.Weighted>
-9.7508

> <Gold.Chemscore.Metal.Weighted>
-0.0000

> <Gold.Chemscore.Lipo.Weighted>
-4.4498

> <Gold.Chemscore.Internal_Hbond.Weighted>
0.0000

> <Gold.Chemscore.DEClash.Weighted>
3.3345

> <Gold.Chemscore.DEInternal.Weighted>
0.7505

> <Gold.Chemscore.Rot.Weighted>
7.9950

> <Gold.Chemscore.Internal.Correction.Weighted>
   9.000000E+99

> <Gold.Protein.RotatedTorsions>
[ 6907 6896 6895 6894 ] final   -5.32 input  -60.11 | X-H torsion
[ 7974 7965 7964 7962 ] final  -40.20 input  175.53 | X-H torsion
[ 8008 7997 7996 7995 ] final  -15.83 input   59.86 | X-H torsion
[ 10167 10162 10161 10158 ] final  144.51 input  -65.29 | X-H torsion
[ 10718 10713 10712 10709 ] final   70.62 input   66.30 | X-H torsion
[ 10763 10752 10751 10750 ] final  -48.03 input  -60.55 | X-H torsion
[ 11005 11000 10999 10996 ] final   24.26 input  -57.11 | X-H torsion

> <Gold.Protein.ActiveResidues>
 VAL166  LYS551  ARG553  GLY616  TRP617  ASP618  TYR619  PRO620  LYS621  CYS622 
 ASP623  PHE694  ASN695  SER759  ASP760  ASP761  ALA762  ILE779  LEU786  VAL792 
 PHE793  MET794  SER795  GLU796  ALA797  LYS798  CYS799  TRP800  GLU811  SER814 

> <Gold.Protein.RotatedAtoms>
  151.4835  135.1053  159.9783 H   0  0  0  0  0  0  0  0  0  0  0  0  # atno 6907 bound_to 6896
  152.4769  133.8157  159.7037 H   0  0  0  0  0  0  0  0  0  0  0  0  # atno 6908 bound_to 6896
  150.8814  133.7305  159.2957 H   0  0  0  0  0  0  0  0  0  0  0  0  # atno 6909 bound_to 6896
  146.0326  140.6712  142.9125 H   0  0  0  0  0  0  0  0  0  0  0  0  # atno 7974 bound_to 7965
  154.5100  140.2186  155.9175 H   0  0  0  0  0  0  0  0  0  0  0  0  # atno 8008 bound_to 7997
  156.1540  140.3155  155.8662 H   0  0  0  0  0  0  0  0  0  0  0  0  # atno 8009 bound_to 7997
  155.3882  140.0476  157.3032 H   0  0  0  0  0  0  0  0  0  0  0  0  # atno 8010 bound_to 7997
  139.4945  144.5967  151.6569 H   0  0  0  0  0  0  0  0  0  0  0  0  # atno 10167 bound_to 10162
  157.6409  130.9486  150.0676 H   0  0  0  0  0  0  0  0  0  0  0  0  # atno 10718 bound_to 10713
  154.0710  135.6604  153.4824 H   0  0  0  0  0  0  0  0  0  0  0  0  # atno 10763 bound_to 10752
  153.0391  135.5157  154.7566 H   0  0  0  0  0  0  0  0  0  0  0  0  # atno 10764 bound_to 10752
  154.6632  135.3018  154.9806 H   0  0  0  0  0  0  0  0  0  0  0  0  # atno 10765 bound_to 10752
  140.3606  134.2130  155.7672 H   0  0  0  0  0  0  0  0  0  0  0  0  # atno 11005 bound_to 11000
  144.7037  140.3763  143.7135 LP  0  0  0  0  0  0  0  0  0  0  0  0  # atno 17320 bound_to 7965
  145.7016  139.1662  143.2590 LP  0  0  0  0  0  0  0  0  0  0  0  0  # atno 17321 bound_to 7965
  140.5606  144.0274  150.6168 LP  0  0  0  0  0  0  0  0  0  0  0  0  # atno 17342 bound_to 10162
  140.3359  143.3049  152.0639 LP  0  0  0  0  0  0  0  0  0  0  0  0  # atno 17343 bound_to 10162
  156.1690  130.3646  149.9192 LP  0  0  0  0  0  0  0  0  0  0  0  0  # atno 17370 bound_to 10713
  156.7172  130.8993  151.3615 LP  0  0  0  0  0  0  0  0  0  0  0  0  # atno 17371 bound_to 10713
  141.1985  133.8033  157.0579 LP  0  0  0  0  0  0  0  0  0  0  0  0  # atno 17394 bound_to 11000
  140.0630  134.9744  157.1337 LP  0  0  0  0  0  0  0  0  0  0  0  0  # atno 17395 bound_to 11000

$$$$
