AV-unprocessed.smi:15|AV-procd|sdf|85|dock5
  -GOLD-   2262015223D 1   1.00000     0.00000
 Structure written by MMmdl.
 53 56  0  0  0  0  0  0  0  0  1 V2000
  152.5108  138.8197  155.4082 C   0  0  0  0  0  0  0  0  0  0  0  0
  151.4534  139.9208  155.5878 C   0  0  0  0  0  0  0  0  0  0  0  0
  151.2659  140.3240  156.9820 N   0  0  0  0  0  0  0  0  0  0  0  0
  150.2747  141.3633  157.2472 C   0  0  0  0  0  0  0  0  0  0  0  0
  150.7831  142.4121  158.2488 C   0  0  2  0  0  0  0  0  0  0  0  0
  151.5536  143.5671  157.6093 C   0  0  0  0  0  0  0  0  0  0  0  0
  152.4819  144.0377  158.7186 C   0  0  0  0  0  0  0  0  0  0  0  0
  152.4289  142.9117  159.7552 C   0  0  0  0  0  0  0  0  0  0  0  0
  151.7563  141.8409  159.1075 O   0  0  0  0  0  0  0  0  0  0  0  0
  151.1806  139.3080  157.8681 C   0  0  0  0  0  0  0  0  0  0  0  0
  152.3259  138.9240  158.4830 N   0  0  0  0  0  0  0  0  0  0  0  0
  152.3033  137.9226  159.3677 C   0  0  0  0  0  0  0  0  0  0  0  0
  151.2634  137.1916  159.7760 N   0  0  0  0  0  0  0  0  0  0  0  0
  150.1083  137.5860  159.1664 C   0  0  0  0  0  0  0  0  0  0  0  0
  149.9772  138.6284  158.2066 C   0  0  0  0  0  0  0  0  0  0  0  0
  148.6506  138.7458  157.8104 N   0  0  0  0  0  0  0  0  0  0  0  0
  148.0332  137.8206  158.4934 C   0  0  0  0  0  0  0  0  0  0  0  0
  148.8313  137.0803  159.3367 N   0  0  0  0  0  0  0  0  0  0  0  0
  148.4072  135.9944  160.2081 C   0  0  0  0  0  0  0  0  0  0  0  0
  147.8238  134.7793  159.4403 C   0  0  2  0  0  0  0  0  0  0  0  0
  148.8333  134.2903  158.5724 O   0  0  0  0  0  0  0  0  0  0  0  0
  146.6014  135.1175  158.5928 C   0  0  0  0  0  0  0  0  0  0  0  0
  145.8585  133.7920  158.5253 C   0  0  0  0  0  0  0  0  0  0  0  0
  146.0176  133.2819  159.8376 O   0  0  0  0  0  0  0  0  0  0  0  0
  147.3309  133.5845  160.3047 C   0  0  2  0  0  0  0  0  0  0  0  0
  147.2324  133.8238  161.8196 C   0  0  0  0  0  0  0  0  0  0  0  0
  152.6618  138.6019  154.3510 H   0  0  0  0  0  0  0  0  0  0  0  0
  152.2152  137.8891  155.8936 H   0  0  0  0  0  0  0  0  0  0  0  0
  153.4708  139.1268  155.8240 H   0  0  0  0  0  0  0  0  0  0  0  0
  151.7589  140.7909  155.0078 H   0  0  0  0  0  0  0  0  0  0  0  0
  150.5028  139.5958  155.1648 H   0  0  0  0  0  0  0  0  0  0  0  0
  150.0198  141.8518  156.3060 H   0  0  0  0  0  0  0  0  0  0  0  0
  149.3487  140.9257  157.6257 H   0  0  0  0  0  0  0  0  0  0  0  0
  149.9682  142.7964  158.8645 H   0  0  0  0  0  0  0  0  0  0  0  0
  152.1456  143.2051  156.7675 H   0  0  0  0  0  0  0  0  0  0  0  0
  150.8958  144.3553  157.2415 H   0  0  0  0  0  0  0  0  0  0  0  0
  153.4931  144.1876  158.3388 H   0  0  0  0  0  0  0  0  0  0  0  0
  152.1437  144.9786  159.1540 H   0  0  0  0  0  0  0  0  0  0  0  0
  153.4191  142.6065  160.0940 H   0  0  0  0  0  0  0  0  0  0  0  0
  151.8514  143.2215  160.6275 H   0  0  0  0  0  0  0  0  0  0  0  0
  153.2549  137.6705  159.8120 H   0  0  0  0  0  0  0  0  0  0  0  0
  146.9692  137.6545  158.4049 H   0  0  0  0  0  0  0  0  0  0  0  0
  149.2637  135.6884  160.8105 H   0  0  0  0  0  0  0  0  0  0  0  0
  147.6707  136.3987  160.9026 H   0  0  0  0  0  0  0  0  0  0  0  0
  148.6043  134.5244  157.6860 H   0  0  0  0  0  0  0  0  0  0  0  0
  145.9742  135.8431  159.1120 H   0  0  0  0  0  0  0  0  0  0  0  0
  146.8426  135.5278  157.6110 H   0  0  0  0  0  0  0  0  0  0  0  0
  144.8069  133.9089  158.2632 H   0  0  0  0  0  0  0  0  0  0  0  0
  146.3233  133.1153  157.8066 H   0  0  0  0  0  0  0  0  0  0  0  0
  147.9568  132.7061  160.1357 H   0  0  0  0  0  0  0  0  0  0  0  0
  148.2065  134.0509  162.2527 H   0  0  0  0  0  0  0  0  0  0  0  0
  146.8511  132.9359  162.3244 H   0  0  0  0  0  0  0  0  0  0  0  0
  146.5545  134.6458  162.0508 H   0  0  0  0  0  0  0  0  0  0  0  0
  1  2  1  0  0  0  0
  1 27  1  0  0  0  0
  1 28  1  0  0  0  0
  1 29  1  0  0  0  0
  2  3  1  0  0  0  0
  2 30  1  0  0  0  0
  2 31  1  0  0  0  0
  3  4  1  0  0  0  0
  3 10  1  0  0  0  0
  4  5  1  0  0  0  0
  4 32  1  0  0  0  0
  4 33  1  0  0  0  0
  5  9  1  0  0  0  0
  5  6  1  0  0  0  0
  5 34  1  0  0  0  0
  6  7  1  0  0  0  0
  6 35  1  0  0  0  0
  6 36  1  0  0  0  0
  7  8  1  0  0  0  0
  7 37  1  0  0  0  0
  7 38  1  0  0  0  0
  8  9  1  0  0  0  0
  8 39  1  0  0  0  0
  8 40  1  0  0  0  0
 10 15  1  0  0  0  0
 10 11  2  0  0  0  0
 11 12  1  0  0  0  0
 12 13  2  0  0  0  0
 12 41  1  0  0  0  0
 13 14  1  0  0  0  0
 14 18  1  0  0  0  0
 14 15  2  0  0  0  0
 15 16  1  0  0  0  0
 16 17  2  0  0  0  0
 17 18  1  0  0  0  0
 17 42  1  0  0  0  0
 18 19  1  0  0  0  0
 19 20  1  0  0  0  0
 19 43  1  0  0  0  0
 19 44  1  0  0  0  0
 20 25  1  0  0  0  0
 20 21  1  0  0  0  0
 20 22  1  0  0  0  0
 21 45  1  0  0  0  0
 22 23  1  0  0  0  0
 22 46  1  0  0  0  0
 22 47  1  0  0  0  0
 23 24  1  0  0  0  0
 23 48  1  0  0  0  0
 23 49  1  0  0  0  0
 24 25  1  0  0  0  0
 25 26  1  0  0  0  0
 25 50  1  0  0  0  0
 26 51  1  0  0  0  0
 26 52  1  0  0  0  0
 26 53  1  0  0  0  0
M  END
> <s_m_source_file>
AV-unprocessed.smi

> <i_m_source_file_index>
15

> <i_lp_mmshare_version>
43012

> <i_f3d_flags>
0

> <s_epik_input>
TzFbQ0gyXVtDSDJdW0NIMl1bQ0BIXTFbQ0gyXU4oW0NIMl1bQ0gzXSljKG5bY0hdbjIpYyhjMjMpbltjSF1uM1tDSDJdW0NAQF00KFtPSF0pW0NIMl1bQ0gyXU9bQ0BIXTRbQ0gzXQ==

> <s_epik_cmdline>
J2VwaWtfcHl0aG9uJywgJy1waCcsICc3LjAnLCAnLXRuJywgJzgnLCAnLW1hJywgJzIwMCcsICctbWV0YWxfYmluZGluZycsICctaW1hZScsICc8aW5maWxlLm1hZT4nLCAnLW9tYWUnLCAnPG91dGZpbGUubWFlPic=

> <r_lp_tautomer_probability>
1

> <r_epik_Ionization_Penalty>
0.00360814

> <r_epik_Ionization_Penalty_Charging>
0

> <r_epik_Ionization_Penalty_Neutral>
0.00360814

> <r_epik_State_Penalty>
0.00237482

> <r_epik_Charging_Adjusted_Penalty>
0.00237482

> <i_epik_Tot_Q>
0

> <i_epik_Tot_abs_Q>
0

> <r_epik_Metal_State_Penalty>
-0

> <b_epik_Metal_Only>
0

> <s_lp_Force_Field>
OPLS_2005

> <r_lp_Energy>
47.4065

> <b_lp_Chiralities_Consistent>
1

> <s_lp_Variant>
AV-unprocessed.smi:15-7

> <Gold.Version>
5.8.1

> <Gold.Id.Protein>
6NUR|6NUR_protein|mol2

> <Gold.PLP.Fitness>
44.7150

> <Gold.PLP.PLP>
-40.8321

> <Gold.PLP.part.hbond>
-2.0000

> <Gold.PLP.part.metal>
0.0000

> <Gold.PLP.part.buried>
-5.7679

> <Gold.PLP.part.nonpolar>
-34.1325

> <Gold.PLP.part.repulsive>
0.0000

> <Gold.PLP.ligand.clash>
0.0000

> <Gold.PLP.ligand.torsion>
1.3684

> <Gold.PLP.Chemscore.Hbond>
2.0000

> <Gold.PLP.Chemscore.CHOScore>
0.0000

> <Gold.PLP.Chemscore.Metal>
0.0000

> <Gold.Chemscore.Hbonds>
donor molecule, donor type, donor heavy atom, donor atom, acceptor molecule, acceptor atom, score
      P1  H  6896  6907       L1    21  0.94
      P1  H  6896  6908       L1    13  0.86

> <Gold.PLP.Chemscore.Internal.Correction>
0.6196

> <Gold.Rescore>
     Score         DG    S(hbond)    S(metal)    S(lipo)     H(rot)  DE(clash)    DE(int)     intcor
     14.31     -15.89       1.91        0.00      93.73       2.71       0.09       1.49       ----

> <Gold.Chemscore.Fitness>
14.3100

> <Gold.Chemscore.DG>
-15.8886

> <Gold.Chemscore.ZeroCoef>
-5.4800

> <Gold.Chemscore.Hbond>
1.9081

> <Gold.Chemscore.Metal>
0.0000

> <Gold.Chemscore.Lipo>
93.7295

> <Gold.Chemscore.Internal_Hbond>
0.0000

> <Gold.Chemscore.DEClash>
0.0853

> <Gold.Chemscore.DEInternal>
1.4933

> <Gold.Chemscore.Rot>
2.7074

> <Gold.Chemscore.Internal.Correction>
   9.000000E+99

> <Gold.Chemscore.Hbonds>
donor molecule, donor type, donor heavy atom, donor atom, acceptor molecule, acceptor atom, score
      P1  H  6896  6907       L1    21  0.85
      P1  H  6896  6908       L1    13  0.72

> <Gold.Chemscore.Hbond.Weighted>
-6.3731

> <Gold.Chemscore.Metal.Weighted>
-0.0000

> <Gold.Chemscore.Lipo.Weighted>
-10.9663

> <Gold.Chemscore.Internal_Hbond.Weighted>
0.0000

> <Gold.Chemscore.DEClash.Weighted>
0.0853

> <Gold.Chemscore.DEInternal.Weighted>
1.4933

> <Gold.Chemscore.Rot.Weighted>
6.9308

> <Gold.Chemscore.Internal.Correction.Weighted>
   9.000000E+99

> <Gold.Protein.RotatedTorsions>
[ 6907 6896 6895 6894 ] final -112.67 input  -60.11 | X-H torsion
[ 7974 7965 7964 7962 ] final  -91.29 input  175.53 | X-H torsion
[ 8008 7997 7996 7995 ] final -132.50 input   59.86 | X-H torsion
[ 10167 10162 10161 10158 ] final -146.13 input  -65.29 | X-H torsion
[ 10718 10713 10712 10709 ] final  -77.48 input   66.30 | X-H torsion
[ 10763 10752 10751 10750 ] final   38.23 input  -60.55 | X-H torsion
[ 11005 11000 10999 10996 ] final  147.28 input  -57.11 | X-H torsion

> <Gold.Protein.ActiveResidues>
 VAL166  LYS551  ARG553  GLY616  TRP617  ASP618  TYR619  PRO620  LYS621  CYS622 
 ASP623  PHE694  ASN695  SER759  ASP760  ASP761  ALA762  ILE779  LEU786  VAL792 
 PHE793  MET794  SER795  GLU796  ALA797  LYS798  CYS799  TRP800  GLU811  SER814 

> <Gold.Protein.RotatedAtoms>
  150.7775  133.9055  159.3353 H   0  0  0  0  0  0  0  0  0  0  0  0  # atno 6907 bound_to 6896
  151.6926  135.0942  160.0246 H   0  0  0  0  0  0  0  0  0  0  0  0  # atno 6908 bound_to 6896
  152.3815  133.6515  159.6201 H   0  0  0  0  0  0  0  0  0  0  0  0  # atno 6909 bound_to 6896
  145.4152  140.9547  143.2212 H   0  0  0  0  0  0  0  0  0  0  0  0  # atno 7974 bound_to 7965
  155.3299  140.0466  157.3042 H   0  0  0  0  0  0  0  0  0  0  0  0  # atno 8008 bound_to 7997
  154.5334  140.2264  155.8731 H   0  0  0  0  0  0  0  0  0  0  0  0  # atno 8009 bound_to 7997
  156.1811  140.3073  155.9156 H   0  0  0  0  0  0  0  0  0  0  0  0  # atno 8010 bound_to 7997
  139.7741  143.8195  152.2629 H   0  0  0  0  0  0  0  0  0  0  0  0  # atno 10167 bound_to 10162
  156.0144  130.4492  150.3351 H   0  0  0  0  0  0  0  0  0  0  0  0  # atno 10718 bound_to 10713
  153.0008  135.6255  154.2272 H   0  0  0  0  0  0  0  0  0  0  0  0  # atno 10763 bound_to 10752
  154.2015  135.2804  155.2991 H   0  0  0  0  0  0  0  0  0  0  0  0  # atno 10764 bound_to 10752
  154.5680  135.5685  153.7127 H   0  0  0  0  0  0  0  0  0  0  0  0  # atno 10765 bound_to 10752
  140.0862  134.9068  157.1580 H   0  0  0  0  0  0  0  0  0  0  0  0  # atno 11005 bound_to 11000
  144.8282  139.5673  143.6956 LP  0  0  0  0  0  0  0  0  0  0  0  0  # atno 17320 bound_to 7965
  146.2685  139.6577  142.9313 LP  0  0  0  0  0  0  0  0  0  0  0  0  # atno 17321 bound_to 7965
  139.8238  144.7284  150.9538 LP  0  0  0  0  0  0  0  0  0  0  0  0  # atno 17342 bound_to 10162
  140.7815  143.4134  151.0956 LP  0  0  0  0  0  0  0  0  0  0  0  0  # atno 17343 bound_to 10162
  157.1448  131.0306  151.2912 LP  0  0  0  0  0  0  0  0  0  0  0  0  # atno 17370 bound_to 10713
  157.4442  130.7561  149.7095 LP  0  0  0  0  0  0  0  0  0  0  0  0  # atno 17371 bound_to 10713
  140.3416  134.2697  155.7211 LP  0  0  0  0  0  0  0  0  0  0  0  0  # atno 17394 bound_to 11000
  141.2063  133.7836  157.0183 LP  0  0  0  0  0  0  0  0  0  0  0  0  # atno 17395 bound_to 11000

$$$$
