AV-unprocessed.smi:1033|AV-procd|sdf|4503|dock10
  -GOLD-   22720 2503D 1   1.00000     0.00000
 Structure written by MMmdl.
 57 59  0  0  0  0  0  0  0  0  3 V2000
  152.8416  143.0827  160.4952 C   0  0  0  0  0  0  0  0  0  0  0  0
  152.3498  142.2603  159.3162 C   0  0  0  0  0  0  0  0  0  0  0  0
  151.4557  142.8609  158.4009 C   0  0  0  0  0  0  0  0  0  0  0  0
  151.0245  142.0838  157.3326 C   0  0  0  0  0  0  0  0  0  0  0  0
  150.1575  142.3770  156.2775 N   0  3  0  0  0  0  0  0  0  0  0  0
  150.0410  141.2871  155.4688 C   0  0  0  0  0  0  0  0  0  0  0  0
  150.8204  140.3030  155.9935 N   0  0  0  0  0  0  0  0  0  0  0  0
  151.0538  138.9318  155.5224 C   0  0  0  0  0  0  0  0  0  0  0  0
  150.1556  138.5462  154.3310 C   0  0  1  0  0  0  0  0  0  0  0  0
  150.6664  137.3721  153.7306 O   0  0  0  0  0  0  0  0  0  0  0  0
  148.7073  138.2767  154.7835 C   0  0  0  0  0  0  0  0  0  0  0  0
  147.7618  139.3791  154.5669 N   0  0  0  0  0  0  0  0  0  0  0  0
  147.4692  139.5985  153.1507 C   0  0  0  0  0  0  0  0  0  0  0  0
  146.5944  138.4900  152.5301 C   0  0  0  0  0  0  0  0  0  0  0  0
  145.3189  138.3541  153.2797 N   0  3  0  0  0  0  0  0  0  0  0  0
  144.4138  137.3426  152.6765 C   0  0  0  0  0  0  0  0  0  0  0  0
  143.0369  137.2873  153.3674 C   0  0  2  0  0  0  0  0  0  0  0  0
  142.2380  136.0427  152.9601 C   0  0  0  0  0  0  0  0  0  0  0  0
  142.2870  138.4293  153.0050 O   0  0  0  0  0  0  0  0  0  0  0  0
  145.5815  138.1337  154.7274 C   0  0  0  0  0  0  0  0  0  0  0  0
  146.4898  139.2493  155.2843 C   0  0  0  0  0  0  0  0  0  0  0  0
  151.4527  140.7539  157.1563 C   0  0  0  0  0  0  0  0  0  0  0  0
  152.3322  140.1458  158.0485 C   0  0  0  0  0  0  0  0  0  0  0  0
  152.7814  140.9194  159.1425 C   0  0  0  0  0  0  0  0  0  0  0  0
  153.7409  140.2832  160.1338 C   0  0  0  0  0  0  0  0  0  0  0  0
  152.4300  144.0923  160.4775 H   0  0  0  0  0  0  0  0  0  0  0  0
  153.9286  143.1665  160.4771 H   0  0  0  0  0  0  0  0  0  0  0  0
  152.5449  142.6184  161.4360 H   0  0  0  0  0  0  0  0  0  0  0  0
  151.1219  143.8806  158.5272 H   0  0  0  0  0  0  0  0  0  0  0  0
  149.4371  141.2148  154.5756 H   0  0  0  0  0  0  0  0  0  0  0  0
  152.1060  138.8570  155.2440 H   0  0  0  0  0  0  0  0  0  0  0  0
  150.9064  138.2503  156.3610 H   0  0  0  0  0  0  0  0  0  0  0  0
  150.1906  139.3495  153.5969 H   0  0  0  0  0  0  0  0  0  0  0  0
  149.9693  136.9568  153.2455 H   0  0  0  0  0  0  0  0  0  0  0  0
  148.3515  137.3903  154.2561 H   0  0  0  0  0  0  0  0  0  0  0  0
  148.7148  137.9997  155.8371 H   0  0  0  0  0  0  0  0  0  0  0  0
  146.9580  140.5556  153.0378 H   0  0  0  0  0  0  0  0  0  0  0  0
  148.4001  139.6934  152.5901 H   0  0  0  0  0  0  0  0  0  0  0  0
  146.3807  138.7433  151.4911 H   0  0  0  0  0  0  0  0  0  0  0  0
  147.1235  137.5360  152.5179 H   0  0  0  0  0  0  0  0  0  0  0  0
  144.2625  137.5691  151.6197 H   0  0  0  0  0  0  0  0  0  0  0  0
  144.8982  136.3654  152.7100 H   0  0  0  0  0  0  0  0  0  0  0  0
  143.1484  137.2810  154.4510 H   0  0  0  0  0  0  0  0  0  0  0  0
  142.7675  135.1304  153.2363 H   0  0  0  0  0  0  0  0  0  0  0  0
  142.0652  136.0133  151.8836 H   0  0  0  0  0  0  0  0  0  0  0  0
  141.2660  136.0201  153.4544 H   0  0  0  0  0  0  0  0  0  0  0  0
  142.8796  139.1552  152.8776 H   0  0  0  0  0  0  0  0  0  0  0  0
  144.6451  138.1373  155.2835 H   0  0  0  0  0  0  0  0  0  0  0  0
  146.0306  137.1523  154.8832 H   0  0  0  0  0  0  0  0  0  0  0  0
  146.6592  139.0933  156.3483 H   0  0  0  0  0  0  0  0  0  0  0  0
  145.9529  140.1966  155.2175 H   0  0  0  0  0  0  0  0  0  0  0  0
  152.6604  139.1258  157.9150 H   0  0  0  0  0  0  0  0  0  0  0  0
  153.9609  139.2486  159.8682 H   0  0  0  0  0  0  0  0  0  0  0  0
  153.3132  140.2853  161.1368 H   0  0  0  0  0  0  0  0  0  0  0  0
  154.6841  140.8290  160.1577 H   0  0  0  0  0  0  0  0  0  0  0  0
  144.8487  139.2445  153.1971 H   0  0  0  0  0  0  0  0  0  0  0  0
  149.6784  143.2538  156.1183 H   0  0  0  0  0  0  0  0  0  0  0  0
  1  2  1  0  0  0  0
  1 26  1  0  0  0  0
  1 27  1  0  0  0  0
  1 28  1  0  0  0  0
  2 24  1  0  0  0  0
  2  3  2  0  0  0  0
  3  4  1  0  0  0  0
  3 29  1  0  0  0  0
  4 22  2  0  0  0  0
  4  5  1  0  0  0  0
  5  6  2  0  0  0  0
  5 57  1  0  0  0  0
  6  7  1  0  0  0  0
  6 30  1  0  0  0  0
  7  8  1  0  0  0  0
  7 22  1  0  0  0  0
  8  9  1  0  0  0  0
  8 31  1  0  0  0  0
  8 32  1  0  0  0  0
  9 10  1  0  0  0  0
  9 11  1  0  0  0  0
  9 33  1  0  0  0  0
 10 34  1  0  0  0  0
 11 12  1  0  0  0  0
 11 35  1  0  0  0  0
 11 36  1  0  0  0  0
 12 21  1  0  0  0  0
 12 13  1  0  0  0  0
 13 14  1  0  0  0  0
 13 37  1  0  0  0  0
 13 38  1  0  0  0  0
 14 15  1  0  0  0  0
 14 39  1  0  0  0  0
 14 40  1  0  0  0  0
 15 16  1  0  0  0  0
 15 20  1  0  0  0  0
 15 56  1  0  0  0  0
 16 17  1  0  0  0  0
 16 41  1  0  0  0  0
 16 42  1  0  0  0  0
 17 18  1  0  0  0  0
 17 19  1  0  0  0  0
 17 43  1  0  0  0  0
 18 44  1  0  0  0  0
 18 45  1  0  0  0  0
 18 46  1  0  0  0  0
 19 47  1  0  0  0  0
 20 21  1  0  0  0  0
 20 48  1  0  0  0  0
 20 49  1  0  0  0  0
 21 50  1  0  0  0  0
 21 51  1  0  0  0  0
 22 23  1  0  0  0  0
 23 24  2  0  0  0  0
 23 52  1  0  0  0  0
 24 25  1  0  0  0  0
 25 53  1  0  0  0  0
 25 54  1  0  0  0  0
 25 55  1  0  0  0  0
M  CHG  1   5   1
M  CHG  1  15   1
M  END
> <s_m_source_file>
AV-unprocessed.smi

> <i_m_source_file_index>
1033

> <i_lp_mmshare_version>
43012

> <i_f3d_flags>
0

> <s_epik_input>
W0NIM11jKFtjSF0xKWMoW0NIM10pW2NIXWMoYzEyKW4oW2NIXW4yKVtDSDJdW0NASF0oW09IXSlbQ0gyXU4zW0NIMl1bQ0gyXU4oW0NIMl1bQ0gyXTMpW0NIMl1bQ0BIXShbQ0gzXSlbT0hd

> <s_epik_cmdline>
J2VwaWtfcHl0aG9uJywgJy1waCcsICc3LjAnLCAnLXRuJywgJzgnLCAnLW1hJywgJzIwMCcsICctbWV0YWxfYmluZGluZycsICctaW1hZScsICc8aW5maWxlLm1hZT4nLCAnLW9tYWUnLCAnPG91dGZpbGUubWFlPic=

> <r_epik_Ionization_Penalty>
1.28617

> <r_epik_Ionization_Penalty_Charging>
1.23646

> <r_epik_Ionization_Penalty_Neutral>
0.0497112

> <r_epik_State_Penalty>
1.79157

> <r_epik_Charging_Adjusted_Penalty>
3.02803

> <i_epik_Tot_Q>
2

> <i_epik_Tot_abs_Q>
2

> <r_epik_Metal_State_Penalty>
5.81739

> <b_epik_Metal_Only>
0

> <s_lp_Force_Field>
OPLS_2005

> <r_lp_Energy>
41.025

> <b_lp_Chiralities_Consistent>
1

> <s_lp_Variant>
AV-unprocessed.smi:1033-14

> <Gold.Version>
5.8.1

> <Gold.Id.Protein>
6NUR|6NUR_protein|mol2

> <Gold.PLP.Fitness>
62.6487

> <Gold.PLP.PLP>
-46.2293

> <Gold.PLP.part.hbond>
-5.0000

> <Gold.PLP.part.metal>
0.0000

> <Gold.PLP.part.buried>
-4.3364

> <Gold.PLP.part.nonpolar>
-38.0757

> <Gold.PLP.part.repulsive>
0.2315

> <Gold.PLP.ligand.clash>
0.0000

> <Gold.PLP.ligand.torsion>
0.8804

> <Gold.PLP.Chemscore.Hbond>
6.0000

> <Gold.PLP.Chemscore.CHOScore>
0.0000

> <Gold.PLP.Chemscore.Metal>
0.0000

> <Gold.Chemscore.Hbonds>
donor molecule, donor type, donor heavy atom, donor atom, acceptor molecule, acceptor atom, score
      L1  H     5    57       P1  8028  2.00
      L1  H    10    34       P1  7948  0.90
      L1  H    15    56       P1 10175  2.00
      L1  H    19    47       P1 10175  0.99

> <Gold.PLP.Chemscore.Internal.Correction>
0.1801

> <Gold.Rescore>
     Score         DG    S(hbond)    S(metal)    S(lipo)     H(rot)  DE(clash)    DE(int)     intcor
     21.51     -22.57       3.58        0.00     112.74       3.15       0.08       0.99       ----

> <Gold.Chemscore.Fitness>
21.5065

> <Gold.Chemscore.DG>
-22.5747

> <Gold.Chemscore.ZeroCoef>
-5.4800

> <Gold.Chemscore.Hbond>
3.5819

> <Gold.Chemscore.Metal>
0.0000

> <Gold.Chemscore.Lipo>
112.7422

> <Gold.Chemscore.Internal_Hbond>
0.0000

> <Gold.Chemscore.DEClash>
0.0777

> <Gold.Chemscore.DEInternal>
0.9905

> <Gold.Chemscore.Rot>
3.1483

> <Gold.Chemscore.Internal.Correction>
   9.000000E+99

> <Gold.Chemscore.Hbonds>
donor molecule, donor type, donor heavy atom, donor atom, acceptor molecule, acceptor atom, score
      L1  H     5    57       P1  8028  1.00
      L1  H    10    34       P1  7948  0.18
      L1  H    15    56       P1 10175  0.99
      L1  H    19    47       P1 10175  0.92

> <Gold.Chemscore.Hbond.Weighted>
-11.9635

> <Gold.Chemscore.Metal.Weighted>
-0.0000

> <Gold.Chemscore.Lipo.Weighted>
-13.1908

> <Gold.Chemscore.Internal_Hbond.Weighted>
0.0000

> <Gold.Chemscore.DEClash.Weighted>
0.0777

> <Gold.Chemscore.DEInternal.Weighted>
0.9905

> <Gold.Chemscore.Rot.Weighted>
8.0597

> <Gold.Chemscore.Internal.Correction.Weighted>
   9.000000E+99

> <Gold.Protein.RotatedTorsions>
[ 6907 6896 6895 6894 ] final   95.29 input  -60.11 | X-H torsion
[ 7974 7965 7964 7962 ] final -114.95 input  175.53 | X-H torsion
[ 8008 7997 7996 7995 ] final  -90.60 input   59.86 | X-H torsion
[ 10167 10162 10161 10158 ] final   -4.19 input  -65.29 | X-H torsion
[ 10718 10713 10712 10709 ] final   29.39 input   66.30 | X-H torsion
[ 10763 10752 10751 10750 ] final   84.78 input  -60.55 | X-H torsion
[ 11005 11000 10999 10996 ] final -169.88 input  -57.11 | X-H torsion

> <Gold.Protein.ActiveResidues>
 VAL166  LYS551  ARG553  GLY616  TRP617  ASP618  TYR619  PRO620  LYS621  CYS622 
 ASP623  PHE694  ASN695  SER759  ASP760  ASP761  ALA762  ILE779  LEU786  VAL792 
 PHE793  MET794  SER795  GLU796  ALA797  LYS798  CYS799  TRP800  GLU811  SER814 

> <Gold.Protein.RotatedAtoms>
  152.5444  134.1063  159.8338 H   0  0  0  0  0  0  0  0  0  0  0  0  # atno 6907 bound_to 6896
  151.1134  133.5149  159.2612 H   0  0  0  0  0  0  0  0  0  0  0  0  # atno 6908 bound_to 6896
  151.1858  135.0390  159.8866 H   0  0  0  0  0  0  0  0  0  0  0  0  # atno 6909 bound_to 6896
  145.1141  140.8629  143.3852 H   0  0  0  0  0  0  0  0  0  0  0  0  # atno 7974 bound_to 7965
  154.7005  140.0528  157.0453 H   0  0  0  0  0  0  0  0  0  0  0  0  # atno 8008 bound_to 7997
  155.0691  140.3197  155.4617 H   0  0  0  0  0  0  0  0  0  0  0  0  # atno 8009 bound_to 7997
  156.2758  140.2085  156.5819 H   0  0  0  0  0  0  0  0  0  0  0  0  # atno 8010 bound_to 7997
  140.6918  143.6452  150.8399 H   0  0  0  0  0  0  0  0  0  0  0  0  # atno 10167 bound_to 10162
  157.2460  130.7092  149.6381 H   0  0  0  0  0  0  0  0  0  0  0  0  # atno 10718 bound_to 10713
  153.1414  135.4641  154.9500 H   0  0  0  0  0  0  0  0  0  0  0  0  # atno 10763 bound_to 10752
  154.7750  135.3170  154.8114 H   0  0  0  0  0  0  0  0  0  0  0  0  # atno 10764 bound_to 10752
  153.8636  135.6910  153.4834 H   0  0  0  0  0  0  0  0  0  0  0  0  # atno 10765 bound_to 10752
  140.5258  134.5665  157.5061 H   0  0  0  0  0  0  0  0  0  0  0  0  # atno 11005 bound_to 11000
  145.0814  139.2957  143.5782 LP  0  0  0  0  0  0  0  0  0  0  0  0  # atno 17320 bound_to 7965
  146.3525  140.0321  142.8649 LP  0  0  0  0  0  0  0  0  0  0  0  0  # atno 17321 bound_to 7965
  140.0166  143.5586  152.2817 LP  0  0  0  0  0  0  0  0  0  0  0  0  # atno 17342 bound_to 10162
  139.6329  144.7646  151.2498 LP  0  0  0  0  0  0  0  0  0  0  0  0  # atno 17343 bound_to 10162
  155.9668  130.4443  150.5455 LP  0  0  0  0  0  0  0  0  0  0  0  0  # atno 17370 bound_to 10713
  157.3329  131.0703  151.1847 LP  0  0  0  0  0  0  0  0  0  0  0  0  # atno 17371 bound_to 10713
  139.9581  134.7500  156.0297 LP  0  0  0  0  0  0  0  0  0  0  0  0  # atno 17394 bound_to 11000
  141.1309  133.6587  156.3462 LP  0  0  0  0  0  0  0  0  0  0  0  0  # atno 17395 bound_to 11000

$$$$
