AV-unprocessed.smi:266|AV-procd|sdf|2034|dock7
  -GOLD-   2262021243D 1   1.00000     0.00000
 Structure written by MMmdl.
 52 55  0  0  0  0  0  0  0  0  1 V2000
  146.1849  131.4587  148.9471 C   0  0  0  0  0  0  0  0  0  0  0  0
  145.2048  132.5082  149.4944 C   0  0  1  0  0  0  0  0  0  0  0  0
  144.0084  131.8273  149.8638 O   0  0  0  0  0  0  0  0  0  0  0  0
  143.4103  132.5070  150.9535 C   0  0  0  0  0  0  0  0  0  0  0  0
  144.6139  132.8870  151.8020 C   0  0  0  0  0  0  0  0  0  0  0  0
  145.6529  133.2933  150.7603 C   0  0  2  0  0  0  0  0  0  0  0  0
  145.4788  134.6750  150.4912 O   0  0  0  0  0  0  0  0  0  0  0  0
  147.1176  133.0779  151.2247 C   0  0  0  0  0  0  0  0  0  0  0  0
  147.3179  133.3209  152.6459 N   0  0  0  0  0  0  0  0  0  0  0  0
  146.8939  134.4156  153.3612 C   0  0  0  0  0  0  0  0  0  0  0  0
  147.1990  134.4001  154.6287 N   0  0  0  0  0  0  0  0  0  0  0  0
  147.8958  133.2087  154.8113 C   0  0  0  0  0  0  0  0  0  0  0  0
  148.5144  132.5618  155.9285 C   0  0  0  0  0  0  0  0  0  0  0  0
  148.5468  133.0514  157.2043 N   0  0  0  0  0  0  0  0  0  0  0  0
  148.5932  132.1372  158.3394 C   0  0  0  0  0  0  0  0  0  0  0  0
  148.2868  134.4703  157.4664 C   0  0  0  0  0  0  0  0  0  0  0  0
  148.1268  134.7904  158.9671 C   0  0  2  0  0  0  0  0  0  0  0  0
  146.8032  134.2417  159.5339 C   0  0  0  0  0  0  0  0  0  0  0  0
  146.5932  134.8196  160.9368 C   0  0  0  0  0  0  0  0  0  0  0  0
  147.2939  136.5099  160.8805 S   0  0  0  0  0  0  0  0  0  0  0  0
  146.2087  137.4851  160.6941 O   0  0  0  0  0  0  0  0  0  0  0  0
  148.2689  136.6612  161.9710 O   0  0  0  0  0  0  0  0  0  0  0  0
  148.1788  136.2938  159.2897 C   0  0  0  0  0  0  0  0  0  0  0  0
  149.1084  131.3623  155.6815 N   0  0  0  0  0  0  0  0  0  0  0  0
  149.1132  130.8323  154.4566 C   0  0  0  0  0  0  0  0  0  0  0  0
  148.5855  131.3229  153.3366 N   0  0  0  0  0  0  0  0  0  0  0  0
  147.9783  132.5216  153.5632 C   0  0  0  0  0  0  0  0  0  0  0  0
  147.1248  131.9141  148.6345 H   0  0  0  0  0  0  0  0  0  0  0  0
  145.7620  130.9563  148.0770 H   0  0  0  0  0  0  0  0  0  0  0  0
  146.4056  130.6915  149.6898 H   0  0  0  0  0  0  0  0  0  0  0  0
  144.9555  133.1991  148.6866 H   0  0  0  0  0  0  0  0  0  0  0  0
  142.8839  133.3928  150.5946 H   0  0  0  0  0  0  0  0  0  0  0  0
  142.7016  131.8719  151.4850 H   0  0  0  0  0  0  0  0  0  0  0  0
  144.3964  133.6633  152.5371 H   0  0  0  0  0  0  0  0  0  0  0  0
  144.9504  132.0017  152.3427 H   0  0  0  0  0  0  0  0  0  0  0  0
  145.7262  134.8389  149.5941 H   0  0  0  0  0  0  0  0  0  0  0  0
  147.4382  132.0572  151.0159 H   0  0  0  0  0  0  0  0  0  0  0  0
  147.7924  133.7321  150.6711 H   0  0  0  0  0  0  0  0  0  0  0  0
  146.3433  135.2290  152.9118 H   0  0  0  0  0  0  0  0  0  0  0  0
  149.5212  131.5654  158.3348 H   0  0  0  0  0  0  0  0  0  0  0  0
  147.7499  131.4465  158.3151 H   0  0  0  0  0  0  0  0  0  0  0  0
  148.5486  132.6785  159.2844 H   0  0  0  0  0  0  0  0  0  0  0  0
  149.1033  135.0633  157.0526 H   0  0  0  0  0  0  0  0  0  0  0  0
  147.4015  134.7928  156.9172 H   0  0  0  0  0  0  0  0  0  0  0  0
  148.9311  134.3057  159.5224 H   0  0  0  0  0  0  0  0  0  0  0  0
  145.9790  134.5603  158.8942 H   0  0  0  0  0  0  0  0  0  0  0  0
  146.7919  133.1515  159.5487 H   0  0  0  0  0  0  0  0  0  0  0  0
  145.5454  134.8525  161.2350 H   0  0  0  0  0  0  0  0  0  0  0  0
  147.1518  134.2475  161.6780 H   0  0  0  0  0  0  0  0  0  0  0  0
  149.1966  136.6755  159.3723 H   0  0  0  0  0  0  0  0  0  0  0  0
  147.6491  136.8769  158.5361 H   0  0  0  0  0  0  0  0  0  0  0  0
  149.6109  129.8784  154.3612 H   0  0  0  0  0  0  0  0  0  0  0  0
  1  2  1  0  0  0  0
  1 28  1  0  0  0  0
  1 29  1  0  0  0  0
  1 30  1  0  0  0  0
  2  6  1  0  0  0  0
  2  3  1  0  0  0  0
  2 31  1  0  0  0  0
  3  4  1  0  0  0  0
  4  5  1  0  0  0  0
  4 32  1  0  0  0  0
  4 33  1  0  0  0  0
  5  6  1  0  0  0  0
  5 34  1  0  0  0  0
  5 35  1  0  0  0  0
  6  7  1  0  0  0  0
  6  8  1  0  0  0  0
  7 36  1  0  0  0  0
  8  9  1  0  0  0  0
  8 37  1  0  0  0  0
  8 38  1  0  0  0  0
  9 27  1  0  0  0  0
  9 10  1  0  0  0  0
 10 11  2  0  0  0  0
 10 39  1  0  0  0  0
 11 12  1  0  0  0  0
 12 27  2  0  0  0  0
 12 13  1  0  0  0  0
 13 14  1  0  0  0  0
 13 24  2  0  0  0  0
 14 15  1  0  0  0  0
 14 16  1  0  0  0  0
 15 40  1  0  0  0  0
 15 41  1  0  0  0  0
 15 42  1  0  0  0  0
 16 17  1  0  0  0  0
 16 43  1  0  0  0  0
 16 44  1  0  0  0  0
 17 23  1  0  0  0  0
 17 18  1  0  0  0  0
 17 45  1  0  0  0  0
 18 19  1  0  0  0  0
 18 46  1  0  0  0  0
 18 47  1  0  0  0  0
 19 20  1  0  0  0  0
 19 48  1  0  0  0  0
 19 49  1  0  0  0  0
 20 21  2  0  0  0  0
 20 22  2  0  0  0  0
 20 23  1  0  0  0  0
 23 50  1  0  0  0  0
 23 51  1  0  0  0  0
 24 25  1  0  0  0  0
 25 26  2  0  0  0  0
 25 52  1  0  0  0  0
 26 27  1  0  0  0  0
M  END
> <s_m_source_file>
AV-unprocessed.smi

> <i_m_source_file_index>
266

> <i_lp_mmshare_version>
43012

> <i_f3d_flags>
0

> <s_epik_input>
W0NIMl0xW0NIMl1PW0NAQEhdKFtDSDNdKVtDQEBdMShbT0hdKVtDSDJdbihbY0hdbjIpYyhjMjMpbltjSF1uYzNOKFtDSDNdKVtDSDJdW0NAQEhdKFtDSDJdNClbQ0gyXVtDSDJdUzQoPU8pPU8=

> <s_epik_cmdline>
J2VwaWtfcHl0aG9uJywgJy1waCcsICc3LjAnLCAnLXRuJywgJzgnLCAnLW1hJywgJzIwMCcsICctbWV0YWxfYmluZGluZycsICctaW1hZScsICc8aW5maWxlLm1hZT4nLCAnLW9tYWUnLCAnPG91dGZpbGUubWFlPic=

> <r_lp_tautomer_probability>
1

> <r_epik_Ionization_Penalty>
0.00155497

> <r_epik_Ionization_Penalty_Charging>
0

> <r_epik_Ionization_Penalty_Neutral>
0.00155497

> <r_epik_State_Penalty>
-0

> <r_epik_Charging_Adjusted_Penalty>
0

> <i_epik_Tot_Q>
0

> <i_epik_Tot_abs_Q>
0

> <r_epik_Metal_State_Penalty>
-0

> <b_epik_Metal_Only>
0

> <s_lp_Force_Field>
OPLS_2005

> <r_lp_Energy>
30.3558

> <b_lp_Chiralities_Consistent>
1

> <s_lp_Variant>
AV-unprocessed.smi:266-4

> <Gold.Version>
5.8.1

> <Gold.Id.Protein>
6NUR|6NUR_protein|mol2

> <Gold.PLP.Fitness>
43.7495

> <Gold.PLP.PLP>
-34.8595

> <Gold.PLP.part.hbond>
-4.0000

> <Gold.PLP.part.metal>
0.0000

> <Gold.PLP.part.buried>
-2.3388

> <Gold.PLP.part.nonpolar>
-29.3688

> <Gold.PLP.part.repulsive>
1.1348

> <Gold.PLP.ligand.clash>
0.0000

> <Gold.PLP.ligand.torsion>
0.9203

> <Gold.PLP.Chemscore.Hbond>
3.5377

> <Gold.PLP.Chemscore.CHOScore>
0.0000

> <Gold.PLP.Chemscore.Metal>
0.0000

> <Gold.Chemscore.Hbonds>
donor molecule, donor type, donor heavy atom, donor atom, acceptor molecule, acceptor atom, score
      L1  H     7    36       P1  7921  1.00
      P1  H  6931  6943       L1    22  1.00
      P1  H  6934  6947       L1    21  1.00
      P1  H 10785 10796       L1     3  0.49

> <Gold.PLP.Chemscore.Internal.Correction>
0.1175

> <Gold.Rescore>
     Score         DG    S(hbond)    S(metal)    S(lipo)     H(rot)  DE(clash)    DE(int)     intcor
     13.81     -18.31       2.99        0.00      77.96       2.45       1.68       2.82       ----

> <Gold.Chemscore.Fitness>
13.8096

> <Gold.Chemscore.DG>
-18.3088

> <Gold.Chemscore.ZeroCoef>
-5.4800

> <Gold.Chemscore.Hbond>
2.9857

> <Gold.Chemscore.Metal>
0.0000

> <Gold.Chemscore.Lipo>
77.9589

> <Gold.Chemscore.Internal_Hbond>
0.0000

> <Gold.Chemscore.DEClash>
1.6779

> <Gold.Chemscore.DEInternal>
2.8214

> <Gold.Chemscore.Rot>
2.4471

> <Gold.Chemscore.Internal.Correction>
   9.000000E+99

> <Gold.Chemscore.Hbonds>
donor molecule, donor type, donor heavy atom, donor atom, acceptor molecule, acceptor atom, score
      L1  H     7    36       P1  7921  0.89
      P1  H  6931  6943       L1    22  0.82
      P1  H  6934  6947       L1    21  0.26
      P1  H 10785 10796       L1     3  0.49

> <Gold.Chemscore.Hbond.Weighted>
-9.9722

> <Gold.Chemscore.Metal.Weighted>
-0.0000

> <Gold.Chemscore.Lipo.Weighted>
-9.1212

> <Gold.Chemscore.Internal_Hbond.Weighted>
0.0000

> <Gold.Chemscore.DEClash.Weighted>
1.6779

> <Gold.Chemscore.DEInternal.Weighted>
2.8214

> <Gold.Chemscore.Rot.Weighted>
6.2645

> <Gold.Chemscore.Internal.Correction.Weighted>
   9.000000E+99

> <Gold.Protein.RotatedTorsions>
[ 6907 6896 6895 6894 ] final -118.43 input  -60.11 | X-H torsion
[ 7974 7965 7964 7962 ] final -103.26 input  175.53 | X-H torsion
[ 8008 7997 7996 7995 ] final   47.34 input   59.86 | X-H torsion
[ 10167 10162 10161 10158 ] final  131.64 input  -65.29 | X-H torsion
[ 10718 10713 10712 10709 ] final  -53.10 input   66.30 | X-H torsion
[ 10763 10752 10751 10750 ] final -160.69 input  -60.55 | X-H torsion
[ 11005 11000 10999 10996 ] final -125.55 input  -57.11 | X-H torsion

> <Gold.Protein.ActiveResidues>
 VAL166  LYS551  ARG553  GLY616  TRP617  ASP618  TYR619  PRO620  LYS621  CYS622 
 ASP623  PHE694  ASN695  SER759  ASP760  ASP761  ALA762  ILE779  LEU786  VAL792 
 PHE793  MET794  SER795  GLU796  ALA797  LYS798  CYS799  TRP800  GLU811  SER814 

> <Gold.Protein.RotatedAtoms>
  150.8219  133.8238  159.3135 H   0  0  0  0  0  0  0  0  0  0  0  0  # atno 6907 bound_to 6896
  151.5994  135.1046  160.0066 H   0  0  0  0  0  0  0  0  0  0  0  0  # atno 6908 bound_to 6896
  152.4307  133.7232  159.6602 H   0  0  0  0  0  0  0  0  0  0  0  0  # atno 6909 bound_to 6896
  145.2582  140.9260  143.3056 H   0  0  0  0  0  0  0  0  0  0  0  0  # atno 7974 bound_to 7965
  155.3674  140.3422  155.4242 H   0  0  0  0  0  0  0  0  0  0  0  0  # atno 8008 bound_to 7997
  156.1681  140.1622  156.8530 H   0  0  0  0  0  0  0  0  0  0  0  0  # atno 8009 bound_to 7997
  154.5205  140.0768  156.8146 H   0  0  0  0  0  0  0  0  0  0  0  0  # atno 8010 bound_to 7997
  139.5375  144.6697  151.4737 H   0  0  0  0  0  0  0  0  0  0  0  0  # atno 10167 bound_to 10162
  156.1564  130.4150  149.9863 H   0  0  0  0  0  0  0  0  0  0  0  0  # atno 10718 bound_to 10713
  154.7368  135.3059  154.8797 H   0  0  0  0  0  0  0  0  0  0  0  0  # atno 10763 bound_to 10752
  153.9624  135.6751  153.4749 H   0  0  0  0  0  0  0  0  0  0  0  0  # atno 10764 bound_to 10752
  153.0970  135.4930  154.8720 H   0  0  0  0  0  0  0  0  0  0  0  0  # atno 10765 bound_to 10752
  140.9753  134.0749  157.3825 H   0  0  0  0  0  0  0  0  0  0  0  0  # atno 11005 bound_to 11000
  144.9442  139.4155  143.6434 LP  0  0  0  0  0  0  0  0  0  0  0  0  # atno 17320 bound_to 7965
  146.3283  139.8417  142.8889 LP  0  0  0  0  0  0  0  0  0  0  0  0  # atno 17321 bound_to 7965
  140.6588  143.8542  150.6865 LP  0  0  0  0  0  0  0  0  0  0  0  0  # atno 17342 bound_to 10162
  140.1930  143.4021  152.1849 LP  0  0  0  0  0  0  0  0  0  0  0  0  # atno 17343 bound_to 10162
  156.7705  130.9184  151.3644 LP  0  0  0  0  0  0  0  0  0  0  0  0  # atno 17370 bound_to 10713
  157.6698  130.9040  150.0014 LP  0  0  0  0  0  0  0  0  0  0  0  0  # atno 17371 bound_to 10713
  139.8928  135.0127  156.6865 LP  0  0  0  0  0  0  0  0  0  0  0  0  # atno 17394 bound_to 11000
  140.7268  133.9093  155.8184 LP  0  0  0  0  0  0  0  0  0  0  0  0  # atno 17395 bound_to 11000

$$$$
