AV-unprocessed.smi:2741|AV-procd|sdf|10558|dock2
  -GOLD-   2272015 13D 1   1.00000     0.00000
 Structure written by MMmdl.
 39 40  0  0  0  0  0  0  0  0  1 V2000
  150.4544  136.5775  159.4854 O   0  0  0  0  0  0  0  0  0  0  0  0
  149.6983  136.8077  158.5406 C   0  0  0  0  0  0  0  0  0  0  0  0
  148.2989  136.1792  158.4818 C   0  0  0  0  0  0  0  0  0  0  0  0
  147.9670  135.3843  159.6762 N   0  0  0  0  0  0  0  0  0  0  0  0
  147.9749  133.9822  159.5389 C   0  0  0  0  0  0  0  0  0  0  0  0
  147.6771  133.1449  160.5511 C   0  0  0  0  0  0  0  0  0  0  0  0
  147.7443  131.6346  160.3851 C   0  0  0  0  0  0  0  0  0  0  0  0
  146.8848  131.2142  159.4566 F   0  0  0  0  0  0  0  0  0  0  0  0
  148.9707  131.2742  160.0097 F   0  0  0  0  0  0  0  0  0  0  0  0
  147.4613  131.0121  161.5302 F   0  0  0  0  0  0  0  0  0  0  0  0
  147.3733  133.7594  161.8286 C   0  0  0  0  0  0  0  0  0  0  0  0
  147.3671  135.0985  161.9784 C   0  0  0  0  0  0  0  0  0  0  0  0
  147.6688  135.9964  160.8615 C   0  0  0  0  0  0  0  0  0  0  0  0
  147.6570  137.2217  160.9839 O   0  0  0  0  0  0  0  0  0  0  0  0
  150.0185  137.6233  157.5250 N   0  0  0  0  0  0  0  0  0  0  0  0
  151.2825  138.3387  157.3871 C   0  0  0  0  0  0  0  0  0  0  0  0
  151.1370  139.6117  156.5305 C   0  0  2  0  0  0  0  0  0  0  0  0
  150.1095  140.6190  157.0702 C   0  0  0  0  0  0  0  0  0  0  0  0
  149.6416  141.3814  155.8341 C   0  0  0  0  0  0  0  0  0  0  0  0
  149.5561  140.2914  154.7669 C   0  0  1  0  0  0  0  0  0  0  0  0
  149.6278  140.8224  153.4607 O   0  0  0  0  0  0  0  0  0  0  0  0
  150.7159  139.3315  155.0740 C   0  0  0  0  0  0  0  0  0  0  0  0
  147.5742  136.9822  158.3406 H   0  0  0  0  0  0  0  0  0  0  0  0
  148.2144  135.5600  157.5863 H   0  0  0  0  0  0  0  0  0  0  0  0
  148.2354  133.6280  158.5519 H   0  0  0  0  0  0  0  0  0  0  0  0
  147.1418  133.1365  162.6800 H   0  0  0  0  0  0  0  0  0  0  0  0
  147.1335  135.5220  162.9442 H   0  0  0  0  0  0  0  0  0  0  0  0
  149.3358  137.7608  156.7938 H   0  0  0  0  0  0  0  0  0  0  0  0
  151.6802  138.5875  158.3726 H   0  0  0  0  0  0  0  0  0  0  0  0
  152.0027  137.6610  156.9279 H   0  0  0  0  0  0  0  0  0  0  0  0
  152.1031  140.1179  156.4937 H   0  0  0  0  0  0  0  0  0  0  0  0
  149.2622  140.0944  157.5140 H   0  0  0  0  0  0  0  0  0  0  0  0
  150.5290  141.2764  157.8325 H   0  0  0  0  0  0  0  0  0  0  0  0
  148.6937  141.8980  155.9883 H   0  0  0  0  0  0  0  0  0  0  0  0
  150.3904  142.1263  155.5595 H   0  0  0  0  0  0  0  0  0  0  0  0
  148.6107  139.7582  154.8780 H   0  0  0  0  0  0  0  0  0  0  0  0
  149.4508  140.1288  152.8435 H   0  0  0  0  0  0  0  0  0  0  0  0
  151.5639  139.5091  154.4108 H   0  0  0  0  0  0  0  0  0  0  0  0
  150.4047  138.2970  154.9233 H   0  0  0  0  0  0  0  0  0  0  0  0
  1  2  2  0  0  0  0
  2  3  1  0  0  0  0
  2 15  1  0  0  0  0
  3  4  1  0  0  0  0
  3 23  1  0  0  0  0
  3 24  1  0  0  0  0
  4 13  1  0  0  0  0
  4  5  1  0  0  0  0
  5  6  2  0  0  0  0
  5 25  1  0  0  0  0
  6  7  1  0  0  0  0
  6 11  1  0  0  0  0
  7  8  1  0  0  0  0
  7  9  1  0  0  0  0
  7 10  1  0  0  0  0
 11 12  2  0  0  0  0
 11 26  1  0  0  0  0
 12 13  1  0  0  0  0
 12 27  1  0  0  0  0
 13 14  2  0  0  0  0
 15 16  1  0  0  0  0
 15 28  1  0  0  0  0
 16 17  1  0  0  0  0
 16 29  1  0  0  0  0
 16 30  1  0  0  0  0
 17 22  1  0  0  0  0
 17 18  1  0  0  0  0
 17 31  1  0  0  0  0
 18 19  1  0  0  0  0
 18 32  1  0  0  0  0
 18 33  1  0  0  0  0
 19 20  1  0  0  0  0
 19 34  1  0  0  0  0
 19 35  1  0  0  0  0
 20 21  1  0  0  0  0
 20 22  1  0  0  0  0
 20 36  1  0  0  0  0
 21 37  1  0  0  0  0
 22 38  1  0  0  0  0
 22 39  1  0  0  0  0
M  END
> <s_m_source_file>
AV-unprocessed.smi

> <i_m_source_file_index>
2741

> <i_lp_mmshare_version>
43012

> <i_f3d_flags>
0

> <s_epik_input>
W09IXVtDQEBIXShbQ0gyXTEpW0NIMl1bQ0gyXVtDQEhdMVtDSDJdW05IXUMoPU8pW0NIMl1uMltjSF1jKEMoRikoRilGKVtjSF1bY0hdYzI9Tw==

> <s_epik_cmdline>
J2VwaWtfcHl0aG9uJywgJy1waCcsICc3LjAnLCAnLXRuJywgJzgnLCAnLW1hJywgJzIwMCcsICctbWV0YWxfYmluZGluZycsICctaW1hZScsICc8aW5maWxlLm1hZT4nLCAnLW9tYWUnLCAnPG91dGZpbGUubWFlPic=

> <r_lp_tautomer_probability>
1

> <r_epik_Ionization_Penalty>
1.17551e-06

> <r_epik_Ionization_Penalty_Charging>
1.78841e-08

> <r_epik_Ionization_Penalty_Neutral>
1.15762e-06

> <r_epik_State_Penalty>
-0

> <r_epik_Charging_Adjusted_Penalty>
1.78841e-08

> <i_epik_Tot_Q>
0

> <i_epik_Tot_abs_Q>
0

> <r_epik_Metal_State_Penalty>
-0

> <b_epik_Metal_Only>
0

> <s_lp_Force_Field>
OPLS_2005

> <r_lp_Energy>
33.5858

> <b_lp_Chiralities_Consistent>
1

> <s_lp_Variant>
AV-unprocessed.smi:2741-1

> <Gold.Version>
5.8.1

> <Gold.Id.Protein>
6NUR|6NUR_protein|mol2

> <Gold.PLP.Fitness>
48.8890

> <Gold.PLP.PLP>
-35.6263

> <Gold.PLP.part.hbond>
-5.8247

> <Gold.PLP.part.metal>
0.0000

> <Gold.PLP.part.buried>
-4.3304

> <Gold.PLP.part.nonpolar>
-26.4846

> <Gold.PLP.part.repulsive>
0.0402

> <Gold.PLP.ligand.clash>
0.0000

> <Gold.PLP.ligand.torsion>
0.3765

> <Gold.PLP.Chemscore.Hbond>
4.6400

> <Gold.PLP.Chemscore.CHOScore>
0.0000

> <Gold.PLP.Chemscore.Metal>
0.0000

> <Gold.Chemscore.Hbonds>
donor molecule, donor type, donor heavy atom, donor atom, acceptor molecule, acceptor atom, score
      L1  H    21    37       P1  7957  0.64
      P1  H  6896  6907       L1     1  1.00
      P1  H  6931  6943       L1    14  0.86
      P1  H  6934  6947       L1    14  0.91
      P1  H  7989  7998       L1    21  0.22
      P1  H  8011  8017       L1    21  1.00

> <Gold.PLP.Chemscore.Internal.Correction>
0.0957

> <Gold.Rescore>
     Score         DG    S(hbond)    S(metal)    S(lipo)     H(rot)  DE(clash)    DE(int)     intcor
     20.04     -20.48       4.03        0.00      67.29       2.48       0.02       0.42       ----

> <Gold.Chemscore.Fitness>
20.0421

> <Gold.Chemscore.DG>
-20.4785

> <Gold.Chemscore.ZeroCoef>
-5.4800

> <Gold.Chemscore.Hbond>
4.0349

> <Gold.Chemscore.Metal>
0.0000

> <Gold.Chemscore.Lipo>
67.2874

> <Gold.Chemscore.Internal_Hbond>
0.0000

> <Gold.Chemscore.DEClash>
0.0175

> <Gold.Chemscore.DEInternal>
0.4189

> <Gold.Chemscore.Rot>
2.4807

> <Gold.Chemscore.Internal.Correction>
   9.000000E+99

> <Gold.Chemscore.Hbonds>
donor molecule, donor type, donor heavy atom, donor atom, acceptor molecule, acceptor atom, score
      L1  H    21    37       P1  7957  0.64
      P1  H  6896  6907       L1     1  0.99
      P1  H  6931  6943       L1    14  0.84
      P1  H  6934  6947       L1    14  0.90
      P1  H  7989  7998       L1    21  0.01
      P1  H  8011  8017       L1    21  0.39

> <Gold.Chemscore.Hbond.Weighted>
-13.4765

> <Gold.Chemscore.Metal.Weighted>
-0.0000

> <Gold.Chemscore.Lipo.Weighted>
-7.8726

> <Gold.Chemscore.Internal_Hbond.Weighted>
0.0000

> <Gold.Chemscore.DEClash.Weighted>
0.0175

> <Gold.Chemscore.DEInternal.Weighted>
0.4189

> <Gold.Chemscore.Rot.Weighted>
6.3507

> <Gold.Chemscore.Internal.Correction.Weighted>
   9.000000E+99

> <Gold.Protein.RotatedTorsions>
[ 6907 6896 6895 6894 ] final  -29.22 input  -60.11 | X-H torsion
[ 7974 7965 7964 7962 ] final  173.22 input  175.53 | X-H torsion
[ 8008 7997 7996 7995 ] final  -41.76 input   59.86 | X-H torsion
[ 10167 10162 10161 10158 ] final  153.08 input  -65.29 | X-H torsion
[ 10718 10713 10712 10709 ] final  173.72 input   66.30 | X-H torsion
[ 10763 10752 10751 10750 ] final    4.89 input  -60.55 | X-H torsion
[ 11005 11000 10999 10996 ] final   28.38 input  -57.11 | X-H torsion

> <Gold.Protein.ActiveResidues>
 VAL166  LYS551  ARG553  GLY616  TRP617  ASP618  TYR619  PRO620  LYS621  CYS622 
 ASP623  PHE694  ASN695  SER759  ASP760  ASP761  ALA762  ILE779  LEU786  VAL792 
 PHE793  MET794  SER795  GLU796  ALA797  LYS798  CYS799  TRP800  GLU811  SER814 

> <Gold.Protein.RotatedAtoms>
  151.1222  135.0085  159.8543 H   0  0  0  0  0  0  0  0  0  0  0  0  # atno 6907 bound_to 6896
  152.5448  134.1709  159.8606 H   0  0  0  0  0  0  0  0  0  0  0  0  # atno 6908 bound_to 6896
  151.1768  133.4705  159.2627 H   0  0  0  0  0  0  0  0  0  0  0  0  # atno 6909 bound_to 6896
  144.7249  139.9615  143.6435 H   0  0  0  0  0  0  0  0  0  0  0  0  # atno 7974 bound_to 7965
  154.4002  140.1491  156.3244 H   0  0  0  0  0  0  0  0  0  0  0  0  # atno 8008 bound_to 7997
  155.8500  140.3458  155.5666 H   0  0  0  0  0  0  0  0  0  0  0  0  # atno 8009 bound_to 7997
  155.7994  140.0868  157.1956 H   0  0  0  0  0  0  0  0  0  0  0  0  # atno 8010 bound_to 7997
  139.4829  144.5304  151.7732 H   0  0  0  0  0  0  0  0  0  0  0  0  # atno 10167 bound_to 10162
  156.9601  131.0058  151.2929 H   0  0  0  0  0  0  0  0  0  0  0  0  # atno 10718 bound_to 10713
  153.2659  135.6927  153.7530 H   0  0  0  0  0  0  0  0  0  0  0  0  # atno 10763 bound_to 10752
  153.6572  135.3366  155.3117 H   0  0  0  0  0  0  0  0  0  0  0  0  # atno 10764 bound_to 10752
  154.8447  135.4468  154.1665 H   0  0  0  0  0  0  0  0  0  0  0  0  # atno 10765 bound_to 10752
  140.3162  134.2594  155.7725 H   0  0  0  0  0  0  0  0  0  0  0  0  # atno 11005 bound_to 11000
  146.0634  139.3626  143.0567 LP  0  0  0  0  0  0  0  0  0  0  0  0  # atno 17320 bound_to 7965
  145.8063  140.9747  143.0972 LP  0  0  0  0  0  0  0  0  0  0  0  0  # atno 17321 bound_to 7965
  140.4829  144.1423  150.5936 LP  0  0  0  0  0  0  0  0  0  0  0  0  # atno 17342 bound_to 10162
  140.4257  143.2591  151.9659 LP  0  0  0  0  0  0  0  0  0  0  0  0  # atno 17343 bound_to 10162
  157.5663  130.8280  149.8332 LP  0  0  0  0  0  0  0  0  0  0  0  0  # atno 17370 bound_to 10713
  156.0326  130.3760  150.1647 LP  0  0  0  0  0  0  0  0  0  0  0  0  # atno 17371 bound_to 10713
  141.2097  133.7741  156.9979 LP  0  0  0  0  0  0  0  0  0  0  0  0  # atno 17394 bound_to 11000
  140.0981  134.9552  157.1881 LP  0  0  0  0  0  0  0  0  0  0  0  0  # atno 17395 bound_to 11000

$$$$
