AV-unprocessed.smi:2999|AV-procd|sdf|11420|dock4
  -GOLD-   2272016343D 1   1.00000     0.00000
 Structure written by MMmdl.
 38 40  0  0  0  0  0  0  0  0  2 V2000
  149.5370  136.7716  156.4528 O   0  0  0  0  0  0  0  0  0  0  0  0
  149.4206  136.7212  155.2284 C   0  0  0  0  0  0  0  0  0  0  0  0
  149.2861  135.5754  154.5457 N   0  0  0  0  0  0  0  0  0  0  0  0
  149.2611  134.2404  155.1379 C   0  0  0  0  0  0  0  0  0  0  0  0
  148.2917  133.2752  154.4247 C   0  0  1  0  0  0  0  0  0  0  0  0
  148.6943  132.9564  152.9658 C   0  0  0  0  0  0  0  0  0  0  0  0
  147.7601  131.9877  152.3450 N   0  3  2  0  0  0  0  0  0  0  0  0
  146.4721  132.5915  151.9312 C   0  0  0  0  0  0  0  0  0  0  0  0
  145.8390  131.9048  150.7440 C   0  0  0  0  0  0  0  0  0  0  0  0
  146.5190  133.2446  150.5696 C   0  0  0  0  0  0  0  0  0  0  0  0
  147.5999  130.7854  153.1967 C   0  0  0  0  0  0  0  0  0  0  0  0
  147.2313  131.1677  154.6419 C   0  0  0  0  0  0  0  0  0  0  0  0
  148.2053  132.0618  155.1650 O   0  0  0  0  0  0  0  0  0  0  0  0
  149.4139  137.7823  154.4030 N   0  0  0  0  0  0  0  0  0  0  0  0
  149.5415  139.1557  154.7390 C   0  0  0  0  0  0  0  0  0  0  0  0
  150.4937  139.6518  155.5377 N   0  0  0  0  0  0  0  0  0  0  0  0
  150.3786  141.0355  155.6932 C   0  0  0  0  0  0  0  0  0  0  0  0
  149.3268  141.5802  154.9994 C   0  0  0  0  0  0  0  0  0  0  0  0
  148.4329  140.3701  154.1186 S   0  0  0  0  0  0  0  0  0  0  0  0
  149.1900  135.6295  153.5422 H   0  0  0  0  0  0  0  0  0  0  0  0
  150.2663  133.8170  155.1673 H   0  0  0  0  0  0  0  0  0  0  0  0
  148.9518  134.3545  156.1771 H   0  0  0  0  0  0  0  0  0  0  0  0
  147.3081  133.7471  154.4341 H   0  0  0  0  0  0  0  0  0  0  0  0
  148.7435  133.8680  152.3695 H   0  0  0  0  0  0  0  0  0  0  0  0
  149.6908  132.5142  152.9390 H   0  0  0  0  0  0  0  0  0  0  0  0
  145.8480  133.0104  152.7181 H   0  0  0  0  0  0  0  0  0  0  0  0
  146.3373  131.0306  150.3285 H   0  0  0  0  0  0  0  0  0  0  0  0
  144.7521  131.8875  150.6948 H   0  0  0  0  0  0  0  0  0  0  0  0
  145.8799  134.1100  150.4061 H   0  0  0  0  0  0  0  0  0  0  0  0
  147.4678  133.2602  150.0362 H   0  0  0  0  0  0  0  0  0  0  0  0
  146.8519  130.1162  152.7703 H   0  0  0  0  0  0  0  0  0  0  0  0
  148.5428  130.2369  153.1976 H   0  0  0  0  0  0  0  0  0  0  0  0
  146.2395  131.6187  154.6936 H   0  0  0  0  0  0  0  0  0  0  0  0
  147.2030  130.2756  155.2680 H   0  0  0  0  0  0  0  0  0  0  0  0
  149.3048  137.5864  153.4191 H   0  0  0  0  0  0  0  0  0  0  0  0
  151.0906  141.5547  156.3172 H   0  0  0  0  0  0  0  0  0  0  0  0
  149.0255  142.6161  154.9535 H   0  0  0  0  0  0  0  0  0  0  0  0
  148.1966  131.6763  151.4891 H   0  0  0  0  0  0  0  0  0  0  0  0
  1  2  2  0  0  0  0
  2  3  1  0  0  0  0
  2 14  1  0  0  0  0
  3  4  1  0  0  0  0
  3 20  1  0  0  0  0
  4  5  1  0  0  0  0
  4 21  1  0  0  0  0
  4 22  1  0  0  0  0
  5 13  1  0  0  0  0
  5  6  1  0  0  0  0
  5 23  1  0  0  0  0
  6  7  1  0  0  0  0
  6 24  1  0  0  0  0
  6 25  1  0  0  0  0
  7  8  1  0  0  0  0
  7 11  1  0  0  0  0
  7 38  1  0  0  0  0
  8 10  1  0  0  0  0
  8  9  1  0  0  0  0
  8 26  1  0  0  0  0
  9 10  1  0  0  0  0
  9 27  1  0  0  0  0
  9 28  1  0  0  0  0
 10 29  1  0  0  0  0
 10 30  1  0  0  0  0
 11 12  1  0  0  0  0
 11 31  1  0  0  0  0
 11 32  1  0  0  0  0
 12 13  1  0  0  0  0
 12 33  1  0  0  0  0
 12 34  1  0  0  0  0
 14 15  1  0  0  0  0
 14 35  1  0  0  0  0
 15 19  1  0  0  0  0
 15 16  2  0  0  0  0
 16 17  1  0  0  0  0
 17 18  2  0  0  0  0
 17 36  1  0  0  0  0
 18 19  1  0  0  0  0
 18 37  1  0  0  0  0
M  CHG  1   7   1
M  END
> <s_m_source_file>
AV-unprocessed.smi

> <i_m_source_file_index>
2999

> <i_lp_mmshare_version>
43012

> <i_f3d_flags>
0

> <s_epik_input>
czFbY0hdW2NIXW5jMVtOSF1DKD1PKVtOSF1bQ0gyXVtDQEBIXTJbQ0gyXU4oW0NIMl1bQ0gyXU8yKVtDSF0zW0NIMl1bQ0gyXTM=

> <s_epik_cmdline>
J2VwaWtfcHl0aG9uJywgJy1waCcsICc3LjAnLCAnLXRuJywgJzgnLCAnLW1hJywgJzIwMCcsICctbWV0YWxfYmluZGluZycsICctaW1hZScsICc8aW5maWxlLm1hZT4nLCAnLW9tYWUnLCAnPG91dGZpbGUubWFlPic=

> <r_lp_tautomer_probability>
0.999

> <r_epik_Ionization_Penalty>
1.55235

> <r_epik_Ionization_Penalty_Charging>
1.55221

> <r_epik_Ionization_Penalty_Neutral>
0.000139685

> <r_epik_State_Penalty>
1.64652

> <r_epik_Charging_Adjusted_Penalty>
3.19873

> <i_epik_Tot_Q>
1

> <i_epik_Tot_abs_Q>
1

> <r_epik_Metal_State_Penalty>
1.68612

> <b_epik_Metal_Only>
0

> <s_lp_Force_Field>
OPLS_2005

> <r_lp_Energy>
24.3861

> <b_lp_Chiralities_Consistent>
1

> <s_lp_Variant>
AV-unprocessed.smi:2999-4

> <Gold.Version>
5.8.1

> <Gold.Id.Protein>
6NUR|6NUR_protein|mol2

> <Gold.PLP.Fitness>
42.5388

> <Gold.PLP.PLP>
-31.7528

> <Gold.PLP.part.hbond>
-3.0000

> <Gold.PLP.part.metal>
0.0000

> <Gold.PLP.part.buried>
-2.4105

> <Gold.PLP.part.nonpolar>
-26.0218

> <Gold.PLP.part.repulsive>
0.0889

> <Gold.PLP.ligand.clash>
0.0000

> <Gold.PLP.ligand.torsion>
1.2454

> <Gold.PLP.Chemscore.Hbond>
3.0000

> <Gold.PLP.Chemscore.CHOScore>
1.0000

> <Gold.PLP.Chemscore.Metal>
0.0000

> <Gold.Chemscore.Hbonds>
donor molecule, donor type, donor heavy atom, donor atom, acceptor molecule, acceptor atom, score
      L1  H     3    20       P1  7948  1.00
      L1  H     7    38       P1 10747  1.00
      L1  H    14    35       P1  7948  0.91
      L1  C    18    37       P1  8028  1.00

> <Gold.PLP.Chemscore.Internal.Correction>
1.2768

> <Gold.Rescore>
     Score         DG    S(hbond)    S(metal)    S(lipo)     H(rot)  DE(clash)    DE(int)     intcor
     17.36     -18.60       2.68        0.00      70.20       1.58       0.01       1.23       ----

> <Gold.Chemscore.Fitness>
17.3607

> <Gold.Chemscore.DG>
-18.5963

> <Gold.Chemscore.ZeroCoef>
-5.4800

> <Gold.Chemscore.Hbond>
2.6786

> <Gold.Chemscore.Metal>
0.0000

> <Gold.Chemscore.Lipo>
70.1981

> <Gold.Chemscore.Internal_Hbond>
0.0000

> <Gold.Chemscore.DEClash>
0.0081

> <Gold.Chemscore.DEInternal>
1.2275

> <Gold.Chemscore.Rot>
1.5795

> <Gold.Chemscore.Internal.Correction>
   9.000000E+99

> <Gold.Chemscore.Hbonds>
donor molecule, donor type, donor heavy atom, donor atom, acceptor molecule, acceptor atom, score
      L1  H     3    20       P1  7948  0.60
      L1  H     7    38       P1 10747  1.00
      L1  H    14    35       P1  7948  0.82

> <Gold.Chemscore.Hbond.Weighted>
-8.9465

> <Gold.Chemscore.Metal.Weighted>
-0.0000

> <Gold.Chemscore.Lipo.Weighted>
-8.2132

> <Gold.Chemscore.Internal_Hbond.Weighted>
0.0000

> <Gold.Chemscore.DEClash.Weighted>
0.0081

> <Gold.Chemscore.DEInternal.Weighted>
1.2275

> <Gold.Chemscore.Rot.Weighted>
4.0434

> <Gold.Chemscore.Internal.Correction.Weighted>
   9.000000E+99

> <Gold.Protein.RotatedTorsions>
[ 6907 6896 6895 6894 ] final -117.81 input  -60.11 | X-H torsion
[ 7974 7965 7964 7962 ] final  155.11 input  175.53 | X-H torsion
[ 8008 7997 7996 7995 ] final   57.40 input   59.86 | X-H torsion
[ 10167 10162 10161 10158 ] final   43.82 input  -65.29 | X-H torsion
[ 10718 10713 10712 10709 ] final  164.22 input   66.30 | X-H torsion
[ 10763 10752 10751 10750 ] final  118.66 input  -60.55 | X-H torsion
[ 11005 11000 10999 10996 ] final   34.82 input  -57.11 | X-H torsion

> <Gold.Protein.ActiveResidues>
 VAL166  LYS551  ARG553  GLY616  TRP617  ASP618  TYR619  PRO620  LYS621  CYS622 
 ASP623  PHE694  ASN695  SER759  ASP760  ASP761  ALA762  ILE779  LEU786  VAL792 
 PHE793  MET794  SER795  GLU796  ALA797  LYS798  CYS799  TRP800  GLU811  SER814 

> <Gold.Protein.RotatedAtoms>
  150.8167  133.8325  159.3157 H   0  0  0  0  0  0  0  0  0  0  0  0  # atno 6907 bound_to 6896
  151.6095  135.1039  160.0087 H   0  0  0  0  0  0  0  0  0  0  0  0  # atno 6908 bound_to 6896
  152.4258  133.7152  159.6558 H   0  0  0  0  0  0  0  0  0  0  0  0  # atno 6909 bound_to 6896
  144.8045  139.7024  143.6168 H   0  0  0  0  0  0  0  0  0  0  0  0  # atno 7974 bound_to 7965
  155.5331  140.3482  155.4430 H   0  0  0  0  0  0  0  0  0  0  0  0  # atno 8008 bound_to 7997
  156.0704  140.1361  156.9862 H   0  0  0  0  0  0  0  0  0  0  0  0  # atno 8009 bound_to 7997
  154.4525  140.0967  156.6636 H   0  0  0  0  0  0  0  0  0  0  0  0  # atno 8010 bound_to 7997
  140.3405  144.2476  150.6156 H   0  0  0  0  0  0  0  0  0  0  0  0  # atno 10167 bound_to 10162
  157.0975  131.0434  151.2512 H   0  0  0  0  0  0  0  0  0  0  0  0  # atno 10718 bound_to 10713
  153.5710  135.3502  155.2837 H   0  0  0  0  0  0  0  0  0  0  0  0  # atno 10763 bound_to 10752
  154.8682  135.4159  154.2725 H   0  0  0  0  0  0  0  0  0  0  0  0  # atno 10764 bound_to 10752
  153.3491  135.7054  153.6873 H   0  0  0  0  0  0  0  0  0  0  0  0  # atno 10765 bound_to 10752
  140.2489  134.3326  155.7897 H   0  0  0  0  0  0  0  0  0  0  0  0  # atno 11005 bound_to 11000
  146.2334  139.5857  142.9540 LP  0  0  0  0  0  0  0  0  0  0  0  0  # atno 17320 bound_to 7965
  145.5471  141.0416  143.2299 LP  0  0  0  0  0  0  0  0  0  0  0  0  # atno 17321 bound_to 7965
  140.5313  143.2243  151.8234 LP  0  0  0  0  0  0  0  0  0  0  0  0  # atno 17342 bound_to 10162
  139.4841  144.4717  151.9417 LP  0  0  0  0  0  0  0  0  0  0  0  0  # atno 17343 bound_to 10162
  157.4669  130.7686  149.7287 LP  0  0  0  0  0  0  0  0  0  0  0  0  # atno 17370 bound_to 10713
  155.9882  130.3961  150.3129 LP  0  0  0  0  0  0  0  0  0  0  0  0  # atno 17371 bound_to 10713
  141.2203  133.7342  156.9005 LP  0  0  0  0  0  0  0  0  0  0  0  0  # atno 17394 bound_to 11000
  140.1578  134.9186  157.2675 LP  0  0  0  0  0  0  0  0  0  0  0  0  # atno 17395 bound_to 11000

$$$$
