AV-unprocessed.smi:249|AV-procd|sdf|1916|dock10
  -GOLD-   2262021 13D 1   1.00000     0.00000
 Structure written by MMmdl.
 64 67  0  0  0  0  0  0  0  0  2 V2000
  146.1493  129.7969  151.5765 C   0  0  0  0  0  0  0  0  0  0  0  0
  146.0593  131.0875  152.4054 C   0  0  0  0  0  0  0  0  0  0  0  0
  146.7188  132.2544  151.7483 N   0  3  2  0  0  0  0  0  0  0  0  0
  147.2739  133.2563  152.7022 C   0  0  0  0  0  0  0  0  0  0  0  0
  146.1658  134.0891  153.3748 C   0  0  0  0  0  0  0  0  0  0  0  0
  145.2786  134.7749  152.3173 C   0  0  2  0  0  0  0  0  0  0  0  0
  144.2122  135.5851  152.9171 N   0  0  0  0  0  0  0  0  0  0  0  0
  143.0430  134.9315  153.5049 C   0  0  0  0  0  0  0  0  0  0  0  0
  144.6262  136.7352  153.5092 C   0  0  0  0  0  0  0  0  0  0  0  0
  144.1685  137.0574  154.7487 N   0  0  0  0  0  0  0  0  0  0  0  0
  144.5842  138.1747  155.3521 C   0  0  0  0  0  0  0  0  0  0  0  0
  145.4427  139.0933  154.9062 N   0  0  0  0  0  0  0  0  0  0  0  0
  145.9028  138.7790  153.6618 C   0  0  0  0  0  0  0  0  0  0  0  0
  145.5442  137.6340  152.8959 C   0  0  0  0  0  0  0  0  0  0  0  0
  146.1953  137.6629  151.6680 N   0  0  0  0  0  0  0  0  0  0  0  0
  146.9056  138.7568  151.7096 C   0  0  0  0  0  0  0  0  0  0  0  0
  146.8108  139.4739  152.8812 N   0  0  0  0  0  0  0  0  0  0  0  0
  147.4896  140.7206  153.1883 C   0  0  0  0  0  0  0  0  0  0  0  0
  148.2187  140.7544  154.5613 C   0  0  2  0  0  0  0  0  0  0  0  0
  148.2181  142.2076  155.0956 C   0  0  0  0  0  0  0  0  0  0  0  0
  148.2870  142.2391  156.5066 O   0  0  0  0  0  0  0  0  0  0  0  0
  149.6637  140.1709  154.5156 C   0  0  2  0  0  0  0  0  0  0  0  0
  149.7758  138.6775  154.2395 C   0  0  0  0  0  0  0  0  0  0  0  0
  151.1742  138.3342  154.7416 C   0  0  0  0  0  0  0  0  0  0  0  0
  151.4581  139.2653  155.7764 O   0  0  0  0  0  0  0  0  0  0  0  0
  150.4188  140.2328  155.8505 C   0  0  0  0  0  0  0  0  0  0  0  0
  144.7438  133.7384  151.3099 C   0  0  0  0  0  0  0  0  0  0  0  0
  145.9060  132.9331  150.6921 C   0  0  2  0  0  0  0  0  0  0  0  0
  145.4392  131.9889  149.5697 C   0  0  0  0  0  0  0  0  0  0  0  0
  145.5246  129.0187  152.0161 H   0  0  0  0  0  0  0  0  0  0  0  0
  147.1637  129.4016  151.5367 H   0  0  0  0  0  0  0  0  0  0  0  0
  145.8039  129.9564  150.5547 H   0  0  0  0  0  0  0  0  0  0  0  0
  144.9987  131.2914  152.5381 H   0  0  0  0  0  0  0  0  0  0  0  0
  146.4635  130.9204  153.4035 H   0  0  0  0  0  0  0  0  0  0  0  0
  147.9055  132.7848  153.4531 H   0  0  0  0  0  0  0  0  0  0  0  0
  147.9357  133.9243  152.1490 H   0  0  0  0  0  0  0  0  0  0  0  0
  145.5668  133.4526  154.0261 H   0  0  0  0  0  0  0  0  0  0  0  0
  146.6209  134.8408  154.0211 H   0  0  0  0  0  0  0  0  0  0  0  0
  145.9343  135.4344  151.7495 H   0  0  0  0  0  0  0  0  0  0  0  0
  142.2759  135.6653  153.7557 H   0  0  0  0  0  0  0  0  0  0  0  0
  143.3099  134.3938  154.4150 H   0  0  0  0  0  0  0  0  0  0  0  0
  142.5932  134.2243  152.8097 H   0  0  0  0  0  0  0  0  0  0  0  0
  144.1736  138.3570  156.3344 H   0  0  0  0  0  0  0  0  0  0  0  0
  147.5340  139.0648  150.8865 H   0  0  0  0  0  0  0  0  0  0  0  0
  148.2008  140.9336  152.3893 H   0  0  0  0  0  0  0  0  0  0  0  0
  146.7341  141.5049  153.1369 H   0  0  0  0  0  0  0  0  0  0  0  0
  147.6479  140.1573  155.2732 H   0  0  0  0  0  0  0  0  0  0  0  0
  149.0795  142.7680  154.7357 H   0  0  0  0  0  0  0  0  0  0  0  0
  147.3270  142.7421  154.7648 H   0  0  0  0  0  0  0  0  0  0  0  0
  148.3401  143.1404  156.7855 H   0  0  0  0  0  0  0  0  0  0  0  0
  150.2472  140.7088  153.7668 H   0  0  0  0  0  0  0  0  0  0  0  0
  149.0281  138.1274  154.8129 H   0  0  0  0  0  0  0  0  0  0  0  0
  149.6646  138.4129  153.1901 H   0  0  0  0  0  0  0  0  0  0  0  0
  151.2439  137.3069  155.1000 H   0  0  0  0  0  0  0  0  0  0  0  0
  151.9088  138.4668  153.9465 H   0  0  0  0  0  0  0  0  0  0  0  0
  150.8334  141.2202  156.0550 H   0  0  0  0  0  0  0  0  0  0  0  0
  149.7607  139.9635  156.6780 H   0  0  0  0  0  0  0  0  0  0  0  0
  144.0386  133.0568  151.7844 H   0  0  0  0  0  0  0  0  0  0  0  0
  144.1917  134.2522  150.5219 H   0  0  0  0  0  0  0  0  0  0  0  0
  146.5773  133.6477  150.2125 H   0  0  0  0  0  0  0  0  0  0  0  0
  145.0437  132.5606  148.7296 H   0  0  0  0  0  0  0  0  0  0  0  0
  144.6439  131.3189  149.8964 H   0  0  0  0  0  0  0  0  0  0  0  0
  146.2637  131.3833  149.1924 H   0  0  0  0  0  0  0  0  0  0  0  0
  147.5155  131.8652  151.2646 H   0  0  0  0  0  0  0  0  0  0  0  0
  1  2  1  0  0  0  0
  1 30  1  0  0  0  0
  1 31  1  0  0  0  0
  1 32  1  0  0  0  0
  2  3  1  0  0  0  0
  2 33  1  0  0  0  0
  2 34  1  0  0  0  0
  3 28  1  0  0  0  0
  3  4  1  0  0  0  0
  3 64  1  0  0  0  0
  4  5  1  0  0  0  0
  4 35  1  0  0  0  0
  4 36  1  0  0  0  0
  5  6  1  0  0  0  0
  5 37  1  0  0  0  0
  5 38  1  0  0  0  0
  6  7  1  0  0  0  0
  6 27  1  0  0  0  0
  6 39  1  0  0  0  0
  7  8  1  0  0  0  0
  7  9  1  0  0  0  0
  8 40  1  0  0  0  0
  8 41  1  0  0  0  0
  8 42  1  0  0  0  0
  9 14  1  0  0  0  0
  9 10  2  0  0  0  0
 10 11  1  0  0  0  0
 11 12  2  0  0  0  0
 11 43  1  0  0  0  0
 12 13  1  0  0  0  0
 13 17  1  0  0  0  0
 13 14  2  0  0  0  0
 14 15  1  0  0  0  0
 15 16  2  0  0  0  0
 16 17  1  0  0  0  0
 16 44  1  0  0  0  0
 17 18  1  0  0  0  0
 18 19  1  0  0  0  0
 18 45  1  0  0  0  0
 18 46  1  0  0  0  0
 19 20  1  0  0  0  0
 19 22  1  0  0  0  0
 19 47  1  0  0  0  0
 20 21  1  0  0  0  0
 20 48  1  0  0  0  0
 20 49  1  0  0  0  0
 21 50  1  0  0  0  0
 22 26  1  0  0  0  0
 22 23  1  0  0  0  0
 22 51  1  0  0  0  0
 23 24  1  0  0  0  0
 23 52  1  0  0  0  0
 23 53  1  0  0  0  0
 24 25  1  0  0  0  0
 24 54  1  0  0  0  0
 24 55  1  0  0  0  0
 25 26  1  0  0  0  0
 26 56  1  0  0  0  0
 26 57  1  0  0  0  0
 27 28  1  0  0  0  0
 27 58  1  0  0  0  0
 27 59  1  0  0  0  0
 28 29  1  0  0  0  0
 28 60  1  0  0  0  0
 29 61  1  0  0  0  0
 29 62  1  0  0  0  0
 29 63  1  0  0  0  0
M  CHG  1   3   1
M  END
> <s_m_source_file>
AV-unprocessed.smi

> <i_m_source_file_index>
249

> <i_lp_mmshare_version>
43012

> <i_f3d_flags>
0

> <s_epik_input>
W0NIM11bQ0gyXU4xW0NIMl1bQ0gyXVtDQEhdKFtDSDJdW0NASF0xW0NIM10pTihbQ0gzXSljKG5bY0hdbjIpYyhjMjMpbltjSF1uM1tDSDJdW0NASF0oW0NIMl1bT0hdKVtDQEBIXTRbQ0gyXVtDSDJdT1tDSDJdNA==

> <s_epik_cmdline>
J2VwaWtfcHl0aG9uJywgJy1waCcsICc3LjAnLCAnLXRuJywgJzgnLCAnLW1hJywgJzIwMCcsICctbWV0YWxfYmluZGluZycsICctaW1hZScsICc8aW5maWxlLm1hZT4nLCAnLW9tYWUnLCAnPG91dGZpbGUubWFlPic=

> <r_lp_tautomer_probability>
1

> <r_epik_Ionization_Penalty>
0.00294688

> <r_epik_Ionization_Penalty_Charging>
0.00169971

> <r_epik_Ionization_Penalty_Neutral>
0.00124717

> <r_epik_State_Penalty>
-0

> <r_epik_Charging_Adjusted_Penalty>
0.00169971

> <i_epik_Tot_Q>
1

> <i_epik_Tot_abs_Q>
1

> <r_epik_Metal_State_Penalty>
-0

> <b_epik_Metal_Only>
0

> <s_lp_Force_Field>
OPLS_2005

> <r_lp_Energy>
55.1027

> <b_lp_Chiralities_Consistent>
1

> <s_lp_Variant>
AV-unprocessed.smi:249-19

> <Gold.Version>
5.8.1

> <Gold.Id.Protein>
6NUR|6NUR_protein|mol2

> <Gold.PLP.Fitness>
48.9742

> <Gold.PLP.PLP>
-44.1002

> <Gold.PLP.part.hbond>
-2.0000

> <Gold.PLP.part.metal>
0.0000

> <Gold.PLP.part.buried>
2.4731

> <Gold.PLP.part.nonpolar>
-45.3390

> <Gold.PLP.part.repulsive>
0.8733

> <Gold.PLP.ligand.clash>
0.0000

> <Gold.PLP.ligand.torsion>
1.7761

> <Gold.PLP.Chemscore.Hbond>
1.5440

> <Gold.PLP.Chemscore.CHOScore>
0.8543

> <Gold.PLP.Chemscore.Metal>
0.0000

> <Gold.Chemscore.Hbonds>
donor molecule, donor type, donor heavy atom, donor atom, acceptor molecule, acceptor atom, score
      L1  H     3    64       P1 10747  0.99
      L1  H    21    50       P1  8028  0.54
      L1  C    16    44       P1  7957  0.91

> <Gold.PLP.Chemscore.Internal.Correction>
1.2316

> <Gold.Rescore>
     Score         DG    S(hbond)    S(metal)    S(lipo)     H(rot)  DE(clash)    DE(int)     intcor
     12.09     -16.64       1.44        0.00     112.41       2.65       2.04       2.51       ----

> <Gold.Chemscore.Fitness>
12.0940

> <Gold.Chemscore.DG>
-16.6433

> <Gold.Chemscore.ZeroCoef>
-5.4800

> <Gold.Chemscore.Hbond>
1.4369

> <Gold.Chemscore.Metal>
0.0000

> <Gold.Chemscore.Lipo>
112.4099

> <Gold.Chemscore.Internal_Hbond>
0.0000

> <Gold.Chemscore.DEClash>
2.0414

> <Gold.Chemscore.DEInternal>
2.5079

> <Gold.Chemscore.Rot>
2.6515

> <Gold.Chemscore.Internal.Correction>
   9.000000E+99

> <Gold.Chemscore.Hbonds>
donor molecule, donor type, donor heavy atom, donor atom, acceptor molecule, acceptor atom, score
      L1  H     3    64       P1 10747  0.92
      L1  H    21    50       P1  8028  0.21

> <Gold.Chemscore.Hbond.Weighted>
-4.7993

> <Gold.Chemscore.Metal.Weighted>
-0.0000

> <Gold.Chemscore.Lipo.Weighted>
-13.1520

> <Gold.Chemscore.Internal_Hbond.Weighted>
0.0000

> <Gold.Chemscore.DEClash.Weighted>
2.0414

> <Gold.Chemscore.DEInternal.Weighted>
2.5079

> <Gold.Chemscore.Rot.Weighted>
6.7880

> <Gold.Chemscore.Internal.Correction.Weighted>
   9.000000E+99

> <Gold.Protein.RotatedTorsions>
[ 6907 6896 6895 6894 ] final -102.26 input  -60.11 | X-H torsion
[ 7974 7965 7964 7962 ] final   54.77 input  175.53 | X-H torsion
[ 8008 7997 7996 7995 ] final   96.90 input   59.86 | X-H torsion
[ 10167 10162 10161 10158 ] final  -96.28 input  -65.29 | X-H torsion
[ 10718 10713 10712 10709 ] final  -24.49 input   66.30 | X-H torsion
[ 10763 10752 10751 10750 ] final  166.98 input  -60.55 | X-H torsion
[ 11005 11000 10999 10996 ] final  168.16 input  -57.11 | X-H torsion

> <Gold.Protein.ActiveResidues>
 VAL166  LYS551  ARG553  GLY616  TRP617  ASP618  TYR619  PRO620  LYS621  CYS622 
 ASP623  PHE694  ASN695  SER759  ASP760  ASP761  ALA762  ILE779  LEU786  VAL792 
 PHE793  MET794  SER795  GLU796  ALA797  LYS798  CYS799  TRP800  GLU811  SER814 

> <Gold.Protein.RotatedAtoms>
  150.7188  134.0609  159.3830 H   0  0  0  0  0  0  0  0  0  0  0  0  # atno 6907 bound_to 6896
  151.8588  135.0529  160.0476 H   0  0  0  0  0  0  0  0  0  0  0  0  # atno 6908 bound_to 6896
  152.2733  133.5367  159.5489 H   0  0  0  0  0  0  0  0  0  0  0  0  # atno 6909 bound_to 6896
  145.9574  139.4027  143.0269 H   0  0  0  0  0  0  0  0  0  0  0  0  # atno 7974 bound_to 7965
  156.0845  140.3266  155.7736 H   0  0  0  0  0  0  0  0  0  0  0  0  # atno 8008 bound_to 7997
  155.5098  140.0576  157.2942 H   0  0  0  0  0  0  0  0  0  0  0  0  # atno 8009 bound_to 7997
  154.4601  140.1962  156.0285 H   0  0  0  0  0  0  0  0  0  0  0  0  # atno 8010 bound_to 7997
  140.2954  143.3195  152.0303 H   0  0  0  0  0  0  0  0  0  0  0  0  # atno 10167 bound_to 10162
  156.4769  130.4536  149.6835 H   0  0  0  0  0  0  0  0  0  0  0  0  # atno 10718 bound_to 10713
  154.3470  135.2753  155.2392 H   0  0  0  0  0  0  0  0  0  0  0  0  # atno 10763 bound_to 10752
  154.4638  135.5900  153.6277 H   0  0  0  0  0  0  0  0  0  0  0  0  # atno 10764 bound_to 10752
  152.9853  135.6071  154.3677 H   0  0  0  0  0  0  0  0  0  0  0  0  # atno 10765 bound_to 10752
  140.2844  134.7724  157.3785 H   0  0  0  0  0  0  0  0  0  0  0  0  # atno 11005 bound_to 11000
  145.8088  140.9736  143.0960 LP  0  0  0  0  0  0  0  0  0  0  0  0  # atno 17320 bound_to 7965
  144.6808  139.9894  143.7484 LP  0  0  0  0  0  0  0  0  0  0  0  0  # atno 17321 bound_to 7965
  139.4927  144.6494  151.6708 LP  0  0  0  0  0  0  0  0  0  0  0  0  # atno 17342 bound_to 10162
  140.5696  144.0131  150.6210 LP  0  0  0  0  0  0  0  0  0  0  0  0  # atno 17343 bound_to 10162
  156.3561  130.7457  151.2423 LP  0  0  0  0  0  0  0  0  0  0  0  0  # atno 17370 bound_to 10713
  157.7486  131.0363  150.4404 LP  0  0  0  0  0  0  0  0  0  0  0  0  # atno 17371 bound_to 10713
  140.1253  134.5165  155.8149 LP  0  0  0  0  0  0  0  0  0  0  0  0  # atno 17394 bound_to 11000
  141.2157  133.6771  156.6941 LP  0  0  0  0  0  0  0  0  0  0  0  0  # atno 17395 bound_to 11000

$$$$
