AV-unprocessed.smi:2840|AV-procd|sdf|10934|dock2
  -GOLD-   2272015383D 1   1.00000     0.00000
 Structure written by MMmdl.
 36 37  0  0  0  0  0  0  0  0  1 V2000
  150.8031  139.9416  154.7016 C   0  0  0  0  0  0  0  0  0  0  0  0
  149.3635  140.3521  154.3443 C   0  0  1  0  0  0  0  0  0  0  0  0
  148.6425  139.2001  153.6149 C   0  0  0  0  0  0  0  0  0  0  0  0
  147.2031  139.5745  153.2320 C   0  0  0  0  0  0  0  0  0  0  0  0
  146.4010  140.0065  154.4666 C   0  0  0  0  0  0  0  0  0  0  0  0
  147.0961  141.1661  155.1939 C   0  0  0  0  0  0  0  0  0  0  0  0
  148.5464  140.8128  155.5796 C   0  0  2  0  0  0  0  0  0  0  0  0
  149.1615  141.9823  156.2062 N   0  0  0  0  0  0  0  0  0  0  0  0
  149.9510  141.9726  157.2909 C   0  0  0  0  0  0  0  0  0  0  0  0
  150.2675  140.9482  157.8963 O   0  0  0  0  0  0  0  0  0  0  0  0
  150.3402  143.2182  157.6145 N   0  0  0  0  0  0  0  0  0  0  0  0
  151.1883  143.6260  158.6783 C   0  0  0  0  0  0  0  0  0  0  0  0
  151.3303  145.0242  158.8271 C   0  0  0  0  0  0  0  0  0  0  0  0
  152.1534  145.5319  159.8508 C   0  0  0  0  0  0  0  0  0  0  0  0
  152.8140  144.6273  160.7011 C   0  0  0  0  0  0  0  0  0  0  0  0
  152.6191  143.2508  160.4843 C   0  0  0  0  0  0  0  0  0  0  0  0
  151.8310  142.7621  159.5035 N   0  0  0  0  0  0  0  0  0  0  0  0
  150.8121  139.1320  155.4323 H   0  0  0  0  0  0  0  0  0  0  0  0
  151.3688  140.7738  155.1200 H   0  0  0  0  0  0  0  0  0  0  0  0
  151.3433  139.5981  153.8190 H   0  0  0  0  0  0  0  0  0  0  0  0
  149.4268  141.1911  153.6493 H   0  0  0  0  0  0  0  0  0  0  0  0
  149.1955  138.9240  152.7163 H   0  0  0  0  0  0  0  0  0  0  0  0
  148.6284  138.3138  154.2510 H   0  0  0  0  0  0  0  0  0  0  0  0
  147.2166  140.3836  152.5007 H   0  0  0  0  0  0  0  0  0  0  0  0
  146.7144  138.7280  152.7488 H   0  0  0  0  0  0  0  0  0  0  0  0
  145.3941  140.3026  154.1713 H   0  0  0  0  0  0  0  0  0  0  0  0
  146.2892  139.1610  155.1465 H   0  0  0  0  0  0  0  0  0  0  0  0
  147.0876  142.0486  154.5524 H   0  0  0  0  0  0  0  0  0  0  0  0
  146.5269  141.4296  156.0864 H   0  0  0  0  0  0  0  0  0  0  0  0
  148.5054  139.9851  156.2905 H   0  0  0  0  0  0  0  0  0  0  0  0
  148.9637  142.8746  155.7778 H   0  0  0  0  0  0  0  0  0  0  0  0
  149.9915  143.9623  157.0287 H   0  0  0  0  0  0  0  0  0  0  0  0
  150.8150  145.7052  158.1650 H   0  0  0  0  0  0  0  0  0  0  0  0
  152.2755  146.5971  159.9800 H   0  0  0  0  0  0  0  0  0  0  0  0
  153.4535  144.9787  161.4973 H   0  0  0  0  0  0  0  0  0  0  0  0
  153.1092  142.5228  161.1138 H   0  0  0  0  0  0  0  0  0  0  0  0
  1  2  1  0  0  0  0
  1 18  1  0  0  0  0
  1 19  1  0  0  0  0
  1 20  1  0  0  0  0
  2  7  1  0  0  0  0
  2  3  1  0  0  0  0
  2 21  1  0  0  0  0
  3  4  1  0  0  0  0
  3 22  1  0  0  0  0
  3 23  1  0  0  0  0
  4  5  1  0  0  0  0
  4 24  1  0  0  0  0
  4 25  1  0  0  0  0
  5  6  1  0  0  0  0
  5 26  1  0  0  0  0
  5 27  1  0  0  0  0
  6  7  1  0  0  0  0
  6 28  1  0  0  0  0
  6 29  1  0  0  0  0
  7  8  1  0  0  0  0
  7 30  1  0  0  0  0
  8  9  1  0  0  0  0
  8 31  1  0  0  0  0
  9 10  2  0  0  0  0
  9 11  1  0  0  0  0
 11 12  1  0  0  0  0
 11 32  1  0  0  0  0
 12 17  1  0  0  0  0
 12 13  2  0  0  0  0
 13 14  1  0  0  0  0
 13 33  1  0  0  0  0
 14 15  2  0  0  0  0
 14 34  1  0  0  0  0
 15 16  1  0  0  0  0
 15 35  1  0  0  0  0
 16 17  2  0  0  0  0
 16 36  1  0  0  0  0
M  END
> <s_m_source_file>
AV-unprocessed.smi

> <i_m_source_file_index>
2840

> <i_lp_mmshare_version>
43012

> <i_f3d_flags>
0

> <s_epik_input>
W0NIM11bQ0BASF0xW0NIMl1bQ0gyXVtDSDJdW0NIMl1bQ0BIXTFbTkhdQyg9TylbTkhdYzJbY0hdW2NIXVtjSF1bY0hdbjI=

> <s_epik_cmdline>
J2VwaWtfcHl0aG9uJywgJy1waCcsICc3LjAnLCAnLXRuJywgJzgnLCAnLW1hJywgJzIwMCcsICctbWV0YWxfYmluZGluZycsICctaW1hZScsICc8aW5maWxlLm1hZT4nLCAnLW9tYWUnLCAnPG91dGZpbGUubWFlPic=

> <r_lp_tautomer_probability>
1

> <r_epik_Ionization_Penalty>
5.29956e-05

> <r_epik_Ionization_Penalty_Charging>
0

> <r_epik_Ionization_Penalty_Neutral>
5.29956e-05

> <r_epik_State_Penalty>
-0

> <r_epik_Charging_Adjusted_Penalty>
0

> <i_epik_Tot_Q>
0

> <i_epik_Tot_abs_Q>
0

> <r_epik_Metal_State_Penalty>
-0

> <b_epik_Metal_Only>
0

> <s_lp_Force_Field>
OPLS_2005

> <r_lp_Energy>
13.2298

> <b_lp_Chiralities_Consistent>
1

> <s_lp_Variant>
AV-unprocessed.smi:2840-4

> <Gold.Version>
5.8.1

> <Gold.Id.Protein>
6NUR|6NUR_protein|mol2

> <Gold.PLP.Fitness>
37.8671

> <Gold.PLP.PLP>
-32.4365

> <Gold.PLP.part.hbond>
-2.6164

> <Gold.PLP.part.metal>
0.0000

> <Gold.PLP.part.buried>
-2.5253

> <Gold.PLP.part.nonpolar>
-28.0069

> <Gold.PLP.part.repulsive>
0.1157

> <Gold.PLP.ligand.clash>
0.0000

> <Gold.PLP.ligand.torsion>
0.2747

> <Gold.PLP.Chemscore.Hbond>
1.9920

> <Gold.PLP.Chemscore.CHOScore>
0.0000

> <Gold.PLP.Chemscore.Metal>
0.0000

> <Gold.Chemscore.Hbonds>
donor molecule, donor type, donor heavy atom, donor atom, acceptor molecule, acceptor atom, score
      L1  H     8    31       P1  8028  1.00
      L1  H    11    32       P1  8028  1.00

> <Gold.PLP.Chemscore.Internal.Correction>
0.0040

> <Gold.Rescore>
     Score         DG    S(hbond)    S(metal)    S(lipo)     H(rot)  DE(clash)    DE(int)     intcor
     17.20     -19.07       1.86        0.00      85.06       1.00       0.22       1.65       ----

> <Gold.Chemscore.Fitness>
17.2007

> <Gold.Chemscore.DG>
-19.0691

> <Gold.Chemscore.ZeroCoef>
-5.4800

> <Gold.Chemscore.Hbond>
1.8555

> <Gold.Chemscore.Metal>
0.0000

> <Gold.Chemscore.Lipo>
85.0577

> <Gold.Chemscore.Internal_Hbond>
0.0000

> <Gold.Chemscore.DEClash>
0.2204

> <Gold.Chemscore.DEInternal>
1.6480

> <Gold.Chemscore.Rot>
1.0000

> <Gold.Chemscore.Internal.Correction>
   9.000000E+99

> <Gold.Chemscore.Hbonds>
donor molecule, donor type, donor heavy atom, donor atom, acceptor molecule, acceptor atom, score
      L1  H     8    31       P1  8028  0.99
      L1  H    11    32       P1  8028  0.91

> <Gold.Chemscore.Hbond.Weighted>
-6.1973

> <Gold.Chemscore.Metal.Weighted>
-0.0000

> <Gold.Chemscore.Lipo.Weighted>
-9.9517

> <Gold.Chemscore.Internal_Hbond.Weighted>
0.0000

> <Gold.Chemscore.DEClash.Weighted>
0.2204

> <Gold.Chemscore.DEInternal.Weighted>
1.6480

> <Gold.Chemscore.Rot.Weighted>
2.5600

> <Gold.Chemscore.Internal.Correction.Weighted>
   9.000000E+99

> <Gold.Protein.RotatedTorsions>
[ 6907 6896 6895 6894 ] final    8.54 input  -60.11 | X-H torsion
[ 7974 7965 7964 7962 ] final   52.45 input  175.53 | X-H torsion
[ 8008 7997 7996 7995 ] final -153.62 input   59.86 | X-H torsion
[ 10167 10162 10161 10158 ] final  -87.57 input  -65.29 | X-H torsion
[ 10718 10713 10712 10709 ] final -116.77 input   66.30 | X-H torsion
[ 10763 10752 10751 10750 ] final  165.93 input  -60.55 | X-H torsion
[ 11005 11000 10999 10996 ] final    9.40 input  -57.11 | X-H torsion

> <Gold.Protein.ActiveResidues>
 VAL166  LYS551  ARG553  GLY616  TRP617  ASP618  TYR619  PRO620  LYS621  CYS622 
 ASP623  PHE694  ASN695  SER759  ASP760  ASP761  ALA762  ILE779  LEU786  VAL792 
 PHE793  MET794  SER795  GLU796  ALA797  LYS798  CYS799  TRP800  GLU811  SER814 

> <Gold.Protein.RotatedAtoms>
  151.7078  135.0918  160.0262 H   0  0  0  0  0  0  0  0  0  0  0  0  # atno 6907 bound_to 6896
  152.3681  133.6378  159.6074 H   0  0  0  0  0  0  0  0  0  0  0  0  # atno 6908 bound_to 6896
  150.7653  133.9232  159.3445 H   0  0  0  0  0  0  0  0  0  0  0  0  # atno 6909 bound_to 6896
  145.9812  139.4244  143.0131 H   0  0  0  0  0  0  0  0  0  0  0  0  # atno 7974 bound_to 7965
  155.6736  140.0736  157.2511 H   0  0  0  0  0  0  0  0  0  0  0  0  # atno 8008 bound_to 7997
  154.4118  140.1694  156.1957 H   0  0  0  0  0  0  0  0  0  0  0  0  # atno 8009 bound_to 7997
  155.9595  140.3371  155.6481 H   0  0  0  0  0  0  0  0  0  0  0  0  # atno 8010 bound_to 7997
  140.3831  143.2739  151.9359 H   0  0  0  0  0  0  0  0  0  0  0  0  # atno 10167 bound_to 10162
  156.0987  130.6154  150.9079 H   0  0  0  0  0  0  0  0  0  0  0  0  # atno 10718 bound_to 10713
  154.3314  135.2755  155.2470 H   0  0  0  0  0  0  0  0  0  0  0  0  # atno 10763 bound_to 10752
  154.4780  135.5866  153.6372 H   0  0  0  0  0  0  0  0  0  0  0  0  # atno 10764 bound_to 10752
  152.9866  135.6104  154.3506 H   0  0  0  0  0  0  0  0  0  0  0  0  # atno 10765 bound_to 10752
  140.5262  134.0511  155.7859 H   0  0  0  0  0  0  0  0  0  0  0  0  # atno 11005 bound_to 11000
  145.7767  140.9874  143.1121 LP  0  0  0  0  0  0  0  0  0  0  0  0  # atno 17320 bound_to 7965
  144.6862  139.9514  143.7478 LP  0  0  0  0  0  0  0  0  0  0  0  0  # atno 17321 bound_to 7965
  139.4794  144.5799  151.7949 LP  0  0  0  0  0  0  0  0  0  0  0  0  # atno 17342 bound_to 10162
  140.4917  144.1300  150.5951 LP  0  0  0  0  0  0  0  0  0  0  0  0  # atno 17343 bound_to 10162
  157.6153  131.0933  150.8722 LP  0  0  0  0  0  0  0  0  0  0  0  0  # atno 17370 bound_to 10713
  156.8854  130.5194  149.5289 LP  0  0  0  0  0  0  0  0  0  0  0  0  # atno 17371 bound_to 10713
  141.1307  133.9307  157.2542 LP  0  0  0  0  0  0  0  0  0  0  0  0  # atno 17394 bound_to 11000
  139.9579  135.0161  156.9179 LP  0  0  0  0  0  0  0  0  0  0  0  0  # atno 17395 bound_to 11000

$$$$
