AV-unprocessed.smi:1362|AV-procd|sdf|5561|dock3
  -GOLD-   22720 5153D 1   1.00000     0.00000
 Structure written by MMmdl.
 39 39  0  0  0  0  0  0  0  0  1 V2000
  150.6447  142.4318  157.1965 C   0  0  0  0  0  0  0  0  0  0  0  0
  150.9457  141.2258  156.3332 C   0  0  0  0  0  0  0  0  0  0  0  0
  149.8316  140.7062  155.6954 N   0  0  0  0  0  0  0  0  0  0  0  0
  150.0088  139.6035  154.8785 C   0  0  0  0  0  0  0  0  0  0  0  0
  148.7390  139.0991  154.2145 C   0  0  0  0  0  0  0  0  0  0  0  0
  151.2348  139.0479  154.7044 C   0  0  0  0  0  0  0  0  0  0  0  0
  151.4706  137.8351  153.8053 C   0  0  0  0  0  0  0  0  0  0  0  0
  151.4414  136.4722  154.5018 C   0  0  0  0  0  0  0  0  0  0  0  0
  152.2804  136.1913  155.3579 O   0  0  0  0  0  0  0  0  0  0  0  0
  150.4677  135.6323  154.1178 N   0  0  0  0  0  0  0  0  0  0  0  0
  150.2693  134.2720  154.6171 C   0  0  1  0  0  0  0  0  0  0  0  0
  148.9805  134.2354  155.4605 C   0  0  0  0  0  0  0  0  0  0  0  0
  150.2588  133.2656  153.4360 C   0  0  0  0  0  0  0  0  0  0  0  0
  148.9109  133.2474  152.6923 C   0  0  0  0  0  0  0  0  0  0  0  0
  150.6162  131.8346  153.8843 C   0  0  0  0  0  0  0  0  0  0  0  0
  152.3901  139.6504  155.4108 C   0  0  0  0  0  0  0  0  0  0  0  0
  153.5282  139.2001  155.2859 O   0  0  0  0  0  0  0  0  0  0  0  0
  152.1555  140.7656  156.2318 N   0  0  0  0  0  0  0  0  0  0  0  0
  148.9033  141.0915  155.7926 H   0  0  0  0  0  0  0  0  0  0  0  0
  151.5063  142.6964  157.8106 H   0  0  0  0  0  0  0  0  0  0  0  0
  149.8042  142.2284  157.8610 H   0  0  0  0  0  0  0  0  0  0  0  0
  150.3939  143.2897  156.5721 H   0  0  0  0  0  0  0  0  0  0  0  0
  148.5232  138.0782  154.5305 H   0  0  0  0  0  0  0  0  0  0  0  0
  148.8451  139.1098  153.1295 H   0  0  0  0  0  0  0  0  0  0  0  0
  147.8784  139.7181  154.4715 H   0  0  0  0  0  0  0  0  0  0  0  0
  152.4404  137.9560  153.3209 H   0  0  0  0  0  0  0  0  0  0  0  0
  150.7521  137.8143  152.9855 H   0  0  0  0  0  0  0  0  0  0  0  0
  149.8219  135.9527  153.4111 H   0  0  0  0  0  0  0  0  0  0  0  0
  151.1081  134.0131  155.2662 H   0  0  0  0  0  0  0  0  0  0  0  0
  148.8551  133.2779  155.9646 H   0  0  0  0  0  0  0  0  0  0  0  0
  148.0975  134.4101  154.8447 H   0  0  0  0  0  0  0  0  0  0  0  0
  148.9964  134.9989  156.2390 H   0  0  0  0  0  0  0  0  0  0  0  0
  151.0201  133.5781  152.7197 H   0  0  0  0  0  0  0  0  0  0  0  0
  148.0896  133.0033  153.3670 H   0  0  0  0  0  0  0  0  0  0  0  0
  148.9138  132.5055  151.8931 H   0  0  0  0  0  0  0  0  0  0  0  0
  148.6902  134.2076  152.2271 H   0  0  0  0  0  0  0  0  0  0  0  0
  149.9167  131.4715  154.6378 H   0  0  0  0  0  0  0  0  0  0  0  0
  151.6197  131.7759  154.3063 H   0  0  0  0  0  0  0  0  0  0  0  0
  150.5860  131.1410  153.0434 H   0  0  0  0  0  0  0  0  0  0  0  0
  1 20  1  0  0  0  0
  1 21  1  0  0  0  0
  1 22  1  0  0  0  0
  1  2  1  0  0  0  0
  2  3  1  0  0  0  0
  2 18  2  0  0  0  0
  3  4  1  0  0  0  0
  3 19  1  0  0  0  0
  4  6  2  0  0  0  0
  4  5  1  0  0  0  0
  5 23  1  0  0  0  0
  5 24  1  0  0  0  0
  5 25  1  0  0  0  0
  6 16  1  0  0  0  0
  6  7  1  0  0  0  0
  7  8  1  0  0  0  0
  7 26  1  0  0  0  0
  7 27  1  0  0  0  0
  8  9  2  0  0  0  0
  8 10  1  0  0  0  0
 10 11  1  0  0  0  0
 10 28  1  0  0  0  0
 11 12  1  0  0  0  0
 11 13  1  0  0  0  0
 11 29  1  0  0  0  0
 12 30  1  0  0  0  0
 12 31  1  0  0  0  0
 12 32  1  0  0  0  0
 13 14  1  0  0  0  0
 13 15  1  0  0  0  0
 13 33  1  0  0  0  0
 14 34  1  0  0  0  0
 14 35  1  0  0  0  0
 14 36  1  0  0  0  0
 15 37  1  0  0  0  0
 15 38  1  0  0  0  0
 15 39  1  0  0  0  0
 16 17  2  0  0  0  0
 16 18  1  0  0  0  0
M  END
> <s_m_source_file>
AV-unprocessed.smi

> <i_m_source_file_index>
1362

> <i_lp_mmshare_version>
43012

> <i_f3d_flags>
0

> <s_epik_input>
W0NIM11jMW5jKFtDSDNdKWMoYyg9TylbbkhdMSlbQ0gyXUMoPU8pW05IXVtDQEhdKFtDSDNdKVtDSF0oW0NIM10pW0NIM10=

> <s_epik_cmdline>
J2VwaWtfcHl0aG9uJywgJy1waCcsICc3LjAnLCAnLXRuJywgJzgnLCAnLW1hJywgJzIwMCcsICctbWV0YWxfYmluZGluZycsICctaW1hZScsICc8aW5maWxlLm1hZT4nLCAnLW9tYWUnLCAnPG91dGZpbGUubWFlPic=

> <r_lp_tautomer_probability>
0.156392

> <r_epik_Ionization_Penalty>
0.0140737

> <r_epik_Ionization_Penalty_Charging>
0.0139511

> <r_epik_Ionization_Penalty_Neutral>
0.000122633

> <r_epik_State_Penalty>
1.53034

> <r_epik_Charging_Adjusted_Penalty>
1.54429

> <i_epik_Tot_Q>
0

> <i_epik_Tot_abs_Q>
0

> <r_epik_Metal_State_Penalty>
1.70655

> <b_epik_Metal_Only>
0

> <s_lp_Force_Field>
OPLS_2005

> <r_lp_Energy>
10.7391

> <b_lp_Chiralities_Consistent>
1

> <s_lp_Variant>
AV-unprocessed.smi:1362-4

> <Gold.Version>
5.8.1

> <Gold.Id.Protein>
6NUR|6NUR_protein|mol2

> <Gold.PLP.Fitness>
39.6532

> <Gold.PLP.PLP>
-32.4279

> <Gold.PLP.part.hbond>
-3.7039

> <Gold.PLP.part.metal>
0.0000

> <Gold.PLP.part.buried>
1.4417

> <Gold.PLP.part.nonpolar>
-29.1651

> <Gold.PLP.part.repulsive>
0.1894

> <Gold.PLP.ligand.clash>
0.0000

> <Gold.PLP.ligand.torsion>
0.7932

> <Gold.PLP.Chemscore.Hbond>
2.9280

> <Gold.PLP.Chemscore.CHOScore>
0.0000

> <Gold.PLP.Chemscore.Metal>
0.0000

> <Gold.Chemscore.Hbonds>
donor molecule, donor type, donor heavy atom, donor atom, acceptor molecule, acceptor atom, score
      L1  H    10    28       P1  7948  0.65
      P1  H  7997  8008       L1    17  0.59
      P1  H 10752 10765       L1     9  0.22

> <Gold.PLP.Chemscore.Internal.Correction>
0.0276

> <Gold.Rescore>
     Score         DG    S(hbond)    S(metal)    S(lipo)     H(rot)  DE(clash)    DE(int)     intcor
     12.49     -13.28       1.54        0.00      59.83       1.69       0.05       0.75       ----

> <Gold.Chemscore.Fitness>
12.4877

> <Gold.Chemscore.DG>
-13.2825

> <Gold.Chemscore.ZeroCoef>
-5.4800

> <Gold.Chemscore.Hbond>
1.5368

> <Gold.Chemscore.Metal>
0.0000

> <Gold.Chemscore.Lipo>
59.8310

> <Gold.Chemscore.Internal_Hbond>
0.0000

> <Gold.Chemscore.DEClash>
0.0465

> <Gold.Chemscore.DEInternal>
0.7482

> <Gold.Chemscore.Rot>
1.6916

> <Gold.Chemscore.Internal.Correction>
   9.000000E+99

> <Gold.Chemscore.Hbonds>
donor molecule, donor type, donor heavy atom, donor atom, acceptor molecule, acceptor atom, score
      L1  H    10    28       P1  7948  0.06
      P1  H  7997  8008       L1    17  0.21
      P1  H 10752 10765       L1     9  0.21

> <Gold.Chemscore.Hbond.Weighted>
-5.1328

> <Gold.Chemscore.Metal.Weighted>
-0.0000

> <Gold.Chemscore.Lipo.Weighted>
-7.0002

> <Gold.Chemscore.Internal_Hbond.Weighted>
0.0000

> <Gold.Chemscore.DEClash.Weighted>
0.0465

> <Gold.Chemscore.DEInternal.Weighted>
0.7482

> <Gold.Chemscore.Rot.Weighted>
4.3305

> <Gold.Chemscore.Internal.Correction.Weighted>
   9.000000E+99

> <Gold.Protein.RotatedTorsions>
[ 6907 6896 6895 6894 ] final  146.67 input  -60.11 | X-H torsion
[ 7974 7965 7964 7962 ] final   -1.41 input  175.53 | X-H torsion
[ 8008 7997 7996 7995 ] final  -50.56 input   59.86 | X-H torsion
[ 10167 10162 10161 10158 ] final  -17.64 input  -65.29 | X-H torsion
[ 10718 10713 10712 10709 ] final  -74.34 input   66.30 | X-H torsion
[ 10763 10752 10751 10750 ] final -139.14 input  -60.55 | X-H torsion
[ 11005 11000 10999 10996 ] final  -13.40 input  -57.11 | X-H torsion

> <Gold.Protein.ActiveResidues>
 VAL166  LYS551  ARG553  GLY616  TRP617  ASP618  TYR619  PRO620  LYS621  CYS622 
 ASP623  PHE694  ASN695  SER759  ASP760  ASP761  ALA762  ILE779  LEU786  VAL792 
 PHE793  MET794  SER795  GLU796  ALA797  LYS798  CYS799  TRP800  GLU811  SER814 

> <Gold.Protein.RotatedAtoms>
  152.1648  133.4605  159.4878 H   0  0  0  0  0  0  0  0  0  0  0  0  # atno 6907 bound_to 6896
  150.6911  134.2026  159.4337 H   0  0  0  0  0  0  0  0  0  0  0  0  # atno 6908 bound_to 6896
  151.9930  134.9968  160.0613 H   0  0  0  0  0  0  0  0  0  0  0  0  # atno 6909 bound_to 6896
  146.2417  140.1415  142.8335 H   0  0  0  0  0  0  0  0  0  0  0  0  # atno 7974 bound_to 7965
  154.4064  140.1269  156.4686 H   0  0  0  0  0  0  0  0  0  0  0  0  # atno 8008 bound_to 7997
  155.7202  140.3493  155.4993 H   0  0  0  0  0  0  0  0  0  0  0  0  # atno 8009 bound_to 7997
  155.9221  140.1054  157.1189 H   0  0  0  0  0  0  0  0  0  0  0  0  # atno 8010 bound_to 7997
  140.7249  143.4995  150.9887 H   0  0  0  0  0  0  0  0  0  0  0  0  # atno 10167 bound_to 10162
  156.0246  130.4415  150.2878 H   0  0  0  0  0  0  0  0  0  0  0  0  # atno 10718 bound_to 10713
  154.8617  135.3591  154.5499 H   0  0  0  0  0  0  0  0  0  0  0  0  # atno 10763 bound_to 10752
  153.6118  135.7009  153.5349 H   0  0  0  0  0  0  0  0  0  0  0  0  # atno 10764 bound_to 10752
  153.3203  135.4153  155.1372 H   0  0  0  0  0  0  0  0  0  0  0  0  # atno 10765 bound_to 10752
  140.7757  133.8403  155.9247 H   0  0  0  0  0  0  0  0  0  0  0  0  # atno 11005 bound_to 11000
  145.0242  140.8819  143.5148 LP  0  0  0  0  0  0  0  0  0  0  0  0  # atno 17320 bound_to 7965
  145.1469  139.2538  143.5461 LP  0  0  0  0  0  0  0  0  0  0  0  0  # atno 17321 bound_to 7965
  139.8704  143.7200  152.3167 LP  0  0  0  0  0  0  0  0  0  0  0  0  # atno 17342 bound_to 10162
  139.7447  144.7550  151.0598 LP  0  0  0  0  0  0  0  0  0  0  0  0  # atno 17343 bound_to 10162
  157.0981  131.0188  151.3096 LP  0  0  0  0  0  0  0  0  0  0  0  0  # atno 17370 bound_to 10713
  157.4801  130.7760  149.7406 LP  0  0  0  0  0  0  0  0  0  0  0  0  # atno 17371 bound_to 10713
  140.9531  134.1753  157.4713 LP  0  0  0  0  0  0  0  0  0  0  0  0  # atno 17394 bound_to 11000
  139.8749  134.9916  156.5559 LP  0  0  0  0  0  0  0  0  0  0  0  0  # atno 17395 bound_to 11000

$$$$
