#       Name:                AV-unprocessed.smi:157
#       Creating user name   scv26
#       Creation time:       Thu Mar 26 18:57:52 2020


#       File generated by GOLD software.
#

@<TRIPOS>MOLECULE
AV-unprocessed.smi:157
    45    47     1
SMALL
NO_CHARGES


@<TRIPOS>ATOM
      1 ****        -4.8643   1.8363  -0.3773 O.3            1 S1                 0.0000
      2 ****        -3.6800   1.0826  -0.5356 C.3            1 S1                 0.0000
      3 ****        -2.5332   1.9679  -1.0666 C.3            1 S1                 0.0000
      4 ****        -1.5336   1.0926  -1.5932 O.3            1 S1                 0.0000
      5 ****        -0.3737   1.1419  -0.8153 C.3            1 S1                 0.0000
      6 ****         0.0824  -0.2550  -0.5323 N.pl3          1 S1                 0.0000
      7 ****        -0.6808  -1.3562  -0.5156 C.2            1 S1                 0.0000
      8 ****        -0.0284  -2.4716  -0.2344 N.2            1 S1                 0.0000
      9 ****         1.2863  -2.0522  -0.0382 C.2            1 S1                 0.0000
     10 ****         1.3745  -0.6779  -0.2084 C.2            1 S1                 0.0000
     11 ****         2.3759   0.2721  -0.1417 N.2            1 S1                 0.0000
     12 ****         3.4654  -0.0367   0.4880 C.2            1 S1                 0.0000
     13 ****         3.8614  -1.2394   1.0557 N.pl3          1 S1                 0.0000
     14 ****         3.7756  -2.5137   0.3631 C.3            1 S1                 0.0000
     15 ****         2.3482  -3.0674   0.2733 C.3            1 S1                 0.0000
     16 ****         2.0022  -3.6638   1.5066 O.3            1 S1                 0.0000
     17 ****        -0.7358   1.8527   0.4838 C.3            1 S1                 0.0000
     18 ****        -1.7908   2.8134  -0.0152 C.3            1 S1                 0.0000
     19 ****        -2.5978   3.2933   1.0410 O.3            1 S1                 0.0000
     20 ****        -2.9044   2.5982  -1.8759 H              1 S1                 0.0000
     21 ****         0.4314   1.6204  -1.3740 H              1 S1                 0.0000
     22 ****         2.3324  -3.8598  -0.4756 H              1 S1                 0.0000
     23 ****        -1.3067   3.6592  -0.5053 H              1 S1                 0.0000
     24 ****        -5.5461   1.2619  -0.0639 H              1 S1                 0.0000
     25 ****        -3.4132   0.5985   0.4041 H              1 S1                 0.0000
     26 ****        -3.8942   0.2884  -1.2514 H              1 S1                 0.0000
     27 ****        -1.7417  -1.3423  -0.7175 H              1 S1                 0.0000
     28 ****         4.2278   0.7336   0.6121 H              1 S1                 0.0000
     29 ****         4.6282  -1.2313   1.7126 H              1 S1                 0.0000
     30 ****         4.1559  -2.3584  -0.6477 H              1 S1                 0.0000
     31 ****         4.4438  -3.2371   0.8310 H              1 S1                 0.0000
     32 ****         1.1420  -4.0455   1.4181 H              1 S1                 0.0000
     33 ****        -1.1553   1.1379   1.1940 H              1 S1                 0.0000
     34 ****         0.1345   2.3360   0.9287 H              1 S1                 0.0000
     35 ****        -3.2893   3.8220   0.6726 H              1 S1                 0.0000
     36 ****        -5.1330   2.2306  -1.2561 LP             1 S1                 0.0000
     37 ****        -4.7110   2.5702   0.2844 LP             1 S1                 0.0000
     38 ****        -1.3136   1.3705  -2.5283 LP             1 S1                 0.0000
     39 ****        -1.8861   0.1568  -1.5977 LP             1 S1                 0.0000
     40 ****        -0.3936  -3.4007  -0.1760 LP             1 S1                 0.0000
     41 ****         2.2632   1.1704  -0.5664 LP             1 S1                 0.0000
     42 ****         1.9927  -2.9706   2.2273 LP             1 S1                 0.0000
     43 ****         2.6663  -4.3750   1.7371 LP             1 S1                 0.0000
     44 ****        -2.0447   3.8470   1.6636 LP             1 S1                 0.0000
     45 ****        -2.9922   2.5226   1.5414 LP             1 S1                 0.0000
@<TRIPOS>BOND
    1    1    2 1     
    2    1   24 1     
    3    2    3 1     
    4    2   25 1     
    5    2   26 1     
    6    3   20 1     
    7    3   18 1     
    8    3    4 1     
    9    4    5 1     
   10    5   21 1     
   11    5    6 1     
   12    5   17 1     
   13    6   10 1     
   14    6    7 1     
   15    7    8 2     
   16    7   27 1     
   17    8    9 1     
   18    9   15 1     
   19    9   10 2     
   20   10   11 1     
   21   11   12 2     
   22   12   13 1     
   23   12   28 1     
   24   13   14 1     
   25   13   29 1     
   26   14   15 1     
   27   14   30 1     
   28   14   31 1     
   29   15   22 1     
   30   15   16 1     
   31   16   32 1     
   32   17   18 1     
   33   17   33 1     
   34   17   34 1     
   35   18   23 1     
   36   18   19 1     
   37   19   35 1     
   38    1   36 1     
   39    1   37 1     
   40    4   38 1     
   41    4   39 1     
   42    8   40 1     
   43   11   41 1     
   44   16   42 1     
   45   16   43 1     
   46   19   44 1     
   47   19   45 1     
@<TRIPOS>SUBSTRUCTURE
      1 S1             1
@<TRIPOS>SET
LONE_PAIRS      STATIC     ATOMS    <user>   **** ""
10 36 37 38 39 40 41 42 43 44 45
DONOR_HYDROGENS      STATIC     ATOMS    <user>   **** ""
4 24 29 32 35
ATOM$BLUE        STATIC     ATOMS    COLORGROUP SYSTEM
10 36 37 38 39 40 41 42 43 44 45
ATOM$RED        STATIC     ATOMS    COLORGROUP SYSTEM
4 24 29 32 35
