AV-unprocessed.smi:2217|AV-procd|sdf|8970|dock1
  -GOLD-   2272012183D 1   1.00000     0.00000
 Structure written by MMmdl.
 45 48  0  0  0  0  0  0  0  0  1 V2000
  146.5903  133.5107  162.1997 C   0  0  0  0  0  0  0  0  0  0  0  0
  147.3455  134.4006  161.2352 C   0  0  0  0  0  0  0  0  0  0  0  0
  147.4170  135.7922  161.4329 C   0  0  0  0  0  0  0  0  0  0  0  0
  148.1348  136.5737  160.5071 C   0  0  0  0  0  0  0  0  0  0  0  0
  148.7669  135.9508  159.4073 C   0  0  0  0  0  0  0  0  0  0  0  0
  149.4569  136.8465  158.5364 N   0  0  0  0  0  0  0  0  0  0  0  0
  149.1812  138.1131  158.1571 C   0  0  0  0  0  0  0  0  0  0  0  0
  148.1846  138.7000  158.5750 O   0  0  0  0  0  0  0  0  0  0  0  0
  150.0554  138.6757  157.3099 N   0  0  0  0  0  0  0  0  0  0  0  0
  149.9632  140.0170  156.7347 C   0  0  2  0  0  0  0  0  0  0  0  0
  150.5450  140.0943  155.3042 C   0  0  2  0  0  0  0  0  0  0  0  0
  150.8728  138.8666  154.4889 C   0  0  0  0  0  0  0  0  0  0  0  0
  152.3729  138.6813  154.7385 C   0  0  0  0  0  0  0  0  0  0  0  0
  152.6390  139.4047  155.9386 O   0  0  0  0  0  0  0  0  0  0  0  0
  151.8436  140.5883  155.9220 C   0  0  2  0  0  0  0  0  0  0  0  0
  151.1036  140.9373  157.2302 C   0  0  0  0  0  0  0  0  0  0  0  0
  151.8169  140.6417  158.5501 C   0  0  0  0  0  0  0  0  0  0  0  0
  152.6215  141.8925  158.9055 C   0  0  0  0  0  0  0  0  0  0  0  0
  151.8925  143.0541  158.2235 C   0  0  0  0  0  0  0  0  0  0  0  0
  150.7627  142.4165  157.4074 C   0  0  0  0  0  0  0  0  0  0  0  0
  148.6893  134.6073  159.2283 N   0  0  0  0  0  0  0  0  0  0  0  0
  148.0023  133.8575  160.1149 C   0  0  0  0  0  0  0  0  0  0  0  0
  145.8502  134.0813  162.7613 H   0  0  0  0  0  0  0  0  0  0  0  0
  147.2811  133.0524  162.9077 H   0  0  0  0  0  0  0  0  0  0  0  0
  146.0704  132.7169  161.6627 H   0  0  0  0  0  0  0  0  0  0  0  0
  146.9318  136.2567  162.2786 H   0  0  0  0  0  0  0  0  0  0  0  0
  148.1977  137.6434  160.6452 H   0  0  0  0  0  0  0  0  0  0  0  0
  150.3169  136.4771  158.1580 H   0  0  0  0  0  0  0  0  0  0  0  0
  150.8469  138.1175  157.0211 H   0  0  0  0  0  0  0  0  0  0  0  0
  148.9777  140.4785  156.8156 H   0  0  0  0  0  0  0  0  0  0  0  0
  150.0585  140.8859  154.7320 H   0  0  0  0  0  0  0  0  0  0  0  0
  150.3062  137.9942  154.8138 H   0  0  0  0  0  0  0  0  0  0  0  0
  150.6670  139.0098  153.4279 H   0  0  0  0  0  0  0  0  0  0  0  0
  152.6574  137.6330  154.8336 H   0  0  0  0  0  0  0  0  0  0  0  0
  152.9527  139.1200  153.9252 H   0  0  0  0  0  0  0  0  0  0  0  0
  152.3061  141.4199  155.3881 H   0  0  0  0  0  0  0  0  0  0  0  0
  151.0820  140.4516  159.3337 H   0  0  0  0  0  0  0  0  0  0  0  0
  152.4567  139.7603  158.4999 H   0  0  0  0  0  0  0  0  0  0  0  0
  152.7041  142.0291  159.9840 H   0  0  0  0  0  0  0  0  0  0  0  0
  153.6326  141.8087  158.5052 H   0  0  0  0  0  0  0  0  0  0  0  0
  151.4986  143.7674  158.9482 H   0  0  0  0  0  0  0  0  0  0  0  0
  152.5795  143.5945  157.5714 H   0  0  0  0  0  0  0  0  0  0  0  0
  150.6238  142.9301  156.4552 H   0  0  0  0  0  0  0  0  0  0  0  0
  149.8243  142.5170  157.9549 H   0  0  0  0  0  0  0  0  0  0  0  0
  147.9777  132.7951  159.9220 H   0  0  0  0  0  0  0  0  0  0  0  0
  1  2  1  0  0  0  0
  1 23  1  0  0  0  0
  1 24  1  0  0  0  0
  1 25  1  0  0  0  0
  2 22  1  0  0  0  0
  2  3  2  0  0  0  0
  3  4  1  0  0  0  0
  3 26  1  0  0  0  0
  4  5  2  0  0  0  0
  4 27  1  0  0  0  0
  5  6  1  0  0  0  0
  5 21  1  0  0  0  0
  6  7  1  0  0  0  0
  6 28  1  0  0  0  0
  7  8  2  0  0  0  0
  7  9  1  0  0  0  0
  9 10  1  0  0  0  0
  9 29  1  0  0  0  0
 10 16  1  0  0  0  0
 10 11  1  0  0  0  0
 10 30  1  0  0  0  0
 11 15  1  0  0  0  0
 11 12  1  0  0  0  0
 11 31  1  0  0  0  0
 12 13  1  0  0  0  0
 12 32  1  0  0  0  0
 12 33  1  0  0  0  0
 13 14  1  0  0  0  0
 13 34  1  0  0  0  0
 13 35  1  0  0  0  0
 14 15  1  0  0  0  0
 15 16  1  0  0  0  0
 15 36  1  0  0  0  0
 16 20  1  0  0  0  0
 16 17  1  0  0  0  0
 17 18  1  0  0  0  0
 17 37  1  0  0  0  0
 17 38  1  0  0  0  0
 18 19  1  0  0  0  0
 18 39  1  0  0  0  0
 18 40  1  0  0  0  0
 19 20  1  0  0  0  0
 19 41  1  0  0  0  0
 19 42  1  0  0  0  0
 20 43  1  0  0  0  0
 20 44  1  0  0  0  0
 21 22  2  0  0  0  0
 22 45  1  0  0  0  0
M  END
> <s_m_source_file>
AV-unprocessed.smi

> <i_m_source_file_index>
2217

> <i_lp_mmshare_version>
43012

> <i_f3d_flags>
0

> <s_epik_input>
W0NIM11jMVtjSF1bY0hdYyhuW2NIXTEpW05IXUMoPU8pW05IXVtDQEBIXTJbQ0BASF0oW0NIMl1bQ0gyXU8zKVtDQEhdM0MyNFtDSDJdW0NIMl1bQ0gyXVtDSDJdNA==

> <s_epik_cmdline>
J2VwaWtfcHl0aG9uJywgJy1waCcsICc3LjAnLCAnLXRuJywgJzgnLCAnLW1hJywgJzIwMCcsICctbWV0YWxfYmluZGluZycsICctaW1hZScsICc8aW5maWxlLm1hZT4nLCAnLW9tYWUnLCAnPG91dGZpbGUubWFlPic=

> <r_lp_tautomer_probability>
1

> <r_epik_Ionization_Penalty>
6.14796e-05

> <r_epik_Ionization_Penalty_Charging>
0

> <r_epik_Ionization_Penalty_Neutral>
6.14796e-05

> <r_epik_State_Penalty>
-0

> <r_epik_Charging_Adjusted_Penalty>
0

> <i_epik_Tot_Q>
0

> <i_epik_Tot_abs_Q>
0

> <r_epik_Metal_State_Penalty>
-0

> <b_epik_Metal_Only>
0

> <s_lp_Force_Field>
OPLS_2005

> <r_lp_Energy>
58.8698

> <b_lp_Chiralities_Consistent>
1

> <s_lp_Variant>
AV-unprocessed.smi:2217-3

> <Gold.Version>
5.8.1

> <Gold.Id.Protein>
6NUR|6NUR_protein|mol2

> <Gold.PLP.Fitness>
45.3831

> <Gold.PLP.PLP>
-40.3578

> <Gold.PLP.part.hbond>
-3.0000

> <Gold.PLP.part.metal>
0.0000

> <Gold.PLP.part.buried>
-4.1979

> <Gold.PLP.part.nonpolar>
-32.8931

> <Gold.PLP.part.repulsive>
0.1665

> <Gold.PLP.ligand.clash>
0.0000

> <Gold.PLP.ligand.torsion>
0.4462

> <Gold.PLP.Chemscore.Hbond>
1.9040

> <Gold.PLP.Chemscore.CHOScore>
0.0000

> <Gold.PLP.Chemscore.Metal>
0.0000

> <Gold.Chemscore.Hbonds>
donor molecule, donor type, donor heavy atom, donor atom, acceptor molecule, acceptor atom, score
      P1  H  6896  6908       L1    21  0.90
      P1  H  7997  8010       L1    14  1.00

> <Gold.PLP.Chemscore.Internal.Correction>
0.2057

> <Gold.Rescore>
     Score         DG    S(hbond)    S(metal)    S(lipo)     H(rot)  DE(clash)    DE(int)     intcor
     16.61     -18.76       1.03        0.00     105.82       1.00       0.39       1.76       ----

> <Gold.Chemscore.Fitness>
16.6094

> <Gold.Chemscore.DG>
-18.7552

> <Gold.Chemscore.ZeroCoef>
-5.4800

> <Gold.Chemscore.Hbond>
1.0343

> <Gold.Chemscore.Metal>
0.0000

> <Gold.Chemscore.Lipo>
105.8186

> <Gold.Chemscore.Internal_Hbond>
0.0000

> <Gold.Chemscore.DEClash>
0.3907

> <Gold.Chemscore.DEInternal>
1.7552

> <Gold.Chemscore.Rot>
1.0000

> <Gold.Chemscore.Internal.Correction>
   9.000000E+99

> <Gold.Chemscore.Hbonds>
donor molecule, donor type, donor heavy atom, donor atom, acceptor molecule, acceptor atom, score
      P1  H  6896  6908       L1    21  0.15
      P1  H  7997  8010       L1    14  0.30

> <Gold.Chemscore.Hbond.Weighted>
-3.4544

> <Gold.Chemscore.Metal.Weighted>
-0.0000

> <Gold.Chemscore.Lipo.Weighted>
-12.3808

> <Gold.Chemscore.Internal_Hbond.Weighted>
0.0000

> <Gold.Chemscore.DEClash.Weighted>
0.3907

> <Gold.Chemscore.DEInternal.Weighted>
1.7552

> <Gold.Chemscore.Rot.Weighted>
2.5600

> <Gold.Chemscore.Internal.Correction.Weighted>
   9.000000E+99

> <Gold.Protein.RotatedTorsions>
[ 6907 6896 6895 6894 ] final  137.69 input  -60.11 | X-H torsion
[ 7974 7965 7964 7962 ] final  -50.44 input  175.53 | X-H torsion
[ 8008 7997 7996 7995 ] final   81.26 input   59.86 | X-H torsion
[ 10167 10162 10161 10158 ] final  179.34 input  -65.29 | X-H torsion
[ 10718 10713 10712 10709 ] final  -87.50 input   66.30 | X-H torsion
[ 10763 10752 10751 10750 ] final  -70.37 input  -60.55 | X-H torsion
[ 11005 11000 10999 10996 ] final  -41.42 input  -57.11 | X-H torsion

> <Gold.Protein.ActiveResidues>
 VAL166  LYS551  ARG553  GLY616  TRP617  ASP618  TYR619  PRO620  LYS621  CYS622 
 ASP623  PHE694  ASN695  SER759  ASP760  ASP761  ALA762  ILE779  LEU786  VAL792 
 PHE793  MET794  SER795  GLU796  ALA797  LYS798  CYS799  TRP800  GLU811  SER814 

> <Gold.Protein.RotatedAtoms>
  152.2752  133.5419  159.5463 H   0  0  0  0  0  0  0  0  0  0  0  0  # atno 6907 bound_to 6896
  150.7174  134.0642  159.3850 H   0  0  0  0  0  0  0  0  0  0  0  0  # atno 6908 bound_to 6896
  151.8555  135.0543  160.0514 H   0  0  0  0  0  0  0  0  0  0  0  0  # atno 6909 bound_to 6896
  145.9298  140.7759  142.9605 H   0  0  0  0  0  0  0  0  0  0  0  0  # atno 7974 bound_to 7965
  155.8947  140.3437  155.5982 H   0  0  0  0  0  0  0  0  0  0  0  0  # atno 8008 bound_to 7997
  155.7570  140.0827  157.2193 H   0  0  0  0  0  0  0  0  0  0  0  0  # atno 8009 bound_to 7997
  154.4037  140.1543  156.2776 H   0  0  0  0  0  0  0  0  0  0  0  0  # atno 8010 bound_to 7997
  139.5332  144.2573  152.0736 H   0  0  0  0  0  0  0  0  0  0  0  0  # atno 10167 bound_to 10162
  155.9985  130.4802  150.4876 H   0  0  0  0  0  0  0  0  0  0  0  0  # atno 10718 bound_to 10713
  154.4167  135.5996  153.5985 H   0  0  0  0  0  0  0  0  0  0  0  0  # atno 10763 bound_to 10752
  152.9792  135.5942  154.4004 H   0  0  0  0  0  0  0  0  0  0  0  0  # atno 10764 bound_to 10752
  154.3824  135.2841  155.2182 H   0  0  0  0  0  0  0  0  0  0  0  0  # atno 10765 bound_to 10752
  141.0245  133.6848  156.2455 H   0  0  0  0  0  0  0  0  0  0  0  0  # atno 11005 bound_to 11000
  144.6763  140.2109  143.7377 LP  0  0  0  0  0  0  0  0  0  0  0  0  # atno 17320 bound_to 7965
  145.8441  139.2144  143.1810 LP  0  0  0  0  0  0  0  0  0  0  0  0  # atno 17321 bound_to 7965
  140.2039  144.4630  150.6418 LP  0  0  0  0  0  0  0  0  0  0  0  0  # atno 17342 bound_to 10162
  140.6523  143.2228  151.6049 LP  0  0  0  0  0  0  0  0  0  0  0  0  # atno 17343 bound_to 10162
  157.2874  131.0619  151.2156 LP  0  0  0  0  0  0  0  0  0  0  0  0  # atno 17370 bound_to 10713
  157.3181  130.6923  149.6253 LP  0  0  0  0  0  0  0  0  0  0  0  0  # atno 17371 bound_to 10713
  140.6516  134.5061  157.5578 LP  0  0  0  0  0  0  0  0  0  0  0  0  # atno 17394 bound_to 11000
  139.9167  134.8232  156.1344 LP  0  0  0  0  0  0  0  0  0  0  0  0  # atno 17395 bound_to 11000

$$$$
