AV-unprocessed.smi:1454|AV-procd|sdf|5914|dock2
  -GOLD-   22720 6 03D 1   1.00000     0.00000
 Structure written by MMmdl.
 45 46  0  0  0  0  0  0  0  0  2 V2000
  151.5895  135.4475  155.6586 O   0  0  0  0  0  0  0  0  0  0  0  0
  150.8274  135.3724  154.6954 C   0  0  0  0  0  0  0  0  0  0  0  0
  150.1414  134.0404  154.3754 C   0  0  0  0  0  0  0  0  0  0  0  0
  148.5999  134.0971  154.4422 C   0  0  0  0  0  0  0  0  0  0  0  0
  147.9774  133.9412  153.1313 N   0  0  0  0  0  0  0  0  0  0  0  0
  147.1436  132.9581  152.7624 C   0  0  0  0  0  0  0  0  0  0  0  0
  146.7873  132.0572  153.5216 O   0  0  0  0  0  0  0  0  0  0  0  0
  146.6399  133.0163  151.3094 C   0  0  0  0  0  0  0  0  0  0  0  0
  145.6884  134.2011  151.0429 C   0  0  0  0  0  0  0  0  0  0  0  0
  144.2541  133.6455  151.0756 C   0  0  0  0  0  0  0  0  0  0  0  0
  144.3713  132.1427  151.3488 C   0  0  0  0  0  0  0  0  0  0  0  0
  145.8016  131.7797  150.9556 C   0  0  0  0  0  0  0  0  0  0  0  0
  150.5188  136.4194  153.9126 N   0  0  0  0  0  0  0  0  0  0  0  0
  150.9010  137.8088  154.1614 C   0  0  0  0  0  0  0  0  0  0  0  0
  150.0605  138.4906  155.2613 C   0  0  0  0  0  0  0  0  0  0  0  0
  149.2037  139.6670  154.8129 C   0  0  0  0  0  0  0  0  0  0  0  0
  148.1265  139.4574  153.9226 C   0  0  0  0  0  0  0  0  0  0  0  0
  147.3329  140.5506  153.5177 C   0  0  0  0  0  0  0  0  0  0  0  0
  147.6301  141.8349  154.0155 C   0  0  0  0  0  0  0  0  0  0  0  0
  148.6544  141.9981  154.8800 N   0  3  0  0  0  0  0  0  0  0  0  0
  149.4317  140.9751  155.2971 C   0  0  0  0  0  0  0  0  0  0  0  0
  150.4359  133.7792  153.3585 H   0  0  0  0  0  0  0  0  0  0  0  0
  150.5277  133.2413  155.0101 H   0  0  0  0  0  0  0  0  0  0  0  0
  148.1970  133.3641  155.1438 H   0  0  0  0  0  0  0  0  0  0  0  0
  148.2976  135.0720  154.8254 H   0  0  0  0  0  0  0  0  0  0  0  0
  148.2059  134.6419  152.4406 H   0  0  0  0  0  0  0  0  0  0  0  0
  147.5084  133.0836  150.6518 H   0  0  0  0  0  0  0  0  0  0  0  0
  145.8149  135.0169  151.7564 H   0  0  0  0  0  0  0  0  0  0  0  0
  145.8945  134.6216  150.0578 H   0  0  0  0  0  0  0  0  0  0  0  0
  143.6443  134.1385  151.8323 H   0  0  0  0  0  0  0  0  0  0  0  0
  143.7723  133.8155  150.1121 H   0  0  0  0  0  0  0  0  0  0  0  0
  144.2299  131.9456  152.4109 H   0  0  0  0  0  0  0  0  0  0  0  0
  143.6272  131.5599  150.8052 H   0  0  0  0  0  0  0  0  0  0  0  0
  145.8544  131.6007  149.8810 H   0  0  0  0  0  0  0  0  0  0  0  0
  146.1428  130.8694  151.4513 H   0  0  0  0  0  0  0  0  0  0  0  0
  149.8933  136.2556  153.1369 H   0  0  0  0  0  0  0  0  0  0  0  0
  151.9441  137.7978  154.4779 H   0  0  0  0  0  0  0  0  0  0  0  0
  150.8851  138.3962  153.2423 H   0  0  0  0  0  0  0  0  0  0  0  0
  149.4186  137.7432  155.7300 H   0  0  0  0  0  0  0  0  0  0  0  0
  150.7267  138.8499  156.0462 H   0  0  0  0  0  0  0  0  0  0  0  0
  147.9064  138.4678  153.5506 H   0  0  0  0  0  0  0  0  0  0  0  0
  146.5105  140.4066  152.8329 H   0  0  0  0  0  0  0  0  0  0  0  0
  147.0800  142.7275  153.7560 H   0  0  0  0  0  0  0  0  0  0  0  0
  150.2117  141.2406  155.9951 H   0  0  0  0  0  0  0  0  0  0  0  0
  148.8496  142.9345  155.2350 H   0  0  0  0  0  0  0  0  0  0  0  0
  1  2  2  0  0  0  0
  2  3  1  0  0  0  0
  2 13  1  0  0  0  0
  3  4  1  0  0  0  0
  3 22  1  0  0  0  0
  3 23  1  0  0  0  0
  4  5  1  0  0  0  0
  4 24  1  0  0  0  0
  4 25  1  0  0  0  0
  5  6  1  0  0  0  0
  5 26  1  0  0  0  0
  6  7  2  0  0  0  0
  6  8  1  0  0  0  0
  8 12  1  0  0  0  0
  8  9  1  0  0  0  0
  8 27  1  0  0  0  0
  9 10  1  0  0  0  0
  9 28  1  0  0  0  0
  9 29  1  0  0  0  0
 10 11  1  0  0  0  0
 10 30  1  0  0  0  0
 10 31  1  0  0  0  0
 11 12  1  0  0  0  0
 11 32  1  0  0  0  0
 11 33  1  0  0  0  0
 12 34  1  0  0  0  0
 12 35  1  0  0  0  0
 13 14  1  0  0  0  0
 13 36  1  0  0  0  0
 14 15  1  0  0  0  0
 14 37  1  0  0  0  0
 14 38  1  0  0  0  0
 15 16  1  0  0  0  0
 15 39  1  0  0  0  0
 15 40  1  0  0  0  0
 16 21  1  0  0  0  0
 16 17  2  0  0  0  0
 17 18  1  0  0  0  0
 17 41  1  0  0  0  0
 18 19  2  0  0  0  0
 18 42  1  0  0  0  0
 19 20  1  0  0  0  0
 19 43  1  0  0  0  0
 20 21  2  0  0  0  0
 20 45  1  0  0  0  0
 21 44  1  0  0  0  0
M  CHG  1  20   1
M  END
> <s_m_source_file>
AV-unprocessed.smi

> <i_m_source_file_index>
1454

> <i_lp_mmshare_version>
43012

> <i_f3d_flags>
0

> <s_epik_input>
W2NIXTFuW2NIXVtjSF1bY0hdYzFbQ0gyXVtDSDJdW05IXUMoPU8pW0NIMl1bQ0gyXVtOSF1DKD1PKVtDSF0yW0NIMl1bQ0gyXVtDSDJdW0NIMl0y

> <s_epik_cmdline>
J2VwaWtfcHl0aG9uJywgJy1waCcsICc3LjAnLCAnLXRuJywgJzgnLCAnLW1hJywgJzIwMCcsICctbWV0YWxfYmluZGluZycsICctaW1hZScsICc8aW5maWxlLm1hZT4nLCAnLW9tYWUnLCAnPG91dGZpbGUubWFlPic=

> <r_epik_Ionization_Penalty>
2.25878

> <r_epik_Ionization_Penalty_Charging>
2.25878

> <r_epik_Ionization_Penalty_Neutral>
5.05393e-08

> <r_epik_State_Penalty>
2.40647

> <r_epik_Charging_Adjusted_Penalty>
4.66526

> <i_epik_Tot_Q>
1

> <i_epik_Tot_abs_Q>
1

> <r_epik_Metal_State_Penalty>
2.41947

> <b_epik_Metal_Only>
0

> <s_lp_Force_Field>
OPLS_2005

> <r_lp_Energy>
23.282

> <b_lp_Chiralities_Consistent>
1

> <s_lp_Variant>
AV-unprocessed.smi:1454-2

> <Gold.Version>
5.8.1

> <Gold.Id.Protein>
6NUR|6NUR_protein|mol2

> <Gold.PLP.Fitness>
51.6879

> <Gold.PLP.PLP>
-38.8474

> <Gold.PLP.part.hbond>
-5.0000

> <Gold.PLP.part.metal>
0.0000

> <Gold.PLP.part.buried>
-3.6782

> <Gold.PLP.part.nonpolar>
-30.9236

> <Gold.PLP.part.repulsive>
0.4163

> <Gold.PLP.ligand.clash>
0.0000

> <Gold.PLP.ligand.torsion>
0.9618

> <Gold.PLP.Chemscore.Hbond>
4.8500

> <Gold.PLP.Chemscore.CHOScore>
0.0000

> <Gold.PLP.Chemscore.Metal>
0.0000

> <Gold.Chemscore.Hbonds>
donor molecule, donor type, donor heavy atom, donor atom, acceptor molecule, acceptor atom, score
      L1  H     5    26       P1  7948  1.00
      L1  H    13    36       P1  7948  0.50
      L1  H    20    45       P1  8028  2.00
      P1  H 10752 10763       L1     1  1.00

> <Gold.PLP.Chemscore.Internal.Correction>
0.2140

> <Gold.Rescore>
     Score         DG    S(hbond)    S(metal)    S(lipo)     H(rot)  DE(clash)    DE(int)     intcor
     17.57     -18.65       2.96        0.00      76.98       2.23       0.05       1.02       ----

> <Gold.Chemscore.Fitness>
17.5726

> <Gold.Chemscore.DG>
-18.6505

> <Gold.Chemscore.ZeroCoef>
-5.4800

> <Gold.Chemscore.Hbond>
2.9597

> <Gold.Chemscore.Metal>
0.0000

> <Gold.Chemscore.Lipo>
76.9779

> <Gold.Chemscore.Internal_Hbond>
0.0000

> <Gold.Chemscore.DEClash>
0.0549

> <Gold.Chemscore.DEInternal>
1.0230

> <Gold.Chemscore.Rot>
2.2348

> <Gold.Chemscore.Internal.Correction>
   9.000000E+99

> <Gold.Chemscore.Hbonds>
donor molecule, donor type, donor heavy atom, donor atom, acceptor molecule, acceptor atom, score
      L1  H     5    26       P1  7948  0.29
      L1  H    13    36       P1  7948  0.02
      L1  H    20    45       P1  8028  1.00
      P1  H 10752 10763       L1     1  0.62

> <Gold.Chemscore.Hbond.Weighted>
-9.8853

> <Gold.Chemscore.Metal.Weighted>
-0.0000

> <Gold.Chemscore.Lipo.Weighted>
-9.0064

> <Gold.Chemscore.Internal_Hbond.Weighted>
0.0000

> <Gold.Chemscore.DEClash.Weighted>
0.0549

> <Gold.Chemscore.DEInternal.Weighted>
1.0230

> <Gold.Chemscore.Rot.Weighted>
5.7212

> <Gold.Chemscore.Internal.Correction.Weighted>
   9.000000E+99

> <Gold.Protein.RotatedTorsions>
[ 6907 6896 6895 6894 ] final  126.25 input  -60.11 | X-H torsion
[ 7974 7965 7964 7962 ] final   14.99 input  175.53 | X-H torsion
[ 8008 7997 7996 7995 ] final  118.67 input   59.86 | X-H torsion
[ 10167 10162 10161 10158 ] final -121.33 input  -65.29 | X-H torsion
[ 10718 10713 10712 10709 ] final  135.99 input   66.30 | X-H torsion
[ 10763 10752 10751 10750 ] final   92.34 input  -60.55 | X-H torsion
[ 11005 11000 10999 10996 ] final  -79.19 input  -57.11 | X-H torsion

> <Gold.Protein.ActiveResidues>
 VAL166  LYS551  ARG553  GLY616  TRP617  ASP618  TYR619  PRO620  LYS621  CYS622 
 ASP623  PHE694  ASN695  SER759  ASP760  ASP761  ALA762  ILE779  LEU786  VAL792 
 PHE793  MET794  SER795  GLU796  ALA797  LYS798  CYS799  TRP800  GLU811  SER814 

> <Gold.Protein.RotatedAtoms>
  152.3920  133.6693  159.6245 H   0  0  0  0  0  0  0  0  0  0  0  0  # atno 6907 bound_to 6896
  150.7827  133.8937  159.3330 H   0  0  0  0  0  0  0  0  0  0  0  0  # atno 6908 bound_to 6896
  151.6722  135.0976  160.0251 H   0  0  0  0  0  0  0  0  0  0  0  0  # atno 6909 bound_to 6896
  146.2290  139.8959  142.8547 H   0  0  0  0  0  0  0  0  0  0  0  0  # atno 7974 bound_to 7965
  156.2558  140.2869  156.0871 H   0  0  0  0  0  0  0  0  0  0  0  0  # atno 8008 bound_to 7997
  155.1503  140.0397  157.2837 H   0  0  0  0  0  0  0  0  0  0  0  0  # atno 8009 bound_to 7997
  154.6466  140.2535  155.7268 H   0  0  0  0  0  0  0  0  0  0  0  0  # atno 8010 bound_to 7997
  140.0262  143.5294  152.2198 H   0  0  0  0  0  0  0  0  0  0  0  0  # atno 10167 bound_to 10162
  157.4513  131.1066  151.0029 H   0  0  0  0  0  0  0  0  0  0  0  0  # atno 10718 bound_to 10713
  153.2181  135.4365  155.0458 H   0  0  0  0  0  0  0  0  0  0  0  0  # atno 10763 bound_to 10752
  154.8236  135.3349  154.6967 H   0  0  0  0  0  0  0  0  0  0  0  0  # atno 10764 bound_to 10752
  153.7401  135.7005  153.5025 H   0  0  0  0  0  0  0  0  0  0  0  0  # atno 10765 bound_to 10752
  141.1667  133.7095  156.8085 H   0  0  0  0  0  0  0  0  0  0  0  0  # atno 11005 bound_to 11000
  145.2371  140.9995  143.3957 LP  0  0  0  0  0  0  0  0  0  0  0  0  # atno 17320 bound_to 7965
  144.9482  139.4112  143.6415 LP  0  0  0  0  0  0  0  0  0  0  0  0  # atno 17321 bound_to 7965
  139.6106  144.7608  151.2960 LP  0  0  0  0  0  0  0  0  0  0  0  0  # atno 17342 bound_to 10162
  140.7321  143.6832  150.7984 LP  0  0  0  0  0  0  0  0  0  0  0  0  # atno 17343 bound_to 10162
  157.0858  130.5922  149.5429 LP  0  0  0  0  0  0  0  0  0  0  0  0  # atno 17370 bound_to 10713
  155.9988  130.5063  150.7585 LP  0  0  0  0  0  0  0  0  0  0  0  0  # atno 17371 bound_to 10713
  140.2205  134.8761  157.3371 LP  0  0  0  0  0  0  0  0  0  0  0  0  # atno 17394 bound_to 11000
  140.1993  134.4274  155.7671 LP  0  0  0  0  0  0  0  0  0  0  0  0  # atno 17395 bound_to 11000

$$$$
