#       Name:                AV-unprocessed.smi:703
#       Creating user name   scv26
#       Creation time:       Fri Mar 27 00:42:53 2020


#       File generated by GOLD software.
#

@<TRIPOS>MOLECULE
AV-unprocessed.smi:703
    41    42     1
SMALL
NO_CHARGES


@<TRIPOS>ATOM
      1 ****        -1.0630  -3.6592   1.4693 C.3            1 S1                 0.0000
      2 ****        -0.8953  -2.1931   1.8911 C.3            1 S1                 0.0000
      3 ****        -1.7583  -1.2790   1.1032 N.4            1 S1                 1.0000
      4 ****        -1.4365  -1.2145  -0.3427 C.3            1 S1                 0.0000
      5 ****        -1.7305   0.2289  -0.7638 C.3            1 S1                 0.0000
      6 ****        -1.1029   0.6442  -2.1105 C.3            1 S1                 0.0000
      7 ****        -1.3638   1.0472   0.4903 C.3            1 S1                 0.0000
      8 ****         0.0762   1.2560   0.5892 N.pl3          1 S1                -1.0000
      9 ****         0.7006   2.7330   0.3426 S.o2           1 S1                 0.0000
     10 ****         0.4311   3.2497  -1.0091 O.2            1 S1                 0.0000
     11 ****         0.4327   3.6362   1.4729 O.2            1 S1                 0.0000
     12 ****         2.5076   2.3584   0.4078 C.3            1 S1                 0.0000
     13 ****         2.9332   1.5983  -0.8189 C.2            1 S1                 0.0000
     14 ****         2.8508   0.1985  -1.0613 C.2            1 S1                 0.0000
     15 ****         3.3650   0.0610  -2.3178 C.2            1 S1                 0.0000
     16 ****         3.7461   1.2666  -2.8097 O.3            1 S1                 0.0000
     17 ****         3.4711   2.2413  -1.8438 N.2            1 S1                 0.0000
     18 ****        -1.8094   0.1116   1.6257 C.3            1 S1                 0.0000
     19 ****        -0.4603  -4.3120   2.1009 H              1 S1                 0.0000
     20 ****        -0.7479  -3.8211   0.4383 H              1 S1                 0.0000
     21 ****        -2.1017  -3.9788   1.5581 H              1 S1                 0.0000
     22 ****        -1.1608  -2.1020   2.9451 H              1 S1                 0.0000
     23 ****         0.1484  -1.8870   1.8024 H              1 S1                 0.0000
     24 ****        -0.3843  -1.4583  -0.5135 H              1 S1                 0.0000
     25 ****        -2.0309  -1.9345  -0.9061 H              1 S1                 0.0000
     26 ****        -2.8120   0.3119  -0.8833 H              1 S1                 0.0000
     27 ****        -0.0152   0.5569  -2.1100 H              1 S1                 0.0000
     28 ****        -1.3565   1.6721  -2.3744 H              1 S1                 0.0000
     29 ****        -1.4729   0.0076  -2.9142 H              1 S1                 0.0000
     30 ****        -1.9237   1.9824   0.5269 H              1 S1                 0.0000
     31 ****         3.0396   3.3071   0.4804 H              1 S1                 0.0000
     32 ****         2.7148   1.7973   1.3183 H              1 S1                 0.0000
     33 ****         2.4640  -0.5773  -0.4176 H              1 S1                 0.0000
     34 ****         3.5208  -0.7880  -2.9669 H              1 S1                 0.0000
     35 ****        -2.8477   0.3223   1.8840 H              1 S1                 0.0000
     36 ****        -1.2268   0.2479   2.5391 H              1 S1                 0.0000
     37 ****        -2.7018  -1.6309   1.1763 H              1 S1                 0.0000
     38 ****         0.6787   0.4888   0.8091 LP             1 S1                 0.0000
     39 ****         3.2369   1.4667  -3.6467 LP             1 S1                 0.0000
     40 ****         4.7258   1.2558  -3.0100 LP             1 S1                 0.0000
     41 ****         3.6454   3.2235  -1.9134 LP             1 S1                 0.0000
@<TRIPOS>BOND
    1    1    2 1     
    2    1   19 1     
    3    1   20 1     
    4    1   21 1     
    5    2    3 1     
    6    2   22 1     
    7    2   23 1     
    8    3   18 1     
    9    3    4 1     
   10    3   37 1     
   11    4    5 1     
   12    4   24 1     
   13    4   25 1     
   14    5    6 1     
   15    5    7 1     
   16    5   26 1     
   17    6   27 1     
   18    6   28 1     
   19    6   29 1     
   20    7    8 1     
   21    7   18 1     
   22    7   30 1     
   23    8    9 1     
   24    9   10 2     
   25    9   11 2     
   26    9   12 1     
   27   12   13 1     
   28   12   31 1     
   29   12   32 1     
   30   13   17 2     
   31   13   14 1     
   32   14   15 2     
   33   14   33 1     
   34   15   16 1     
   35   15   34 1     
   36   16   17 1     
   37   18   35 1     
   38   18   36 1     
   39    8   38 1     
   40   16   39 1     
   41   16   40 1     
   42   17   41 1     
@<TRIPOS>SUBSTRUCTURE
      1 S1             1
@<TRIPOS>SET
LONE_PAIRS      STATIC     ATOMS    <user>   **** ""
6 38 10 11 39 40 41
DONOR_HYDROGENS      STATIC     ATOMS    <user>   **** ""
1 37
ATOM$BLUE        STATIC     ATOMS    COLORGROUP SYSTEM
6 38 10 11 39 40 41
ATOM$RED        STATIC     ATOMS    COLORGROUP SYSTEM
1 37
