AV-unprocessed.smi:2076|AV-procd|sdf|8459|dock4
  -GOLD-   2272011153D 1   1.00000     0.00000
 Structure written by MMmdl.
 45 46  0  0  0  0  0  0  0  0  2 V2000
  150.7643  142.2191  156.0712 C   0  0  0  0  0  0  0  0  0  0  0  0
  151.2707  140.8116  155.9586 C   0  0  0  0  0  0  0  0  0  0  0  0
  152.2257  140.1501  156.7803 C   0  0  0  0  0  0  0  0  0  0  0  0
  152.3153  138.8942  156.2499 C   0  0  0  0  0  0  0  0  0  0  0  0
  153.1438  137.7265  156.6749 C   0  0  0  0  0  0  0  0  0  0  0  0
  151.4491  138.8508  155.1718 N   0  0  0  0  0  0  0  0  0  0  0  0
  151.1510  137.7420  154.2776 C   0  0  0  0  0  0  0  0  0  0  0  0
  150.3260  136.6705  154.9921 C   0  0  0  0  0  0  0  0  0  0  0  0
  150.7249  136.1827  156.0490 O   0  0  0  0  0  0  0  0  0  0  0  0
  149.1700  136.3245  154.4085 N   0  0  0  0  0  0  0  0  0  0  0  0
  148.1993  135.3963  154.9722 C   0  0  0  0  0  0  0  0  0  0  0  0
  148.0677  134.1076  154.1184 C   0  0  2  0  0  0  0  0  0  0  0  0
  149.4543  133.4522  153.9145 C   0  0  0  0  0  0  0  0  0  0  0  0
  147.4028  134.3307  152.7924 N   0  3  0  0  0  0  0  0  0  0  0  0
  147.1244  133.0590  152.0708 C   0  0  0  0  0  0  0  0  0  0  0  0
  146.5366  133.3303  150.6767 C   0  0  0  0  0  0  0  0  0  0  0  0
  145.3461  134.0929  150.8065 O   0  0  0  0  0  0  0  0  0  0  0  0
  145.6004  135.3567  151.4013 C   0  0  0  0  0  0  0  0  0  0  0  0
  146.1699  135.1661  152.8179 C   0  0  0  0  0  0  0  0  0  0  0  0
  150.8092  140.0285  154.9973 N   0  0  0  0  0  0  0  0  0  0  0  0
  151.2933  142.7663  156.8518 H   0  0  0  0  0  0  0  0  0  0  0  0
  149.7022  142.2348  156.3169 H   0  0  0  0  0  0  0  0  0  0  0  0
  150.8998  142.7628  155.1359 H   0  0  0  0  0  0  0  0  0  0  0  0
  152.7619  140.5384  157.6336 H   0  0  0  0  0  0  0  0  0  0  0  0
  153.7511  137.9766  157.5449 H   0  0  0  0  0  0  0  0  0  0  0  0
  153.8167  137.4149  155.8759 H   0  0  0  0  0  0  0  0  0  0  0  0
  152.5132  136.8778  156.9396 H   0  0  0  0  0  0  0  0  0  0  0  0
  150.6061  138.1119  153.4076 H   0  0  0  0  0  0  0  0  0  0  0  0
  152.0852  137.3171  153.9091 H   0  0  0  0  0  0  0  0  0  0  0  0
  148.9253  136.7772  153.5392 H   0  0  0  0  0  0  0  0  0  0  0  0
  148.5388  135.1654  155.9826 H   0  0  0  0  0  0  0  0  0  0  0  0
  147.2298  135.8912  155.0544 H   0  0  0  0  0  0  0  0  0  0  0  0
  147.4440  133.4158  154.6874 H   0  0  0  0  0  0  0  0  0  0  0  0
  149.9456  133.2303  154.8621 H   0  0  0  0  0  0  0  0  0  0  0  0
  150.1175  134.1073  153.3491 H   0  0  0  0  0  0  0  0  0  0  0  0
  149.3969  132.5039  153.3834 H   0  0  0  0  0  0  0  0  0  0  0  0
  148.0290  132.4658  151.9528 H   0  0  0  0  0  0  0  0  0  0  0  0
  146.4254  132.4559  152.6526 H   0  0  0  0  0  0  0  0  0  0  0  0
  147.2555  133.8521  150.0427 H   0  0  0  0  0  0  0  0  0  0  0  0
  146.2990  132.3890  150.1805 H   0  0  0  0  0  0  0  0  0  0  0  0
  146.2884  135.9324  150.7798 H   0  0  0  0  0  0  0  0  0  0  0  0
  144.6673  135.9187  151.4455 H   0  0  0  0  0  0  0  0  0  0  0  0
  145.4230  134.7009  153.4634 H   0  0  0  0  0  0  0  0  0  0  0  0
  146.3789  136.1579  153.2181 H   0  0  0  0  0  0  0  0  0  0  0  0
  148.0670  134.8458  152.2319 H   0  0  0  0  0  0  0  0  0  0  0  0
  1  2  1  0  0  0  0
  1 21  1  0  0  0  0
  1 22  1  0  0  0  0
  1 23  1  0  0  0  0
  2 20  2  0  0  0  0
  2  3  1  0  0  0  0
  3  4  2  0  0  0  0
  3 24  1  0  0  0  0
  4  5  1  0  0  0  0
  4  6  1  0  0  0  0
  5 25  1  0  0  0  0
  5 26  1  0  0  0  0
  5 27  1  0  0  0  0
  6  7  1  0  0  0  0
  6 20  1  0  0  0  0
  7  8  1  0  0  0  0
  7 28  1  0  0  0  0
  7 29  1  0  0  0  0
  8  9  2  0  0  0  0
  8 10  1  0  0  0  0
 10 11  1  0  0  0  0
 10 30  1  0  0  0  0
 11 12  1  0  0  0  0
 11 31  1  0  0  0  0
 11 32  1  0  0  0  0
 12 13  1  0  0  0  0
 12 14  1  0  0  0  0
 12 33  1  0  0  0  0
 13 34  1  0  0  0  0
 13 35  1  0  0  0  0
 13 36  1  0  0  0  0
 14 19  1  0  0  0  0
 14 15  1  0  0  0  0
 14 45  1  0  0  0  0
 15 16  1  0  0  0  0
 15 37  1  0  0  0  0
 15 38  1  0  0  0  0
 16 17  1  0  0  0  0
 16 39  1  0  0  0  0
 16 40  1  0  0  0  0
 17 18  1  0  0  0  0
 18 19  1  0  0  0  0
 18 41  1  0  0  0  0
 18 42  1  0  0  0  0
 19 43  1  0  0  0  0
 19 44  1  0  0  0  0
M  CHG  1  14   1
M  END
> <s_m_source_file>
AV-unprocessed.smi

> <i_m_source_file_index>
2076

> <i_lp_mmshare_version>
43012

> <i_f3d_flags>
0

> <s_epik_input>
W0NIM11jMVtjSF1jKFtDSDNdKW4objEpW0NIMl1DKD1PKVtOSF1bQ0gyXVtDQEhdKFtDSDNdKU4yW0NIMl1bQ0gyXU9bQ0gyXVtDSDJdMg==

> <s_epik_cmdline>
J2VwaWtfcHl0aG9uJywgJy1waCcsICc3LjAnLCAnLXRuJywgJzgnLCAnLW1hJywgJzIwMCcsICctbWV0YWxfYmluZGluZycsICctaW1hZScsICc8aW5maWxlLm1hZT4nLCAnLW9tYWUnLCAnPG91dGZpbGUubWFlPic=

> <r_lp_tautomer_probability>
1

> <r_epik_Ionization_Penalty>
0.748594

> <r_epik_Ionization_Penalty_Charging>
0.748396

> <r_epik_Ionization_Penalty_Neutral>
0.000197403

> <r_epik_State_Penalty>
0.775162

> <r_epik_Charging_Adjusted_Penalty>
1.52356

> <i_epik_Tot_Q>
1

> <i_epik_Tot_abs_Q>
1

> <r_epik_Metal_State_Penalty>
0.77529

> <b_epik_Metal_Only>
0

> <s_lp_Force_Field>
OPLS_2005

> <r_lp_Energy>
18.1598

> <b_lp_Chiralities_Consistent>
1

> <s_lp_Variant>
AV-unprocessed.smi:2076-3

> <Gold.Version>
5.8.1

> <Gold.Id.Protein>
6NUR|6NUR_protein|mol2

> <Gold.PLP.Fitness>
43.6456

> <Gold.PLP.PLP>
-33.3952

> <Gold.PLP.part.hbond>
-3.0000

> <Gold.PLP.part.metal>
0.0000

> <Gold.PLP.part.buried>
-1.7130

> <Gold.PLP.part.nonpolar>
-28.2547

> <Gold.PLP.part.repulsive>
0.2499

> <Gold.PLP.ligand.clash>
0.0000

> <Gold.PLP.ligand.torsion>
0.3096

> <Gold.PLP.Chemscore.Hbond>
3.6080

> <Gold.PLP.Chemscore.CHOScore>
0.0000

> <Gold.PLP.Chemscore.Metal>
0.0000

> <Gold.Chemscore.Hbonds>
donor molecule, donor type, donor heavy atom, donor atom, acceptor molecule, acceptor atom, score
      L1  H    10    30       P1  7948  0.64
      L1  H    14    45       P1  7948  2.00
      P1  H  7989  7998       L1    20  0.95

> <Gold.PLP.Chemscore.Internal.Correction>
0.0454

> <Gold.Rescore>
     Score         DG    S(hbond)    S(metal)    S(lipo)     H(rot)  DE(clash)    DE(int)     intcor
     13.96     -15.62       1.87        0.00      72.18       1.78       0.07       1.59       ----

> <Gold.Chemscore.Fitness>
13.9620

> <Gold.Chemscore.DG>
-15.6217

> <Gold.Chemscore.ZeroCoef>
-5.4800

> <Gold.Chemscore.Hbond>
1.8692

> <Gold.Chemscore.Metal>
0.0000

> <Gold.Chemscore.Lipo>
72.1798

> <Gold.Chemscore.Internal_Hbond>
0.0000

> <Gold.Chemscore.DEClash>
0.0747

> <Gold.Chemscore.DEInternal>
1.5850

> <Gold.Chemscore.Rot>
1.7760

> <Gold.Chemscore.Internal.Correction>
   9.000000E+99

> <Gold.Chemscore.Hbonds>
donor molecule, donor type, donor heavy atom, donor atom, acceptor molecule, acceptor atom, score
      L1  H    10    30       P1  7948  0.64
      L1  H    14    45       P1  7948  0.49
      P1  H  7989  7998       L1    20  0.12

> <Gold.Chemscore.Hbond.Weighted>
-6.2431

> <Gold.Chemscore.Metal.Weighted>
-0.0000

> <Gold.Chemscore.Lipo.Weighted>
-8.4450

> <Gold.Chemscore.Internal_Hbond.Weighted>
0.0000

> <Gold.Chemscore.DEClash.Weighted>
0.0747

> <Gold.Chemscore.DEInternal.Weighted>
1.5850

> <Gold.Chemscore.Rot.Weighted>
4.5464

> <Gold.Chemscore.Internal.Correction.Weighted>
   9.000000E+99

> <Gold.Protein.RotatedTorsions>
[ 6907 6896 6895 6894 ] final  -57.74 input  -60.11 | X-H torsion
[ 7974 7965 7964 7962 ] final  -68.25 input  175.53 | X-H torsion
[ 8008 7997 7996 7995 ] final   67.03 input   59.86 | X-H torsion
[ 10167 10162 10161 10158 ] final   66.81 input  -65.29 | X-H torsion
[ 10718 10713 10712 10709 ] final  -99.99 input   66.30 | X-H torsion
[ 10763 10752 10751 10750 ] final -164.11 input  -60.55 | X-H torsion
[ 11005 11000 10999 10996 ] final   15.02 input  -57.11 | X-H torsion

> <Gold.Protein.ActiveResidues>
 VAL166  LYS551  ARG553  GLY616  TRP617  ASP618  TYR619  PRO620  LYS621  CYS622 
 ASP623  PHE694  ASN695  SER759  ASP760  ASP761  ALA762  ILE779  LEU786  VAL792 
 PHE793  MET794  SER795  GLU796  ALA797  LYS798  CYS799  TRP800  GLU811  SER814 

> <Gold.Protein.RotatedAtoms>
  150.8062  134.7188  159.6645 H   0  0  0  0  0  0  0  0  0  0  0  0  # atno 6907 bound_to 6896
  152.4181  134.6001  160.0007 H   0  0  0  0  0  0  0  0  0  0  0  0  # atno 6908 bound_to 6896
  151.6224  133.3301  159.3127 H   0  0  0  0  0  0  0  0  0  0  0  0  # atno 6909 bound_to 6896
  145.7189  140.9047  143.0641 H   0  0  0  0  0  0  0  0  0  0  0  0  # atno 7974 bound_to 7965
  155.6866  140.3496  155.4876 H   0  0  0  0  0  0  0  0  0  0  0  0  # atno 8008 bound_to 7997
  155.9561  140.1128  157.0958 H   0  0  0  0  0  0  0  0  0  0  0  0  # atno 8009 bound_to 7997
  154.4132  140.1185  156.5103 H   0  0  0  0  0  0  0  0  0  0  0  0  # atno 8010 bound_to 7997
  140.0963  144.4943  150.7066 H   0  0  0  0  0  0  0  0  0  0  0  0  # atno 10167 bound_to 10162
  156.0150  130.5307  150.6751 H   0  0  0  0  0  0  0  0  0  0  0  0  # atno 10718 bound_to 10713
  154.7059  135.2997  154.9271 H   0  0  0  0  0  0  0  0  0  0  0  0  # atno 10763 bound_to 10752
  154.0188  135.6685  153.4775 H   0  0  0  0  0  0  0  0  0  0  0  0  # atno 10764 bound_to 10752
  153.0717  135.5057  154.8230 H   0  0  0  0  0  0  0  0  0  0  0  0  # atno 10765 bound_to 10752
  140.4630  134.1108  155.7719 H   0  0  0  0  0  0  0  0  0  0  0  0  # atno 11005 bound_to 11000
  144.6922  139.9176  143.7466 LP  0  0  0  0  0  0  0  0  0  0  0  0  # atno 17320 bound_to 7965
  146.0644  139.3635  143.0562 LP  0  0  0  0  0  0  0  0  0  0  0  0  # atno 17321 bound_to 7965
  140.7002  143.2429  151.4887 LP  0  0  0  0  0  0  0  0  0  0  0  0  # atno 17342 bound_to 10162
  139.5696  144.1960  152.1817 LP  0  0  0  0  0  0  0  0  0  0  0  0  # atno 17343 bound_to 10162
  157.4465  131.0867  151.0890 LP  0  0  0  0  0  0  0  0  0  0  0  0  # atno 17370 bound_to 10713
  157.1418  130.6146  149.5557 LP  0  0  0  0  0  0  0  0  0  0  0  0  # atno 17371 bound_to 10713
  141.1612  133.8788  157.1841 LP  0  0  0  0  0  0  0  0  0  0  0  0  # atno 17394 bound_to 11000
  139.9933  135.0056  157.0026 LP  0  0  0  0  0  0  0  0  0  0  0  0  # atno 17395 bound_to 11000

$$$$
