AV-unprocessed.smi:3261|AV-procd|sdf|12481|dock1
  -GOLD-   2272018383D 1   1.00000     0.00000
 Structure written by MMmdl.
 31 32  0  0  0  0  0  0  0  0  2 V2000
  150.9308  140.7837  156.2631 O   0  0  0  0  0  0  0  0  0  0  0  0
  150.3248  141.8490  156.1746 C   0  0  0  0  0  0  0  0  0  0  0  0
  149.2689  142.0675  155.3654 N   0  0  0  0  0  0  0  0  0  0  0  0
  148.5978  141.1580  154.5027 C   0  0  0  0  0  0  0  0  0  0  0  0
  147.5370  141.6676  153.7212 C   0  0  0  0  0  0  0  0  0  0  0  0
  146.8275  140.8043  152.8615 C   0  0  0  0  0  0  0  0  0  0  0  0
  147.1601  139.4974  152.7975 N   0  3  0  0  0  0  0  0  0  0  0  0
  148.1566  138.9609  153.5338 C   0  0  0  0  0  0  0  0  0  0  0  0
  148.9016  139.7752  154.4110 C   0  0  0  0  0  0  0  0  0  0  0  0
  150.7066  142.9243  156.8876 N   0  0  0  0  0  0  0  0  0  0  0  0
  151.8038  143.0329  157.8507 C   0  0  1  0  0  0  0  0  0  0  0  0
  151.8442  144.4352  158.4862 C   0  0  0  0  0  0  0  0  0  0  0  0
  152.7556  144.3912  159.7193 C   0  0  0  0  0  0  0  0  0  0  0  0
  152.6256  142.6897  160.3897 S   0  0  0  0  0  0  0  0  0  0  0  0
  153.9638  142.0799  160.4045 O   0  0  0  0  0  0  0  0  0  0  0  0
  151.7812  142.6939  161.5936 O   0  0  0  0  0  0  0  0  0  0  0  0
  151.6652  142.0076  158.9873 C   0  0  0  0  0  0  0  0  0  0  0  0
  148.9289  143.0176  155.3380 H   0  0  0  0  0  0  0  0  0  0  0  0
  147.2685  142.7130  153.7741 H   0  0  0  0  0  0  0  0  0  0  0  0
  146.0091  141.1172  152.2296 H   0  0  0  0  0  0  0  0  0  0  0  0
  148.3240  137.9014  153.4050 H   0  0  0  0  0  0  0  0  0  0  0  0
  149.6795  139.3173  155.0020 H   0  0  0  0  0  0  0  0  0  0  0  0
  150.1831  143.7732  156.7273 H   0  0  0  0  0  0  0  0  0  0  0  0
  152.7611  142.8778  157.3501 H   0  0  0  0  0  0  0  0  0  0  0  0
  152.1727  145.1939  157.7752 H   0  0  0  0  0  0  0  0  0  0  0  0
  150.8392  144.7145  158.8062 H   0  0  0  0  0  0  0  0  0  0  0  0
  153.7952  144.5632  159.4391 H   0  0  0  0  0  0  0  0  0  0  0  0
  152.4760  145.1195  160.4807 H   0  0  0  0  0  0  0  0  0  0  0  0
  150.6275  141.9156  159.3108 H   0  0  0  0  0  0  0  0  0  0  0  0
  152.0373  141.0171  158.7258 H   0  0  0  0  0  0  0  0  0  0  0  0
  146.6332  138.8887  152.1707 H   0  0  0  0  0  0  0  0  0  0  0  0
  1  2  2  0  0  0  0
  2  3  1  0  0  0  0
  2 10  1  0  0  0  0
  3  4  1  0  0  0  0
  3 18  1  0  0  0  0
  4  9  1  0  0  0  0
  4  5  2  0  0  0  0
  5  6  1  0  0  0  0
  5 19  1  0  0  0  0
  6  7  2  0  0  0  0
  6 20  1  0  0  0  0
  7  8  1  0  0  0  0
  7 31  1  0  0  0  0
  8  9  2  0  0  0  0
  8 21  1  0  0  0  0
  9 22  1  0  0  0  0
 10 11  1  0  0  0  0
 10 23  1  0  0  0  0
 11 17  1  0  0  0  0
 11 12  1  0  0  0  0
 11 24  1  0  0  0  0
 12 13  1  0  0  0  0
 12 25  1  0  0  0  0
 12 26  1  0  0  0  0
 13 14  1  0  0  0  0
 13 27  1  0  0  0  0
 13 28  1  0  0  0  0
 14 15  2  0  0  0  0
 14 16  2  0  0  0  0
 14 17  1  0  0  0  0
 17 29  1  0  0  0  0
 17 30  1  0  0  0  0
M  CHG  1   7   1
M  END
> <s_m_source_file>
AV-unprocessed.smi

> <i_m_source_file_index>
3261

> <i_lp_mmshare_version>
43012

> <i_f3d_flags>
0

> <s_epik_input>
Tz1TMSg9TylbQ0gyXVtDSDJdW0NASF0oW0NIMl0xKVtOSF1DKD1PKVtOSF1jMltjSF1bY0hdbltjSF1bY0hdMg==

> <s_epik_cmdline>
J2VwaWtfcHl0aG9uJywgJy1waCcsICc3LjAnLCAnLXRuJywgJzgnLCAnLW1hJywgJzIwMCcsICctbWV0YWxfYmluZGluZycsICctaW1hZScsICc8aW5maWxlLm1hZT4nLCAnLW9tYWUnLCAnPG91dGZpbGUubWFlPic=

> <r_epik_Ionization_Penalty>
1.10375

> <r_epik_Ionization_Penalty_Charging>
1.10372

> <r_epik_Ionization_Penalty_Neutral>
2.06752e-05

> <r_epik_State_Penalty>
1.16109

> <r_epik_Charging_Adjusted_Penalty>
2.26482

> <i_epik_Tot_Q>
1

> <i_epik_Tot_abs_Q>
1

> <r_epik_Metal_State_Penalty>
1.24883

> <b_epik_Metal_Only>
0

> <s_lp_Force_Field>
OPLS_2005

> <r_lp_Energy>
25.5271

> <b_lp_Chiralities_Consistent>
1

> <s_lp_Variant>
AV-unprocessed.smi:3261-4

> <Gold.Version>
5.8.1

> <Gold.Id.Protein>
6NUR|6NUR_protein|mol2

> <Gold.PLP.Fitness>
41.9827

> <Gold.PLP.PLP>
-34.0099

> <Gold.PLP.part.hbond>
-4.0000

> <Gold.PLP.part.metal>
0.0000

> <Gold.PLP.part.buried>
-4.4561

> <Gold.PLP.part.nonpolar>
-25.4249

> <Gold.PLP.part.repulsive>
0.3846

> <Gold.PLP.ligand.clash>
0.0000

> <Gold.PLP.ligand.torsion>
0.0099

> <Gold.PLP.Chemscore.Hbond>
2.6640

> <Gold.PLP.Chemscore.CHOScore>
0.0000

> <Gold.PLP.Chemscore.Metal>
0.0000

> <Gold.Chemscore.Hbonds>
donor molecule, donor type, donor heavy atom, donor atom, acceptor molecule, acceptor atom, score
      L1  H     3    18       P1  8028  1.00
      L1  H    10    23       P1  8028  0.99
      P1  H  6933  6945       L1    16  0.60

> <Gold.PLP.Chemscore.Internal.Correction>
0.0005

> <Gold.Rescore>
     Score         DG    S(hbond)    S(metal)    S(lipo)     H(rot)  DE(clash)    DE(int)     intcor
     19.36     -20.71       2.56        0.00      79.06       1.00       0.12       1.22       ----

> <Gold.Chemscore.Fitness>
19.3649

> <Gold.Chemscore.DG>
-20.7101

> <Gold.Chemscore.ZeroCoef>
-5.4800

> <Gold.Chemscore.Hbond>
2.5568

> <Gold.Chemscore.Metal>
0.0000

> <Gold.Chemscore.Lipo>
79.0626

> <Gold.Chemscore.Internal_Hbond>
0.0000

> <Gold.Chemscore.DEClash>
0.1236

> <Gold.Chemscore.DEInternal>
1.2216

> <Gold.Chemscore.Rot>
1.0000

> <Gold.Chemscore.Internal.Correction>
   9.000000E+99

> <Gold.Chemscore.Hbonds>
donor molecule, donor type, donor heavy atom, donor atom, acceptor molecule, acceptor atom, score
      L1  H     3    18       P1  8028  0.99
      L1  H    10    23       P1  8028  0.93
      P1  H  6933  6945       L1    16  0.57

> <Gold.Chemscore.Hbond.Weighted>
-8.5397

> <Gold.Chemscore.Metal.Weighted>
-0.0000

> <Gold.Chemscore.Lipo.Weighted>
-9.2503

> <Gold.Chemscore.Internal_Hbond.Weighted>
0.0000

> <Gold.Chemscore.DEClash.Weighted>
0.1236

> <Gold.Chemscore.DEInternal.Weighted>
1.2216

> <Gold.Chemscore.Rot.Weighted>
2.5600

> <Gold.Chemscore.Internal.Correction.Weighted>
   9.000000E+99

> <Gold.Protein.RotatedTorsions>
[ 6907 6896 6895 6894 ] final -135.66 input  -60.11 | X-H torsion
[ 7974 7965 7964 7962 ] final -117.41 input  175.53 | X-H torsion
[ 8008 7997 7996 7995 ] final   -3.54 input   59.86 | X-H torsion
[ 10167 10162 10161 10158 ] final   68.71 input  -65.29 | X-H torsion
[ 10718 10713 10712 10709 ] final   -1.72 input   66.30 | X-H torsion
[ 10763 10752 10751 10750 ] final   64.97 input  -60.55 | X-H torsion
[ 11005 11000 10999 10996 ] final  -17.41 input  -57.11 | X-H torsion

> <Gold.Protein.ActiveResidues>
 VAL166  LYS551  ARG553  GLY616  TRP617  ASP618  TYR619  PRO620  LYS621  CYS622 
 ASP623  PHE694  ASN695  SER759  ASP760  ASP761  ALA762  ILE779  LEU786  VAL792 
 PHE793  MET794  SER795  GLU796  ALA797  LYS798  CYS799  TRP800  GLU811  SER814 

> <Gold.Protein.RotatedAtoms>
  151.0006  133.6060  159.2695 H   0  0  0  0  0  0  0  0  0  0  0  0  # atno 6907 bound_to 6896
  151.3248  135.0826  159.9328 H   0  0  0  0  0  0  0  0  0  0  0  0  # atno 6908 bound_to 6896
  152.5272  133.9646  159.7787 H   0  0  0  0  0  0  0  0  0  0  0  0  # atno 6909 bound_to 6896
  145.0855  140.8455  143.4013 H   0  0  0  0  0  0  0  0  0  0  0  0  # atno 7974 bound_to 7965
  154.6238  140.2507  155.7516 H   0  0  0  0  0  0  0  0  0  0  0  0  # atno 8008 bound_to 7997
  156.2442  140.2921  156.0478 H   0  0  0  0  0  0  0  0  0  0  0  0  # atno 8009 bound_to 7997
  155.1853  140.0390  157.2880 H   0  0  0  0  0  0  0  0  0  0  0  0  # atno 8010 bound_to 7997
  140.0757  144.5114  150.7196 H   0  0  0  0  0  0  0  0  0  0  0  0  # atno 10167 bound_to 10162
  156.8015  130.5394  149.5721 H   0  0  0  0  0  0  0  0  0  0  0  0  # atno 10718 bound_to 10713
  153.0077  135.5374  154.6593 H   0  0  0  0  0  0  0  0  0  0  0  0  # atno 10763 bound_to 10752
  154.5806  135.2849  155.0739 H   0  0  0  0  0  0  0  0  0  0  0  0  # atno 10764 bound_to 10752
  154.1870  135.6506  153.5102 H   0  0  0  0  0  0  0  0  0  0  0  0  # atno 10765 bound_to 10752
  140.8166  133.8100  155.9616 H   0  0  0  0  0  0  0  0  0  0  0  0  # atno 11005 bound_to 11000
  145.1127  139.2746  143.5629 LP  0  0  0  0  0  0  0  0  0  0  0  0  # atno 17320 bound_to 7965
  146.3531  140.0728  142.8622 LP  0  0  0  0  0  0  0  0  0  0  0  0  # atno 17321 bound_to 7965
  140.7103  143.2500  151.4601 LP  0  0  0  0  0  0  0  0  0  0  0  0  # atno 17342 bound_to 10162
  139.5809  144.1711  152.1967 LP  0  0  0  0  0  0  0  0  0  0  0  0  # atno 17343 bound_to 10162
  156.1099  130.6032  151.0030 LP  0  0  0  0  0  0  0  0  0  0  0  0  # atno 17370 bound_to 10713
  157.6551  131.0890  150.7964 LP  0  0  0  0  0  0  0  0  0  0  0  0  # atno 17371 bound_to 10713
  140.9143  134.2222  157.4966 LP  0  0  0  0  0  0  0  0  0  0  0  0  # atno 17394 bound_to 11000
  139.8711  134.9764  156.4919 LP  0  0  0  0  0  0  0  0  0  0  0  0  # atno 17395 bound_to 11000

$$$$
