AV-unprocessed.smi:473|AV-procd|sdf|2662|dock5
  -GOLD-   2262023 73D 1   1.00000     0.00000
 Structure written by MMmdl.
 42 44  0  0  0  0  0  0  0  0  1 V2000
  153.3600  143.0885  163.3435 C   0  0  0  0  0  0  0  0  0  0  0  0
  152.9529  142.8779  161.8957 C   0  0  0  0  0  0  0  0  0  0  0  0
  152.0744  143.8028  161.2869 C   0  0  0  0  0  0  0  0  0  0  0  0
  151.6765  143.6456  159.9411 C   0  0  0  0  0  0  0  0  0  0  0  0
  150.8430  144.4207  159.1528 N   0  0  0  0  0  0  0  0  0  0  0  0
  150.8717  143.7585  157.9997 C   0  0  0  0  0  0  0  0  0  0  0  0
  151.6269  142.6445  157.9476 N   0  0  0  0  0  0  0  0  0  0  0  0
  151.8142  141.7655  156.8075 C   0  0  0  0  0  0  0  0  0  0  0  0
  150.4944  141.1211  156.3383 C   0  0  1  0  0  0  0  0  0  0  0  0
  150.6870  140.3148  155.1929 O   0  0  0  0  0  0  0  0  0  0  0  0
  149.7943  140.2898  157.4260 C   0  0  0  0  0  0  0  0  0  0  0  0
  148.4258  140.1152  157.0960 O   0  0  0  0  0  0  0  0  0  0  0  0
  147.6898  141.3271  157.1220 C   0  0  0  0  0  0  0  0  0  0  0  0
  147.3204  141.6692  155.7132 C   0  0  0  0  0  0  0  0  0  0  0  0
  146.4985  142.6198  155.1735 C   0  0  0  0  0  0  0  0  0  0  0  0
  146.5606  142.4540  153.7622 C   0  0  0  0  0  0  0  0  0  0  0  0
  147.4211  141.4167  153.5426 C   0  0  0  0  0  0  0  0  0  0  0  0
  147.8947  140.9278  154.7207 O   0  0  0  0  0  0  0  0  0  0  0  0
  152.1828  142.5272  159.2168 C   0  0  0  0  0  0  0  0  0  0  0  0
  153.0554  141.5994  159.8117 C   0  0  0  0  0  0  0  0  0  0  0  0
  153.4451  141.7727  161.1560 C   0  0  0  0  0  0  0  0  0  0  0  0
  154.3921  140.7676  161.7871 C   0  0  0  0  0  0  0  0  0  0  0  0
  152.8904  143.9779  163.7644 H   0  0  0  0  0  0  0  0  0  0  0  0
  154.4405  143.2126  163.4213 H   0  0  0  0  0  0  0  0  0  0  0  0
  153.0647  142.2341  163.9529 H   0  0  0  0  0  0  0  0  0  0  0  0
  151.6996  144.6451  161.8495 H   0  0  0  0  0  0  0  0  0  0  0  0
  150.3139  144.1040  157.1417 H   0  0  0  0  0  0  0  0  0  0  0  0
  152.2722  142.3418  156.0026 H   0  0  0  0  0  0  0  0  0  0  0  0
  152.5328  140.9926  157.0831 H   0  0  0  0  0  0  0  0  0  0  0  0
  149.8108  141.9152  156.0355 H   0  0  0  0  0  0  0  0  0  0  0  0
  150.3434  139.4529  155.3723 H   0  0  0  0  0  0  0  0  0  0  0  0
  150.2682  139.3091  157.4889 H   0  0  0  0  0  0  0  0  0  0  0  0
  149.9025  140.7629  158.4036 H   0  0  0  0  0  0  0  0  0  0  0  0
  146.7896  141.2136  157.7277 H   0  0  0  0  0  0  0  0  0  0  0  0
  148.2894  142.1282  157.5561 H   0  0  0  0  0  0  0  0  0  0  0  0
  145.9215  143.3451  155.7278 H   0  0  0  0  0  0  0  0  0  0  0  0
  146.0425  143.0223  153.0038 H   0  0  0  0  0  0  0  0  0  0  0  0
  147.7903  140.9223  152.6561 H   0  0  0  0  0  0  0  0  0  0  0  0
  153.4247  140.7639  159.2351 H   0  0  0  0  0  0  0  0  0  0  0  0
  154.6613  139.9792  161.0835 H   0  0  0  0  0  0  0  0  0  0  0  0
  153.9289  140.2969  162.6545 H   0  0  0  0  0  0  0  0  0  0  0  0
  155.3115  141.2586  162.1069 H   0  0  0  0  0  0  0  0  0  0  0  0
  1  2  1  0  0  0  0
  1 23  1  0  0  0  0
  1 24  1  0  0  0  0
  1 25  1  0  0  0  0
  2 21  1  0  0  0  0
  2  3  2  0  0  0  0
  3  4  1  0  0  0  0
  3 26  1  0  0  0  0
  4 19  2  0  0  0  0
  4  5  1  0  0  0  0
  5  6  2  0  0  0  0
  6  7  1  0  0  0  0
  6 27  1  0  0  0  0
  7  8  1  0  0  0  0
  7 19  1  0  0  0  0
  8  9  1  0  0  0  0
  8 28  1  0  0  0  0
  8 29  1  0  0  0  0
  9 10  1  0  0  0  0
  9 11  1  0  0  0  0
  9 30  1  0  0  0  0
 10 31  1  0  0  0  0
 11 12  1  0  0  0  0
 11 32  1  0  0  0  0
 11 33  1  0  0  0  0
 12 13  1  0  0  0  0
 13 14  1  0  0  0  0
 13 34  1  0  0  0  0
 13 35  1  0  0  0  0
 14 18  1  0  0  0  0
 14 15  2  0  0  0  0
 15 16  1  0  0  0  0
 15 36  1  0  0  0  0
 16 17  2  0  0  0  0
 16 37  1  0  0  0  0
 17 18  1  0  0  0  0
 17 38  1  0  0  0  0
 19 20  1  0  0  0  0
 20 21  2  0  0  0  0
 20 39  1  0  0  0  0
 21 22  1  0  0  0  0
 22 40  1  0  0  0  0
 22 41  1  0  0  0  0
 22 42  1  0  0  0  0
M  END
> <s_m_source_file>
AV-unprocessed.smi

> <i_m_source_file_index>
473

> <i_lp_mmshare_version>
43012

> <i_f3d_flags>
0

> <s_epik_input>
W0NIM11jKFtjSF0xKWMoW0NIM10pW2NIXWMoYzEyKW4oW2NIXW4yKVtDSDJdW0NASF0oW09IXSlbQ0gyXU9bQ0gyXWMzW2NIXVtjSF1bY0hdbzM=

> <s_epik_cmdline>
J2VwaWtfcHl0aG9uJywgJy1waCcsICc3LjAnLCAnLXRuJywgJzgnLCAnLW1hJywgJzIwMCcsICctbWV0YWxfYmluZGluZycsICctaW1hZScsICc8aW5maWxlLm1hZT4nLCAnLW9tYWUnLCAnPG91dGZpbGUubWFlPic=

> <r_epik_Ionization_Penalty>
0.112477

> <r_epik_Ionization_Penalty_Charging>
0

> <r_epik_Ionization_Penalty_Neutral>
0.112477

> <r_epik_State_Penalty>
0.102177

> <r_epik_Charging_Adjusted_Penalty>
0.102177

> <i_epik_Tot_Q>
0

> <i_epik_Tot_abs_Q>
0

> <r_epik_Metal_State_Penalty>
0.000111506

> <b_epik_Metal_Only>
0

> <s_lp_Force_Field>
OPLS_2005

> <r_lp_Energy>
9.30743

> <b_lp_Chiralities_Consistent>
1

> <s_lp_Variant>
AV-unprocessed.smi:473-2

> <Gold.Version>
5.8.1

> <Gold.Id.Protein>
6NUR|6NUR_protein|mol2

> <Gold.PLP.Fitness>
55.0930

> <Gold.PLP.PLP>
-47.2082

> <Gold.PLP.part.hbond>
-1.0000

> <Gold.PLP.part.metal>
0.0000

> <Gold.PLP.part.buried>
-6.6446

> <Gold.PLP.part.nonpolar>
-37.7237

> <Gold.PLP.part.repulsive>
0.2409

> <Gold.PLP.ligand.clash>
0.0000

> <Gold.PLP.ligand.torsion>
0.5894

> <Gold.PLP.Chemscore.Hbond>
1.0000

> <Gold.PLP.Chemscore.CHOScore>
2.0000

> <Gold.PLP.Chemscore.Metal>
0.0000

> <Gold.Chemscore.Hbonds>
donor molecule, donor type, donor heavy atom, donor atom, acceptor molecule, acceptor atom, score
      P1  H  7989  7998       L1    10  1.00
      L1  C     6    27       P1  8028  1.00
      L1  C    17    38       P1  7957  1.00

> <Gold.PLP.Chemscore.Internal.Correction>
0.0636

> <Gold.Rescore>
     Score         DG    S(hbond)    S(metal)    S(lipo)     H(rot)  DE(clash)    DE(int)     intcor
     15.93     -17.92       0.98        0.00     130.89       2.41       1.49       0.50       ----

> <Gold.Chemscore.Fitness>
15.9330

> <Gold.Chemscore.DG>
-17.9168

> <Gold.Chemscore.ZeroCoef>
-5.4800

> <Gold.Chemscore.Hbond>
0.9844

> <Gold.Chemscore.Metal>
0.0000

> <Gold.Chemscore.Lipo>
130.8913

> <Gold.Chemscore.Internal_Hbond>
0.0000

> <Gold.Chemscore.DEClash>
1.4877

> <Gold.Chemscore.DEInternal>
0.4961

> <Gold.Chemscore.Rot>
2.4083

> <Gold.Chemscore.Internal.Correction>
   9.000000E+99

> <Gold.Chemscore.Hbonds>
donor molecule, donor type, donor heavy atom, donor atom, acceptor molecule, acceptor atom, score
      P1  H  7989  7998       L1    10  0.92

> <Gold.Chemscore.Hbond.Weighted>
-3.2878

> <Gold.Chemscore.Metal.Weighted>
-0.0000

> <Gold.Chemscore.Lipo.Weighted>
-15.3143

> <Gold.Chemscore.Internal_Hbond.Weighted>
0.0000

> <Gold.Chemscore.DEClash.Weighted>
1.4877

> <Gold.Chemscore.DEInternal.Weighted>
0.4961

> <Gold.Chemscore.Rot.Weighted>
6.1653

> <Gold.Chemscore.Internal.Correction.Weighted>
   9.000000E+99

> <Gold.Protein.RotatedTorsions>
[ 6907 6896 6895 6894 ] final -174.24 input  -60.11 | X-H torsion
[ 7974 7965 7964 7962 ] final -102.14 input  175.53 | X-H torsion
[ 8008 7997 7996 7995 ] final  150.19 input   59.86 | X-H torsion
[ 10167 10162 10161 10158 ] final  -27.54 input  -65.29 | X-H torsion
[ 10718 10713 10712 10709 ] final   59.85 input   66.30 | X-H torsion
[ 10763 10752 10751 10750 ] final  101.62 input  -60.55 | X-H torsion
[ 11005 11000 10999 10996 ] final  -73.33 input  -57.11 | X-H torsion

> <Gold.Protein.ActiveResidues>
 VAL166  LYS551  ARG553  GLY616  TRP617  ASP618  TYR619  PRO620  LYS621  CYS622 
 ASP623  PHE694  ASN695  SER759  ASP760  ASP761  ALA762  ILE779  LEU786  VAL792 
 PHE793  MET794  SER795  GLU796  ALA797  LYS798  CYS799  TRP800  GLU811  SER814 

> <Gold.Protein.RotatedAtoms>
  151.5691  133.3392  159.2985 H   0  0  0  0  0  0  0  0  0  0  0  0  # atno 6907 bound_to 6896
  150.8378  134.7661  159.6918 H   0  0  0  0  0  0  0  0  0  0  0  0  # atno 6908 bound_to 6896
  152.4451  134.5518  159.9920 H   0  0  0  0  0  0  0  0  0  0  0  0  # atno 6909 bound_to 6896
  145.2725  140.9303  143.2978 H   0  0  0  0  0  0  0  0  0  0  0  0  # atno 7974 bound_to 7965
  156.2726  140.2081  156.5977 H   0  0  0  0  0  0  0  0  0  0  0  0  # atno 8008 bound_to 7997
  154.6931  140.0528  157.0407 H   0  0  0  0  0  0  0  0  0  0  0  0  # atno 8009 bound_to 7997
  155.0838  140.3189  155.4596 H   0  0  0  0  0  0  0  0  0  0  0  0  # atno 8010 bound_to 7997
  140.7276  143.4084  151.1146 H   0  0  0  0  0  0  0  0  0  0  0  0  # atno 10167 bound_to 10162
  157.5707  130.8905  149.9263 H   0  0  0  0  0  0  0  0  0  0  0  0  # atno 10718 bound_to 10713
  153.3290  135.4038  155.1480 H   0  0  0  0  0  0  0  0  0  0  0  0  # atno 10763 bound_to 10752
  154.8618  135.3606  154.5495 H   0  0  0  0  0  0  0  0  0  0  0  0  # atno 10764 bound_to 10752
  153.5933  135.7073  153.5473 H   0  0  0  0  0  0  0  0  0  0  0  0  # atno 10765 bound_to 10752
  141.1621  133.6875  156.7196 H   0  0  0  0  0  0  0  0  0  0  0  0  # atno 11005 bound_to 11000
  144.9323  139.4284  143.6489 LP  0  0  0  0  0  0  0  0  0  0  0  0  # atno 17320 bound_to 7965
  146.3242  139.8240  142.8921 LP  0  0  0  0  0  0  0  0  0  0  0  0  # atno 17321 bound_to 7965
  139.7714  143.8488  152.3121 LP  0  0  0  0  0  0  0  0  0  0  0  0  # atno 17342 bound_to 10162
  139.8408  144.7211  150.9333 LP  0  0  0  0  0  0  0  0  0  0  0  0  # atno 17343 bound_to 10162
  156.0753  130.3679  150.0691 LP  0  0  0  0  0  0  0  0  0  0  0  0  # atno 17370 bound_to 10713
  156.8844  130.9567  151.3596 LP  0  0  0  0  0  0  0  0  0  0  0  0  # atno 17371 bound_to 10713
  140.2826  134.8305  157.3946 LP  0  0  0  0  0  0  0  0  0  0  0  0  # atno 17394 bound_to 11000
  140.1419  134.4960  155.8025 LP  0  0  0  0  0  0  0  0  0  0  0  0  # atno 17395 bound_to 11000

$$$$
