AV-unprocessed.smi:2819|AV-procd|sdf|10850|dock9
  -GOLD-   2272015293D 1   1.00000     0.00000
 Structure written by MMmdl.
 50 51  0  0  0  0  0  0  0  0  2 V2000
  145.5349  129.4409  151.6751 C   0  0  0  0  0  0  0  0  0  0  0  0
  146.1334  130.7185  152.0505 N   0  0  0  0  0  0  0  0  0  0  0  0
  147.0580  130.7874  153.1751 C   0  0  0  0  0  0  0  0  0  0  0  0
  145.7222  131.9039  151.4010 C   0  0  0  0  0  0  0  0  0  0  0  0
  144.8185  131.8937  150.3173 C   0  0  0  0  0  0  0  0  0  0  0  0
  144.4838  133.1338  149.7454 C   0  0  0  0  0  0  0  0  0  0  0  0
  145.0171  134.2810  150.2298 N   0  3  0  0  0  0  0  0  0  0  0  0
  145.8692  134.2380  151.2658 C   0  0  0  0  0  0  0  0  0  0  0  0
  146.3707  135.4448  151.7040 N   0  0  0  0  0  0  0  0  0  0  0  0
  145.7422  136.5047  152.2478 C   0  0  0  0  0  0  0  0  0  0  0  0
  144.5298  136.5868  152.4509 O   0  0  0  0  0  0  0  0  0  0  0  0
  146.6093  137.4852  152.5404 N   0  0  0  0  0  0  0  0  0  0  0  0
  146.2672  138.7843  153.1205 C   0  0  0  0  0  0  0  0  0  0  0  0
  146.5018  138.8427  154.6593 C   0  0  0  0  0  0  0  0  0  0  0  0
  145.5155  139.8994  155.2188 C   0  0  0  0  0  0  0  0  0  0  0  0
  146.0730  137.4720  155.2371 C   0  0  0  0  0  0  0  0  0  0  0  0
  147.9113  139.1989  154.9880 N   0  0  0  0  0  0  0  0  0  0  0  0
  148.9219  138.2787  154.4525 C   0  0  0  0  0  0  0  0  0  0  0  0
  150.3413  138.6369  154.9252 C   0  0  0  0  0  0  0  0  0  0  0  0
  150.6439  139.9785  154.5629 O   0  0  0  0  0  0  0  0  0  0  0  0
  149.7209  140.9103  155.1127 C   0  0  0  0  0  0  0  0  0  0  0  0
  148.2980  140.5711  154.6381 C   0  0  0  0  0  0  0  0  0  0  0  0
  146.2214  133.0796  151.8454 N   0  0  0  0  0  0  0  0  0  0  0  0
  145.6975  129.2367  150.6162 H   0  0  0  0  0  0  0  0  0  0  0  0
  144.4612  129.4501  151.8650 H   0  0  0  0  0  0  0  0  0  0  0  0
  145.9682  128.6166  152.2418 H   0  0  0  0  0  0  0  0  0  0  0  0
  146.6515  131.4156  153.9682 H   0  0  0  0  0  0  0  0  0  0  0  0
  148.0170  131.1992  152.8594 H   0  0  0  0  0  0  0  0  0  0  0  0
  147.2436  129.7991  153.5966 H   0  0  0  0  0  0  0  0  0  0  0  0
  144.3877  130.9844  149.9251 H   0  0  0  0  0  0  0  0  0  0  0  0
  143.8044  133.2462  148.9131 H   0  0  0  0  0  0  0  0  0  0  0  0
  147.3685  135.5492  151.5966 H   0  0  0  0  0  0  0  0  0  0  0  0
  147.5854  137.3358  152.3303 H   0  0  0  0  0  0  0  0  0  0  0  0
  146.8196  139.5835  152.6228 H   0  0  0  0  0  0  0  0  0  0  0  0
  145.2246  138.9894  152.8787 H   0  0  0  0  0  0  0  0  0  0  0  0
  144.5075  139.7523  154.8291 H   0  0  0  0  0  0  0  0  0  0  0  0
  145.8201  140.9138  154.9591 H   0  0  0  0  0  0  0  0  0  0  0  0
  145.4303  139.8504  156.3044 H   0  0  0  0  0  0  0  0  0  0  0  0
  145.0345  137.2504  154.9874 H   0  0  0  0  0  0  0  0  0  0  0  0
  146.1465  137.4404  156.3238 H   0  0  0  0  0  0  0  0  0  0  0  0
  146.6716  136.6519  154.8406 H   0  0  0  0  0  0  0  0  0  0  0  0
  148.7199  137.2548  154.7620 H   0  0  0  0  0  0  0  0  0  0  0  0
  148.9029  138.2899  153.3627 H   0  0  0  0  0  0  0  0  0  0  0  0
  150.4311  138.5144  156.0055 H   0  0  0  0  0  0  0  0  0  0  0  0
  151.0724  137.9713  154.4660 H   0  0  0  0  0  0  0  0  0  0  0  0
  149.7789  140.8931  156.2020 H   0  0  0  0  0  0  0  0  0  0  0  0
  149.9968  141.9153  154.7930 H   0  0  0  0  0  0  0  0  0  0  0  0
  148.2459  140.7141  153.5587 H   0  0  0  0  0  0  0  0  0  0  0  0
  147.6191  141.2942  155.0858 H   0  0  0  0  0  0  0  0  0  0  0  0
  144.7607  135.1695  149.7986 H   0  0  0  0  0  0  0  0  0  0  0  0
  1  2  1  0  0  0  0
  1 24  1  0  0  0  0
  1 25  1  0  0  0  0
  1 26  1  0  0  0  0
  2  3  1  0  0  0  0
  2  4  1  0  0  0  0
  3 27  1  0  0  0  0
  3 28  1  0  0  0  0
  3 29  1  0  0  0  0
  4 23  1  0  0  0  0
  4  5  2  0  0  0  0
  5  6  1  0  0  0  0
  5 30  1  0  0  0  0
  6  7  2  0  0  0  0
  6 31  1  0  0  0  0
  7  8  1  0  0  0  0
  7 50  1  0  0  0  0
  8  9  1  0  0  0  0
  8 23  2  0  0  0  0
  9 10  1  0  0  0  0
  9 32  1  0  0  0  0
 10 11  2  0  0  0  0
 10 12  1  0  0  0  0
 12 13  1  0  0  0  0
 12 33  1  0  0  0  0
 13 14  1  0  0  0  0
 13 34  1  0  0  0  0
 13 35  1  0  0  0  0
 14 15  1  0  0  0  0
 14 16  1  0  0  0  0
 14 17  1  0  0  0  0
 15 36  1  0  0  0  0
 15 37  1  0  0  0  0
 15 38  1  0  0  0  0
 16 39  1  0  0  0  0
 16 40  1  0  0  0  0
 16 41  1  0  0  0  0
 17 22  1  0  0  0  0
 17 18  1  0  0  0  0
 18 19  1  0  0  0  0
 18 42  1  0  0  0  0
 18 43  1  0  0  0  0
 19 20  1  0  0  0  0
 19 44  1  0  0  0  0
 19 45  1  0  0  0  0
 20 21  1  0  0  0  0
 21 22  1  0  0  0  0
 21 46  1  0  0  0  0
 21 47  1  0  0  0  0
 22 48  1  0  0  0  0
 22 49  1  0  0  0  0
M  CHG  1   7   1
M  END
> <s_m_source_file>
AV-unprocessed.smi

> <i_m_source_file_index>
2819

> <i_lp_mmshare_version>
43012

> <i_f3d_flags>
0

> <s_epik_input>
W0NIM11OKFtDSDNdKWMxW2NIXVtjSF1uYyhuMSlbTkhdQyg9TylbTkhdW0NIMl1DKFtDSDNdKShbQ0gzXSlOMltDSDJdW0NIMl1PW0NIMl1bQ0gyXTI=

> <s_epik_cmdline>
J2VwaWtfcHl0aG9uJywgJy1waCcsICc3LjAnLCAnLXRuJywgJzgnLCAnLW1hJywgJzIwMCcsICctbWV0YWxfYmluZGluZycsICctaW1hZScsICc8aW5maWxlLm1hZT4nLCAnLW9tYWUnLCAnPG91dGZpbGUubWFlPic=

> <r_lp_tautomer_probability>
0.999336

> <r_epik_Ionization_Penalty>
0.36245

> <r_epik_Ionization_Penalty_Charging>
0.09642

> <r_epik_Ionization_Penalty_Neutral>
0.26603

> <r_epik_State_Penalty>
0.34182

> <r_epik_Charging_Adjusted_Penalty>
0.43824

> <i_epik_Tot_Q>
1

> <i_epik_Tot_abs_Q>
1

> <r_epik_Metal_State_Penalty>
0.680072

> <b_epik_Metal_Only>
0

> <s_lp_Force_Field>
OPLS_2005

> <r_lp_Energy>
46.6514

> <b_lp_Chiralities_Consistent>
1

> <s_lp_Variant>
AV-unprocessed.smi:2819-1

> <Gold.Version>
5.8.1

> <Gold.Id.Protein>
6NUR|6NUR_protein|mol2

> <Gold.PLP.Fitness>
41.3460

> <Gold.PLP.PLP>
-34.7192

> <Gold.PLP.part.hbond>
-3.9970

> <Gold.PLP.part.metal>
0.0000

> <Gold.PLP.part.buried>
-5.0553

> <Gold.PLP.part.nonpolar>
-26.6915

> <Gold.PLP.part.repulsive>
0.6474

> <Gold.PLP.ligand.clash>
0.0164

> <Gold.PLP.ligand.torsion>
1.2277

> <Gold.PLP.Chemscore.Hbond>
3.0000

> <Gold.PLP.Chemscore.CHOScore>
0.0000

> <Gold.PLP.Chemscore.Metal>
0.0000

> <Gold.Chemscore.Hbonds>
donor molecule, donor type, donor heavy atom, donor atom, acceptor molecule, acceptor atom, score
      L1  H     9    32       P1  7948  1.00
      L1  H    12    33       P1  7948  1.00
      P1  H  7989  7998       L1    20  1.00

> <Gold.PLP.Chemscore.Internal.Correction>
0.0985

> <Gold.Rescore>
     Score         DG    S(hbond)    S(metal)    S(lipo)     H(rot)  DE(clash)    DE(int)     intcor
     18.05     -19.43       2.89        0.00      70.22       1.53       0.02       1.36       ----

> <Gold.Chemscore.Fitness>
18.0545

> <Gold.Chemscore.DG>
-19.4330

> <Gold.Chemscore.ZeroCoef>
-5.4800

> <Gold.Chemscore.Hbond>
2.8889

> <Gold.Chemscore.Metal>
0.0000

> <Gold.Chemscore.Lipo>
70.2239

> <Gold.Chemscore.Internal_Hbond>
0.0000

> <Gold.Chemscore.DEClash>
0.0220

> <Gold.Chemscore.DEInternal>
1.3564

> <Gold.Chemscore.Rot>
1.5282

> <Gold.Chemscore.Internal.Correction>
   9.000000E+99

> <Gold.Chemscore.Hbonds>
donor molecule, donor type, donor heavy atom, donor atom, acceptor molecule, acceptor atom, score
      L1  H     9    32       P1  7948  0.98
      L1  H    12    33       P1  7948  0.95
      P1  H  7989  7998       L1    20  0.55

> <Gold.Chemscore.Hbond.Weighted>
-9.6489

> <Gold.Chemscore.Metal.Weighted>
-0.0000

> <Gold.Chemscore.Lipo.Weighted>
-8.2162

> <Gold.Chemscore.Internal_Hbond.Weighted>
0.0000

> <Gold.Chemscore.DEClash.Weighted>
0.0220

> <Gold.Chemscore.DEInternal.Weighted>
1.3564

> <Gold.Chemscore.Rot.Weighted>
3.9121

> <Gold.Chemscore.Internal.Correction.Weighted>
   9.000000E+99

> <Gold.Protein.RotatedTorsions>
[ 6907 6896 6895 6894 ] final -179.92 input  -60.11 | X-H torsion
[ 7974 7965 7964 7962 ] final  -75.24 input  175.53 | X-H torsion
[ 8008 7997 7996 7995 ] final -115.84 input   59.86 | X-H torsion
[ 10167 10162 10161 10158 ] final  105.17 input  -65.29 | X-H torsion
[ 10718 10713 10712 10709 ] final   18.86 input   66.30 | X-H torsion
[ 10763 10752 10751 10750 ] final  131.69 input  -60.55 | X-H torsion
[ 11005 11000 10999 10996 ] final  -51.69 input  -57.11 | X-H torsion

> <Gold.Protein.ActiveResidues>
 VAL166  LYS551  ARG553  GLY616  TRP617  ASP618  TYR619  PRO620  LYS621  CYS622 
 ASP623  PHE694  ASN695  SER759  ASP760  ASP761  ALA762  ILE779  LEU786  VAL792 
 PHE793  MET794  SER795  GLU796  ALA797  LYS798  CYS799  TRP800  GLU811  SER814 

> <Gold.Protein.RotatedAtoms>
  151.6612  133.3317  159.3174 H   0  0  0  0  0  0  0  0  0  0  0  0  # atno 6907 bound_to 6896
  150.7912  134.6942  159.6523 H   0  0  0  0  0  0  0  0  0  0  0  0  # atno 6908 bound_to 6896
  152.3992  134.6318  160.0129 H   0  0  0  0  0  0  0  0  0  0  0  0  # atno 6909 bound_to 6896
  145.6286  140.9344  143.1099 H   0  0  0  0  0  0  0  0  0  0  0  0  # atno 7974 bound_to 7965
  155.0584  140.0393  157.2568 H   0  0  0  0  0  0  0  0  0  0  0  0  # atno 8008 bound_to 7997
  154.7080  140.2687  155.6632 H   0  0  0  0  0  0  0  0  0  0  0  0  # atno 8009 bound_to 7997
  156.2781  140.2727  156.1712 H   0  0  0  0  0  0  0  0  0  0  0  0  # atno 8010 bound_to 7997
  139.7115  144.7076  151.1019 H   0  0  0  0  0  0  0  0  0  0  0  0  # atno 10167 bound_to 10162
  157.1023  130.6473  149.5875 H   0  0  0  0  0  0  0  0  0  0  0  0  # atno 10718 bound_to 10713
  153.7784  135.3172  155.3362 H   0  0  0  0  0  0  0  0  0  0  0  0  # atno 10763 bound_to 10752
  154.8170  135.4629  154.0675 H   0  0  0  0  0  0  0  0  0  0  0  0  # atno 10764 bound_to 10752
  153.1956  135.6915  153.8381 H   0  0  0  0  0  0  0  0  0  0  0  0  # atno 10765 bound_to 10752
  141.0884  133.6637  156.3914 H   0  0  0  0  0  0  0  0  0  0  0  0  # atno 11005 bound_to 11000
  144.7202  139.8056  143.7384 LP  0  0  0  0  0  0  0  0  0  0  0  0  # atno 17320 bound_to 7965
  146.1374  139.4423  143.0130 LP  0  0  0  0  0  0  0  0  0  0  0  0  # atno 17321 bound_to 7965
  140.7734  143.5287  150.9449 LP  0  0  0  0  0  0  0  0  0  0  0  0  # atno 17342 bound_to 10162
  139.8972  143.6881  152.3137 LP  0  0  0  0  0  0  0  0  0  0  0  0  # atno 17343 bound_to 10162
  155.9870  130.4908  150.7107 LP  0  0  0  0  0  0  0  0  0  0  0  0  # atno 17370 bound_to 10713
  157.4630  131.0885  151.0725 LP  0  0  0  0  0  0  0  0  0  0  0  0  # atno 17371 bound_to 10713
  140.5308  134.6214  157.5349 LP  0  0  0  0  0  0  0  0  0  0  0  0  # atno 17394 bound_to 11000
  139.9706  134.7299  156.0049 LP  0  0  0  0  0  0  0  0  0  0  0  0  # atno 17395 bound_to 11000

$$$$
