#       Name:                AV-unprocessed.smi:1859
#       Creating user name   scv26
#       Creation time:       Fri Mar 27 09:26:12 2020


#       File generated by GOLD software.
#

@<TRIPOS>MOLECULE
AV-unprocessed.smi:1859
    50    52     1
SMALL
NO_CHARGES


@<TRIPOS>ATOM
      1 ****        -0.3446   0.6537   1.1973 O.2            1 S1                 0.0000
      2 ****        -0.8170  -0.4689   1.3798 C.2            1 S1                 0.0000
      3 ****        -0.0532  -1.5571   1.5609 N.am           1 S1                 0.0000
      4 ****         1.4034  -1.5672   1.5131 C.3            1 S1                 0.0000
      5 ****         1.9173  -1.5489   0.0631 C.3            1 S1                 0.0000
      6 ****         3.4312  -1.5452  -0.0059 C.ar           1 S1                 0.0000
      7 ****         4.1779  -2.7219  -0.2318 C.ar           1 S1                 0.0000
      8 ****         5.5860  -2.6465  -0.2720 C.ar           1 S1                 0.0000
      9 ****         6.2161  -1.3986  -0.0853 C.ar           1 S1                 0.0000
     10 ****         5.4212  -0.2554   0.1369 C.ar           1 S1                 0.0000
     11 ****         4.0752  -0.3686   0.1689 N.pl3          1 S1                 1.0000
     12 ****        -2.3404  -0.6959   1.3984 C.3            1 S1                 0.0000
     13 ****        -3.1111   0.4204   2.1509 C.3            1 S1                 0.0000
     14 ****        -3.3299   1.6993   1.3119 C.3            1 S1                 0.0000
     15 ****        -3.8570   1.3634  -0.0944 C.3            1 S1                 0.0000
     16 ****        -2.9292   0.4205  -0.7356 N.am           1 S1                 0.0000
     17 ****        -2.0692   0.7102  -1.7445 C.2            1 S1                 0.0000
     18 ****        -1.2530  -0.1097  -2.1691 O.2            1 S1                 0.0000
     19 ****        -2.1519   2.0815  -2.3366 C.3            1 S1                 0.0000
     20 ****        -0.9303   2.6233  -3.0562 C.3            1 S1                 0.0000
     21 ****        -1.2975   3.1559  -1.6964 C.3            1 S1                 0.0000
     22 ****        -2.9143  -0.8691  -0.0295 C.3            1 S1                 0.0000
     23 ****        -0.5144  -2.4430   1.7109 H              1 S1                 0.0000
     24 ****         1.7986  -0.7184   2.0738 H              1 S1                 0.0000
     25 ****         1.7549  -2.4658   2.0208 H              1 S1                 0.0000
     26 ****         1.5352  -2.4145  -0.4796 H              1 S1                 0.0000
     27 ****         1.5438  -0.6689  -0.4630 H              1 S1                 0.0000
     28 ****         3.6804  -3.6710  -0.3700 H              1 S1                 0.0000
     29 ****         6.1753  -3.5358  -0.4420 H              1 S1                 0.0000
     30 ****         7.2931  -1.3196  -0.1113 H              1 S1                 0.0000
     31 ****         5.8174   0.7379   0.2901 H              1 S1                 0.0000
     32 ****        -2.5109  -1.6267   1.9419 H              1 S1                 0.0000
     33 ****        -4.0870   0.0270   2.4377 H              1 S1                 0.0000
     34 ****        -2.6086   0.6717   3.0860 H              1 S1                 0.0000
     35 ****        -4.0305   2.3595   1.8236 H              1 S1                 0.0000
     36 ****        -2.3983   2.2587   1.2263 H              1 S1                 0.0000
     37 ****        -4.8425   0.9012  -0.0204 H              1 S1                 0.0000
     38 ****        -4.0129   2.2826  -0.6565 H              1 S1                 0.0000
     39 ****        -3.1143   2.3706  -2.7552 H              1 S1                 0.0000
     40 ****        -0.0360   2.0062  -3.1201 H              1 S1                 0.0000
     41 ****        -1.1089   3.2618  -3.9188 H              1 S1                 0.0000
     42 ****        -1.7274   4.1533  -1.6327 H              1 S1                 0.0000
     43 ****        -0.6618   2.8733  -0.8587 H              1 S1                 0.0000
     44 ****        -2.3580  -1.6366  -0.5704 H              1 S1                 0.0000
     45 ****        -3.9344  -1.2514   0.0303 H              1 S1                 0.0000
     46 ****         3.5187   0.4710   0.3322 H              1 S1                 0.0000
     47 ****         0.6469   0.7821   1.1797 LP             1 S1                 0.0000
     48 ****        -0.9526   1.4369   1.0668 LP             1 S1                 0.0000
     49 ****        -1.2088  -1.0248  -1.7683 LP             1 S1                 0.0000
     50 ****        -0.6349   0.1401  -2.9144 LP             1 S1                 0.0000
@<TRIPOS>BOND
    1    1    2 2     
    2    2    3 am    
    3    2   12 1     
    4    3    4 1     
    5    3   23 1     
    6    4    5 1     
    7    4   24 1     
    8    4   25 1     
    9    5    6 1     
   10    5   26 1     
   11    5   27 1     
   12    6   11 ar    
   13    6    7 ar    
   14    7    8 ar    
   15    7   28 1     
   16    8    9 ar    
   17    8   29 1     
   18    9   10 ar    
   19    9   30 1     
   20   10   11 ar    
   21   10   31 1     
   22   11   46 1     
   23   12   22 1     
   24   12   13 1     
   25   12   32 1     
   26   13   14 1     
   27   13   33 1     
   28   13   34 1     
   29   14   15 1     
   30   14   35 1     
   31   14   36 1     
   32   15   16 1     
   33   15   37 1     
   34   15   38 1     
   35   16   17 am    
   36   16   22 1     
   37   17   18 2     
   38   17   19 1     
   39   19   21 1     
   40   19   20 1     
   41   19   39 1     
   42   20   21 1     
   43   20   40 1     
   44   20   41 1     
   45   21   42 1     
   46   21   43 1     
   47   22   44 1     
   48   22   45 1     
   49    1   47 1     
   50    1   48 1     
   51   18   49 1     
   52   18   50 1     
@<TRIPOS>SUBSTRUCTURE
      1 S1             1
@<TRIPOS>SET
LONE_PAIRS      STATIC     ATOMS    <user>   **** ""
4 47 48 49 50
DONOR_HYDROGENS      STATIC     ATOMS    <user>   **** ""
2 23 46
ATOM$BLUE        STATIC     ATOMS    COLORGROUP SYSTEM
4 47 48 49 50
ATOM$RED        STATIC     ATOMS    COLORGROUP SYSTEM
2 23 46
