AV-unprocessed.smi:3154|AV-procd|sdf|12022|dock6
  -GOLD-   2272017433D 1   1.00000     0.00000
 Structure written by MMmdl.
 35 36  0  0  0  0  0  0  0  0  2 V2000
  150.6516  138.1897  154.2553 C   0  0  0  0  0  0  0  0  0  0  0  0
  149.2966  138.9158  154.3067 C   0  0  1  0  0  0  0  0  0  0  0  0
  149.4496  140.4355  154.5489 C   0  0  0  0  0  0  0  0  0  0  0  0
  150.1545  140.7452  155.7798 N   0  0  0  0  0  0  0  0  0  0  0  0
  150.4982  141.9813  156.2864 C   0  0  0  0  0  0  0  0  0  0  0  0
  151.1400  141.7691  157.4728 C   0  0  0  0  0  0  0  0  0  0  0  0
  151.1337  140.3530  157.6126 C   0  0  0  0  0  0  0  0  0  0  0  0
  150.5398  139.7434  156.5990 N   0  0  0  0  0  0  0  0  0  0  0  0
  148.5504  138.6456  153.0578 N   0  3  0  0  0  0  0  0  0  0  0  0
  147.0896  138.8717  153.1268 C   0  0  0  0  0  0  0  0  0  0  0  0
  146.3279  138.0627  152.0749 C   0  0  0  0  0  0  0  0  0  0  0  0
  146.5564  138.2186  150.8746 O   0  0  0  0  0  0  0  0  0  0  0  0
  145.4194  137.1973  152.5481 N   0  0  0  0  0  0  0  0  0  0  0  0
  144.5983  136.3406  151.7548 C   0  0  0  0  0  0  0  0  0  0  0  0
  144.7761  134.8466  151.9193 C   0  0  0  0  0  0  0  0  0  0  0  0
  145.2730  135.5254  150.6727 C   0  0  0  0  0  0  0  0  0  0  0  0
  151.1929  138.2811  155.1973 H   0  0  0  0  0  0  0  0  0  0  0  0
  151.2876  138.5919  153.4659 H   0  0  0  0  0  0  0  0  0  0  0  0
  150.5183  137.1242  154.0650 H   0  0  0  0  0  0  0  0  0  0  0  0
  148.7290  138.4810  155.1309 H   0  0  0  0  0  0  0  0  0  0  0  0
  149.9898  140.8954  153.7199 H   0  0  0  0  0  0  0  0  0  0  0  0
  148.4767  140.9249  154.5952 H   0  0  0  0  0  0  0  0  0  0  0  0
  150.2628  142.8984  155.7667 H   0  0  0  0  0  0  0  0  0  0  0  0
  151.5492  142.5122  158.1411 H   0  0  0  0  0  0  0  0  0  0  0  0
  151.5384  139.7546  158.4154 H   0  0  0  0  0  0  0  0  0  0  0  0
  148.9369  139.2049  152.3109 H   0  0  0  0  0  0  0  0  0  0  0  0
  146.7238  138.5929  154.1160 H   0  0  0  0  0  0  0  0  0  0  0  0
  146.8667  139.9284  152.9793 H   0  0  0  0  0  0  0  0  0  0  0  0
  145.2980  137.1371  153.5488 H   0  0  0  0  0  0  0  0  0  0  0  0
  143.5869  136.6795  151.5342 H   0  0  0  0  0  0  0  0  0  0  0  0
  145.5217  134.4967  152.6311 H   0  0  0  0  0  0  0  0  0  0  0  0
  143.8888  134.2229  151.8313 H   0  0  0  0  0  0  0  0  0  0  0  0
  144.7166  135.3561  149.7528 H   0  0  0  0  0  0  0  0  0  0  0  0
  146.3501  135.6272  150.5526 H   0  0  0  0  0  0  0  0  0  0  0  0
  148.6858  137.6722  152.8245 H   0  0  0  0  0  0  0  0  0  0  0  0
  1  2  1  0  0  0  0
  1 17  1  0  0  0  0
  1 18  1  0  0  0  0
  1 19  1  0  0  0  0
  2  3  1  0  0  0  0
  2  9  1  0  0  0  0
  2 20  1  0  0  0  0
  3  4  1  0  0  0  0
  3 21  1  0  0  0  0
  3 22  1  0  0  0  0
  4  8  1  0  0  0  0
  4  5  1  0  0  0  0
  5  6  2  0  0  0  0
  5 23  1  0  0  0  0
  6  7  1  0  0  0  0
  6 24  1  0  0  0  0
  7  8  2  0  0  0  0
  7 25  1  0  0  0  0
  9 10  1  0  0  0  0
  9 26  1  0  0  0  0
  9 35  1  0  0  0  0
 10 11  1  0  0  0  0
 10 27  1  0  0  0  0
 10 28  1  0  0  0  0
 11 12  2  0  0  0  0
 11 13  1  0  0  0  0
 13 14  1  0  0  0  0
 13 29  1  0  0  0  0
 14 16  1  0  0  0  0
 14 15  1  0  0  0  0
 14 30  1  0  0  0  0
 15 16  1  0  0  0  0
 15 31  1  0  0  0  0
 15 32  1  0  0  0  0
 16 33  1  0  0  0  0
 16 34  1  0  0  0  0
M  CHG  1   9   1
M  END
> <s_m_source_file>
AV-unprocessed.smi

> <i_m_source_file_index>
3154

> <i_lp_mmshare_version>
43012

> <i_f3d_flags>
0

> <s_epik_input>
bjFbY0hdW2NIXVtjSF1uMVtDSDJdW0NAQEhdKFtDSDNdKVtOSF1bQ0gyXUMoPU8pW05IXVtDSF0yW0NIMl1bQ0gyXTI=

> <s_epik_cmdline>
J2VwaWtfcHl0aG9uJywgJy1waCcsICc3LjAnLCAnLXRuJywgJzgnLCAnLW1hJywgJzIwMCcsICctbWV0YWxfYmluZGluZycsICctaW1hZScsICc8aW5maWxlLm1hZT4nLCAnLW9tYWUnLCAnPG91dGZpbGUubWFlPic=

> <r_lp_tautomer_probability>
1

> <r_epik_Ionization_Penalty>
0.12065

> <r_epik_Ionization_Penalty_Charging>
0.120646

> <r_epik_Ionization_Penalty_Neutral>
4.1343e-06

> <r_epik_State_Penalty>
0.110186

> <r_epik_Charging_Adjusted_Penalty>
0.230832

> <i_epik_Tot_Q>
1

> <i_epik_Tot_abs_Q>
1

> <r_epik_Metal_State_Penalty>
0.110197

> <b_epik_Metal_Only>
0

> <s_lp_Force_Field>
OPLS_2005

> <r_lp_Energy>
15.3554

> <b_lp_Chiralities_Consistent>
1

> <s_lp_Variant>
AV-unprocessed.smi:3154-2

> <Gold.Version>
5.8.1

> <Gold.Id.Protein>
6NUR|6NUR_protein|mol2

> <Gold.PLP.Fitness>
45.6128

> <Gold.PLP.PLP>
-31.2336

> <Gold.PLP.part.hbond>
-3.0000

> <Gold.PLP.part.metal>
0.0000

> <Gold.PLP.part.buried>
-4.1234

> <Gold.PLP.part.nonpolar>
-27.0690

> <Gold.PLP.part.repulsive>
1.8478

> <Gold.PLP.ligand.clash>
0.0000

> <Gold.PLP.ligand.torsion>
0.3475

> <Gold.PLP.Chemscore.Hbond>
4.0000

> <Gold.PLP.Chemscore.CHOScore>
1.0000

> <Gold.PLP.Chemscore.Metal>
0.0000

> <Gold.Chemscore.Hbonds>
donor molecule, donor type, donor heavy atom, donor atom, acceptor molecule, acceptor atom, score
      L1  H     9    26       P1  7957  1.00
      L1  H     9    35       P1  7948  2.00
      P1  H  7954  7966       L1    12  1.00
      L1  C     5    23       P1  8028  1.00

> <Gold.PLP.Chemscore.Internal.Correction>
0.0743

> <Gold.Rescore>
     Score         DG    S(hbond)    S(metal)    S(lipo)     H(rot)  DE(clash)    DE(int)     intcor
     14.23     -16.72       2.98        0.00      59.24       2.20       0.74       1.74       ----

> <Gold.Chemscore.Fitness>
14.2346

> <Gold.Chemscore.DG>
-16.7207

> <Gold.Chemscore.ZeroCoef>
-5.4800

> <Gold.Chemscore.Hbond>
2.9798

> <Gold.Chemscore.Metal>
0.0000

> <Gold.Chemscore.Lipo>
59.2364

> <Gold.Chemscore.Internal_Hbond>
0.0000

> <Gold.Chemscore.DEClash>
0.7448

> <Gold.Chemscore.DEInternal>
1.7413

> <Gold.Chemscore.Rot>
2.2042

> <Gold.Chemscore.Internal.Correction>
   9.000000E+99

> <Gold.Chemscore.Hbonds>
donor molecule, donor type, donor heavy atom, donor atom, acceptor molecule, acceptor atom, score
      L1  H     9    26       P1  7957  0.96
      L1  H     9    35       P1  7948  0.99
      P1  H  7954  7966       L1    12  0.97

> <Gold.Chemscore.Hbond.Weighted>
-9.9527

> <Gold.Chemscore.Metal.Weighted>
-0.0000

> <Gold.Chemscore.Lipo.Weighted>
-6.9307

> <Gold.Chemscore.Internal_Hbond.Weighted>
0.0000

> <Gold.Chemscore.DEClash.Weighted>
0.7448

> <Gold.Chemscore.DEInternal.Weighted>
1.7413

> <Gold.Chemscore.Rot.Weighted>
5.6427

> <Gold.Chemscore.Internal.Correction.Weighted>
   9.000000E+99

> <Gold.Protein.RotatedTorsions>
[ 6907 6896 6895 6894 ] final   88.28 input  -60.11 | X-H torsion
[ 7974 7965 7964 7962 ] final   34.81 input  175.53 | X-H torsion
[ 8008 7997 7996 7995 ] final   99.21 input   59.86 | X-H torsion
[ 10167 10162 10161 10158 ] final   83.03 input  -65.29 | X-H torsion
[ 10718 10713 10712 10709 ] final -172.18 input   66.30 | X-H torsion
[ 10763 10752 10751 10750 ] final  -94.35 input  -60.55 | X-H torsion
[ 11005 11000 10999 10996 ] final  -88.77 input  -57.11 | X-H torsion

> <Gold.Protein.ActiveResidues>
 VAL166  LYS551  ARG553  GLY616  TRP617  ASP618  TYR619  PRO620  LYS621  CYS622 
 ASP623  PHE694  ASN695  SER759  ASP760  ASP761  ALA762  ILE779  LEU786  VAL792 
 PHE793  MET794  SER795  GLU796  ALA797  LYS798  CYS799  TRP800  GLU811  SER814 

> <Gold.Protein.RotatedAtoms>
  152.5423  134.2146  159.8763 H   0  0  0  0  0  0  0  0  0  0  0  0  # atno 6907 bound_to 6896
  151.2126  133.4540  159.2606 H   0  0  0  0  0  0  0  0  0  0  0  0  # atno 6908 bound_to 6896
  151.0882  134.9913  159.8445 H   0  0  0  0  0  0  0  0  0  0  0  0  # atno 6909 bound_to 6896
  146.1327  139.6222  142.9216 H   0  0  0  0  0  0  0  0  0  0  0  0  # atno 7974 bound_to 7965
  156.1082  140.3232  155.8035 H   0  0  0  0  0  0  0  0  0  0  0  0  # atno 8008 bound_to 7997
  155.4719  140.0547  157.2995 H   0  0  0  0  0  0  0  0  0  0  0  0  # atno 8009 bound_to 7997
  154.4742  140.2025  155.9934 H   0  0  0  0  0  0  0  0  0  0  0  0  # atno 8010 bound_to 7997
  139.9226  144.6203  150.8425 H   0  0  0  0  0  0  0  0  0  0  0  0  # atno 10167 bound_to 10162
  156.7517  130.9380  151.3115 H   0  0  0  0  0  0  0  0  0  0  0  0  # atno 10718 bound_to 10713
  154.7047  135.5161  153.8577 H   0  0  0  0  0  0  0  0  0  0  0  0  # atno 10763 bound_to 10752
  153.0731  135.6608  154.0212 H   0  0  0  0  0  0  0  0  0  0  0  0  # atno 10764 bound_to 10752
  154.0065  135.3006  155.3376 H   0  0  0  0  0  0  0  0  0  0  0  0  # atno 10765 bound_to 10752
  141.1596  133.7590  156.9499 H   0  0  0  0  0  0  0  0  0  0  0  0  # atno 11005 bound_to 11000
  145.5224  141.0431  143.2428 LP  0  0  0  0  0  0  0  0  0  0  0  0  # atno 17320 bound_to 7965
  144.7707  139.6741  143.7196 LP  0  0  0  0  0  0  0  0  0  0  0  0  # atno 17321 bound_to 7965
  140.7658  143.3286  151.2460 LP  0  0  0  0  0  0  0  0  0  0  0  0  # atno 17342 bound_to 10162
  139.6849  143.9791  152.2828 LP  0  0  0  0  0  0  0  0  0  0  0  0  # atno 17343 bound_to 10162
  157.6774  130.9107  150.0183 LP  0  0  0  0  0  0  0  0  0  0  0  0  # atno 17370 bound_to 10713
  156.1397  130.3642  149.9602 LP  0  0  0  0  0  0  0  0  0  0  0  0  # atno 17371 bound_to 10713
  140.1264  134.9384  157.2276 LP  0  0  0  0  0  0  0  0  0  0  0  0  # atno 17394 bound_to 11000
  140.3007  134.3135  155.7290 LP  0  0  0  0  0  0  0  0  0  0  0  0  # atno 17395 bound_to 11000

$$$$
