AV-unprocessed.smi:1714|AV-procd|sdf|6907|dock3
  -GOLD-   22720 8113D 1   1.00000     0.00000
 Structure written by MMmdl.
 45 46  0  0  0  0  0  0  0  0  1 V2000
  148.1532  133.0543  152.6453 C   0  0  0  0  0  0  0  0  0  0  0  0
  146.7900  133.0967  151.9736 C   0  0  0  0  0  0  0  0  0  0  0  0
  146.3000  131.9400  151.3310 C   0  0  0  0  0  0  0  0  0  0  0  0
  145.0399  131.9824  150.7101 C   0  0  0  0  0  0  0  0  0  0  0  0
  144.3191  133.1880  150.7581 C   0  0  0  0  0  0  0  0  0  0  0  0
  144.7802  134.2984  151.3692 N   0  0  0  0  0  0  0  0  0  0  0  0
  145.9945  134.2739  151.9733 C   0  0  0  0  0  0  0  0  0  0  0  0
  146.5437  135.4043  152.6404 N   0  0  0  0  0  0  0  0  0  0  0  0
  145.9295  136.2743  153.4608 C   0  0  0  0  0  0  0  0  0  0  0  0
  144.7395  136.2456  153.7754 O   0  0  0  0  0  0  0  0  0  0  0  0
  146.7859  137.2037  153.9016 N   0  0  0  0  0  0  0  0  0  0  0  0
  146.4309  138.3080  154.7867 C   0  0  0  0  0  0  0  0  0  0  0  0
  147.1328  139.6339  154.3767 C   0  0  0  0  0  0  0  0  0  0  0  0
  147.0103  139.7596  152.8391 C   0  0  0  0  0  0  0  0  0  0  0  0
  146.2943  140.7787  155.0006 C   0  0  0  0  0  0  0  0  0  0  0  0
  148.5429  139.6801  154.8572 N   0  0  0  0  0  0  0  0  0  0  0  0
  149.4765  138.8298  154.1091 C   0  0  0  0  0  0  0  0  0  0  0  0
  150.8845  138.8297  154.7281 C   0  0  0  0  0  0  0  0  0  0  0  0
  151.3742  140.1625  154.8056 O   0  0  0  0  0  0  0  0  0  0  0  0
  150.5279  141.0068  155.5759 C   0  0  0  0  0  0  0  0  0  0  0  0
  149.1171  141.0264  154.9637 C   0  0  0  0  0  0  0  0  0  0  0  0
  148.6148  132.0713  152.5463 H   0  0  0  0  0  0  0  0  0  0  0  0
  148.0627  133.2763  153.7090 H   0  0  0  0  0  0  0  0  0  0  0  0
  148.8233  133.7864  152.1937 H   0  0  0  0  0  0  0  0  0  0  0  0
  146.8809  131.0295  151.3123 H   0  0  0  0  0  0  0  0  0  0  0  0
  144.6367  131.1140  150.2104 H   0  0  0  0  0  0  0  0  0  0  0  0
  143.3465  133.2642  150.2945 H   0  0  0  0  0  0  0  0  0  0  0  0
  147.5246  135.5694  152.4708 H   0  0  0  0  0  0  0  0  0  0  0  0
  147.7464  137.1604  153.5931 H   0  0  0  0  0  0  0  0  0  0  0  0
  145.3463  138.4213  154.7988 H   0  0  0  0  0  0  0  0  0  0  0  0
  146.7025  138.0384  155.8091 H   0  0  0  0  0  0  0  0  0  0  0  0
  145.9651  139.7360  152.5281 H   0  0  0  0  0  0  0  0  0  0  0  0
  147.5095  138.9422  152.3189 H   0  0  0  0  0  0  0  0  0  0  0  0
  147.4275  140.6946  152.4658 H   0  0  0  0  0  0  0  0  0  0  0  0
  145.2310  140.6566  154.7906 H   0  0  0  0  0  0  0  0  0  0  0  0
  146.5698  141.7556  154.6037 H   0  0  0  0  0  0  0  0  0  0  0  0
  146.4086  140.8182  156.0845 H   0  0  0  0  0  0  0  0  0  0  0  0
  149.1279  137.7992  154.0808 H   0  0  0  0  0  0  0  0  0  0  0  0
  149.5487  139.1686  153.0755 H   0  0  0  0  0  0  0  0  0  0  0  0
  150.8691  138.3807  155.7225 H   0  0  0  0  0  0  0  0  0  0  0  0
  151.5653  138.2354  154.1186 H   0  0  0  0  0  0  0  0  0  0  0  0
  150.4951  140.6572  156.6092 H   0  0  0  0  0  0  0  0  0  0  0  0
  150.9477  142.0126  155.5917 H   0  0  0  0  0  0  0  0  0  0  0  0
  149.1673  141.4944  153.9805 H   0  0  0  0  0  0  0  0  0  0  0  0
  148.4964  141.6658  155.5885 H   0  0  0  0  0  0  0  0  0  0  0  0
  1  2  1  0  0  0  0
  1 22  1  0  0  0  0
  1 23  1  0  0  0  0
  1 24  1  0  0  0  0
  2  7  1  0  0  0  0
  2  3  2  0  0  0  0
  3  4  1  0  0  0  0
  3 25  1  0  0  0  0
  4  5  2  0  0  0  0
  4 26  1  0  0  0  0
  5  6  1  0  0  0  0
  5 27  1  0  0  0  0
  6  7  2  0  0  0  0
  7  8  1  0  0  0  0
  8  9  1  0  0  0  0
  8 28  1  0  0  0  0
  9 10  2  0  0  0  0
  9 11  1  0  0  0  0
 11 12  1  0  0  0  0
 11 29  1  0  0  0  0
 12 13  1  0  0  0  0
 12 30  1  0  0  0  0
 12 31  1  0  0  0  0
 13 14  1  0  0  0  0
 13 15  1  0  0  0  0
 13 16  1  0  0  0  0
 14 32  1  0  0  0  0
 14 33  1  0  0  0  0
 14 34  1  0  0  0  0
 15 35  1  0  0  0  0
 15 36  1  0  0  0  0
 15 37  1  0  0  0  0
 16 21  1  0  0  0  0
 16 17  1  0  0  0  0
 17 18  1  0  0  0  0
 17 38  1  0  0  0  0
 17 39  1  0  0  0  0
 18 19  1  0  0  0  0
 18 40  1  0  0  0  0
 18 41  1  0  0  0  0
 19 20  1  0  0  0  0
 20 21  1  0  0  0  0
 20 42  1  0  0  0  0
 20 43  1  0  0  0  0
 21 44  1  0  0  0  0
 21 45  1  0  0  0  0
M  END
> <s_m_source_file>
AV-unprocessed.smi

> <i_m_source_file_index>
1714

> <i_lp_mmshare_version>
43012

> <i_f3d_flags>
0

> <s_epik_input>
W0NIM11jMVtjSF1bY0hdW2NIXW5jMVtOSF1DKD1PKVtOSF1bQ0gyXUMoW0NIM10pKFtDSDNdKU4yW0NIMl1bQ0gyXU9bQ0gyXVtDSDJdMg==

> <s_epik_cmdline>
J2VwaWtfcHl0aG9uJywgJy1waCcsICc3LjAnLCAnLXRuJywgJzgnLCAnLW1hJywgJzIwMCcsICctbWV0YWxfYmluZGluZycsICctaW1hZScsICc8aW5maWxlLm1hZT4nLCAnLW9tYWUnLCAnPG91dGZpbGUubWFlPic=

> <r_epik_Ionization_Penalty>
0.26605

> <r_epik_Ionization_Penalty_Charging>
0

> <r_epik_Ionization_Penalty_Neutral>
0.26605

> <r_epik_State_Penalty>
0.257924

> <r_epik_Charging_Adjusted_Penalty>
0.257924

> <i_epik_Tot_Q>
0

> <i_epik_Tot_abs_Q>
0

> <r_epik_Metal_State_Penalty>
0.257922

> <b_epik_Metal_Only>
0

> <s_lp_Force_Field>
OPLS_2005

> <r_lp_Energy>
43.6145

> <b_lp_Chiralities_Consistent>
1

> <s_lp_Variant>
AV-unprocessed.smi:1714-1

> <Gold.Version>
5.8.1

> <Gold.Id.Protein>
6NUR|6NUR_protein|mol2

> <Gold.PLP.Fitness>
41.6654

> <Gold.PLP.PLP>
-33.8260

> <Gold.PLP.part.hbond>
-2.9115

> <Gold.PLP.part.metal>
0.0000

> <Gold.PLP.part.buried>
-1.6006

> <Gold.PLP.part.nonpolar>
-30.5662

> <Gold.PLP.part.repulsive>
0.4961

> <Gold.PLP.ligand.clash>
0.0000

> <Gold.PLP.ligand.torsion>
1.1640

> <Gold.PLP.Chemscore.Hbond>
2.3666

> <Gold.PLP.Chemscore.CHOScore>
1.0000

> <Gold.PLP.Chemscore.Metal>
0.0000

> <Gold.Chemscore.Hbonds>
donor molecule, donor type, donor heavy atom, donor atom, acceptor molecule, acceptor atom, score
      L1  H     8    28       P1  7948  1.00
      L1  H    11    29       P1  7948  0.24
      P1  H  7989  7998       L1    19  0.94
      L1  C     5    27       P1 10186  0.54

> <Gold.PLP.Chemscore.Internal.Correction>
0.0676

> <Gold.Rescore>
     Score         DG    S(hbond)    S(metal)    S(lipo)     H(rot)  DE(clash)    DE(int)     intcor
     16.04     -18.69       1.98        0.00      88.15       1.45       1.37       1.28       ----

> <Gold.Chemscore.Fitness>
16.0378

> <Gold.Chemscore.DG>
-18.6868

> <Gold.Chemscore.ZeroCoef>
-5.4800

> <Gold.Chemscore.Hbond>
1.9775

> <Gold.Chemscore.Metal>
0.0000

> <Gold.Chemscore.Lipo>
88.1507

> <Gold.Chemscore.Internal_Hbond>
0.0000

> <Gold.Chemscore.DEClash>
1.3719

> <Gold.Chemscore.DEInternal>
1.2771

> <Gold.Chemscore.Rot>
1.4498

> <Gold.Chemscore.Internal.Correction>
   9.000000E+99

> <Gold.Chemscore.Hbonds>
donor molecule, donor type, donor heavy atom, donor atom, acceptor molecule, acceptor atom, score
      L1  H     8    28       P1  7948  1.00
      L1  H    11    29       P1  7948  0.23
      P1  H  7989  7998       L1    19  0.51

> <Gold.Chemscore.Hbond.Weighted>
-6.6047

> <Gold.Chemscore.Metal.Weighted>
-0.0000

> <Gold.Chemscore.Lipo.Weighted>
-10.3136

> <Gold.Chemscore.Internal_Hbond.Weighted>
0.0000

> <Gold.Chemscore.DEClash.Weighted>
1.3719

> <Gold.Chemscore.DEInternal.Weighted>
1.2771

> <Gold.Chemscore.Rot.Weighted>
3.7116

> <Gold.Chemscore.Internal.Correction.Weighted>
   9.000000E+99

> <Gold.Protein.RotatedTorsions>
[ 6907 6896 6895 6894 ] final  -79.88 input  -60.11 | X-H torsion
[ 7974 7965 7964 7962 ] final   -5.15 input  175.53 | X-H torsion
[ 8008 7997 7996 7995 ] final  -26.10 input   59.86 | X-H torsion
[ 10167 10162 10161 10158 ] final -130.34 input  -65.29 | X-H torsion
[ 10718 10713 10712 10709 ] final  174.09 input   66.30 | X-H torsion
[ 10763 10752 10751 10750 ] final   14.58 input  -60.55 | X-H torsion
[ 11005 11000 10999 10996 ] final  100.54 input  -57.11 | X-H torsion

> <Gold.Protein.ActiveResidues>
 VAL166  LYS551  ARG553  GLY616  TRP617  ASP618  TYR619  PRO620  LYS621  CYS622 
 ASP623  PHE694  ASN695  SER759  ASP760  ASP761  ALA762  ILE779  LEU786  VAL792 
 PHE793  MET794  SER795  GLU796  ALA797  LYS798  CYS799  TRP800  GLU811  SER814 

> <Gold.Protein.RotatedAtoms>
  150.6940  134.4054  159.5137 H   0  0  0  0  0  0  0  0  0  0  0  0  # atno 6907 bound_to 6896
  152.1821  134.8742  160.0534 H   0  0  0  0  0  0  0  0  0  0  0  0  # atno 6908 bound_to 6896
  151.9729  133.3697  159.4115 H   0  0  0  0  0  0  0  0  0  0  0  0  # atno 6909 bound_to 6896
  146.2358  140.1977  142.8333 H   0  0  0  0  0  0  0  0  0  0  0  0  # atno 7974 bound_to 7965
  154.4442  140.1908  156.0722 H   0  0  0  0  0  0  0  0  0  0  0  0  # atno 8008 bound_to 7997
  156.0502  140.3309  155.7316 H   0  0  0  0  0  0  0  0  0  0  0  0  # atno 8009 bound_to 7997
  155.5568  140.0600  157.2828 H   0  0  0  0  0  0  0  0  0  0  0  0  # atno 8010 bound_to 7997
  139.9304  143.6279  152.2531 H   0  0  0  0  0  0  0  0  0  0  0  0  # atno 10167 bound_to 10162
  156.9546  131.0042  151.2941 H   0  0  0  0  0  0  0  0  0  0  0  0  # atno 10718 bound_to 10713
  153.1608  135.6795  153.8745 H   0  0  0  0  0  0  0  0  0  0  0  0  # atno 10763 bound_to 10752
  153.8141  135.3139  155.3405 H   0  0  0  0  0  0  0  0  0  0  0  0  # atno 10764 bound_to 10752
  154.7931  135.4823  154.0187 H   0  0  0  0  0  0  0  0  0  0  0  0  # atno 10765 bound_to 10752
  139.8771  134.9145  156.4772 H   0  0  0  0  0  0  0  0  0  0  0  0  # atno 11005 bound_to 11000
  144.9807  140.8456  143.5399 LP  0  0  0  0  0  0  0  0  0  0  0  0  # atno 17320 bound_to 7965
  145.1970  139.2271  143.5212 LP  0  0  0  0  0  0  0  0  0  0  0  0  # atno 17321 bound_to 7965
  139.6787  144.7657  151.1648 LP  0  0  0  0  0  0  0  0  0  0  0  0  # atno 17342 bound_to 10162
  140.7639  143.5757  150.8948 LP  0  0  0  0  0  0  0  0  0  0  0  0  # atno 17343 bound_to 10162
  157.5699  130.8303  149.8377 LP  0  0  0  0  0  0  0  0  0  0  0  0  # atno 17370 bound_to 10713
  156.0348  130.3754  150.1590 LP  0  0  0  0  0  0  0  0  0  0  0  0  # atno 17371 bound_to 10713
  140.8753  133.7958  155.9408 LP  0  0  0  0  0  0  0  0  0  0  0  0  # atno 17394 bound_to 11000
  140.8910  134.2495  157.5094 LP  0  0  0  0  0  0  0  0  0  0  0  0  # atno 17395 bound_to 11000

$$$$
