AV-unprocessed.smi:2027|AV-procd|sdf|8214|dock10
  -GOLD-   2272010483D 1   1.00000     0.00000
 Structure written by MMmdl.
 50 52  0  0  0  0  0  0  0  0  2 V2000
  151.1068  144.5867  160.7489 C   0  0  0  0  0  0  0  0  0  0  0  0
  152.0909  143.4531  160.9787 C   0  0  0  0  0  0  0  0  0  0  0  0
  152.7699  143.3727  162.2153 C   0  0  0  0  0  0  0  0  0  0  0  0
  153.6907  142.3330  162.4699 C   0  0  0  0  0  0  0  0  0  0  0  0
  154.4530  142.0624  163.5934 N   0  0  0  0  0  0  0  0  0  0  0  0
  155.1030  140.9647  163.2185 C   0  0  0  0  0  0  0  0  0  0  0  0
  154.8518  140.4905  161.9832 N   0  0  0  0  0  0  0  0  0  0  0  0
  155.4356  139.3145  161.3635 C   0  0  0  0  0  0  0  0  0  0  0  0
  154.7643  138.0069  161.8267 C   0  0  1  0  0  0  0  0  0  0  0  0
  154.6249  137.1295  160.7246 O   0  0  0  0  0  0  0  0  0  0  0  0
  155.5874  137.2965  162.9167 C   0  0  0  0  0  0  0  0  0  0  0  0
  154.7889  136.2574  163.6204 N   0  3  2  0  0  0  0  0  0  0  0  0
  153.7314  136.8364  164.4807 C   0  0  0  0  0  0  0  0  0  0  0  0
  155.6155  135.2604  164.3452 C   0  0  0  0  0  0  0  0  0  0  0  0
  154.9595  133.9050  164.3410 C   0  0  0  0  0  0  0  0  0  0  0  0
  154.7306  133.0453  163.2282 C   0  0  0  0  0  0  0  0  0  0  0  0
  154.1079  131.9273  163.5613 N   0  0  0  0  0  0  0  0  0  0  0  0
  153.9284  132.0263  164.8944 N   0  0  0  0  0  0  0  0  0  0  0  0
  153.2621  130.9570  165.6066 C   0  0  0  0  0  0  0  0  0  0  0  0
  154.4360  133.2065  165.3929 C   0  0  0  0  0  0  0  0  0  0  0  0
  153.9174  141.3692  161.4443 C   0  0  0  0  0  0  0  0  0  0  0  0
  153.2490  141.4393  160.2090 C   0  0  0  0  0  0  0  0  0  0  0  0
  152.3302  142.4830  159.9724 C   0  0  0  0  0  0  0  0  0  0  0  0
  151.6094  142.5473  158.6374 C   0  0  0  0  0  0  0  0  0  0  0  0
  151.0602  145.2540  161.6099 H   0  0  0  0  0  0  0  0  0  0  0  0
  150.1049  144.1932  160.5758 H   0  0  0  0  0  0  0  0  0  0  0  0
  151.4015  145.1799  159.8830 H   0  0  0  0  0  0  0  0  0  0  0  0
  152.5873  144.1109  162.9825 H   0  0  0  0  0  0  0  0  0  0  0  0
  155.8020  140.4751  163.8808 H   0  0  0  0  0  0  0  0  0  0  0  0
  155.3641  139.4205  160.2801 H   0  0  0  0  0  0  0  0  0  0  0  0
  156.4996  139.2959  161.6030 H   0  0  0  0  0  0  0  0  0  0  0  0
  153.7674  138.2385  162.2030 H   0  0  0  0  0  0  0  0  0  0  0  0
  155.3815  137.2206  160.1651 H   0  0  0  0  0  0  0  0  0  0  0  0
  156.4713  136.8619  162.4496 H   0  0  0  0  0  0  0  0  0  0  0  0
  155.9658  138.0167  163.6436 H   0  0  0  0  0  0  0  0  0  0  0  0
  154.1659  137.3860  165.3168 H   0  0  0  0  0  0  0  0  0  0  0  0
  153.0909  136.0519  164.8853 H   0  0  0  0  0  0  0  0  0  0  0  0
  153.0947  137.5187  163.9180 H   0  0  0  0  0  0  0  0  0  0  0  0
  156.6118  135.2270  163.9016 H   0  0  0  0  0  0  0  0  0  0  0  0
  155.7570  135.5924  165.3746 H   0  0  0  0  0  0  0  0  0  0  0  0
  154.9885  133.2058  162.1916 H   0  0  0  0  0  0  0  0  0  0  0  0
  153.3807  131.0934  166.6819 H   0  0  0  0  0  0  0  0  0  0  0  0
  153.6920  129.9956  165.3233 H   0  0  0  0  0  0  0  0  0  0  0  0
  152.1995  130.9602  165.3630 H   0  0  0  0  0  0  0  0  0  0  0  0
  154.3756  133.4529  166.4429 H   0  0  0  0  0  0  0  0  0  0  0  0
  153.4394  140.6944  159.4509 H   0  0  0  0  0  0  0  0  0  0  0  0
  151.9092  141.7281  157.9831 H   0  0  0  0  0  0  0  0  0  0  0  0
  151.8346  143.4833  158.1258 H   0  0  0  0  0  0  0  0  0  0  0  0
  150.5308  142.4821  158.7823 H   0  0  0  0  0  0  0  0  0  0  0  0
  154.3129  135.7368  162.8970 H   0  0  0  0  0  0  0  0  0  0  0  0
  1  2  1  0  0  0  0
  1 25  1  0  0  0  0
  1 26  1  0  0  0  0
  1 27  1  0  0  0  0
  2 23  1  0  0  0  0
  2  3  2  0  0  0  0
  3  4  1  0  0  0  0
  3 28  1  0  0  0  0
  4 21  2  0  0  0  0
  4  5  1  0  0  0  0
  5  6  2  0  0  0  0
  6  7  1  0  0  0  0
  6 29  1  0  0  0  0
  7  8  1  0  0  0  0
  7 21  1  0  0  0  0
  8  9  1  0  0  0  0
  8 30  1  0  0  0  0
  8 31  1  0  0  0  0
  9 10  1  0  0  0  0
  9 11  1  0  0  0  0
  9 32  1  0  0  0  0
 10 33  1  0  0  0  0
 11 12  1  0  0  0  0
 11 34  1  0  0  0  0
 11 35  1  0  0  0  0
 12 13  1  0  0  0  0
 12 14  1  0  0  0  0
 12 50  1  0  0  0  0
 13 36  1  0  0  0  0
 13 37  1  0  0  0  0
 13 38  1  0  0  0  0
 14 15  1  0  0  0  0
 14 39  1  0  0  0  0
 14 40  1  0  0  0  0
 15 20  2  0  0  0  0
 15 16  1  0  0  0  0
 16 17  2  0  0  0  0
 16 41  1  0  0  0  0
 17 18  1  0  0  0  0
 18 19  1  0  0  0  0
 18 20  1  0  0  0  0
 19 42  1  0  0  0  0
 19 43  1  0  0  0  0
 19 44  1  0  0  0  0
 20 45  1  0  0  0  0
 21 22  1  0  0  0  0
 22 23  2  0  0  0  0
 22 46  1  0  0  0  0
 23 24  1  0  0  0  0
 24 47  1  0  0  0  0
 24 48  1  0  0  0  0
 24 49  1  0  0  0  0
M  CHG  1  12   1
M  END
> <s_m_source_file>
AV-unprocessed.smi

> <i_m_source_file_index>
2027

> <i_lp_mmshare_version>
43012

> <i_f3d_flags>
0

> <s_epik_input>
W0NIM11jKFtjSF0xKWMoW0NIM10pW2NIXWMoYzEyKW4oW2NIXW4yKVtDSDJdW0NASF0oW09IXSlbQ0gyXU4oW0NIM10pW0NIMl1jM1tjSF1ubihbQ0gzXSlbY0hdMw==

> <s_epik_cmdline>
J2VwaWtfcHl0aG9uJywgJy1waCcsICc3LjAnLCAnLXRuJywgJzgnLCAnLW1hJywgJzIwMCcsICctbWV0YWxfYmluZGluZycsICctaW1hZScsICc8aW5maWxlLm1hZT4nLCAnLW9tYWUnLCAnPG91dGZpbGUubWFlPic=

> <r_lp_tautomer_probability>
1

> <r_epik_Ionization_Penalty>
0.646578

> <r_epik_Ionization_Penalty_Charging>
0.559419

> <r_epik_Ionization_Penalty_Neutral>
0.087159

> <r_epik_State_Penalty>
0.661677

> <r_epik_Charging_Adjusted_Penalty>
1.2211

> <i_epik_Tot_Q>
1

> <i_epik_Tot_abs_Q>
1

> <r_epik_Metal_State_Penalty>
0.649174

> <b_epik_Metal_Only>
0

> <s_lp_Force_Field>
OPLS_2005

> <r_lp_Energy>
10.2185

> <b_lp_Chiralities_Consistent>
1

> <s_lp_Variant>
AV-unprocessed.smi:2027-6

> <Gold.Version>
5.8.1

> <Gold.Id.Protein>
6NUR|6NUR_protein|mol2

> <Gold.PLP.Fitness>
49.6286

> <Gold.PLP.PLP>
-52.3676

> <Gold.PLP.part.hbond>
-1.0000

> <Gold.PLP.part.metal>
0.0000

> <Gold.PLP.part.buried>
-2.9901

> <Gold.PLP.part.nonpolar>
-47.6353

> <Gold.PLP.part.repulsive>
0.0231

> <Gold.PLP.ligand.clash>
0.0000

> <Gold.PLP.ligand.torsion>
1.4569

> <Gold.PLP.Chemscore.Hbond>
0.0000

> <Gold.PLP.Chemscore.CHOScore>
0.0000

> <Gold.PLP.Chemscore.Metal>
0.0000

> <Gold.PLP.Chemscore.Internal.Correction>
0.1748

> <Gold.Rescore>
     Score         DG    S(hbond)    S(metal)    S(lipo)     H(rot)  DE(clash)    DE(int)     intcor
     15.70     -17.31       0.00        0.00     155.95       2.50       0.21       1.40       ----

> <Gold.Chemscore.Fitness>
15.7033

> <Gold.Chemscore.DG>
-17.3138

> <Gold.Chemscore.ZeroCoef>
-5.4800

> <Gold.Chemscore.Hbond>
0.0000

> <Gold.Chemscore.Metal>
0.0000

> <Gold.Chemscore.Lipo>
155.9472

> <Gold.Chemscore.Internal_Hbond>
0.0000

> <Gold.Chemscore.DEClash>
0.2068

> <Gold.Chemscore.DEInternal>
1.4038

> <Gold.Chemscore.Rot>
2.5047

> <Gold.Chemscore.Internal.Correction>
   9.000000E+99

> <Gold.Chemscore.Hbond.Weighted>
-0.0000

> <Gold.Chemscore.Metal.Weighted>
-0.0000

> <Gold.Chemscore.Lipo.Weighted>
-18.2458

> <Gold.Chemscore.Internal_Hbond.Weighted>
0.0000

> <Gold.Chemscore.DEClash.Weighted>
0.2068

> <Gold.Chemscore.DEInternal.Weighted>
1.4038

> <Gold.Chemscore.Rot.Weighted>
6.4120

> <Gold.Chemscore.Internal.Correction.Weighted>
   9.000000E+99

> <Gold.Protein.RotatedTorsions>
[ 6907 6896 6895 6894 ] final  -20.86 input  -60.11 | X-H torsion
[ 7974 7965 7964 7962 ] final   79.44 input  175.53 | X-H torsion
[ 8008 7997 7996 7995 ] final  133.71 input   59.86 | X-H torsion
[ 10167 10162 10161 10158 ] final  125.33 input  -65.29 | X-H torsion
[ 10718 10713 10712 10709 ] final  145.08 input   66.30 | X-H torsion
[ 10763 10752 10751 10750 ] final   80.58 input  -60.55 | X-H torsion
[ 11005 11000 10999 10996 ] final    1.68 input  -57.11 | X-H torsion

> <Gold.Protein.ActiveResidues>
 VAL166  LYS551  ARG553  GLY616  TRP617  ASP618  TYR619  PRO620  LYS621  CYS622 
 ASP623  PHE694  ASN695  SER759  ASP760  ASP761  ALA762  ILE779  LEU786  VAL792 
 PHE793  MET794  SER795  GLU796  ALA797  LYS798  CYS799  TRP800  GLU811  SER814 

> <Gold.Protein.RotatedAtoms>
  151.2418  135.0591  159.9027 H   0  0  0  0  0  0  0  0  0  0  0  0  # atno 6907 bound_to 6896
  152.5392  134.0426  159.8084 H   0  0  0  0  0  0  0  0  0  0  0  0  # atno 6908 bound_to 6896
  151.0620  133.5487  159.2665 H   0  0  0  0  0  0  0  0  0  0  0  0  # atno 6909 bound_to 6896
  145.6642  139.2479  143.1905 H   0  0  0  0  0  0  0  0  0  0  0  0  # atno 7974 bound_to 7965
  156.2994  140.2514  156.3297 H   0  0  0  0  0  0  0  0  0  0  0  0  # atno 8008 bound_to 7997
  154.9157  140.0402  157.1989 H   0  0  0  0  0  0  0  0  0  0  0  0  # atno 8009 bound_to 7997
  154.8361  140.2883  155.5694 H   0  0  0  0  0  0  0  0  0  0  0  0  # atno 8010 bound_to 7997
  139.5692  144.6929  151.3826 H   0  0  0  0  0  0  0  0  0  0  0  0  # atno 10167 bound_to 10162
  157.3495  131.0948  151.1012 H   0  0  0  0  0  0  0  0  0  0  0  0  # atno 10718 bound_to 10713
  153.1045  135.4797  154.8927 H   0  0  0  0  0  0  0  0  0  0  0  0  # atno 10763 bound_to 10752
  154.7415  135.3083  154.8721 H   0  0  0  0  0  0  0  0  0  0  0  0  # atno 10764 bound_to 10752
  153.9328  135.6843  153.4798 H   0  0  0  0  0  0  0  0  0  0  0  0  # atno 10765 bound_to 10752
  140.6127  133.9733  155.8185 H   0  0  0  0  0  0  0  0  0  0  0  0  # atno 11005 bound_to 11000
  146.1099  140.7440  142.9508 LP  0  0  0  0  0  0  0  0  0  0  0  0  # atno 17320 bound_to 7965
  144.7078  140.3923  143.7104 LP  0  0  0  0  0  0  0  0  0  0  0  0  # atno 17321 bound_to 7965
  140.6976  143.7711  150.7351 LP  0  0  0  0  0  0  0  0  0  0  0  0  # atno 17342 bound_to 10162
  140.1212  143.4610  152.2312 LP  0  0  0  0  0  0  0  0  0  0  0  0  # atno 17343 bound_to 10162
  157.2193  130.6474  149.5805 LP  0  0  0  0  0  0  0  0  0  0  0  0  # atno 17370 bound_to 10713
  155.9719  130.4634  150.6182 LP  0  0  0  0  0  0  0  0  0  0  0  0  # atno 17371 bound_to 10713
  141.0797  134.0081  157.3405 LP  0  0  0  0  0  0  0  0  0  0  0  0  # atno 17394 bound_to 11000
  139.9185  135.0199  156.7976 LP  0  0  0  0  0  0  0  0  0  0  0  0  # atno 17395 bound_to 11000

$$$$
