AV-unprocessed.smi:873|AV-procd|sdf|4016|dock3
  -GOLD-   22720 1503D 1   1.00000     0.00000
 Structure written by MMmdl.
 45 48  0  0  0  0  0  0  0  0  1 V2000
  146.9810  137.7598  153.8614 O   0  0  0  0  0  0  0  0  0  0  0  0
  146.0004  138.4154  153.5111 C   0  0  0  0  0  0  0  0  0  0  0  0
  144.9645  137.9483  152.7933 N   0  0  0  0  0  0  0  0  0  0  0  0
  144.7233  136.6273  152.3270 C   0  0  0  0  0  0  0  0  0  0  0  0
  145.7058  135.7377  151.8244 C   0  0  0  0  0  0  0  0  0  0  0  0
  145.3899  134.4893  151.4165 N   0  0  0  0  0  0  0  0  0  0  0  0
  144.1098  134.1222  151.5195 C   0  0  0  0  0  0  0  0  0  0  0  0
  143.7621  132.7501  151.0310 C   0  0  0  0  0  0  0  0  0  0  0  0
  144.8328  131.8237  150.4908 C   0  0  0  0  0  0  0  0  0  0  0  0
  143.8176  132.4165  149.5539 C   0  0  0  0  0  0  0  0  0  0  0  0
  143.1003  134.8732  151.9678 N   0  0  0  0  0  0  0  0  0  0  0  0
  143.4069  136.1225  152.3777 C   0  0  0  0  0  0  0  0  0  0  0  0
  145.8401  139.7151  153.7971 N   0  0  0  0  0  0  0  0  0  0  0  0
  146.7793  140.5330  154.5588 C   0  0  0  0  0  0  0  0  0  0  0  0
  148.1470  140.6026  153.8561 C   0  0  0  0  0  0  0  0  0  0  0  0
  149.1807  141.3342  154.7304 C   0  0  0  0  0  0  0  0  0  0  0  0
  149.3210  140.6597  156.0212 N   0  0  0  0  0  0  0  0  0  0  0  0
  150.3320  141.3508  156.8049 C   0  0  0  0  0  0  0  0  0  0  0  0
  151.6642  140.6617  156.9939 C   0  0  0  0  0  0  0  0  0  0  0  0
  150.6978  140.7635  158.1491 C   0  0  0  0  0  0  0  0  0  0  0  0
  148.0510  140.7038  156.7459 C   0  0  0  0  0  0  0  0  0  0  0  0
  146.9669  139.9409  155.9644 C   0  0  0  0  0  0  0  0  0  0  0  0
  144.2638  138.6283  152.5372 H   0  0  0  0  0  0  0  0  0  0  0  0
  146.7504  135.9939  151.7499 H   0  0  0  0  0  0  0  0  0  0  0  0
  142.9607  132.3107  151.6218 H   0  0  0  0  0  0  0  0  0  0  0  0
  145.8507  132.2036  150.4299 H   0  0  0  0  0  0  0  0  0  0  0  0
  144.7439  130.7647  150.7235 H   0  0  0  0  0  0  0  0  0  0  0  0
  143.0476  131.7562  149.1610 H   0  0  0  0  0  0  0  0  0  0  0  0
  144.1618  133.1897  148.8697 H   0  0  0  0  0  0  0  0  0  0  0  0
  142.5909  136.7250  152.7492 H   0  0  0  0  0  0  0  0  0  0  0  0
  145.0043  140.1744  153.4666 H   0  0  0  0  0  0  0  0  0  0  0  0
  146.3780  141.5432  154.6620 H   0  0  0  0  0  0  0  0  0  0  0  0
  148.5064  139.5960  153.6364 H   0  0  0  0  0  0  0  0  0  0  0  0
  148.0530  141.1131  152.8970 H   0  0  0  0  0  0  0  0  0  0  0  0
  150.1445  141.3456  154.2201 H   0  0  0  0  0  0  0  0  0  0  0  0
  148.8839  142.3741  154.8782 H   0  0  0  0  0  0  0  0  0  0  0  0
  150.3778  142.4373  156.7477 H   0  0  0  0  0  0  0  0  0  0  0  0
  151.8015  139.6818  156.5403 H   0  0  0  0  0  0  0  0  0  0  0  0
  152.5528  141.2889  157.0250 H   0  0  0  0  0  0  0  0  0  0  0  0
  150.9417  141.4590  158.9496 H   0  0  0  0  0  0  0  0  0  0  0  0
  150.1934  139.8511  158.4622 H   0  0  0  0  0  0  0  0  0  0  0  0
  148.1773  140.2485  157.7289 H   0  0  0  0  0  0  0  0  0  0  0  0
  147.7446  141.7384  156.9090 H   0  0  0  0  0  0  0  0  0  0  0  0
  146.0252  139.9742  156.5130 H   0  0  0  0  0  0  0  0  0  0  0  0
  147.2471  138.8885  155.8936 H   0  0  0  0  0  0  0  0  0  0  0  0
  1  2  2  0  0  0  0
  2  3  1  0  0  0  0
  2 13  1  0  0  0  0
  3  4  1  0  0  0  0
  3 23  1  0  0  0  0
  4 12  1  0  0  0  0
  4  5  2  0  0  0  0
  5  6  1  0  0  0  0
  5 24  1  0  0  0  0
  6  7  2  0  0  0  0
  7  8  1  0  0  0  0
  7 11  1  0  0  0  0
  8 10  1  0  0  0  0
  8  9  1  0  0  0  0
  8 25  1  0  0  0  0
  9 10  1  0  0  0  0
  9 26  1  0  0  0  0
  9 27  1  0  0  0  0
 10 28  1  0  0  0  0
 10 29  1  0  0  0  0
 11 12  2  0  0  0  0
 12 30  1  0  0  0  0
 13 14  1  0  0  0  0
 13 31  1  0  0  0  0
 14 22  1  0  0  0  0
 14 15  1  0  0  0  0
 14 32  1  0  0  0  0
 15 16  1  0  0  0  0
 15 33  1  0  0  0  0
 15 34  1  0  0  0  0
 16 17  1  0  0  0  0
 16 35  1  0  0  0  0
 16 36  1  0  0  0  0
 17 18  1  0  0  0  0
 17 21  1  0  0  0  0
 18 20  1  0  0  0  0
 18 19  1  0  0  0  0
 18 37  1  0  0  0  0
 19 20  1  0  0  0  0
 19 38  1  0  0  0  0
 19 39  1  0  0  0  0
 20 40  1  0  0  0  0
 20 41  1  0  0  0  0
 21 22  1  0  0  0  0
 21 42  1  0  0  0  0
 21 43  1  0  0  0  0
 22 44  1  0  0  0  0
 22 45  1  0  0  0  0
M  END
> <s_m_source_file>
AV-unprocessed.smi

> <i_m_source_file_index>
873

> <i_lp_mmshare_version>
43012

> <i_f3d_flags>
0

> <s_epik_input>
W0NIMl0xW0NIMl1bQ0hdMU4oW0NIMl1bQ0gyXTIpW0NIMl1bQ0gyXVtDSF0yW05IXUMoPU8pW05IXWMzW2NIXW5jKG5bY0hdMylbQ0hdNFtDSDJdW0NIMl00

> <s_epik_cmdline>
J2VwaWtfcHl0aG9uJywgJy1waCcsICc3LjAnLCAnLXRuJywgJzgnLCAnLW1hJywgJzIwMCcsICctbWV0YWxfYmluZGluZycsICctaW1hZScsICc8aW5maWxlLm1hZT4nLCAnLW9tYWUnLCAnPG91dGZpbGUubWFlPic=

> <r_lp_tautomer_probability>
1

> <r_epik_Ionization_Penalty>
0.990889

> <r_epik_Ionization_Penalty_Charging>
0

> <r_epik_Ionization_Penalty_Neutral>
0.990889

> <r_epik_State_Penalty>
1.03856

> <r_epik_Charging_Adjusted_Penalty>
1.03856

> <i_epik_Tot_Q>
0

> <i_epik_Tot_abs_Q>
0

> <r_epik_Metal_State_Penalty>
1.03856

> <b_epik_Metal_Only>
0

> <s_lp_Force_Field>
OPLS_2005

> <r_lp_Energy>
20.0784

> <b_lp_Chiralities_Consistent>
1

> <s_lp_Variant>
AV-unprocessed.smi:873-3

> <Gold.Version>
5.8.1

> <Gold.Id.Protein>
6NUR|6NUR_protein|mol2

> <Gold.PLP.Fitness>
42.5661

> <Gold.PLP.PLP>
-34.4421

> <Gold.PLP.part.hbond>
-2.3410

> <Gold.PLP.part.metal>
0.0000

> <Gold.PLP.part.buried>
-5.2486

> <Gold.PLP.part.nonpolar>
-28.3008

> <Gold.PLP.part.repulsive>
0.5664

> <Gold.PLP.ligand.clash>
0.0000

> <Gold.PLP.ligand.torsion>
1.0803

> <Gold.PLP.Chemscore.Hbond>
2.0000

> <Gold.PLP.Chemscore.CHOScore>
1.0000

> <Gold.PLP.Chemscore.Metal>
0.0000

> <Gold.Chemscore.Hbonds>
donor molecule, donor type, donor heavy atom, donor atom, acceptor molecule, acceptor atom, score
      L1  H     3    23       P1 10175  1.00
      L1  H    13    31       P1 10175  1.00
      L1  C     5    24       P1  7948  1.00

> <Gold.PLP.Chemscore.Internal.Correction>
1.2845

> <Gold.Rescore>
     Score         DG    S(hbond)    S(metal)    S(lipo)     H(rot)  DE(clash)    DE(int)     intcor
     16.07     -18.17       1.96        0.00      81.74       1.33       0.08       2.01       ----

> <Gold.Chemscore.Fitness>
16.0711

> <Gold.Chemscore.DG>
-18.1686

> <Gold.Chemscore.ZeroCoef>
-5.4800

> <Gold.Chemscore.Hbond>
1.9560

> <Gold.Chemscore.Metal>
0.0000

> <Gold.Chemscore.Lipo>
81.7367

> <Gold.Chemscore.Internal_Hbond>
0.0000

> <Gold.Chemscore.DEClash>
0.0848

> <Gold.Chemscore.DEInternal>
2.0127

> <Gold.Chemscore.Rot>
1.3310

> <Gold.Chemscore.Internal.Correction>
   9.000000E+99

> <Gold.Chemscore.Hbonds>
donor molecule, donor type, donor heavy atom, donor atom, acceptor molecule, acceptor atom, score
      L1  H     3    23       P1 10175  0.95
      L1  H    13    31       P1 10175  0.99

> <Gold.Chemscore.Hbond.Weighted>
-6.5329

> <Gold.Chemscore.Metal.Weighted>
-0.0000

> <Gold.Chemscore.Lipo.Weighted>
-9.5632

> <Gold.Chemscore.Internal_Hbond.Weighted>
0.0000

> <Gold.Chemscore.DEClash.Weighted>
0.0848

> <Gold.Chemscore.DEInternal.Weighted>
2.0127

> <Gold.Chemscore.Rot.Weighted>
3.4075

> <Gold.Chemscore.Internal.Correction.Weighted>
   9.000000E+99

> <Gold.Protein.RotatedTorsions>
[ 6907 6896 6895 6894 ] final -106.57 input  -60.11 | X-H torsion
[ 7974 7965 7964 7962 ] final  166.24 input  175.53 | X-H torsion
[ 8008 7997 7996 7995 ] final   48.71 input   59.86 | X-H torsion
[ 10167 10162 10161 10158 ] final  111.58 input  -65.29 | X-H torsion
[ 10718 10713 10712 10709 ] final   50.66 input   66.30 | X-H torsion
[ 10763 10752 10751 10750 ] final  -25.18 input  -60.55 | X-H torsion
[ 11005 11000 10999 10996 ] final -141.53 input  -57.11 | X-H torsion

> <Gold.Protein.ActiveResidues>
 VAL166  LYS551  ARG553  GLY616  TRP617  ASP618  TYR619  PRO620  LYS621  CYS622 
 ASP623  PHE694  ASN695  SER759  ASP760  ASP761  ALA762  ILE779  LEU786  VAL792 
 PHE793  MET794  SER795  GLU796  ALA797  LYS798  CYS799  TRP800  GLU811  SER814 

> <Gold.Protein.RotatedAtoms>
  150.7396  133.9957  159.3621 H   0  0  0  0  0  0  0  0  0  0  0  0  # atno 6907 bound_to 6896
  151.7907  135.0734  160.0396 H   0  0  0  0  0  0  0  0  0  0  0  0  # atno 6908 bound_to 6896
  152.3209  133.5816  159.5780 H   0  0  0  0  0  0  0  0  0  0  0  0  # atno 6909 bound_to 6896
  144.7470  139.8587  143.6379 H   0  0  0  0  0  0  0  0  0  0  0  0  # atno 7974 bound_to 7965
  155.3902  140.3433  155.4251 H   0  0  0  0  0  0  0  0  0  0  0  0  # atno 8008 bound_to 7997
  156.1562  140.1586  156.8722 H   0  0  0  0  0  0  0  0  0  0  0  0  # atno 8009 bound_to 7997
  154.5097  140.0793  156.7946 H   0  0  0  0  0  0  0  0  0  0  0  0  # atno 8010 bound_to 7997
  139.6601  144.7129  151.1882 H   0  0  0  0  0  0  0  0  0  0  0  0  # atno 10167 bound_to 10162
  157.4906  130.8373  149.8198 H   0  0  0  0  0  0  0  0  0  0  0  0  # atno 10718 bound_to 10713
  153.6957  135.6959  153.5077 H   0  0  0  0  0  0  0  0  0  0  0  0  # atno 10763 bound_to 10752
  153.2380  135.4315  155.0666 H   0  0  0  0  0  0  0  0  0  0  0  0  # atno 10764 bound_to 10752
  154.8359  135.3500  154.6498 H   0  0  0  0  0  0  0  0  0  0  0  0  # atno 10765 bound_to 10752
  140.8315  134.2511  157.4854 H   0  0  0  0  0  0  0  0  0  0  0  0  # atno 11005 bound_to 11000
  146.1364  139.4411  143.0136 LP  0  0  0  0  0  0  0  0  0  0  0  0  # atno 17320 bound_to 7965
  145.7085  141.0114  143.1466 LP  0  0  0  0  0  0  0  0  0  0  0  0  # atno 17321 bound_to 7965
  140.7576  143.6009  150.8701 LP  0  0  0  0  0  0  0  0  0  0  0  0  # atno 17342 bound_to 10162
  139.9665  143.6105  152.2986 LP  0  0  0  0  0  0  0  0  0  0  0  0  # atno 17343 bound_to 10162
  156.0171  130.3809  150.2076 LP  0  0  0  0  0  0  0  0  0  0  0  0  # atno 17370 bound_to 10713
  157.0264  130.9994  151.3325 LP  0  0  0  0  0  0  0  0  0  0  0  0  # atno 17371 bound_to 10713
  139.8705  134.9588  156.4313 LP  0  0  0  0  0  0  0  0  0  0  0  0  # atno 17394 bound_to 11000
  140.8993  133.7791  155.9661 LP  0  0  0  0  0  0  0  0  0  0  0  0  # atno 17395 bound_to 11000

$$$$
