AV-unprocessed.smi:644|AV-procd|sdf|3156|dock3
  -GOLD-   22720 0 83D 1   1.00000     0.00000
 Structure written by MMmdl.
 37 39  0  0  0  0  0  0  0  0  1 V2000
  152.7963  143.0040  161.3342 C   0  0  0  0  0  0  0  0  0  0  0  0
  152.2716  142.6755  159.9476 C   0  0  0  0  0  0  0  0  0  0  0  0
  152.6756  141.4715  159.3272 C   0  0  0  0  0  0  0  0  0  0  0  0
  152.2091  141.1283  158.0394 C   0  0  0  0  0  0  0  0  0  0  0  0
  152.4702  140.0184  157.2543 N   0  0  0  0  0  0  0  0  0  0  0  0
  151.7422  140.2781  156.1719 C   0  0  0  0  0  0  0  0  0  0  0  0
  151.0426  141.4291  156.1617 N   0  0  0  0  0  0  0  0  0  0  0  0
  150.1797  141.9231  155.1038 C   0  0  0  0  0  0  0  0  0  0  0  0
  149.2088  140.8469  154.5825 C   0  0  1  0  0  0  0  0  0  0  0  0
  149.9242  139.8969  153.8156 O   0  0  0  0  0  0  0  0  0  0  0  0
  148.4793  140.1307  155.7303 C   0  0  0  0  0  0  0  0  0  0  0  0
  147.8922  141.2937  157.0009 S   0  0  0  0  0  0  0  0  0  0  0  0
  146.4307  141.8972  156.2183 C   0  0  0  0  0  0  0  0  0  0  0  0
  145.2070  141.9081  156.7669 N   0  0  0  0  0  0  0  0  0  0  0  0
  144.2506  142.4449  155.9156 N   0  0  0  0  0  0  0  0  0  0  0  0
  144.7879  142.8206  154.7527 C   0  0  0  0  0  0  0  0  0  0  0  0
  146.5135  142.5546  154.5880 S   0  0  0  0  0  0  0  0  0  0  0  0
  151.3196  142.0294  157.3847 C   0  0  0  0  0  0  0  0  0  0  0  0
  150.9105  143.2301  157.9910 C   0  0  0  0  0  0  0  0  0  0  0  0
  151.3872  143.5584  159.2773 C   0  0  0  0  0  0  0  0  0  0  0  0
  150.9412  144.8584  159.9229 C   0  0  0  0  0  0  0  0  0  0  0  0
  153.4649  142.2251  161.7021 H   0  0  0  0  0  0  0  0  0  0  0  0
  151.9719  143.0984  162.0411 H   0  0  0  0  0  0  0  0  0  0  0  0
  153.3515  143.9420  161.3217 H   0  0  0  0  0  0  0  0  0  0  0  0
  153.3491  140.7987  159.8375 H   0  0  0  0  0  0  0  0  0  0  0  0
  151.7178  139.5934  155.3365 H   0  0  0  0  0  0  0  0  0  0  0  0
  149.6279  142.7876  155.4761 H   0  0  0  0  0  0  0  0  0  0  0  0
  150.8135  142.2841  154.2927 H   0  0  0  0  0  0  0  0  0  0  0  0
  148.4696  141.3170  153.9327 H   0  0  0  0  0  0  0  0  0  0  0  0
  149.5411  139.8589  152.9524 H   0  0  0  0  0  0  0  0  0  0  0  0
  147.6355  139.5583  155.3428 H   0  0  0  0  0  0  0  0  0  0  0  0
  149.1587  139.4225  156.2062 H   0  0  0  0  0  0  0  0  0  0  0  0
  144.1644  143.2589  153.9875 H   0  0  0  0  0  0  0  0  0  0  0  0
  150.2362  143.8932  157.4694 H   0  0  0  0  0  0  0  0  0  0  0  0
  150.2784  145.4225  159.2659 H   0  0  0  0  0  0  0  0  0  0  0  0
  151.8023  145.4879  160.1480 H   0  0  0  0  0  0  0  0  0  0  0  0
  150.4041  144.6599  160.8505 H   0  0  0  0  0  0  0  0  0  0  0  0
  1  2  1  0  0  0  0
  1 22  1  0  0  0  0
  1 23  1  0  0  0  0
  1 24  1  0  0  0  0
  2 20  1  0  0  0  0
  2  3  2  0  0  0  0
  3  4  1  0  0  0  0
  3 25  1  0  0  0  0
  4 18  2  0  0  0  0
  4  5  1  0  0  0  0
  5  6  2  0  0  0  0
  6  7  1  0  0  0  0
  6 26  1  0  0  0  0
  7  8  1  0  0  0  0
  7 18  1  0  0  0  0
  8  9  1  0  0  0  0
  8 27  1  0  0  0  0
  8 28  1  0  0  0  0
  9 10  1  0  0  0  0
  9 11  1  0  0  0  0
  9 29  1  0  0  0  0
 10 30  1  0  0  0  0
 11 12  1  0  0  0  0
 11 31  1  0  0  0  0
 11 32  1  0  0  0  0
 12 13  1  0  0  0  0
 13 17  1  0  0  0  0
 13 14  2  0  0  0  0
 14 15  1  0  0  0  0
 15 16  2  0  0  0  0
 16 17  1  0  0  0  0
 16 33  1  0  0  0  0
 18 19  1  0  0  0  0
 19 20  2  0  0  0  0
 19 34  1  0  0  0  0
 20 21  1  0  0  0  0
 21 35  1  0  0  0  0
 21 36  1  0  0  0  0
 21 37  1  0  0  0  0
M  END
> <s_m_source_file>
AV-unprocessed.smi

> <i_m_source_file_index>
644

> <i_lp_mmshare_version>
43012

> <i_f3d_flags>
0

> <s_epik_input>
W0NIM11jKFtjSF0xKWMoW0NIM10pW2NIXWMoYzEyKW4oW2NIXW4yKVtDSDJdW0NASF0oW09IXSlbQ0gyXVNjM25uW2NIXXMz

> <s_epik_cmdline>
J2VwaWtfcHl0aG9uJywgJy1waCcsICc3LjAnLCAnLXRuJywgJzgnLCAnLW1hJywgJzIwMCcsICctbWV0YWxfYmluZGluZycsICctaW1hZScsICc8aW5maWxlLm1hZT4nLCAnLW9tYWUnLCAnPG91dGZpbGUubWFlPic=

> <r_lp_tautomer_probability>
1

> <r_epik_Ionization_Penalty>
0.105397

> <r_epik_Ionization_Penalty_Charging>
0

> <r_epik_Ionization_Penalty_Neutral>
0.105397

> <r_epik_State_Penalty>
0.0952713

> <r_epik_Charging_Adjusted_Penalty>
0.0952713

> <i_epik_Tot_Q>
0

> <i_epik_Tot_abs_Q>
0

> <r_epik_Metal_State_Penalty>
0.0807681

> <b_epik_Metal_Only>
0

> <s_lp_Force_Field>
OPLS_2005

> <r_lp_Energy>
7.47595

> <b_lp_Chiralities_Consistent>
1

> <s_lp_Variant>
AV-unprocessed.smi:644-2

> <Gold.Version>
5.8.1

> <Gold.Id.Protein>
6NUR|6NUR_protein|mol2

> <Gold.PLP.Fitness>
50.7590

> <Gold.PLP.PLP>
-40.3431

> <Gold.PLP.part.hbond>
-3.0000

> <Gold.PLP.part.metal>
0.0000

> <Gold.PLP.part.buried>
-3.9783

> <Gold.PLP.part.nonpolar>
-33.0676

> <Gold.PLP.part.repulsive>
0.1269

> <Gold.PLP.ligand.clash>
0.0000

> <Gold.PLP.ligand.torsion>
0.4626

> <Gold.PLP.Chemscore.Hbond>
2.8070

> <Gold.PLP.Chemscore.CHOScore>
0.9509

> <Gold.PLP.Chemscore.Metal>
0.0000

> <Gold.Chemscore.Hbonds>
donor molecule, donor type, donor heavy atom, donor atom, acceptor molecule, acceptor atom, score
      L1  H    10    30       P1  7957  1.00
      P1  H  7989  7998       L1    10  0.83
      P1  H  7997  8009       L1     5  1.00
      L1  C    16    33       P1 10174  0.89

> <Gold.PLP.Chemscore.Internal.Correction>
0.0673

> <Gold.Rescore>
     Score         DG    S(hbond)    S(metal)    S(lipo)     H(rot)  DE(clash)    DE(int)     intcor
     16.27     -17.63       1.88        0.00     103.83       2.46       0.72       0.64       ----

> <Gold.Chemscore.Fitness>
16.2656

> <Gold.Chemscore.DG>
-17.6251

> <Gold.Chemscore.ZeroCoef>
-5.4800

> <Gold.Chemscore.Hbond>
1.8839

> <Gold.Chemscore.Metal>
0.0000

> <Gold.Chemscore.Lipo>
103.8255

> <Gold.Chemscore.Internal_Hbond>
0.0000

> <Gold.Chemscore.DEClash>
0.7173

> <Gold.Chemscore.DEInternal>
0.6422

> <Gold.Chemscore.Rot>
2.4588

> <Gold.Chemscore.Internal.Correction>
   9.000000E+99

> <Gold.Chemscore.Hbonds>
donor molecule, donor type, donor heavy atom, donor atom, acceptor molecule, acceptor atom, score
      L1  H    10    30       P1  7957  0.96
      P1  H  7989  7998       L1    10  0.08
      P1  H  7997  8009       L1     5  0.33

> <Gold.Chemscore.Hbond.Weighted>
-6.2921

> <Gold.Chemscore.Metal.Weighted>
-0.0000

> <Gold.Chemscore.Lipo.Weighted>
-12.1476

> <Gold.Chemscore.Internal_Hbond.Weighted>
0.0000

> <Gold.Chemscore.DEClash.Weighted>
0.7173

> <Gold.Chemscore.DEInternal.Weighted>
0.6422

> <Gold.Chemscore.Rot.Weighted>
6.2946

> <Gold.Chemscore.Internal.Correction.Weighted>
   9.000000E+99

> <Gold.Protein.RotatedTorsions>
[ 6907 6896 6895 6894 ] final  -82.72 input  -60.11 | X-H torsion
[ 7974 7965 7964 7962 ] final  -51.71 input  175.53 | X-H torsion
[ 8008 7997 7996 7995 ] final -178.15 input   59.86 | X-H torsion
[ 10167 10162 10161 10158 ] final   69.50 input  -65.29 | X-H torsion
[ 10718 10713 10712 10709 ] final  121.26 input   66.30 | X-H torsion
[ 10763 10752 10751 10750 ] final    3.37 input  -60.55 | X-H torsion
[ 11005 11000 10999 10996 ] final   29.21 input  -57.11 | X-H torsion

> <Gold.Protein.ActiveResidues>
 VAL166  LYS551  ARG553  GLY616  TRP617  ASP618  TYR619  PRO620  LYS621  CYS622 
 ASP623  PHE694  ASN695  SER759  ASP760  ASP761  ALA762  ILE779  LEU786  VAL792 
 PHE793  MET794  SER795  GLU796  ALA797  LYS798  CYS799  TRP800  GLU811  SER814 

> <Gold.Protein.RotatedAtoms>
  150.6894  134.3621  159.4954 H   0  0  0  0  0  0  0  0  0  0  0  0  # atno 6907 bound_to 6896
  152.1448  134.9031  160.0561 H   0  0  0  0  0  0  0  0  0  0  0  0  # atno 6908 bound_to 6896
  152.0151  133.3842  159.4272 H   0  0  0  0  0  0  0  0  0  0  0  0  # atno 6909 bound_to 6896
  145.9160  140.7874  142.9671 H   0  0  0  0  0  0  0  0  0  0  0  0  # atno 7974 bound_to 7965
  156.0154  140.1249  157.0411 H   0  0  0  0  0  0  0  0  0  0  0  0  # atno 8008 bound_to 7997
  154.4291  140.1079  156.5958 H   0  0  0  0  0  0  0  0  0  0  0  0  # atno 8009 bound_to 7997
  155.6020  140.3470  155.4599 H   0  0  0  0  0  0  0  0  0  0  0  0  # atno 8010 bound_to 7997
  140.0671  144.5184  150.7253 H   0  0  0  0  0  0  0  0  0  0  0  0  # atno 10167 bound_to 10162
  157.5831  131.1073  150.8149 H   0  0  0  0  0  0  0  0  0  0  0  0  # atno 10718 bound_to 10713
  153.2842  135.6943  153.7356 H   0  0  0  0  0  0  0  0  0  0  0  0  # atno 10763 bound_to 10752
  153.6331  135.3406  155.3049 H   0  0  0  0  0  0  0  0  0  0  0  0  # atno 10764 bound_to 10752
  154.8504  135.4414  154.1905 H   0  0  0  0  0  0  0  0  0  0  0  0  # atno 10765 bound_to 10752
  140.3073  134.2689  155.7741 H   0  0  0  0  0  0  0  0  0  0  0  0  # atno 11005 bound_to 11000
  144.6748  140.1901  143.7397 LP  0  0  0  0  0  0  0  0  0  0  0  0  # atno 17320 bound_to 7965
  145.8611  139.2223  143.1716 LP  0  0  0  0  0  0  0  0  0  0  0  0  # atno 17321 bound_to 7965
  140.7144  143.2532  151.4481 LP  0  0  0  0  0  0  0  0  0  0  0  0  # atno 17342 bound_to 10162
  139.5858  144.1607  152.2027 LP  0  0  0  0  0  0  0  0  0  0  0  0  # atno 17343 bound_to 10162
  156.8590  130.5106  149.5305 LP  0  0  0  0  0  0  0  0  0  0  0  0  # atno 17370 bound_to 10713
  156.0878  130.5871  150.9679 LP  0  0  0  0  0  0  0  0  0  0  0  0  # atno 17371 bound_to 10713
  141.2115  133.7685  156.9856 LP  0  0  0  0  0  0  0  0  0  0  0  0  # atno 17394 bound_to 11000
  140.1055  134.9509  157.1988 LP  0  0  0  0  0  0  0  0  0  0  0  0  # atno 17395 bound_to 11000

$$$$
