AV-unprocessed.smi:2740|AV-procd|sdf|10554|dock7
  -GOLD-   2272015 03D 1   1.00000     0.00000
 Structure written by MMmdl.
 31 32  0  0  0  0  0  0  0  0  1 V2000
  144.9556  131.0502  151.1289 C   0  0  0  0  0  0  0  0  0  0  0  0
  145.0635  132.5372  151.1523 C   0  0  0  0  0  0  0  0  0  0  0  0
  144.0910  133.4530  150.8306 C   0  0  0  0  0  0  0  0  0  0  0  0
  144.5022  134.7822  150.9537 N   0  0  0  0  0  0  0  0  0  0  0  0
  145.7713  134.8780  151.3650 C   0  0  0  0  0  0  0  0  0  0  0  0
  146.4559  136.1041  151.5733 N   0  0  0  0  0  0  0  0  0  0  0  0
  145.9427  137.2896  151.9465 C   0  0  0  0  0  0  0  0  0  0  0  0
  144.7555  137.5066  152.1910 O   0  0  0  0  0  0  0  0  0  0  0  0
  146.8962  138.2287  152.0244 N   0  0  0  0  0  0  0  0  0  0  0  0
  146.6715  139.6180  152.4068 C   0  0  0  0  0  0  0  0  0  0  0  0
  147.4111  139.9755  153.7063 C   0  0  2  0  0  0  0  0  0  0  0  0
  147.8734  141.4286  153.7693 C   0  0  0  0  0  0  0  0  0  0  0  0
  148.9915  141.3450  154.7835 C   0  0  0  0  0  0  0  0  0  0  0  0
  149.6319  140.0016  154.4417 C   0  0  0  0  0  0  0  0  0  0  0  0
  148.6108  139.2163  153.8291 O   0  0  0  0  0  0  0  0  0  0  0  0
  146.5460  133.3242  151.6314 S   0  0  0  0  0  0  0  0  0  0  0  0
  144.1497  130.7269  150.4695 H   0  0  0  0  0  0  0  0  0  0  0  0
  144.7512  130.6627  152.1270 H   0  0  0  0  0  0  0  0  0  0  0  0
  145.8813  130.5977  150.7728 H   0  0  0  0  0  0  0  0  0  0  0  0
  143.0818  133.2479  150.5053 H   0  0  0  0  0  0  0  0  0  0  0  0
  147.4519  136.0774  151.4122 H   0  0  0  0  0  0  0  0  0  0  0  0
  147.8471  137.9643  151.8124 H   0  0  0  0  0  0  0  0  0  0  0  0
  147.0115  140.2593  151.5930 H   0  0  0  0  0  0  0  0  0  0  0  0
  145.6017  139.8014  152.5190 H   0  0  0  0  0  0  0  0  0  0  0  0
  146.7858  139.7665  154.5759 H   0  0  0  0  0  0  0  0  0  0  0  0
  148.2670  141.7517  152.8044 H   0  0  0  0  0  0  0  0  0  0  0  0
  147.0789  142.1149  154.0634 H   0  0  0  0  0  0  0  0  0  0  0  0
  149.6913  142.1789  154.7236 H   0  0  0  0  0  0  0  0  0  0  0  0
  148.5774  141.3175  155.7923 H   0  0  0  0  0  0  0  0  0  0  0  0
  150.4425  140.1345  153.7245 H   0  0  0  0  0  0  0  0  0  0  0  0
  150.0379  139.5048  155.3231 H   0  0  0  0  0  0  0  0  0  0  0  0
  1  2  1  0  0  0  0
  1 17  1  0  0  0  0
  1 18  1  0  0  0  0
  1 19  1  0  0  0  0
  2 16  1  0  0  0  0
  2  3  2  0  0  0  0
  3  4  1  0  0  0  0
  3 20  1  0  0  0  0
  4  5  2  0  0  0  0
  5  6  1  0  0  0  0
  5 16  1  0  0  0  0
  6  7  1  0  0  0  0
  6 21  1  0  0  0  0
  7  8  2  0  0  0  0
  7  9  1  0  0  0  0
  9 10  1  0  0  0  0
  9 22  1  0  0  0  0
 10 11  1  0  0  0  0
 10 23  1  0  0  0  0
 10 24  1  0  0  0  0
 11 15  1  0  0  0  0
 11 12  1  0  0  0  0
 11 25  1  0  0  0  0
 12 13  1  0  0  0  0
 12 26  1  0  0  0  0
 12 27  1  0  0  0  0
 13 14  1  0  0  0  0
 13 28  1  0  0  0  0
 13 29  1  0  0  0  0
 14 15  1  0  0  0  0
 14 30  1  0  0  0  0
 14 31  1  0  0  0  0
M  END
> <s_m_source_file>
AV-unprocessed.smi

> <i_m_source_file_index>
2740

> <i_lp_mmshare_version>
43012

> <i_f3d_flags>
0

> <s_epik_input>
W0NIM11jMVtjSF1uYyhzMSlbTkhdQyg9TylbTkhdW0NIMl1bQ0BASF0yW0NIMl1bQ0gyXVtDSDJdTzI=

> <s_epik_cmdline>
J2VwaWtfcHl0aG9uJywgJy1waCcsICc3LjAnLCAnLXRuJywgJzgnLCAnLW1hJywgJzIwMCcsICctbWV0YWxfYmluZGluZycsICctaW1hZScsICc8aW5maWxlLm1hZT4nLCAnLW9tYWUnLCAnPG91dGZpbGUubWFlPic=

> <r_lp_tautomer_probability>
0.999

> <r_epik_Ionization_Penalty>
0.000387528

> <r_epik_Ionization_Penalty_Charging>
0

> <r_epik_Ionization_Penalty_Neutral>
0.000387528

> <r_epik_State_Penalty>
0.000177984

> <r_epik_Charging_Adjusted_Penalty>
0.000177984

> <i_epik_Tot_Q>
0

> <i_epik_Tot_abs_Q>
0

> <r_epik_Metal_State_Penalty>
0.00626158

> <b_epik_Metal_Only>
0

> <s_lp_Force_Field>
OPLS_2005

> <r_lp_Energy>
15.1526

> <b_lp_Chiralities_Consistent>
1

> <s_lp_Variant>
AV-unprocessed.smi:2740-1

> <Gold.Version>
5.8.1

> <Gold.Id.Protein>
6NUR|6NUR_protein|mol2

> <Gold.PLP.Fitness>
36.4534

> <Gold.PLP.PLP>
-29.2031

> <Gold.PLP.part.hbond>
-1.9577

> <Gold.PLP.part.metal>
0.0000

> <Gold.PLP.part.buried>
-3.6897

> <Gold.PLP.part.nonpolar>
-25.9463

> <Gold.PLP.part.repulsive>
3.2754

> <Gold.PLP.ligand.clash>
0.0000

> <Gold.PLP.ligand.torsion>
0.5762

> <Gold.PLP.Chemscore.Hbond>
1.8000

> <Gold.PLP.Chemscore.CHOScore>
1.0000

> <Gold.PLP.Chemscore.Metal>
0.0000

> <Gold.Chemscore.Hbonds>
donor molecule, donor type, donor heavy atom, donor atom, acceptor molecule, acceptor atom, score
      L1  H     6    21       P1  7948  1.00
      L1  H     9    22       P1  7948  0.75
      L1  C     3    20       P1 10186  0.91

> <Gold.PLP.Chemscore.Internal.Correction>
0.0026

> <Gold.Rescore>
     Score         DG    S(hbond)    S(metal)    S(lipo)     H(rot)  DE(clash)    DE(int)     intcor
     13.09     -14.56       1.59        0.00      59.95       1.27       0.29       1.18       ----

> <Gold.Chemscore.Fitness>
13.0901

> <Gold.Chemscore.DG>
-14.5581

> <Gold.Chemscore.ZeroCoef>
-5.4800

> <Gold.Chemscore.Hbond>
1.5896

> <Gold.Chemscore.Metal>
0.0000

> <Gold.Chemscore.Lipo>
59.9524

> <Gold.Chemscore.Internal_Hbond>
0.0000

> <Gold.Chemscore.DEClash>
0.2862

> <Gold.Chemscore.DEInternal>
1.1817

> <Gold.Chemscore.Rot>
1.2678

> <Gold.Chemscore.Internal.Correction>
   9.000000E+99

> <Gold.Chemscore.Hbonds>
donor molecule, donor type, donor heavy atom, donor atom, acceptor molecule, acceptor atom, score
      L1  H     6    21       P1  7948  0.92
      L1  H     9    22       P1  7948  0.70

> <Gold.Chemscore.Hbond.Weighted>
-5.3091

> <Gold.Chemscore.Metal.Weighted>
-0.0000

> <Gold.Chemscore.Lipo.Weighted>
-7.0144

> <Gold.Chemscore.Internal_Hbond.Weighted>
0.0000

> <Gold.Chemscore.DEClash.Weighted>
0.2862

> <Gold.Chemscore.DEInternal.Weighted>
1.1817

> <Gold.Chemscore.Rot.Weighted>
3.2455

> <Gold.Chemscore.Internal.Correction.Weighted>
   9.000000E+99

> <Gold.Protein.RotatedTorsions>
[ 6907 6896 6895 6894 ] final  160.63 input  -60.11 | X-H torsion
[ 7974 7965 7964 7962 ] final  -84.08 input  175.53 | X-H torsion
[ 8008 7997 7996 7995 ] final -117.88 input   59.86 | X-H torsion
[ 10167 10162 10161 10158 ] final   56.42 input  -65.29 | X-H torsion
[ 10718 10713 10712 10709 ] final   44.32 input   66.30 | X-H torsion
[ 10763 10752 10751 10750 ] final  148.10 input  -60.55 | X-H torsion
[ 11005 11000 10999 10996 ] final -156.97 input  -57.11 | X-H torsion

> <Gold.Protein.ActiveResidues>
 VAL166  LYS551  ARG553  GLY616  TRP617  ASP618  TYR619  PRO620  LYS621  CYS622 
 ASP623  PHE694  ASN695  SER759  ASP760  ASP761  ALA762  ILE779  LEU786  VAL792 
 PHE793  MET794  SER795  GLU796  ALA797  LYS798  CYS799  TRP800  GLU811  SER814 

> <Gold.Protein.RotatedAtoms>
  151.9677  133.3715  159.4058 H   0  0  0  0  0  0  0  0  0  0  0  0  # atno 6907 bound_to 6896
  150.6954  134.4173  159.5198 H   0  0  0  0  0  0  0  0  0  0  0  0  # atno 6908 bound_to 6896
  152.1872  134.8703  160.0571 H   0  0  0  0  0  0  0  0  0  0  0  0  # atno 6909 bound_to 6896
  145.5114  140.9539  143.1705 H   0  0  0  0  0  0  0  0  0  0  0  0  # atno 7974 bound_to 7965
  155.0908  140.0395  157.2668 H   0  0  0  0  0  0  0  0  0  0  0  0  # atno 8008 bound_to 7997
  154.6834  140.2638  155.6860 H   0  0  0  0  0  0  0  0  0  0  0  0  # atno 8009 bound_to 7997
  156.2703  140.2774  156.1386 H   0  0  0  0  0  0  0  0  0  0  0  0  # atno 8010 bound_to 7997
  140.2089  144.3910  150.6497 H   0  0  0  0  0  0  0  0  0  0  0  0  # atno 10167 bound_to 10162
  157.4255  130.7994  149.7555 H   0  0  0  0  0  0  0  0  0  0  0  0  # atno 10718 bound_to 10713
  154.0491  135.2883  155.3343 H   0  0  0  0  0  0  0  0  0  0  0  0  # atno 10763 bound_to 10752
  154.6880  135.5237  153.8357 H   0  0  0  0  0  0  0  0  0  0  0  0  # atno 10764 bound_to 10752
  153.0568  135.6598  154.0689 H   0  0  0  0  0  0  0  0  0  0  0  0  # atno 10765 bound_to 10752
  140.6697  134.4260  157.5232 H   0  0  0  0  0  0  0  0  0  0  0  0  # atno 11005 bound_to 11000
  144.7725  139.6702  143.7188 LP  0  0  0  0  0  0  0  0  0  0  0  0  # atno 17320 bound_to 7965
  146.2164  139.5557  142.9647 LP  0  0  0  0  0  0  0  0  0  0  0  0  # atno 17321 bound_to 7965
  140.6337  143.2191  151.6440 LP  0  0  0  0  0  0  0  0  0  0  0  0  # atno 17342 bound_to 10162
  139.5187  144.3274  152.0856 LP  0  0  0  0  0  0  0  0  0  0  0  0  # atno 17343 bound_to 10162
  155.9895  130.3951  150.3070 LP  0  0  0  0  0  0  0  0  0  0  0  0  # atno 17370 bound_to 10713
  157.1222  131.0249  151.3004 LP  0  0  0  0  0  0  0  0  0  0  0  0  # atno 17371 bound_to 10713
  139.8985  134.8611  156.1997 LP  0  0  0  0  0  0  0  0  0  0  0  0  # atno 17394 bound_to 11000
  141.0401  133.6942  156.1583 LP  0  0  0  0  0  0  0  0  0  0  0  0  # atno 17395 bound_to 11000

$$$$
