#       Name:                AV-unprocessed.smi:3264
#       Creating user name   scv26
#       Creation time:       Fri Mar 27 18:39:46 2020


#       File generated by GOLD software.
#

@<TRIPOS>MOLECULE
AV-unprocessed.smi:3264
    37    38     1
SMALL
NO_CHARGES


@<TRIPOS>ATOM
      1 ****        -3.1510   5.2426  -1.7992 C.3            1 S1                 0.0000
      2 ****        -2.8305   4.2939  -0.6953 C.2            1 S1                 0.0000
      3 ****        -2.4659   3.0243  -0.8931 N.2            1 S1                 0.0000
      4 ****        -2.2257   2.3406   0.3030 C.2            1 S1                 0.0000
      5 ****        -1.8039   0.9029   0.2721 C.3            1 S1                 0.0000
      6 ****        -0.3072   0.7411  -0.0273 C.3            1 S1                 0.0000
      7 ****         0.0586  -0.6686  -0.0552 N.am           1 S1                 0.0000
      8 ****         1.3158  -1.1327  -0.0147 C.2            1 S1                 0.0000
      9 ****         2.3029  -0.3995   0.0540 O.2            1 S1                 0.0000
     10 ****         1.4712  -2.6581  -0.0413 C.3            1 S1                 0.0000
     11 ****         2.7712  -3.1656  -0.6956 C.3            1 S1                 0.0000
     12 ****         3.5470  -3.7646   0.4616 C.3            1 S1                 0.0000
     13 ****         2.4298  -4.1960   1.4004 C.3            1 S1                 0.0000
     14 ****         1.5067  -3.1232   1.3063 O.3            1 S1                 0.0000
     15 ****        -2.4117   3.1193   1.4180 C.2            1 S1                 0.0000
     16 ****        -2.8987   4.7402   1.0050 S.3            1 S1                 0.0000
     17 ****        -2.9877   4.7733  -2.7700 H              1 S1                 0.0000
     18 ****        -2.5169   6.1263  -1.7270 H              1 S1                 0.0000
     19 ****        -4.1939   5.5526  -1.7318 H              1 S1                 0.0000
     20 ****        -2.0346   0.4298   1.2275 H              1 S1                 0.0000
     21 ****        -2.3857   0.3630  -0.4763 H              1 S1                 0.0000
     22 ****        -0.0621   1.1901  -0.9909 H              1 S1                 0.0000
     23 ****         0.2789   1.2634   0.7312 H              1 S1                 0.0000
     24 ****        -0.6949  -1.3390  -0.1057 H              1 S1                 0.0000
     25 ****         0.6140  -3.1070  -0.5465 H              1 S1                 0.0000
     26 ****         2.5335  -3.9413  -1.4247 H              1 S1                 0.0000
     27 ****         3.3449  -2.3990  -1.2181 H              1 S1                 0.0000
     28 ****         4.1965  -4.5876   0.1627 H              1 S1                 0.0000
     29 ****         4.1593  -2.9986   0.9392 H              1 S1                 0.0000
     30 ****         1.9594  -5.1173   1.0529 H              1 S1                 0.0000
     31 ****         2.7715  -4.3447   2.4248 H              1 S1                 0.0000
     32 ****        -2.2911   2.8392   2.4540 H              1 S1                 0.0000
     33 ****        -2.3746   2.6081  -1.7978 LP             1 S1                 0.0000
     34 ****         2.1873   0.5934   0.0822 LP             1 S1                 0.0000
     35 ****         3.2201  -0.7970   0.0816 LP             1 S1                 0.0000
     36 ****         0.5970  -3.4390   1.5761 LP             1 S1                 0.0000
     37 ****         1.7941  -2.3797   1.9101 LP             1 S1                 0.0000
@<TRIPOS>BOND
    1    1    2 1     
    2    1   17 1     
    3    1   18 1     
    4    1   19 1     
    5    2   16 1     
    6    2    3 2     
    7    3    4 1     
    8    4    5 1     
    9    4   15 2     
   10    5    6 1     
   11    5   20 1     
   12    5   21 1     
   13    6    7 1     
   14    6   22 1     
   15    6   23 1     
   16    7    8 am    
   17    7   24 1     
   18    8    9 2     
   19    8   10 1     
   20   10   14 1     
   21   10   11 1     
   22   10   25 1     
   23   11   12 1     
   24   11   26 1     
   25   11   27 1     
   26   12   13 1     
   27   12   28 1     
   28   12   29 1     
   29   13   14 1     
   30   13   30 1     
   31   13   31 1     
   32   15   16 1     
   33   15   32 1     
   34    3   33 1     
   35    9   34 1     
   36    9   35 1     
   37   14   36 1     
   38   14   37 1     
@<TRIPOS>SUBSTRUCTURE
      1 S1             1
@<TRIPOS>SET
LONE_PAIRS      STATIC     ATOMS    <user>   **** ""
5 33 34 35 36 37
DONOR_HYDROGENS      STATIC     ATOMS    <user>   **** ""
1 24
ATOM$BLUE        STATIC     ATOMS    COLORGROUP SYSTEM
5 33 34 35 36 37
ATOM$RED        STATIC     ATOMS    COLORGROUP SYSTEM
1 24
