AV-unprocessed.smi:712|AV-procd|sdf|3472|dock10
  -GOLD-   22720 0463D 1   1.00000     0.00000
 Structure written by MMmdl.
 50 51  0  0  0  0  0  0  0  0  1 V2000
  151.9145  144.4778  160.4183 C   0  0  0  0  0  0  0  0  0  0  0  0
  151.8043  143.1679  159.6659 C   0  0  0  0  0  0  0  0  0  0  0  0
  150.5728  142.8046  158.9979 C   0  0  0  0  0  0  0  0  0  0  0  0
  150.4976  141.6262  158.3611 C   0  0  0  0  0  0  0  0  0  0  0  0
  151.5850  140.7348  158.3137 N   0  0  0  0  0  0  0  0  0  0  0  0
  151.3591  139.4544  157.6181 C   0  0  0  0  0  0  0  0  0  0  0  0
  151.0485  139.5996  156.1180 C   0  0  0  0  0  0  0  0  0  0  0  0
  151.4599  140.5877  155.5117 O   0  0  0  0  0  0  0  0  0  0  0  0
  150.3003  138.6470  155.5378 N   0  0  0  0  0  0  0  0  0  0  0  0
  149.7729  138.6815  154.1796 C   0  0  0  0  0  0  0  0  0  0  0  0
  148.2916  139.0968  154.1758 C   0  0  2  0  0  0  0  0  0  0  0  0
  148.0974  140.6270  154.2683 C   0  0  0  0  0  0  0  0  0  0  0  0
  146.6873  140.9997  154.3348 N   0  0  0  0  0  0  0  0  0  0  0  0
  146.4863  142.4463  154.4386 C   0  0  0  0  0  0  0  0  0  0  0  0
  145.0184  142.9203  154.5162 C   0  0  0  0  0  0  0  0  0  0  0  0
  144.7796  144.0945  153.5566 C   0  0  0  0  0  0  0  0  0  0  0  0
  144.6126  143.3036  155.9487 C   0  0  0  0  0  0  0  0  0  0  0  0
  146.0673  140.3038  155.4564 C   0  0  0  0  0  0  0  0  0  0  0  0
  146.2613  138.7807  155.3663 C   0  0  0  0  0  0  0  0  0  0  0  0
  147.6512  138.4807  155.2895 O   0  0  0  0  0  0  0  0  0  0  0  0
  152.7819  141.0257  158.9073 C   0  0  0  0  0  0  0  0  0  0  0  0
  153.7362  140.2490  158.8724 O   0  0  0  0  0  0  0  0  0  0  0  0
  152.8498  142.3132  159.6089 C   0  0  0  0  0  0  0  0  0  0  0  0
  150.9275  144.8736  160.6590 H   0  0  0  0  0  0  0  0  0  0  0  0
  152.4428  145.2163  159.8152 H   0  0  0  0  0  0  0  0  0  0  0  0
  152.4594  144.3411  161.3529 H   0  0  0  0  0  0  0  0  0  0  0  0
  149.7204  143.4674  159.0172 H   0  0  0  0  0  0  0  0  0  0  0  0
  149.6046  141.2889  157.8545 H   0  0  0  0  0  0  0  0  0  0  0  0
  152.2391  138.8185  157.7284 H   0  0  0  0  0  0  0  0  0  0  0  0
  150.5476  138.8930  158.0836 H   0  0  0  0  0  0  0  0  0  0  0  0
  150.0193  137.8624  156.1077 H   0  0  0  0  0  0  0  0  0  0  0  0
  150.3592  139.3535  153.5509 H   0  0  0  0  0  0  0  0  0  0  0  0
  149.8801  137.6853  153.7498 H   0  0  0  0  0  0  0  0  0  0  0  0
  147.8261  138.7282  153.2593 H   0  0  0  0  0  0  0  0  0  0  0  0
  148.6229  141.0090  155.1447 H   0  0  0  0  0  0  0  0  0  0  0  0
  148.5607  141.0903  153.3984 H   0  0  0  0  0  0  0  0  0  0  0  0
  147.0001  142.8087  155.3302 H   0  0  0  0  0  0  0  0  0  0  0  0
  146.9760  142.9372  153.5962 H   0  0  0  0  0  0  0  0  0  0  0  0
  144.3662  142.1148  154.1825 H   0  0  0  0  0  0  0  0  0  0  0  0
  145.3990  144.9530  153.8181 H   0  0  0  0  0  0  0  0  0  0  0  0
  143.7379  144.4161  153.5806 H   0  0  0  0  0  0  0  0  0  0  0  0
  145.0126  143.8155  152.5286 H   0  0  0  0  0  0  0  0  0  0  0  0
  145.2492  144.0965  156.3422 H   0  0  0  0  0  0  0  0  0  0  0  0
  144.6864  142.4504  156.6236 H   0  0  0  0  0  0  0  0  0  0  0  0
  143.5815  143.6561  155.9846 H   0  0  0  0  0  0  0  0  0  0  0  0
  146.4903  140.6651  156.3953 H   0  0  0  0  0  0  0  0  0  0  0  0
  145.0007  140.5289  155.4881 H   0  0  0  0  0  0  0  0  0  0  0  0
  145.8393  138.2922  156.2446 H   0  0  0  0  0  0  0  0  0  0  0  0
  145.7448  138.3756  154.4946 H   0  0  0  0  0  0  0  0  0  0  0  0
  153.7723  142.5780  160.1053 H   0  0  0  0  0  0  0  0  0  0  0  0
  1  2  1  0  0  0  0
  1 24  1  0  0  0  0
  1 25  1  0  0  0  0
  1 26  1  0  0  0  0
  2 23  2  0  0  0  0
  2  3  1  0  0  0  0
  3  4  2  0  0  0  0
  3 27  1  0  0  0  0
  4  5  1  0  0  0  0
  4 28  1  0  0  0  0
  5  6  1  0  0  0  0
  5 21  1  0  0  0  0
  6  7  1  0  0  0  0
  6 29  1  0  0  0  0
  6 30  1  0  0  0  0
  7  8  2  0  0  0  0
  7  9  1  0  0  0  0
  9 10  1  0  0  0  0
  9 31  1  0  0  0  0
 10 11  1  0  0  0  0
 10 32  1  0  0  0  0
 10 33  1  0  0  0  0
 11 20  1  0  0  0  0
 11 12  1  0  0  0  0
 11 34  1  0  0  0  0
 12 13  1  0  0  0  0
 12 35  1  0  0  0  0
 12 36  1  0  0  0  0
 13 14  1  0  0  0  0
 13 18  1  0  0  0  0
 14 15  1  0  0  0  0
 14 37  1  0  0  0  0
 14 38  1  0  0  0  0
 15 16  1  0  0  0  0
 15 17  1  0  0  0  0
 15 39  1  0  0  0  0
 16 40  1  0  0  0  0
 16 41  1  0  0  0  0
 16 42  1  0  0  0  0
 17 43  1  0  0  0  0
 17 44  1  0  0  0  0
 17 45  1  0  0  0  0
 18 19  1  0  0  0  0
 18 46  1  0  0  0  0
 18 47  1  0  0  0  0
 19 20  1  0  0  0  0
 19 48  1  0  0  0  0
 19 49  1  0  0  0  0
 21 22  2  0  0  0  0
 21 23  1  0  0  0  0
 23 50  1  0  0  0  0
M  END
> <s_m_source_file>
AV-unprocessed.smi

> <i_m_source_file_index>
712

> <i_lp_mmshare_version>
43012

> <i_f3d_flags>
0

> <s_epik_input>
W0NIM11jMVtjSF1bY0hdbihjKD1PKVtjSF0xKVtDSDJdQyg9TylbTkhdW0NIMl1bQ0BASF0yW0NIMl1OKFtDSDJdW0NIMl1PMilbQ0gyXVtDSF0oW0NIM10pW0NIM10=

> <s_epik_cmdline>
J2VwaWtfcHl0aG9uJywgJy1waCcsICc3LjAnLCAnLXRuJywgJzgnLCAnLW1hJywgJzIwMCcsICctbWV0YWxfYmluZGluZycsICctaW1hZScsICc8aW5maWxlLm1hZT4nLCAnLW9tYWUnLCAnPG91dGZpbGUubWFlPic=

> <r_lp_tautomer_probability>
1

> <r_epik_Ionization_Penalty>
1.11669

> <r_epik_Ionization_Penalty_Charging>
4.93496e-07

> <r_epik_Ionization_Penalty_Neutral>
1.11669

> <r_epik_State_Penalty>
1.17516

> <r_epik_Charging_Adjusted_Penalty>
1.17516

> <i_epik_Tot_Q>
0

> <i_epik_Tot_abs_Q>
0

> <r_epik_Metal_State_Penalty>
1.17513

> <b_epik_Metal_Only>
0

> <s_lp_Force_Field>
OPLS_2005

> <r_lp_Energy>
32.9939

> <b_lp_Chiralities_Consistent>
1

> <s_lp_Variant>
AV-unprocessed.smi:712-5

> <Gold.Version>
5.8.1

> <Gold.Id.Protein>
6NUR|6NUR_protein|mol2

> <Gold.PLP.Fitness>
46.2961

> <Gold.PLP.PLP>
-44.0839

> <Gold.PLP.part.hbond>
-2.0000

> <Gold.PLP.part.metal>
0.0000

> <Gold.PLP.part.buried>
-4.1646

> <Gold.PLP.part.nonpolar>
-37.4250

> <Gold.PLP.part.repulsive>
0.2531

> <Gold.PLP.ligand.clash>
0.0000

> <Gold.PLP.ligand.torsion>
1.3550

> <Gold.PLP.Chemscore.Hbond>
1.6087

> <Gold.PLP.Chemscore.CHOScore>
0.0000

> <Gold.PLP.Chemscore.Metal>
0.0000

> <Gold.Chemscore.Hbonds>
donor molecule, donor type, donor heavy atom, donor atom, acceptor molecule, acceptor atom, score
      P1  H  7989  7998       L1     8  0.78
      P1  H  7997  8010       L1    22  0.78

> <Gold.PLP.Chemscore.Internal.Correction>
0.0960

> <Gold.Rescore>
     Score         DG    S(hbond)    S(metal)    S(lipo)     H(rot)  DE(clash)    DE(int)     intcor
     17.39     -18.85       1.78        0.00     103.37       1.82       0.05       1.41       ----

> <Gold.Chemscore.Fitness>
17.3910

> <Gold.Chemscore.DG>
-18.8492

> <Gold.Chemscore.ZeroCoef>
-5.4800

> <Gold.Chemscore.Hbond>
1.7799

> <Gold.Chemscore.Metal>
0.0000

> <Gold.Chemscore.Lipo>
103.3735

> <Gold.Chemscore.Internal_Hbond>
0.0000

> <Gold.Chemscore.DEClash>
0.0498

> <Gold.Chemscore.DEInternal>
1.4084

> <Gold.Chemscore.Rot>
1.8243

> <Gold.Chemscore.Internal.Correction>
   9.000000E+99

> <Gold.Chemscore.Hbonds>
donor molecule, donor type, donor heavy atom, donor atom, acceptor molecule, acceptor atom, score
      P1  H  7989  7998       L1     8  0.74
      P1  H  7997  8010       L1    22  0.72

> <Gold.Chemscore.Hbond.Weighted>
-5.9448

> <Gold.Chemscore.Metal.Weighted>
-0.0000

> <Gold.Chemscore.Lipo.Weighted>
-12.0947

> <Gold.Chemscore.Internal_Hbond.Weighted>
0.0000

> <Gold.Chemscore.DEClash.Weighted>
0.0498

> <Gold.Chemscore.DEInternal.Weighted>
1.4084

> <Gold.Chemscore.Rot.Weighted>
4.6703

> <Gold.Chemscore.Internal.Correction.Weighted>
   9.000000E+99

> <Gold.Protein.RotatedTorsions>
[ 6907 6896 6895 6894 ] final -142.19 input  -60.11 | X-H torsion
[ 7974 7965 7964 7962 ] final  -25.89 input  175.53 | X-H torsion
[ 8008 7997 7996 7995 ] final    3.84 input   59.86 | X-H torsion
[ 10167 10162 10161 10158 ] final -122.16 input  -65.29 | X-H torsion
[ 10718 10713 10712 10709 ] final  172.68 input   66.30 | X-H torsion
[ 10763 10752 10751 10750 ] final -110.22 input  -60.55 | X-H torsion
[ 11005 11000 10999 10996 ] final -157.68 input  -57.11 | X-H torsion

> <Gold.Protein.ActiveResidues>
 VAL166  LYS551  ARG553  GLY616  TRP617  ASP618  TYR619  PRO620  LYS621  CYS622 
 ASP623  PHE694  ASN695  SER759  ASP760  ASP761  ALA762  ILE779  LEU786  VAL792 
 PHE793  MET794  SER795  GLU796  ALA797  LYS798  CYS799  TRP800  GLU811  SER814 

> <Gold.Protein.RotatedAtoms>
  151.0837  133.5370  159.2618 H   0  0  0  0  0  0  0  0  0  0  0  0  # atno 6907 bound_to 6896
  151.2263  135.0537  159.8980 H   0  0  0  0  0  0  0  0  0  0  0  0  # atno 6908 bound_to 6896
  152.5426  134.0632  159.8215 H   0  0  0  0  0  0  0  0  0  0  0  0  # atno 6909 bound_to 6896
  146.1461  140.4947  142.8631 H   0  0  0  0  0  0  0  0  0  0  0  0  # atno 7974 bound_to 7965
  154.7086  140.2688  155.6650 H   0  0  0  0  0  0  0  0  0  0  0  0  # atno 8008 bound_to 7997
  156.2788  140.2758  156.1645 H   0  0  0  0  0  0  0  0  0  0  0  0  # atno 8009 bound_to 7997
  155.0665  140.0372  157.2584 H   0  0  0  0  0  0  0  0  0  0  0  0  # atno 8010 bound_to 7997
  140.0173  143.5380  152.2236 H   0  0  0  0  0  0  0  0  0  0  0  0  # atno 10167 bound_to 10162
  156.9753  131.0102  151.2895 H   0  0  0  0  0  0  0  0  0  0  0  0  # atno 10718 bound_to 10713
  154.8236  135.4572  154.0852 H   0  0  0  0  0  0  0  0  0  0  0  0  # atno 10763 bound_to 10752
  153.2185  135.6891  153.8034 H   0  0  0  0  0  0  0  0  0  0  0  0  # atno 10764 bound_to 10752
  153.7460  135.3305  155.3289 H   0  0  0  0  0  0  0  0  0  0  0  0  # atno 10765 bound_to 10752
  140.6620  134.4339  157.5234 H   0  0  0  0  0  0  0  0  0  0  0  0  # atno 11005 bound_to 11000
  144.7848  140.5914  143.6581 LP  0  0  0  0  0  0  0  0  0  0  0  0  # atno 17320 bound_to 7965
  145.4933  139.1487  143.3697 LP  0  0  0  0  0  0  0  0  0  0  0  0  # atno 17321 bound_to 7965
  139.6164  144.7620  151.2837 LP  0  0  0  0  0  0  0  0  0  0  0  0  # atno 17342 bound_to 10162
  140.7357  143.6729  150.8066 LP  0  0  0  0  0  0  0  0  0  0  0  0  # atno 17343 bound_to 10162
  157.5564  130.8216  149.8209 LP  0  0  0  0  0  0  0  0  0  0  0  0  # atno 17370 bound_to 10713
  156.0266  130.3777  150.1806 LP  0  0  0  0  0  0  0  0  0  0  0  0  # atno 17371 bound_to 10713
  139.9010  134.8557  156.1897 LP  0  0  0  0  0  0  0  0  0  0  0  0  # atno 17394 bound_to 11000
  141.0458  133.6914  156.1681 LP  0  0  0  0  0  0  0  0  0  0  0  0  # atno 17395 bound_to 11000

$$$$
