AV-unprocessed.smi:2910|AV-procd|sdf|11175|dock4
  -GOLD-   2272016 63D 1   1.00000     0.00000
 Structure written by MMmdl.
 47 48  0  0  0  0  0  0  0  0  1 V2000
  144.2632  143.8835  162.3102 C   0  0  0  0  0  0  0  0  0  0  0  0
  145.5387  144.0468  161.5376 C   0  0  0  0  0  0  0  0  0  0  0  0
  145.8802  143.4755  160.2774 C   0  0  0  0  0  0  0  0  0  0  0  0
  147.1406  143.9604  160.0585 C   0  0  0  0  0  0  0  0  0  0  0  0
  147.9651  143.7510  158.9980 N   0  0  0  0  0  0  0  0  0  0  0  0
  148.7229  142.6752  158.7232 C   0  0  0  0  0  0  0  0  0  0  0  0
  148.8224  141.6735  159.4320 O   0  0  0  0  0  0  0  0  0  0  0  0
  149.3741  142.8300  157.5602 N   0  0  0  0  0  0  0  0  0  0  0  0
  150.2770  141.8553  156.9412 C   0  0  2  0  0  0  0  0  0  0  0  0
  149.4450  140.8738  156.0815 C   0  0  0  0  0  0  0  0  0  0  0  0
  148.7118  141.5347  154.9007 C   0  0  0  0  0  0  0  0  0  0  0  0
  149.4325  141.3128  153.7078 O   0  0  0  0  0  0  0  0  0  0  0  0
  151.1346  141.1549  158.0354 C   0  0  0  0  0  0  0  0  0  0  0  0
  151.9822  142.1662  158.8506 C   0  0  0  0  0  0  0  0  0  0  0  0
  152.8405  141.4824  159.9262 C   0  0  0  0  0  0  0  0  0  0  0  0
  153.7529  140.4143  159.3123 C   0  0  0  0  0  0  0  0  0  0  0  0
  152.9273  139.3863  158.5295 C   0  0  0  0  0  0  0  0  0  0  0  0
  152.0653  140.0630  157.4512 C   0  0  0  0  0  0  0  0  0  0  0  0
  147.5010  144.7582  161.1216 N   0  0  0  0  0  0  0  0  0  0  0  0
  148.7324  145.4895  161.3480 C   0  0  0  0  0  0  0  0  0  0  0  0
  146.5074  144.8075  162.0351 N   0  0  0  0  0  0  0  0  0  0  0  0
  143.5710  143.2203  161.7912 H   0  0  0  0  0  0  0  0  0  0  0  0
  143.7626  144.8423  162.4476 H   0  0  0  0  0  0  0  0  0  0  0  0
  144.4522  143.4598  163.2967 H   0  0  0  0  0  0  0  0  0  0  0  0
  145.2840  142.8248  159.6557 H   0  0  0  0  0  0  0  0  0  0  0  0
  148.0016  144.5040  158.3272 H   0  0  0  0  0  0  0  0  0  0  0  0
  149.2277  143.6893  157.0508 H   0  0  0  0  0  0  0  0  0  0  0  0
  150.9662  142.3696  156.2690 H   0  0  0  0  0  0  0  0  0  0  0  0
  150.0966  140.1049  155.6688 H   0  0  0  0  0  0  0  0  0  0  0  0
  148.7222  140.3556  156.7134 H   0  0  0  0  0  0  0  0  0  0  0  0
  147.7080  141.1281  154.7777 H   0  0  0  0  0  0  0  0  0  0  0  0
  148.6132  142.6086  155.0617 H   0  0  0  0  0  0  0  0  0  0  0  0
  148.9572  140.6884  153.1811 H   0  0  0  0  0  0  0  0  0  0  0  0
  150.4501  140.6669  158.7312 H   0  0  0  0  0  0  0  0  0  0  0  0
  152.6277  142.7296  158.1753 H   0  0  0  0  0  0  0  0  0  0  0  0
  151.3442  142.8987  159.3447 H   0  0  0  0  0  0  0  0  0  0  0  0
  153.4410  142.2267  160.4497 H   0  0  0  0  0  0  0  0  0  0  0  0
  152.1926  141.0250  160.6752 H   0  0  0  0  0  0  0  0  0  0  0  0
  154.4784  140.8865  158.6487 H   0  0  0  0  0  0  0  0  0  0  0  0
  154.3255  139.9164  160.0954 H   0  0  0  0  0  0  0  0  0  0  0  0
  153.5896  138.6532  158.0682 H   0  0  0  0  0  0  0  0  0  0  0  0
  152.2853  138.8333  159.2164 H   0  0  0  0  0  0  0  0  0  0  0  0
  151.4873  139.2855  156.9540 H   0  0  0  0  0  0  0  0  0  0  0  0
  152.7132  140.5010  156.6907 H   0  0  0  0  0  0  0  0  0  0  0  0
  148.9298  146.1453  160.4998 H   0  0  0  0  0  0  0  0  0  0  0  0
  149.5592  144.7874  161.4571 H   0  0  0  0  0  0  0  0  0  0  0  0
  148.6595  146.0953  162.2525 H   0  0  0  0  0  0  0  0  0  0  0  0
  1  2  1  0  0  0  0
  1 22  1  0  0  0  0
  1 23  1  0  0  0  0
  1 24  1  0  0  0  0
  2 21  2  0  0  0  0
  2  3  1  0  0  0  0
  3  4  2  0  0  0  0
  3 25  1  0  0  0  0
  4  5  1  0  0  0  0
  4 19  1  0  0  0  0
  5  6  1  0  0  0  0
  5 26  1  0  0  0  0
  6  7  2  0  0  0  0
  6  8  1  0  0  0  0
  8  9  1  0  0  0  0
  8 27  1  0  0  0  0
  9 10  1  0  0  0  0
  9 13  1  0  0  0  0
  9 28  1  0  0  0  0
 10 11  1  0  0  0  0
 10 29  1  0  0  0  0
 10 30  1  0  0  0  0
 11 12  1  0  0  0  0
 11 31  1  0  0  0  0
 11 32  1  0  0  0  0
 12 33  1  0  0  0  0
 13 18  1  0  0  0  0
 13 14  1  0  0  0  0
 13 34  1  0  0  0  0
 14 15  1  0  0  0  0
 14 35  1  0  0  0  0
 14 36  1  0  0  0  0
 15 16  1  0  0  0  0
 15 37  1  0  0  0  0
 15 38  1  0  0  0  0
 16 17  1  0  0  0  0
 16 39  1  0  0  0  0
 16 40  1  0  0  0  0
 17 18  1  0  0  0  0
 17 41  1  0  0  0  0
 17 42  1  0  0  0  0
 18 43  1  0  0  0  0
 18 44  1  0  0  0  0
 19 20  1  0  0  0  0
 19 21  1  0  0  0  0
 20 45  1  0  0  0  0
 20 46  1  0  0  0  0
 20 47  1  0  0  0  0
M  END
> <s_m_source_file>
AV-unprocessed.smi

> <i_m_source_file_index>
2910

> <i_lp_mmshare_version>
43012

> <i_f3d_flags>
0

> <s_epik_input>
W0NIM11jMVtjSF1jKG4objEpW0NIM10pW05IXUMoPU8pW05IXVtDQEhdKFtDSDJdW0NIMl1bT0hdKVtDSF0yW0NIMl1bQ0gyXVtDSDJdW0NIMl1bQ0gyXTI=

> <s_epik_cmdline>
J2VwaWtfcHl0aG9uJywgJy1waCcsICc3LjAnLCAnLXRuJywgJzgnLCAnLW1hJywgJzIwMCcsICctbWV0YWxfYmluZGluZycsICctaW1hZScsICc8aW5maWxlLm1hZT4nLCAnLW9tYWUnLCAnPG91dGZpbGUubWFlPic=

> <r_lp_tautomer_probability>
1

> <r_epik_Ionization_Penalty>
0.000101449

> <r_epik_Ionization_Penalty_Charging>
0

> <r_epik_Ionization_Penalty_Neutral>
0.000101449

> <r_epik_State_Penalty>
-0

> <r_epik_Charging_Adjusted_Penalty>
0

> <i_epik_Tot_Q>
0

> <i_epik_Tot_abs_Q>
0

> <r_epik_Metal_State_Penalty>
-0

> <b_epik_Metal_Only>
0

> <s_lp_Force_Field>
OPLS_2005

> <r_lp_Energy>
16.2269

> <b_lp_Chiralities_Consistent>
1

> <s_lp_Variant>
AV-unprocessed.smi:2910-1

> <Gold.Version>
5.8.1

> <Gold.Id.Protein>
6NUR|6NUR_protein|mol2

> <Gold.PLP.Fitness>
45.9408

> <Gold.PLP.PLP>
-37.4450

> <Gold.PLP.part.hbond>
-7.1751

> <Gold.PLP.part.metal>
0.0000

> <Gold.PLP.part.buried>
-2.0387

> <Gold.PLP.part.nonpolar>
-28.5292

> <Gold.PLP.part.repulsive>
0.2429

> <Gold.PLP.ligand.clash>
0.0000

> <Gold.PLP.ligand.torsion>
1.3595

> <Gold.PLP.Chemscore.Hbond>
3.6998

> <Gold.PLP.Chemscore.CHOScore>
0.0000

> <Gold.PLP.Chemscore.Metal>
0.0000

> <Gold.Chemscore.Hbonds>
donor molecule, donor type, donor heavy atom, donor atom, acceptor molecule, acceptor atom, score
      L1  H     5    26       P1  8029  1.00
      L1  H     8    27       P1  8028  1.00
      L1  H    12    33       P1  7957  0.25
      P1  H  7989  7998       L1    12  0.11
      P1  H  8011  8017       L1    12  0.65

> <Gold.PLP.Chemscore.Internal.Correction>
0.1152

> <Gold.Rescore>
     Score         DG    S(hbond)    S(metal)    S(lipo)     H(rot)  DE(clash)    DE(int)     intcor
     14.75     -15.83       2.11        0.00      78.09       2.27       0.07       1.01       ----

> <Gold.Chemscore.Fitness>
14.7482

> <Gold.Chemscore.DG>
-15.8338

> <Gold.Chemscore.ZeroCoef>
-5.4800

> <Gold.Chemscore.Hbond>
2.1076

> <Gold.Chemscore.Metal>
0.0000

> <Gold.Chemscore.Lipo>
78.0907

> <Gold.Chemscore.Internal_Hbond>
0.0000

> <Gold.Chemscore.DEClash>
0.0743

> <Gold.Chemscore.DEInternal>
1.0112

> <Gold.Chemscore.Rot>
2.2743

> <Gold.Chemscore.Internal.Correction>
   9.000000E+99

> <Gold.Chemscore.Hbonds>
donor molecule, donor type, donor heavy atom, donor atom, acceptor molecule, acceptor atom, score
      L1  H     5    26       P1  8029  0.74
      L1  H     8    27       P1  8028  0.65
      L1  H    12    33       P1  7957  0.25
      P1  H  7989  7998       L1    12  0.08
      P1  H  8011  8017       L1    12  0.08

> <Gold.Chemscore.Hbond.Weighted>
-7.0394

> <Gold.Chemscore.Metal.Weighted>
-0.0000

> <Gold.Chemscore.Lipo.Weighted>
-9.1366

> <Gold.Chemscore.Internal_Hbond.Weighted>
0.0000

> <Gold.Chemscore.DEClash.Weighted>
0.0743

> <Gold.Chemscore.DEInternal.Weighted>
1.0112

> <Gold.Chemscore.Rot.Weighted>
5.8223

> <Gold.Chemscore.Internal.Correction.Weighted>
   9.000000E+99

> <Gold.Protein.RotatedTorsions>
[ 6907 6896 6895 6894 ] final  -15.53 input  -60.11 | X-H torsion
[ 7974 7965 7964 7962 ] final    6.31 input  175.53 | X-H torsion
[ 8008 7997 7996 7995 ] final   10.90 input   59.86 | X-H torsion
[ 10167 10162 10161 10158 ] final -146.38 input  -65.29 | X-H torsion
[ 10718 10713 10712 10709 ] final  130.81 input   66.30 | X-H torsion
[ 10763 10752 10751 10750 ] final -103.70 input  -60.55 | X-H torsion
[ 11005 11000 10999 10996 ] final  141.49 input  -57.11 | X-H torsion

> <Gold.Protein.ActiveResidues>
 VAL166  LYS551  ARG553  GLY616  TRP617  ASP618  TYR619  PRO620  LYS621  CYS622 
 ASP623  PHE694  ASN695  SER759  ASP760  ASP761  ALA762  ILE779  LEU786  VAL792 
 PHE793  MET794  SER795  GLU796  ALA797  LYS798  CYS799  TRP800  GLU811  SER814 

> <Gold.Protein.RotatedAtoms>
  151.3225  135.0822  159.9310 H   0  0  0  0  0  0  0  0  0  0  0  0  # atno 6907 bound_to 6896
  152.5253  133.9624  159.7734 H   0  0  0  0  0  0  0  0  0  0  0  0  # atno 6908 bound_to 6896
  150.9948  133.6061  159.2733 H   0  0  0  0  0  0  0  0  0  0  0  0  # atno 6909 bound_to 6896
  146.2435  140.0253  142.8394 H   0  0  0  0  0  0  0  0  0  0  0  0  # atno 7974 bound_to 7965
  154.7996  140.2850  155.5931 H   0  0  0  0  0  0  0  0  0  0  0  0  # atno 8008 bound_to 7997
  156.2975  140.2589  156.2791 H   0  0  0  0  0  0  0  0  0  0  0  0  # atno 8009 bound_to 7997
  154.9574  140.0378  157.2163 H   0  0  0  0  0  0  0  0  0  0  0  0  # atno 8010 bound_to 7997
  139.7718  143.8226  152.2625 H   0  0  0  0  0  0  0  0  0  0  0  0  # atno 10167 bound_to 10162
  157.5027  131.1094  150.9404 H   0  0  0  0  0  0  0  0  0  0  0  0  # atno 10718 bound_to 10713
  154.7826  135.4813  153.9877 H   0  0  0  0  0  0  0  0  0  0  0  0  # atno 10763 bound_to 10752
  153.1515  135.6792  153.8883 H   0  0  0  0  0  0  0  0  0  0  0  0  # atno 10764 bound_to 10752
  153.8525  135.3165  155.3411 H   0  0  0  0  0  0  0  0  0  0  0  0  # atno 10765 bound_to 10752
  140.0405  134.9307  157.0835 H   0  0  0  0  0  0  0  0  0  0  0  0  # atno 11005 bound_to 11000
  145.1204  140.9459  143.4604 LP  0  0  0  0  0  0  0  0  0  0  0  0  # atno 17320 bound_to 7965
  145.0487  139.3199  143.5939 LP  0  0  0  0  0  0  0  0  0  0  0  0  # atno 17321 bound_to 7965
  139.8263  144.7273  150.9507 LP  0  0  0  0  0  0  0  0  0  0  0  0  # atno 17342 bound_to 10162
  140.7814  143.4111  151.0991 LP  0  0  0  0  0  0  0  0  0  0  0  0  # atno 17343 bound_to 10162
  157.0070  130.5622  149.5317 LP  0  0  0  0  0  0  0  0  0  0  0  0  # atno 17370 bound_to 10713
  156.0239  130.5333  150.8353 LP  0  0  0  0  0  0  0  0  0  0  0  0  # atno 17371 bound_to 10713
  140.4076  134.2015  155.7163 LP  0  0  0  0  0  0  0  0  0  0  0  0  # atno 17394 bound_to 11000
  141.1880  133.8268  157.1009 LP  0  0  0  0  0  0  0  0  0  0  0  0  # atno 17395 bound_to 11000

$$$$
