AV-unprocessed.smi:3038|AV-procd|sdf|11589|dock6
  -GOLD-   2272016563D 1   1.00000     0.00000
 Structure written by MMmdl.
 37 39  0  0  0  0  0  0  0  0  2 V2000
  146.0996  137.2375  155.1803 O   0  0  0  0  0  0  0  0  0  0  0  0
  147.0312  136.7672  154.5284 C   0  0  0  0  0  0  0  0  0  0  0  0
  148.4500  136.7861  155.1003 C   0  0  0  0  0  0  0  0  0  0  0  0
  149.0353  138.1119  155.0186 N   0  0  0  0  0  0  0  0  0  0  0  0
  149.3623  138.8641  153.9656 C   0  0  0  0  0  0  0  0  0  0  0  0
  149.8947  140.0185  154.3369 N   0  0  0  0  0  0  0  0  0  0  0  0
  149.8788  139.9429  155.7196 N   0  0  0  0  0  0  0  0  0  0  0  0
  149.3700  138.8139  156.1301 N   0  0  0  0  0  0  0  0  0  0  0  0
  146.8779  136.2132  153.3147 N   0  0  0  0  0  0  0  0  0  0  0  0
  145.6167  136.1065  152.5892 C   0  0  2  0  0  0  0  0  0  0  0  0
  144.6777  135.0969  153.2751 C   0  0  0  0  0  0  0  0  0  0  0  0
  143.3888  134.8892  152.4577 C   0  0  0  0  0  0  0  0  0  0  0  0
  143.6727  134.4875  151.0559 N   0  3  2  0  0  0  0  0  0  0  0  0
  144.1172  133.0796  150.9267 C   0  0  0  0  0  0  0  0  0  0  0  0
  144.9281  132.8126  149.6799 C   0  0  0  0  0  0  0  0  0  0  0  0
  143.4909  132.3491  149.7616 C   0  0  0  0  0  0  0  0  0  0  0  0
  144.5695  135.4525  150.3690 C   0  0  0  0  0  0  0  0  0  0  0  0
  145.8857  135.6706  151.1394 C   0  0  0  0  0  0  0  0  0  0  0  0
  148.4382  136.4740  156.1455 H   0  0  0  0  0  0  0  0  0  0  0  0
  149.0767  136.0767  154.5577 H   0  0  0  0  0  0  0  0  0  0  0  0
  149.2180  138.5662  152.9376 H   0  0  0  0  0  0  0  0  0  0  0  0
  147.7017  135.8509  152.8556 H   0  0  0  0  0  0  0  0  0  0  0  0
  145.1306  137.0839  152.5648 H   0  0  0  0  0  0  0  0  0  0  0  0
  145.1889  134.1425  153.4083 H   0  0  0  0  0  0  0  0  0  0  0  0
  144.4201  135.4456  154.2759 H   0  0  0  0  0  0  0  0  0  0  0  0
  142.7503  134.1461  152.9368 H   0  0  0  0  0  0  0  0  0  0  0  0
  142.8172  135.8179  152.4401 H   0  0  0  0  0  0  0  0  0  0  0  0
  144.3400  132.5477  151.8495 H   0  0  0  0  0  0  0  0  0  0  0  0
  145.1481  133.6480  149.0175 H   0  0  0  0  0  0  0  0  0  0  0  0
  145.7013  132.0491  149.7376 H   0  0  0  0  0  0  0  0  0  0  0  0
  143.3182  131.2806  149.8732 H   0  0  0  0  0  0  0  0  0  0  0  0
  142.7586  132.8773  149.1534 H   0  0  0  0  0  0  0  0  0  0  0  0
  144.7748  135.1126  149.3533 H   0  0  0  0  0  0  0  0  0  0  0  0
  144.0429  136.4030  150.2734 H   0  0  0  0  0  0  0  0  0  0  0  0
  146.4860  136.4257  150.6300 H   0  0  0  0  0  0  0  0  0  0  0  0
  146.4773  134.7541  151.1278 H   0  0  0  0  0  0  0  0  0  0  0  0
  142.7889  134.5314  150.5686 H   0  0  0  0  0  0  0  0  0  0  0  0
  1  2  2  0  0  0  0
  2  3  1  0  0  0  0
  2  9  1  0  0  0  0
  3  4  1  0  0  0  0
  3 19  1  0  0  0  0
  3 20  1  0  0  0  0
  4  8  1  0  0  0  0
  4  5  1  0  0  0  0
  5  6  2  0  0  0  0
  5 21  1  0  0  0  0
  6  7  1  0  0  0  0
  7  8  2  0  0  0  0
  9 10  1  0  0  0  0
  9 22  1  0  0  0  0
 10 18  1  0  0  0  0
 10 11  1  0  0  0  0
 10 23  1  0  0  0  0
 11 12  1  0  0  0  0
 11 24  1  0  0  0  0
 11 25  1  0  0  0  0
 12 13  1  0  0  0  0
 12 26  1  0  0  0  0
 12 27  1  0  0  0  0
 13 14  1  0  0  0  0
 13 17  1  0  0  0  0
 13 37  1  0  0  0  0
 14 16  1  0  0  0  0
 14 15  1  0  0  0  0
 14 28  1  0  0  0  0
 15 16  1  0  0  0  0
 15 29  1  0  0  0  0
 15 30  1  0  0  0  0
 16 31  1  0  0  0  0
 16 32  1  0  0  0  0
 17 18  1  0  0  0  0
 17 33  1  0  0  0  0
 17 34  1  0  0  0  0
 18 35  1  0  0  0  0
 18 36  1  0  0  0  0
M  CHG  1  13   1
M  END
> <s_m_source_file>
AV-unprocessed.smi

> <i_m_source_file_index>
3038

> <i_lp_mmshare_version>
43012

> <i_f3d_flags>
0

> <s_epik_input>
bjFubltjSF1uMVtDSDJdQyg9TylbTkhdW0NIXTJbQ0gyXVtDSDJdTihbQ0gyXVtDSDJdMilbQ0hdM1tDSDJdW0NIMl0z

> <s_epik_cmdline>
J2VwaWtfcHl0aG9uJywgJy1waCcsICc3LjAnLCAnLXRuJywgJzgnLCAnLW1hJywgJzIwMCcsICctbWV0YWxfYmluZGluZycsICctaW1hZScsICc8aW5maWxlLm1hZT4nLCAnLW9tYWUnLCAnPG91dGZpbGUubWFlPic=

> <r_lp_tautomer_probability>
1

> <r_epik_Ionization_Penalty>
0.284275

> <r_epik_Ionization_Penalty_Charging>
0.284273

> <r_epik_Ionization_Penalty_Neutral>
2.31262e-06

> <r_epik_State_Penalty>
0.277002

> <r_epik_Charging_Adjusted_Penalty>
0.561274

> <i_epik_Tot_Q>
1

> <i_epik_Tot_abs_Q>
1

> <r_epik_Metal_State_Penalty>
0.277002

> <b_epik_Metal_Only>
0

> <s_lp_Force_Field>
OPLS_2005

> <r_lp_Energy>
29.3434

> <b_lp_Chiralities_Consistent>
1

> <s_lp_Variant>
AV-unprocessed.smi:3038-2

> <Gold.Version>
5.8.1

> <Gold.Id.Protein>
6NUR|6NUR_protein|mol2

> <Gold.PLP.Fitness>
38.7353

> <Gold.PLP.PLP>
-22.8585

> <Gold.PLP.part.hbond>
-2.8575

> <Gold.PLP.part.metal>
0.0000

> <Gold.PLP.part.buried>
0.7741

> <Gold.PLP.part.nonpolar>
-20.4397

> <Gold.PLP.part.repulsive>
0.1875

> <Gold.PLP.ligand.clash>
0.0000

> <Gold.PLP.ligand.torsion>
1.1834

> <Gold.PLP.Chemscore.Hbond>
3.8296

> <Gold.PLP.Chemscore.CHOScore>
1.8280

> <Gold.PLP.Chemscore.Metal>
0.0000

> <Gold.Chemscore.Hbonds>
donor molecule, donor type, donor heavy atom, donor atom, acceptor molecule, acceptor atom, score
      L1  H     9    22       P1  7948  0.91
      L1  H    13    37       P1 10186  1.92
      P1  H  7989  7998       L1     6  0.82
      L1  C     5    21       P1  7948  0.96
      L1  C     5    21       P1  7957  0.85

> <Gold.PLP.Chemscore.Internal.Correction>
1.2709

> <Gold.Rescore>
     Score         DG    S(hbond)    S(metal)    S(lipo)     H(rot)  DE(clash)    DE(int)     intcor
     11.03     -12.50       1.87        0.00      55.81       2.25       0.26       1.21       ----

> <Gold.Chemscore.Fitness>
11.0284

> <Gold.Chemscore.DG>
-12.5048

> <Gold.Chemscore.ZeroCoef>
-5.4800

> <Gold.Chemscore.Hbond>
1.8749

> <Gold.Chemscore.Metal>
0.0000

> <Gold.Chemscore.Lipo>
55.8122

> <Gold.Chemscore.Internal_Hbond>
0.0000

> <Gold.Chemscore.DEClash>
0.2633

> <Gold.Chemscore.DEInternal>
1.2131

> <Gold.Chemscore.Rot>
2.2528

> <Gold.Chemscore.Internal.Correction>
   9.000000E+99

> <Gold.Chemscore.Hbonds>
donor molecule, donor type, donor heavy atom, donor atom, acceptor molecule, acceptor atom, score
      L1  H     9    22       P1  7948  0.88
      L1  H    13    37       P1 10186  0.36
      P1  H  7989  7998       L1     6  0.69

> <Gold.Chemscore.Hbond.Weighted>
-6.2620

> <Gold.Chemscore.Metal.Weighted>
-0.0000

> <Gold.Chemscore.Lipo.Weighted>
-6.5300

> <Gold.Chemscore.Internal_Hbond.Weighted>
0.0000

> <Gold.Chemscore.DEClash.Weighted>
0.2633

> <Gold.Chemscore.DEInternal.Weighted>
1.2131

> <Gold.Chemscore.Rot.Weighted>
5.7672

> <Gold.Chemscore.Internal.Correction.Weighted>
   9.000000E+99

> <Gold.Protein.RotatedTorsions>
[ 6907 6896 6895 6894 ] final  -96.26 input  -60.11 | X-H torsion
[ 7974 7965 7964 7962 ] final -168.35 input  175.53 | X-H torsion
[ 8008 7997 7996 7995 ] final   84.30 input   59.86 | X-H torsion
[ 10167 10162 10161 10158 ] final -100.65 input  -65.29 | X-H torsion
[ 10718 10713 10712 10709 ] final -101.91 input   66.30 | X-H torsion
[ 10763 10752 10751 10750 ] final   45.55 input  -60.55 | X-H torsion
[ 11005 11000 10999 10996 ] final   94.27 input  -57.11 | X-H torsion

> <Gold.Protein.ActiveResidues>
 VAL166  LYS551  ARG553  GLY616  TRP617  ASP618  TYR619  PRO620  LYS621  CYS622 
 ASP623  PHE694  ASN695  SER759  ASP760  ASP761  ALA762  ILE779  LEU786  VAL792 
 PHE793  MET794  SER795  GLU796  ALA797  LYS798  CYS799  TRP800  GLU811  SER814 

> <Gold.Protein.RotatedAtoms>
  150.6984  134.1530  159.4147 H   0  0  0  0  0  0  0  0  0  0  0  0  # atno 6907 bound_to 6896
  151.9512  135.0166  160.0551 H   0  0  0  0  0  0  0  0  0  0  0  0  # atno 6908 bound_to 6896
  152.2009  133.4805  159.5095 H   0  0  0  0  0  0  0  0  0  0  0  0  # atno 6909 bound_to 6896
  144.7205  140.2383  143.6295 H   0  0  0  0  0  0  0  0  0  0  0  0  # atno 7974 bound_to 7965
  155.9353  140.3412  155.6282 H   0  0  0  0  0  0  0  0  0  0  0  0  # atno 8008 bound_to 7997
  155.7107  140.0771  157.2390 H   0  0  0  0  0  0  0  0  0  0  0  0  # atno 8009 bound_to 7997
  154.4092  140.1623  156.2281 H   0  0  0  0  0  0  0  0  0  0  0  0  # atno 8010 bound_to 7997
  140.2496  143.3482  152.0727 H   0  0  0  0  0  0  0  0  0  0  0  0  # atno 10167 bound_to 10162
  156.0210  130.5395  150.7031 H   0  0  0  0  0  0  0  0  0  0  0  0  # atno 10718 bound_to 10713
  152.9823  135.6036  154.3454 H   0  0  0  0  0  0  0  0  0  0  0  0  # atno 10763 bound_to 10752
  154.3148  135.2770  155.2550 H   0  0  0  0  0  0  0  0  0  0  0  0  # atno 10764 bound_to 10752
  154.4743  135.5933  153.6400 H   0  0  0  0  0  0  0  0  0  0  0  0  # atno 10765 bound_to 10752
  139.8800  134.8836  156.3839 H   0  0  0  0  0  0  0  0  0  0  0  0  # atno 11005 bound_to 11000
  145.8344  139.2101  143.1864 LP  0  0  0  0  0  0  0  0  0  0  0  0  # atno 17320 bound_to 7965
  146.0402  140.8172  142.9832 LP  0  0  0  0  0  0  0  0  0  0  0  0  # atno 17321 bound_to 7965
  139.5050  144.6787  151.6063 LP  0  0  0  0  0  0  0  0  0  0  0  0  # atno 17342 bound_to 10162
  140.6051  143.9539  150.6413 LP  0  0  0  0  0  0  0  0  0  0  0  0  # atno 17343 bound_to 10162
  157.4687  131.0891  151.0667 LP  0  0  0  0  0  0  0  0  0  0  0  0  # atno 17370 bound_to 10713
  157.1133  130.6031  149.5487 LP  0  0  0  0  0  0  0  0  0  0  0  0  # atno 17371 bound_to 10713
  140.9379  133.7534  156.0109 LP  0  0  0  0  0  0  0  0  0  0  0  0  # atno 17394 bound_to 11000
  140.8254  134.3241  157.5367 LP  0  0  0  0  0  0  0  0  0  0  0  0  # atno 17395 bound_to 11000

$$$$
