AV-unprocessed.smi:1949|AV-procd|sdf|7878|dock10
  -GOLD-   2272010 33D 1   1.00000     0.00000
 Structure written by MMmdl.
 28 29  0  0  0  0  0  0  0  0  2 V2000
  149.1130  141.2916  153.8729 C   0  0  0  0  0  0  0  0  0  0  0  0
  149.7714  140.9739  155.1715 C   0  0  0  0  0  0  0  0  0  0  0  0
  149.4805  141.6177  156.3046 N   0  0  0  0  0  0  0  0  0  0  0  0
  150.2213  141.1460  157.3786 N   0  0  0  0  0  0  0  0  0  0  0  0
  151.0498  140.1453  157.0470 C   0  0  0  0  0  0  0  0  0  0  0  0
  151.8509  139.5399  157.9434 N   0  5  0  0  0  0  0  0  0  0  0  0
  152.7312  140.2266  158.7188 C   0  0  0  0  0  0  0  0  0  0  0  0
  153.7787  139.7400  159.1429 O   0  0  0  0  0  0  0  0  0  0  0  0
  152.4332  141.5033  159.0297 N   0  0  0  0  0  0  0  0  0  0  0  0
  153.2383  142.4056  159.8492 C   0  0  0  0  0  0  0  0  0  0  0  0
  153.2999  141.9040  161.3055 C   0  0  0  0  0  0  0  0  0  0  0  0
  152.9191  143.0965  162.1857 C   0  0  0  0  0  0  0  0  0  0  0  0
  152.0092  143.9454  161.3040 C   0  0  0  0  0  0  0  0  0  0  0  0
  152.6202  143.8166  159.9092 C   0  0  0  0  0  0  0  0  0  0  0  0
  150.9899  139.7209  155.3365 S   0  0  0  0  0  0  0  0  0  0  0  0
  148.0803  140.9426  153.8835 H   0  0  0  0  0  0  0  0  0  0  0  0
  149.6389  140.8042  153.0518 H   0  0  0  0  0  0  0  0  0  0  0  0
  149.1193  142.3680  153.7007 H   0  0  0  0  0  0  0  0  0  0  0  0
  151.5723  141.8785  158.6595 H   0  0  0  0  0  0  0  0  0  0  0  0
  154.2485  142.4642  159.4399 H   0  0  0  0  0  0  0  0  0  0  0  0
  152.5809  141.0989  161.4672 H   0  0  0  0  0  0  0  0  0  0  0  0
  154.2838  141.5098  161.5619 H   0  0  0  0  0  0  0  0  0  0  0  0
  152.4385  142.7942  163.1167 H   0  0  0  0  0  0  0  0  0  0  0  0
  153.8144  143.6648  162.4415 H   0  0  0  0  0  0  0  0  0  0  0  0
  151.0018  143.5272  161.3036 H   0  0  0  0  0  0  0  0  0  0  0  0
  151.9426  144.9806  161.6398 H   0  0  0  0  0  0  0  0  0  0  0  0
  153.4121  144.5579  159.7956 H   0  0  0  0  0  0  0  0  0  0  0  0
  151.8894  144.0075  159.1221 H   0  0  0  0  0  0  0  0  0  0  0  0
  1  2  1  0  0  0  0
  1 16  1  0  0  0  0
  1 17  1  0  0  0  0
  1 18  1  0  0  0  0
  2 15  1  0  0  0  0
  2  3  2  0  0  0  0
  3  4  1  0  0  0  0
  4  5  2  0  0  0  0
  5  6  1  0  0  0  0
  5 15  1  0  0  0  0
  6  7  1  0  0  0  0
  7  8  2  0  0  0  0
  7  9  1  0  0  0  0
  9 10  1  0  0  0  0
  9 19  1  0  0  0  0
 10 14  1  0  0  0  0
 10 11  1  0  0  0  0
 10 20  1  0  0  0  0
 11 12  1  0  0  0  0
 11 21  1  0  0  0  0
 11 22  1  0  0  0  0
 12 13  1  0  0  0  0
 12 23  1  0  0  0  0
 12 24  1  0  0  0  0
 13 14  1  0  0  0  0
 13 25  1  0  0  0  0
 13 26  1  0  0  0  0
 14 27  1  0  0  0  0
 14 28  1  0  0  0  0
M  CHG  1   6  -1
M  END
> <s_m_source_file>
AV-unprocessed.smi

> <i_m_source_file_index>
1949

> <i_lp_mmshare_version>
43012

> <i_f3d_flags>
0

> <s_epik_input>
W0NIM11jMW5uYyhzMSlbTkhdQyg9TylbTkhdW0NIXTJbQ0gyXVtDSDJdW0NIMl1bQ0gyXTI=

> <s_epik_cmdline>
J2VwaWtfcHl0aG9uJywgJy1waCcsICc3LjAnLCAnLXRuJywgJzgnLCAnLW1hJywgJzIwMCcsICctbWV0YWxfYmluZGluZycsICctaW1hZScsICc8aW5maWxlLm1hZT4nLCAnLW9tYWUnLCAnPG91dGZpbGUubWFlPic=

> <r_lp_tautomer_probability>
1

> <r_epik_Ionization_Penalty>
4.54091

> <r_epik_Ionization_Penalty_Charging>
4.38642

> <r_epik_Ionization_Penalty_Neutral>
0.154484

> <r_epik_State_Penalty>
4.38606

> <r_epik_Charging_Adjusted_Penalty>
8.77248

> <i_epik_Tot_Q>
-1

> <i_epik_Tot_abs_Q>
1

> <r_epik_Metal_State_Penalty>
0.765318

> <b_epik_Metal_Only>
1

> <s_lp_Force_Field>
OPLS_2005

> <r_lp_Energy>
17.692

> <b_lp_Chiralities_Consistent>
1

> <s_lp_Variant>
AV-unprocessed.smi:1949-2

> <Gold.Version>
5.8.1

> <Gold.Id.Protein>
6NUR|6NUR_protein|mol2

> <Gold.PLP.Fitness>
34.8621

> <Gold.PLP.PLP>
-33.2631

> <Gold.PLP.part.hbond>
-1.0000

> <Gold.PLP.part.metal>
0.0000

> <Gold.PLP.part.buried>
-2.7818

> <Gold.PLP.part.nonpolar>
-28.7893

> <Gold.PLP.part.repulsive>
0.2495

> <Gold.PLP.ligand.clash>
0.0000

> <Gold.PLP.ligand.torsion>
0.7018

> <Gold.PLP.Chemscore.Hbond>
1.0000

> <Gold.PLP.Chemscore.CHOScore>
0.0000

> <Gold.PLP.Chemscore.Metal>
0.0000

> <Gold.Chemscore.Hbonds>
donor molecule, donor type, donor heavy atom, donor atom, acceptor molecule, acceptor atom, score
      P1  H  7997  8008       L1     8  0.40

> <Gold.PLP.Chemscore.Internal.Correction>
0.0027

> <Gold.Rescore>
     Score         DG    S(hbond)    S(metal)    S(lipo)     H(rot)  DE(clash)    DE(int)     intcor
     14.69     -15.53       0.95        0.00      80.66       1.00       0.02       0.82       ----

> <Gold.Chemscore.Fitness>
14.6872

> <Gold.Chemscore.DG>
-15.5299

> <Gold.Chemscore.ZeroCoef>
-5.4800

> <Gold.Chemscore.Hbond>
0.9498

> <Gold.Chemscore.Metal>
0.0000

> <Gold.Chemscore.Lipo>
80.6622

> <Gold.Chemscore.Internal_Hbond>
0.0000

> <Gold.Chemscore.DEClash>
0.0233

> <Gold.Chemscore.DEInternal>
0.8194

> <Gold.Chemscore.Rot>
1.0000

> <Gold.Chemscore.Internal.Correction>
   9.000000E+99

> <Gold.Chemscore.Hbonds>
donor molecule, donor type, donor heavy atom, donor atom, acceptor molecule, acceptor atom, score
      P1  H  7997  8008       L1     8  0.04

> <Gold.Chemscore.Hbond.Weighted>
-3.1724

> <Gold.Chemscore.Metal.Weighted>
-0.0000

> <Gold.Chemscore.Lipo.Weighted>
-9.4375

> <Gold.Chemscore.Internal_Hbond.Weighted>
0.0000

> <Gold.Chemscore.DEClash.Weighted>
0.0233

> <Gold.Chemscore.DEInternal.Weighted>
0.8194

> <Gold.Chemscore.Rot.Weighted>
2.5600

> <Gold.Chemscore.Internal.Correction.Weighted>
   9.000000E+99

> <Gold.Protein.RotatedTorsions>
[ 6907 6896 6895 6894 ] final  119.44 input  -60.11 | X-H torsion
[ 7974 7965 7964 7962 ] final   55.19 input  175.53 | X-H torsion
[ 8008 7997 7996 7995 ] final -105.44 input   59.86 | X-H torsion
[ 10167 10162 10161 10158 ] final -167.69 input  -65.29 | X-H torsion
[ 10718 10713 10712 10709 ] final  -99.67 input   66.30 | X-H torsion
[ 10763 10752 10751 10750 ] final   -1.59 input  -60.55 | X-H torsion
[ 11005 11000 10999 10996 ] final -151.54 input  -57.11 | X-H torsion

> <Gold.Protein.ActiveResidues>
 VAL166  LYS551  ARG553  GLY616  TRP617  ASP618  TYR619  PRO620  LYS621  CYS622 
 ASP623  PHE694  ASN695  SER759  ASP760  ASP761  ALA762  ILE779  LEU786  VAL792 
 PHE793  MET794  SER795  GLU796  ALA797  LYS798  CYS799  TRP800  GLU811  SER814 

> <Gold.Protein.RotatedAtoms>
  152.4472  133.7558  159.6719 H   0  0  0  0  0  0  0  0  0  0  0  0  # atno 6907 bound_to 6896
  150.8374  133.7981  159.3080 H   0  0  0  0  0  0  0  0  0  0  0  0  # atno 6908 bound_to 6896
  151.5616  135.1068  160.0026 H   0  0  0  0  0  0  0  0  0  0  0  0  # atno 6909 bound_to 6896
  145.9530  139.3989  143.0295 H   0  0  0  0  0  0  0  0  0  0  0  0  # atno 7974 bound_to 7965
  154.8999  140.0413  157.1887 H   0  0  0  0  0  0  0  0  0  0  0  0  # atno 8008 bound_to 7997
  154.8454  140.2921  155.5611 H   0  0  0  0  0  0  0  0  0  0  0  0  # atno 8009 bound_to 7997
  156.2994  140.2475  156.3404 H   0  0  0  0  0  0  0  0  0  0  0  0  # atno 8010 bound_to 7997
  139.6033  144.0965  152.1766 H   0  0  0  0  0  0  0  0  0  0  0  0  # atno 10167 bound_to 10162
  156.0141  130.5293  150.6705 H   0  0  0  0  0  0  0  0  0  0  0  0  # atno 10718 bound_to 10713
  153.3469  135.6983  153.6821 H   0  0  0  0  0  0  0  0  0  0  0  0  # atno 10763 bound_to 10752
  153.5563  135.3543  155.2781 H   0  0  0  0  0  0  0  0  0  0  0  0  # atno 10764 bound_to 10752
  154.8646  135.4238  154.2695 H   0  0  0  0  0  0  0  0  0  0  0  0  # atno 10765 bound_to 10752
  140.7284  134.3648  157.5171 H   0  0  0  0  0  0  0  0  0  0  0  0  # atno 11005 bound_to 11000
  145.8145  140.9709  143.0931 LP  0  0  0  0  0  0  0  0  0  0  0  0  # atno 17320 bound_to 7965
  144.6799  139.9964  143.7484 LP  0  0  0  0  0  0  0  0  0  0  0  0  # atno 17321 bound_to 7965
  140.0567  144.5890  150.7294 LP  0  0  0  0  0  0  0  0  0  0  0  0  # atno 17342 bound_to 10162
  140.7266  143.2643  151.4099 LP  0  0  0  0  0  0  0  0  0  0  0  0  # atno 17343 bound_to 10162
  157.4428  131.0863  151.0926 LP  0  0  0  0  0  0  0  0  0  0  0  0  # atno 17370 bound_to 10713
  157.1464  130.6165  149.5570 LP  0  0  0  0  0  0  0  0  0  0  0  0  # atno 17371 bound_to 10713
  139.8832  134.9002  156.2783 LP  0  0  0  0  0  0  0  0  0  0  0  0  # atno 17394 bound_to 11000
  140.9942  133.7190  156.0860 LP  0  0  0  0  0  0  0  0  0  0  0  0  # atno 17395 bound_to 11000

$$$$
