#       Name:                AV-unprocessed.smi:752
#       Creating user name   scv26
#       Creation time:       Fri Mar 27 00:59:11 2020


#       File generated by GOLD software.
#

@<TRIPOS>MOLECULE
AV-unprocessed.smi:752
    46    47     1
SMALL
NO_CHARGES


@<TRIPOS>ATOM
      1 ****        -3.9619   2.8638  -1.3179 C.3            1 S1                 0.0000
      2 ****        -2.5084   2.3918  -1.2073 C.3            1 S1                 0.0000
      3 ****        -2.1151   2.0710   0.1956 C.2            1 S1                 0.0000
      4 ****        -2.2947   0.8715   0.7544 N.2            1 S1                 0.0000
      5 ****        -1.8547   0.8227   2.0822 C.2            1 S1                 0.0000
      6 ****        -1.9246  -0.4660   2.8505 C.3            1 S1                 0.0000
      7 ****        -0.6496  -1.2699   2.5958 C.2            1 S1                 0.0000
      8 ****         0.2612  -1.2611   3.4237 O.2            1 S1                 0.0000
      9 ****        -0.5855  -1.9179   1.4220 N.am           1 S1                 0.0000
     10 ****         0.6051  -2.5463   0.8605 C.3            1 S1                 0.0000
     11 ****         1.1357  -1.7511  -0.3511 C.3            1 S1                 0.0000
     12 ****         2.3284  -2.4755  -1.0075 C.3            1 S1                 0.0000
     13 ****         2.8565  -1.7110  -2.2329 C.3            1 S1                 0.0000
     14 ****         3.2369  -0.2678  -1.8690 C.3            1 S1                 0.0000
     15 ****         2.0501   0.4651  -1.2226 C.3            1 S1                 0.0000
     16 ****         2.4499   1.7624  -0.8344 O.3            1 S1                 0.0000
     17 ****         1.5291  -0.2989   0.0064 C.3            1 S1                 0.0000
     18 ****        -1.3662   2.0244   2.5325 C.2            1 S1                 0.0000
     19 ****        -1.4231   3.2536   1.2996 S.3            1 S1                 0.0000
     20 ****        -4.2193   3.0902  -2.3526 H              1 S1                 0.0000
     21 ****        -4.1286   3.7653  -0.7279 H              1 S1                 0.0000
     22 ****        -4.6518   2.0979  -0.9624 H              1 S1                 0.0000
     23 ****        -2.3548   1.5078  -1.8274 H              1 S1                 0.0000
     24 ****        -1.8377   3.1613  -1.5903 H              1 S1                 0.0000
     25 ****        -2.0264  -0.2746   3.9194 H              1 S1                 0.0000
     26 ****        -2.7950  -1.0535   2.5549 H              1 S1                 0.0000
     27 ****        -1.3946  -1.8700   0.8198 H              1 S1                 0.0000
     28 ****         1.3893  -2.6606   1.6108 H              1 S1                 0.0000
     29 ****         0.3310  -3.5547   0.5495 H              1 S1                 0.0000
     30 ****         0.3328  -1.7038  -1.0887 H              1 S1                 0.0000
     31 ****         3.1325  -2.5942  -0.2802 H              1 S1                 0.0000
     32 ****         2.0342  -3.4818  -1.3077 H              1 S1                 0.0000
     33 ****         3.7210  -2.2287  -2.6492 H              1 S1                 0.0000
     34 ****         2.0957  -1.7028  -3.0144 H              1 S1                 0.0000
     35 ****         4.0848  -0.2790  -1.1824 H              1 S1                 0.0000
     36 ****         3.5669   0.2643  -2.7620 H              1 S1                 0.0000
     37 ****         1.2456   0.5671  -1.9521 H              1 S1                 0.0000
     38 ****         1.7072   2.2031  -0.4506 H              1 S1                 0.0000
     39 ****         0.6743   0.2391   0.4162 H              1 S1                 0.0000
     40 ****         2.2904  -0.3098   0.7881 H              1 S1                 0.0000
     41 ****        -0.9661   2.2560   3.5086 H              1 S1                 0.0000
     42 ****        -2.6998   0.0924   0.2759 LP             1 S1                 0.0000
     43 ****         0.1677  -0.7276   4.2643 LP             1 S1                 0.0000
     44 ****         1.0947  -1.7875   3.2557 LP             1 S1                 0.0000
     45 ****         2.7673   2.2711  -1.6347 LP             1 S1                 0.0000
     46 ****         3.1891   1.7010  -0.1638 LP             1 S1                 0.0000
@<TRIPOS>BOND
    1    1    2 1     
    2    1   20 1     
    3    1   21 1     
    4    1   22 1     
    5    2    3 1     
    6    2   23 1     
    7    2   24 1     
    8    3   19 1     
    9    3    4 2     
   10    4    5 1     
   11    5    6 1     
   12    5   18 2     
   13    6    7 1     
   14    6   25 1     
   15    6   26 1     
   16    7    8 2     
   17    7    9 am    
   18    9   10 1     
   19    9   27 1     
   20   10   11 1     
   21   10   28 1     
   22   10   29 1     
   23   11   17 1     
   24   11   12 1     
   25   11   30 1     
   26   12   13 1     
   27   12   31 1     
   28   12   32 1     
   29   13   14 1     
   30   13   33 1     
   31   13   34 1     
   32   14   15 1     
   33   14   35 1     
   34   14   36 1     
   35   15   16 1     
   36   15   17 1     
   37   15   37 1     
   38   16   38 1     
   39   17   39 1     
   40   17   40 1     
   41   18   19 1     
   42   18   41 1     
   43    4   42 1     
   44    8   43 1     
   45    8   44 1     
   46   16   45 1     
   47   16   46 1     
@<TRIPOS>SUBSTRUCTURE
      1 S1             1
@<TRIPOS>SET
LONE_PAIRS      STATIC     ATOMS    <user>   **** ""
5 42 43 44 45 46
DONOR_HYDROGENS      STATIC     ATOMS    <user>   **** ""
2 27 38
ATOM$BLUE        STATIC     ATOMS    COLORGROUP SYSTEM
5 42 43 44 45 46
ATOM$RED        STATIC     ATOMS    COLORGROUP SYSTEM
2 27 38
