AV-unprocessed.smi:261|AV-procd|sdf|1985|dock5
  -GOLD-   2262021163D 1   1.00000     0.00000
 Structure written by MMmdl.
 51 54  0  0  0  0  0  0  0  0  1 V2000
  151.8482  145.1175  160.5580 C   0  0  0  0  0  0  0  0  0  0  0  0
  151.5276  144.4290  159.3603 O   0  0  0  0  0  0  0  0  0  0  0  0
  152.3638  143.3084  159.1124 C   0  0  1  0  0  0  0  0  0  0  0  0
  152.5403  142.4001  160.3304 C   0  0  0  0  0  0  0  0  0  0  0  0
  152.8659  141.0158  159.7372 C   0  0  2  0  0  0  0  0  0  0  0  0
  154.3770  140.7374  159.7201 C   0  0  0  0  0  0  0  0  0  0  0  0
  155.1345  141.4810  160.5298 N   0  0  0  0  0  0  0  0  0  0  0  0
  154.8598  139.8815  158.9799 O   0  0  0  0  0  0  0  0  0  0  0  0
  152.3377  141.0649  158.3708 N   0  0  0  0  0  0  0  0  0  0  0  0
  151.6587  139.9819  157.9361 C   0  0  0  0  0  0  0  0  0  0  0  0
  151.5157  138.8984  158.7438 N   0  0  0  0  0  0  0  0  0  0  0  0
  150.8457  137.8271  158.3069 C   0  0  0  0  0  0  0  0  0  0  0  0
  150.2541  137.6360  157.1248 N   0  0  0  0  0  0  0  0  0  0  0  0
  150.3981  138.7262  156.3171 C   0  0  0  0  0  0  0  0  0  0  0  0
  151.0793  139.9314  156.6427 C   0  0  0  0  0  0  0  0  0  0  0  0
  151.0218  140.8178  155.5750 N   0  0  0  0  0  0  0  0  0  0  0  0
  150.3444  140.1709  154.6654 C   0  0  0  0  0  0  0  0  0  0  0  0
  149.9322  138.9077  155.0278 N   0  0  0  0  0  0  0  0  0  0  0  0
  149.1729  137.9710  154.2197 C   0  0  0  0  0  0  0  0  0  0  0  0
  147.7198  137.8202  154.7092 C   0  0  2  0  0  0  0  0  0  0  0  0
  147.0084  136.9165  153.8848 O   0  0  0  0  0  0  0  0  0  0  0  0
  146.9785  139.1691  154.8012 C   0  0  2  0  0  0  0  0  0  0  0  0
  146.9362  140.0141  153.5252 C   0  0  0  0  0  0  0  0  0  0  0  0
  146.6899  141.3929  154.0957 C   0  0  0  0  0  0  0  0  0  0  0  0
  147.5387  141.3625  155.3648 C   0  0  0  0  0  0  0  0  0  0  0  0
  147.5249  140.0100  155.8148 O   0  0  0  0  0  0  0  0  0  0  0  0
  151.7144  142.3556  158.1142 C   0  0  0  0  0  0  0  0  0  0  0  0
  153.3369  143.6218  158.7288 H   0  0  0  0  0  0  0  0  0  0  0  0
  152.3772  140.2418  160.3328 H   0  0  0  0  0  0  0  0  0  0  0  0
  151.1877  145.9770  160.6713 H   0  0  0  0  0  0  0  0  0  0  0  0
  152.8753  145.4847  160.5389 H   0  0  0  0  0  0  0  0  0  0  0  0
  151.7200  144.4809  161.4339 H   0  0  0  0  0  0  0  0  0  0  0  0
  153.2992  142.7689  161.0220 H   0  0  0  0  0  0  0  0  0  0  0  0
  151.6007  142.3410  160.8819 H   0  0  0  0  0  0  0  0  0  0  0  0
  156.1340  141.3407  160.5560 H   0  0  0  0  0  0  0  0  0  0  0  0
  154.7032  142.1839  161.1123 H   0  0  0  0  0  0  0  0  0  0  0  0
  150.7731  137.0053  159.0039 H   0  0  0  0  0  0  0  0  0  0  0  0
  150.1290  140.5985  153.6969 H   0  0  0  0  0  0  0  0  0  0  0  0
  149.1881  138.3227  153.1873 H   0  0  0  0  0  0  0  0  0  0  0  0
  149.6852  137.0080  154.2295 H   0  0  0  0  0  0  0  0  0  0  0  0
  147.7349  137.3810  155.7075 H   0  0  0  0  0  0  0  0  0  0  0  0
  147.6027  136.5786  153.2322 H   0  0  0  0  0  0  0  0  0  0  0  0
  145.9479  138.9721  155.1018 H   0  0  0  0  0  0  0  0  0  0  0  0
  147.8922  140.0026  153.0010 H   0  0  0  0  0  0  0  0  0  0  0  0
  146.1613  139.6935  152.8285 H   0  0  0  0  0  0  0  0  0  0  0  0
  146.9693  142.1967  153.4141 H   0  0  0  0  0  0  0  0  0  0  0  0
  145.6356  141.5104  154.3505 H   0  0  0  0  0  0  0  0  0  0  0  0
  148.5689  141.6400  155.1385 H   0  0  0  0  0  0  0  0  0  0  0  0
  147.1661  142.0420  156.1318 H   0  0  0  0  0  0  0  0  0  0  0  0
  150.6368  142.3055  158.2814 H   0  0  0  0  0  0  0  0  0  0  0  0
  151.8813  142.6772  157.0857 H   0  0  0  0  0  0  0  0  0  0  0  0
  1  2  1  0  0  0  0
  1 30  1  0  0  0  0
  1 31  1  0  0  0  0
  1 32  1  0  0  0  0
  2  3  1  0  0  0  0
  3 28  1  0  0  0  0
  3 27  1  0  0  0  0
  3  4  1  0  0  0  0
  4  5  1  0  0  0  0
  4 33  1  0  0  0  0
  4 34  1  0  0  0  0
  5 29  1  0  0  0  0
  5  6  1  0  0  0  0
  5  9  1  0  0  0  0
  6  7  1  0  0  0  0
  6  8  2  0  0  0  0
  7 35  1  0  0  0  0
  7 36  1  0  0  0  0
  9 10  1  0  0  0  0
  9 27  1  0  0  0  0
 10 15  1  0  0  0  0
 10 11  2  0  0  0  0
 11 12  1  0  0  0  0
 12 13  2  0  0  0  0
 12 37  1  0  0  0  0
 13 14  1  0  0  0  0
 14 18  1  0  0  0  0
 14 15  2  0  0  0  0
 15 16  1  0  0  0  0
 16 17  2  0  0  0  0
 17 18  1  0  0  0  0
 17 38  1  0  0  0  0
 18 19  1  0  0  0  0
 19 20  1  0  0  0  0
 19 39  1  0  0  0  0
 19 40  1  0  0  0  0
 20 21  1  0  0  0  0
 20 22  1  0  0  0  0
 20 41  1  0  0  0  0
 21 42  1  0  0  0  0
 22 26  1  0  0  0  0
 22 23  1  0  0  0  0
 22 43  1  0  0  0  0
 23 24  1  0  0  0  0
 23 44  1  0  0  0  0
 23 45  1  0  0  0  0
 24 25  1  0  0  0  0
 24 46  1  0  0  0  0
 24 47  1  0  0  0  0
 25 26  1  0  0  0  0
 25 48  1  0  0  0  0
 25 49  1  0  0  0  0
 27 50  1  0  0  0  0
 27 51  1  0  0  0  0
M  END
> <s_m_source_file>
AV-unprocessed.smi

> <i_m_source_file_index>
261

> <i_lp_mmshare_version>
43012

> <i_f3d_flags>
0

> <s_epik_input>
W0NIM11PW0NASF0xW0NIMl1bQ0BASF0oQyg9TylbTkgyXSlOKFtDSDJdMSljKG5bY0hdbjIpYyhjMjMpbltjSF1uM1tDSDJdW0NASF0oW09IXSlbQ0BASF00W0NIMl1bQ0gyXVtDSDJdTzQ=

> <s_epik_cmdline>
J2VwaWtfcHl0aG9uJywgJy1waCcsICc3LjAnLCAnLXRuJywgJzgnLCAnLW1hJywgJzIwMCcsICctbWV0YWxfYmluZGluZycsICctaW1hZScsICc8aW5maWxlLm1hZT4nLCAnLW9tYWUnLCAnPG91dGZpbGUubWFlPic=

> <r_lp_tautomer_probability>
1

> <r_epik_Ionization_Penalty>
0.000713824

> <r_epik_Ionization_Penalty_Charging>
0

> <r_epik_Ionization_Penalty_Neutral>
0.000713824

> <r_epik_State_Penalty>
0.000402132

> <r_epik_Charging_Adjusted_Penalty>
0.000402132

> <i_epik_Tot_Q>
0

> <i_epik_Tot_abs_Q>
0

> <r_epik_Metal_State_Penalty>
-0

> <b_epik_Metal_Only>
0

> <s_lp_Force_Field>
OPLS_2005

> <r_lp_Energy>
48.1487

> <b_lp_Chiralities_Consistent>
1

> <s_lp_Variant>
AV-unprocessed.smi:261-3

> <Gold.Version>
5.8.1

> <Gold.Id.Protein>
6NUR|6NUR_protein|mol2

> <Gold.PLP.Fitness>
47.1031

> <Gold.PLP.PLP>
-39.8391

> <Gold.PLP.part.hbond>
-4.0000

> <Gold.PLP.part.metal>
0.0000

> <Gold.PLP.part.buried>
0.0732

> <Gold.PLP.part.nonpolar>
-35.2888

> <Gold.PLP.part.repulsive>
0.1784

> <Gold.PLP.ligand.clash>
0.0000

> <Gold.PLP.ligand.torsion>
0.9808

> <Gold.PLP.Chemscore.Hbond>
2.0000

> <Gold.PLP.Chemscore.CHOScore>
0.9746

> <Gold.PLP.Chemscore.Metal>
0.0000

> <Gold.Chemscore.Hbonds>
donor molecule, donor type, donor heavy atom, donor atom, acceptor molecule, acceptor atom, score
      L1  H    21    42       P1  7948  1.00
      P1  H  7997  8010       L1     8  1.00
      L1  C    17    38       P1  7957  0.72

> <Gold.PLP.Chemscore.Internal.Correction>
0.3019

> <Gold.Rescore>
     Score         DG    S(hbond)    S(metal)    S(lipo)     H(rot)  DE(clash)    DE(int)     intcor
      9.24     -13.48       1.99        0.00      89.86       3.57       2.15       2.09       ----

> <Gold.Chemscore.Fitness>
9.2421

> <Gold.Chemscore.DG>
-13.4813

> <Gold.Chemscore.ZeroCoef>
-5.4800

> <Gold.Chemscore.Hbond>
1.9873

> <Gold.Chemscore.Metal>
0.0000

> <Gold.Chemscore.Lipo>
89.8567

> <Gold.Chemscore.Internal_Hbond>
0.0000

> <Gold.Chemscore.DEClash>
2.1466

> <Gold.Chemscore.DEInternal>
2.0926

> <Gold.Chemscore.Rot>
3.5740

> <Gold.Chemscore.Internal.Correction>
   9.000000E+99

> <Gold.Chemscore.Hbonds>
donor molecule, donor type, donor heavy atom, donor atom, acceptor molecule, acceptor atom, score
      L1  H    21    42       P1  7948  0.99
      P1  H  7997  8010       L1     8  0.97

> <Gold.Chemscore.Hbond.Weighted>
-6.6375

> <Gold.Chemscore.Metal.Weighted>
-0.0000

> <Gold.Chemscore.Lipo.Weighted>
-10.5132

> <Gold.Chemscore.Internal_Hbond.Weighted>
0.0000

> <Gold.Chemscore.DEClash.Weighted>
2.1466

> <Gold.Chemscore.DEInternal.Weighted>
2.0926

> <Gold.Chemscore.Rot.Weighted>
9.1495

> <Gold.Chemscore.Internal.Correction.Weighted>
   9.000000E+99

> <Gold.Protein.RotatedTorsions>
[ 6907 6896 6895 6894 ] final  107.36 input  -60.11 | X-H torsion
[ 7974 7965 7964 7962 ] final  -74.56 input  175.53 | X-H torsion
[ 8008 7997 7996 7995 ] final  -12.31 input   59.86 | X-H torsion
[ 10167 10162 10161 10158 ] final -105.08 input  -65.29 | X-H torsion
[ 10718 10713 10712 10709 ] final   41.51 input   66.30 | X-H torsion
[ 10763 10752 10751 10750 ] final   37.95 input  -60.55 | X-H torsion
[ 11005 11000 10999 10996 ] final  135.84 input  -57.11 | X-H torsion

> <Gold.Protein.ActiveResidues>
 VAL166  LYS551  ARG553  GLY616  TRP617  ASP618  TYR619  PRO620  LYS621  CYS622 
 ASP623  PHE694  ASN695  SER759  ASP760  ASP761  ALA762  ILE779  LEU786  VAL792 
 PHE793  MET794  SER795  GLU796  ALA797  LYS798  CYS799  TRP800  GLU811  SER814 

> <Gold.Protein.RotatedAtoms>
  152.5157  133.9246  159.7550 H   0  0  0  0  0  0  0  0  0  0  0  0  # atno 6907 bound_to 6896
  150.9610  133.6437  159.2761 H   0  0  0  0  0  0  0  0  0  0  0  0  # atno 6908 bound_to 6896
  151.3682  135.0922  159.9509 H   0  0  0  0  0  0  0  0  0  0  0  0  # atno 6909 bound_to 6896
  145.6375  140.9320  143.1053 H   0  0  0  0  0  0  0  0  0  0  0  0  # atno 7974 bound_to 7965
  154.5388  140.2279  155.8677 H   0  0  0  0  0  0  0  0  0  0  0  0  # atno 8008 bound_to 7997
  156.1838  140.3094  155.9161 H   0  0  0  0  0  0  0  0  0  0  0  0  # atno 8009 bound_to 7997
  155.3300  140.0445  157.3033 H   0  0  0  0  0  0  0  0  0  0  0  0  # atno 8010 bound_to 7997
  140.2024  143.3809  152.1119 H   0  0  0  0  0  0  0  0  0  0  0  0  # atno 10167 bound_to 10162
  157.3943  130.7824  149.7295 H   0  0  0  0  0  0  0  0  0  0  0  0  # atno 10718 bound_to 10713
  153.0019  135.6263  154.2226 H   0  0  0  0  0  0  0  0  0  0  0  0  # atno 10763 bound_to 10752
  154.1969  135.2806  155.3005 H   0  0  0  0  0  0  0  0  0  0  0  0  # atno 10764 bound_to 10752
  154.5715  135.5675  153.7159 H   0  0  0  0  0  0  0  0  0  0  0  0  # atno 10765 bound_to 10752
  140.0006  134.9480  157.0064 H   0  0  0  0  0  0  0  0  0  0  0  0  # atno 11005 bound_to 11000
  144.7170  139.8163  143.7395 LP  0  0  0  0  0  0  0  0  0  0  0  0  # atno 17320 bound_to 7965
  146.1307  139.4342  143.0170 LP  0  0  0  0  0  0  0  0  0  0  0  0  # atno 17321 bound_to 7965
  139.5212  144.7043  151.5401 LP  0  0  0  0  0  0  0  0  0  0  0  0  # atno 17342 bound_to 10162
  140.6381  143.8943  150.6666 LP  0  0  0  0  0  0  0  0  0  0  0  0  # atno 17343 bound_to 10162
  155.9806  130.4027  150.3517 LP  0  0  0  0  0  0  0  0  0  0  0  0  # atno 17370 bound_to 10713
  157.1637  131.0351  151.2828 LP  0  0  0  0  0  0  0  0  0  0  0  0  # atno 17371 bound_to 10713
  140.4735  134.1362  155.7206 LP  0  0  0  0  0  0  0  0  0  0  0  0  # atno 17394 bound_to 11000
  141.1639  133.8740  157.1770 LP  0  0  0  0  0  0  0  0  0  0  0  0  # atno 17395 bound_to 11000

$$$$
