#       Name:                AV-unprocessed.smi:2520
#       Creating user name   scv26
#       Creation time:       Fri Mar 27 13:54:59 2020


#       File generated by GOLD software.
#

@<TRIPOS>MOLECULE
AV-unprocessed.smi:2520
    47    50     1
SMALL
NO_CHARGES


@<TRIPOS>ATOM
      1 ****        -2.7086  -2.0369   0.5020 O.2            1 S1                 0.0000
      2 ****        -1.4864  -1.9024   0.4802 C.2            1 S1                 0.0000
      3 ****        -0.6662  -2.9747   0.5050 N.am           1 S1                 0.0000
      4 ****        -0.9442  -4.3728   0.5602 C.ar           1 S1                 0.0000
      5 ****         0.1968  -5.1999   0.6366 C.ar           1 S1                 0.0000
      6 ****         0.0131  -6.5922   0.6907 C.ar           1 S1                 0.0000
      7 ****        -1.3084  -7.0687   0.6620 C.ar           1 S1                 0.0000
      8 ****        -2.3738  -6.2428   0.5853 N.ar           1 S1                 0.0000
      9 ****        -2.1890  -4.9198   0.5351 N.ar           1 S1                 0.0000
     10 ****        -0.8867  -0.7042   0.4267 N.am           1 S1                 0.0000
     11 ****        -1.5546   0.5962   0.3978 C.3            1 S1                 0.0000
     12 ****        -0.9986   1.5743   1.4584 C.3            1 S1                 0.0000
     13 ****        -0.1015   1.1280   2.5876 C.3            1 S1                 0.0000
     14 ****         1.3008   1.4257   2.0478 C.3            1 S1                 0.0000
     15 ****         1.1408   1.5150   0.6332 O.3            1 S1                 0.0000
     16 ****        -0.1068   2.1536   0.3716 C.3            1 S1                 0.0000
     17 ****        -0.9921   1.5101  -0.7164 C.3            1 S1                 0.0000
     18 ****        -1.9819   2.4578  -1.3918 C.3            1 S1                 0.0000
     19 ****        -1.3017   3.0041  -2.6513 C.3            1 S1                 0.0000
     20 ****        -0.1783   2.0160  -2.9792 C.3            1 S1                 0.0000
     21 ****        -0.2927   0.9045  -1.9342 C.3            1 S1                 0.0000
     22 ****         0.3166  -2.7477   0.4648 H              1 S1                 0.0000
     23 ****         1.1921  -4.7799   0.6542 H              1 S1                 0.0000
     24 ****         0.8527  -7.2683   0.7517 H              1 S1                 0.0000
     25 ****        -1.5157  -8.1278   0.6998 H              1 S1                 0.0000
     26 ****         0.1237  -0.6880   0.4105 H              1 S1                 0.0000
     27 ****        -2.6449   0.5477   0.4017 H              1 S1                 0.0000
     28 ****        -1.7633   2.2918   1.7608 H              1 S1                 0.0000
     29 ****        -0.2924   1.6801   3.5080 H              1 S1                 0.0000
     30 ****        -0.2221   0.0689   2.8147 H              1 S1                 0.0000
     31 ****         1.6593   2.3845   2.4246 H              1 S1                 0.0000
     32 ****         2.0265   0.6587   2.3190 H              1 S1                 0.0000
     33 ****        -0.0504   3.2430   0.3710 H              1 S1                 0.0000
     34 ****        -2.8811   1.9107  -1.6785 H              1 S1                 0.0000
     35 ****        -2.3044   3.2651  -0.7333 H              1 S1                 0.0000
     36 ****        -2.0111   3.1024  -3.4736 H              1 S1                 0.0000
     37 ****        -0.8825   3.9924  -2.4596 H              1 S1                 0.0000
     38 ****        -0.2549   1.6248  -3.9940 H              1 S1                 0.0000
     39 ****         0.7878   2.5144  -2.8899 H              1 S1                 0.0000
     40 ****         0.6845   0.4833  -1.6966 H              1 S1                 0.0000
     41 ****        -0.8944   0.0898  -2.3395 H              1 S1                 0.0000
     42 ****        -3.1104  -2.9520   0.5387 LP             1 S1                 0.0000
     43 ****        -3.3007  -1.2313   0.4830 LP             1 S1                 0.0000
     44 ****        -3.2996  -6.6203   0.5661 LP             1 S1                 0.0000
     45 ****        -2.9854  -4.3178   0.4776 LP             1 S1                 0.0000
     46 ****         1.1438   0.5987   0.2326 LP             1 S1                 0.0000
     47 ****         1.8866   2.0530   0.2404 LP             1 S1                 0.0000
@<TRIPOS>BOND
    1    1    2 2     
    2    2    3 am    
    3    2   10 am    
    4    3    4 1     
    5    3   22 1     
    6    4    9 ar    
    7    4    5 ar    
    8    5    6 ar    
    9    5   23 1     
   10    6    7 ar    
   11    6   24 1     
   12    7    8 ar    
   13    7   25 1     
   14    8    9 ar    
   15   10   11 1     
   16   10   26 1     
   17   11   17 1     
   18   11   12 1     
   19   11   27 1     
   20   12   16 1     
   21   12   13 1     
   22   12   28 1     
   23   13   14 1     
   24   13   29 1     
   25   13   30 1     
   26   14   15 1     
   27   14   31 1     
   28   14   32 1     
   29   15   16 1     
   30   16   17 1     
   31   16   33 1     
   32   17   21 1     
   33   17   18 1     
   34   18   19 1     
   35   18   34 1     
   36   18   35 1     
   37   19   20 1     
   38   19   36 1     
   39   19   37 1     
   40   20   21 1     
   41   20   38 1     
   42   20   39 1     
   43   21   40 1     
   44   21   41 1     
   45    1   42 1     
   46    1   43 1     
   47    8   44 1     
   48    9   45 1     
   49   15   46 1     
   50   15   47 1     
@<TRIPOS>SUBSTRUCTURE
      1 S1             1
@<TRIPOS>SET
LONE_PAIRS      STATIC     ATOMS    <user>   **** ""
6 42 43 44 45 46 47
DONOR_HYDROGENS      STATIC     ATOMS    <user>   **** ""
2 22 26
ATOM$BLUE        STATIC     ATOMS    COLORGROUP SYSTEM
6 42 43 44 45 46 47
ATOM$RED        STATIC     ATOMS    COLORGROUP SYSTEM
2 22 26
