#       Name:                AV-unprocessed.smi:2817
#       Creating user name   scv26
#       Creation time:       Fri Mar 27 15:29:02 2020


#       File generated by GOLD software.
#

@<TRIPOS>MOLECULE
AV-unprocessed.smi:2817
    49    51     1
SMALL
NO_CHARGES


@<TRIPOS>ATOM
      1 ****        -0.7042   0.4849  -2.3509 O.2            1 S1                 0.0000
      2 ****        -1.0055   1.1333  -1.3486 C.2            1 S1                 0.0000
      3 ****        -1.5655   2.4830  -1.4218 C.2            1 S1                 0.0000
      4 ****        -1.8800   3.1658  -0.2950 C.2            1 S1                 0.0000
      5 ****        -2.4408   4.5806  -0.3397 C.3            1 S1                 0.0000
      6 ****        -1.8022   5.5268  -1.3698 C.3            1 S1                 0.0000
      7 ****        -1.9195   6.6411  -0.3239 C.3            1 S1                 0.0000
      8 ****        -1.9339   5.5443   0.7466 C.3            1 S1                 0.0000
      9 ****        -1.6653   2.5965   0.9656 N.2            1 S1                 0.0000
     10 ****        -1.1715   1.4030   1.0575 C.2            1 S1                 0.0000
     11 ****        -0.8371   0.6492  -0.0836 N.am           1 S1                 0.0000
     12 ****        -0.2814  -0.6920   0.1585 C.3            1 S1                 0.0000
     13 ****         1.2609  -0.7116   0.0671 C.3            1 S1                 0.0000
     14 ****         1.8348  -0.2298   1.2659 O.3            1 S1                 0.0000
     15 ****         1.8322  -2.1156  -0.1957 C.3            1 S1                 0.0000
     16 ****         1.1984  -3.0661   0.6524 O.3            1 S1                 0.0000
     17 ****         1.5762  -4.3876   0.5520 C.ar           1 S1                 0.0000
     18 ****         0.9216  -5.3053   1.3994 C.ar           1 S1                 0.0000
     19 ****         1.2442  -6.6755   1.3653 C.ar           1 S1                 0.0000
     20 ****         2.2307  -7.1437   0.4781 C.ar           1 S1                 0.0000
     21 ****         2.8917  -6.2394  -0.3737 C.ar           1 S1                 0.0000
     22 ****         2.5684  -4.8689  -0.3398 C.ar           1 S1                 0.0000
     23 ****        -1.7263   2.9324  -2.3910 H              1 S1                 0.0000
     24 ****        -3.5302   4.5817  -0.4069 H              1 S1                 0.0000
     25 ****        -0.7637   5.2829  -1.6019 H              1 S1                 0.0000
     26 ****        -2.3918   5.6840  -2.2734 H              1 S1                 0.0000
     27 ****        -1.0645   7.3160  -0.2765 H              1 S1                 0.0000
     28 ****        -2.8637   7.1846  -0.3871 H              1 S1                 0.0000
     29 ****        -2.6308   5.7154   1.5674 H              1 S1                 0.0000
     30 ****        -0.9322   5.3068   1.1099 H              1 S1                 0.0000
     31 ****        -0.9816   0.9146   2.0148 H              1 S1                 0.0000
     32 ****        -0.6122  -1.1048   1.1140 H              1 S1                 0.0000
     33 ****        -0.6940  -1.3751  -0.5865 H              1 S1                 0.0000
     34 ****         1.6004  -0.0601  -0.7391 H              1 S1                 0.0000
     35 ****         1.5667   0.6678   1.3890 H              1 S1                 0.0000
     36 ****         1.6351  -2.3843  -1.2348 H              1 S1                 0.0000
     37 ****         2.9143  -2.1176  -0.0530 H              1 S1                 0.0000
     38 ****         0.1632  -4.9542   2.0838 H              1 S1                 0.0000
     39 ****         0.7346  -7.3664   2.0205 H              1 S1                 0.0000
     40 ****         2.4801  -8.1942   0.4510 H              1 S1                 0.0000
     41 ****         3.6490  -6.5969  -1.0557 H              1 S1                 0.0000
     42 ****         3.0972  -4.2071  -1.0087 H              1 S1                 0.0000
     43 ****        -0.3201  -0.4334  -2.2556 LP             1 S1                 0.0000
     44 ****        -0.8437   0.8766  -3.2604 LP             1 S1                 0.0000
     45 ****        -1.8927   3.1101   1.7929 LP             1 S1                 0.0000
     46 ****         2.8317  -0.2783   1.2054 LP             1 S1                 0.0000
     47 ****         1.5202  -0.7840   2.0365 LP             1 S1                 0.0000
     48 ****         0.2174  -3.0237   0.4630 LP             1 S1                 0.0000
     49 ****         1.3684  -2.7806   1.5956 LP             1 S1                 0.0000
@<TRIPOS>BOND
    1    1    2 2     
    2    2   11 am    
    3    2    3 1     
    4    3    4 2     
    5    3   23 1     
    6    4    5 1     
    7    4    9 1     
    8    5    8 1     
    9    5    6 1     
   10    5   24 1     
   11    6    7 1     
   12    6   25 1     
   13    6   26 1     
   14    7    8 1     
   15    7   27 1     
   16    7   28 1     
   17    8   29 1     
   18    8   30 1     
   19    9   10 2     
   20   10   11 1     
   21   10   31 1     
   22   11   12 1     
   23   12   13 1     
   24   12   32 1     
   25   12   33 1     
   26   13   14 1     
   27   13   15 1     
   28   13   34 1     
   29   14   35 1     
   30   15   16 1     
   31   15   36 1     
   32   15   37 1     
   33   16   17 1     
   34   17   22 ar    
   35   17   18 ar    
   36   18   19 ar    
   37   18   38 1     
   38   19   20 ar    
   39   19   39 1     
   40   20   21 ar    
   41   20   40 1     
   42   21   22 ar    
   43   21   41 1     
   44   22   42 1     
   45    1   43 1     
   46    1   44 1     
   47    9   45 1     
   48   14   46 1     
   49   14   47 1     
   50   16   48 1     
   51   16   49 1     
@<TRIPOS>SUBSTRUCTURE
      1 S1             1
@<TRIPOS>SET
LONE_PAIRS      STATIC     ATOMS    <user>   **** ""
7 43 44 45 46 47 48 49
DONOR_HYDROGENS      STATIC     ATOMS    <user>   **** ""
1 35
ATOM$BLUE        STATIC     ATOMS    COLORGROUP SYSTEM
7 43 44 45 46 47 48 49
ATOM$RED        STATIC     ATOMS    COLORGROUP SYSTEM
1 35
