AV-unprocessed.smi:1292|AV-procd|sdf|5398|dock5
  -GOLD-   22720 4553D 1   1.00000     0.00000
 Structure written by MMmdl.
 39 40  0  0  0  0  0  0  0  0  2 V2000
  153.4273  142.1703  160.3383 C   0  0  0  0  0  0  0  0  0  0  0  0
  152.3866  141.3143  159.6029 C   0  0  1  0  0  0  0  0  0  0  0  0
  151.8975  142.0040  158.3221 C   0  0  0  0  0  0  0  0  0  0  0  0
  150.8579  141.1192  157.6303 C   0  0  0  0  0  0  0  0  0  0  0  0
  151.4268  139.7237  157.3340 C   0  0  0  0  0  0  0  0  0  0  0  0
  151.9511  139.0816  158.5604 N   0  0  0  0  0  0  0  0  0  0  0  0
  152.2384  137.3668  158.5136 S   0  0  0  0  0  0  0  0  0  0  0  0
  152.1369  136.9784  157.0975 O   0  0  0  0  0  0  0  0  0  0  0  0
  153.5250  137.1397  159.1927 O   0  0  0  0  0  0  0  0  0  0  0  0
  150.9585  136.9154  159.4038 N   0  5  0  0  0  0  0  0  0  0  0  0
  149.6794  136.6785  158.7528 C   0  0  0  0  0  0  0  0  0  0  0  0
  148.4972  137.0956  159.6618 C   0  0  0  0  0  0  0  0  0  0  0  0
  148.3795  136.3446  160.9859 C   0  0  0  0  0  0  0  0  0  0  0  0
  148.3343  134.9316  161.0148 C   0  0  0  0  0  0  0  0  0  0  0  0
  148.2364  134.2854  162.2619 C   0  0  0  0  0  0  0  0  0  0  0  0
  148.1788  135.0689  163.4302 C   0  0  0  0  0  0  0  0  0  0  0  0
  148.2195  136.4710  163.2982 C   0  0  0  0  0  0  0  0  0  0  0  0
  148.3092  137.1011  162.1082 N   0  0  0  0  0  0  0  0  0  0  0  0
  152.9375  139.9094  159.2855 C   0  0  0  0  0  0  0  0  0  0  0  0
  154.3148  142.3285  159.7245 H   0  0  0  0  0  0  0  0  0  0  0  0
  153.7444  141.6917  161.2653 H   0  0  0  0  0  0  0  0  0  0  0  0
  153.0201  143.1486  160.5950 H   0  0  0  0  0  0  0  0  0  0  0  0
  151.5310  141.1943  160.2696 H   0  0  0  0  0  0  0  0  0  0  0  0
  151.4613  142.9757  158.5558 H   0  0  0  0  0  0  0  0  0  0  0  0
  152.7359  142.1876  157.6490 H   0  0  0  0  0  0  0  0  0  0  0  0
  149.9740  141.0253  158.2627 H   0  0  0  0  0  0  0  0  0  0  0  0
  150.5268  141.5887  156.7037 H   0  0  0  0  0  0  0  0  0  0  0  0
  150.6475  139.1091  156.8849 H   0  0  0  0  0  0  0  0  0  0  0  0
  152.2310  139.7906  156.6005 H   0  0  0  0  0  0  0  0  0  0  0  0
  149.6137  137.2541  157.8291 H   0  0  0  0  0  0  0  0  0  0  0  0
  149.5512  135.6385  158.4499 H   0  0  0  0  0  0  0  0  0  0  0  0
  148.5511  138.1666  159.8635 H   0  0  0  0  0  0  0  0  0  0  0  0
  147.5659  136.9494  159.1138 H   0  0  0  0  0  0  0  0  0  0  0  0
  148.3872  134.3570  160.1021 H   0  0  0  0  0  0  0  0  0  0  0  0
  148.2084  133.2075  162.3213 H   0  0  0  0  0  0  0  0  0  0  0  0
  148.1063  134.6075  164.4038 H   0  0  0  0  0  0  0  0  0  0  0  0
  148.1753  137.1035  164.1725 H   0  0  0  0  0  0  0  0  0  0  0  0
  153.8472  139.9771  158.6874 H   0  0  0  0  0  0  0  0  0  0  0  0
  153.2104  139.4199  160.2199 H   0  0  0  0  0  0  0  0  0  0  0  0
  1  2  1  0  0  0  0
  1 20  1  0  0  0  0
  1 21  1  0  0  0  0
  1 22  1  0  0  0  0
  2 19  1  0  0  0  0
  2  3  1  0  0  0  0
  2 23  1  0  0  0  0
  3  4  1  0  0  0  0
  3 24  1  0  0  0  0
  3 25  1  0  0  0  0
  4  5  1  0  0  0  0
  4 26  1  0  0  0  0
  4 27  1  0  0  0  0
  5  6  1  0  0  0  0
  5 28  1  0  0  0  0
  5 29  1  0  0  0  0
  6  7  1  0  0  0  0
  6 19  1  0  0  0  0
  7  8  2  0  0  0  0
  7  9  2  0  0  0  0
  7 10  1  0  0  0  0
 10 11  1  0  0  0  0
 11 12  1  0  0  0  0
 11 30  1  0  0  0  0
 11 31  1  0  0  0  0
 12 13  1  0  0  0  0
 12 32  1  0  0  0  0
 12 33  1  0  0  0  0
 13 18  1  0  0  0  0
 13 14  2  0  0  0  0
 14 15  1  0  0  0  0
 14 34  1  0  0  0  0
 15 16  2  0  0  0  0
 15 35  1  0  0  0  0
 16 17  1  0  0  0  0
 16 36  1  0  0  0  0
 17 18  2  0  0  0  0
 17 37  1  0  0  0  0
 19 38  1  0  0  0  0
 19 39  1  0  0  0  0
M  CHG  1  10  -1
M  END
> <s_m_source_file>
AV-unprocessed.smi

> <i_m_source_file_index>
1292

> <i_lp_mmshare_version>
43012

> <i_f3d_flags>
0

> <s_epik_input>
W0NIM11bQ0BASF0xW0NIMl1bQ0gyXVtDSDJdTihbQ0gyXTEpUyg9TykoPU8pW05IXVtDSDJdW0NIMl1jMltjSF1bY0hdW2NIXVtjSF1uMg==

> <s_epik_cmdline>
J2VwaWtfcHl0aG9uJywgJy1waCcsICc3LjAnLCAnLXRuJywgJzgnLCAnLW1hJywgJzIwMCcsICctbWV0YWxfYmluZGluZycsICctaW1hZScsICc8aW5maWxlLm1hZT4nLCAnLW9tYWUnLCAnPG91dGZpbGUubWFlPic=

> <r_epik_Ionization_Penalty>
2.02944

> <r_epik_Ionization_Penalty_Charging>
1.95606

> <r_epik_Ionization_Penalty_Neutral>
0.0733799

> <r_epik_State_Penalty>
2.47711

> <r_epik_Charging_Adjusted_Penalty>
4.43317

> <i_epik_Tot_Q>
-1

> <i_epik_Tot_abs_Q>
1

> <r_epik_Metal_State_Penalty>
0.729901

> <b_epik_Metal_Only>
0

> <s_lp_Force_Field>
OPLS_2005

> <r_lp_Energy>
9.691

> <b_lp_Chiralities_Consistent>
1

> <s_lp_Variant>
AV-unprocessed.smi:1292-4

> <Gold.Version>
5.8.1

> <Gold.Id.Protein>
6NUR|6NUR_protein|mol2

> <Gold.PLP.Fitness>
49.0639

> <Gold.PLP.PLP>
-38.3534

> <Gold.PLP.part.hbond>
-3.0000

> <Gold.PLP.part.metal>
0.0000

> <Gold.PLP.part.buried>
-5.1011

> <Gold.PLP.part.nonpolar>
-29.9445

> <Gold.PLP.part.repulsive>
0.0000

> <Gold.PLP.ligand.clash>
0.0000

> <Gold.PLP.ligand.torsion>
1.0261

> <Gold.PLP.Chemscore.Hbond>
3.7200

> <Gold.PLP.Chemscore.CHOScore>
0.0000

> <Gold.PLP.Chemscore.Metal>
0.0000

> <Gold.Chemscore.Hbonds>
donor molecule, donor type, donor heavy atom, donor atom, acceptor molecule, acceptor atom, score
      P1  H  6896  6907       L1    10  1.10
      P1  H  6931  6943       L1    18  0.59

> <Gold.PLP.Chemscore.Internal.Correction>
1.6028

> <Gold.Rescore>
     Score         DG    S(hbond)    S(metal)    S(lipo)     H(rot)  DE(clash)    DE(int)     intcor
     15.42     -16.42       1.29        0.00      87.78       1.42       0.00       1.01       ----

> <Gold.Chemscore.Fitness>
15.4175

> <Gold.Chemscore.DG>
-16.4240

> <Gold.Chemscore.ZeroCoef>
-5.4800

> <Gold.Chemscore.Hbond>
1.2912

> <Gold.Chemscore.Metal>
0.0000

> <Gold.Chemscore.Lipo>
87.7822

> <Gold.Chemscore.Internal_Hbond>
0.0000

> <Gold.Chemscore.DEClash>
0.0000

> <Gold.Chemscore.DEInternal>
1.0065

> <Gold.Chemscore.Rot>
1.4216

> <Gold.Chemscore.Internal.Correction>
   9.000000E+99

> <Gold.Chemscore.Hbonds>
donor molecule, donor type, donor heavy atom, donor atom, acceptor molecule, acceptor atom, score
      P1  H  6896  6907       L1    10  0.02
      P1  H  6931  6943       L1    18  0.43

> <Gold.Chemscore.Hbond.Weighted>
-4.3127

> <Gold.Chemscore.Metal.Weighted>
-0.0000

> <Gold.Chemscore.Lipo.Weighted>
-10.2705

> <Gold.Chemscore.Internal_Hbond.Weighted>
0.0000

> <Gold.Chemscore.DEClash.Weighted>
0.0000

> <Gold.Chemscore.DEInternal.Weighted>
1.0065

> <Gold.Chemscore.Rot.Weighted>
3.6392

> <Gold.Chemscore.Internal.Correction.Weighted>
   9.000000E+99

> <Gold.Protein.RotatedTorsions>
[ 6907 6896 6895 6894 ] final  -29.62 input  -60.11 | X-H torsion
[ 7974 7965 7964 7962 ] final    9.60 input  175.53 | X-H torsion
[ 8008 7997 7996 7995 ] final  -30.49 input   59.86 | X-H torsion
[ 10167 10162 10161 10158 ] final -112.57 input  -65.29 | X-H torsion
[ 10718 10713 10712 10709 ] final -155.54 input   66.30 | X-H torsion
[ 10763 10752 10751 10750 ] final   92.30 input  -60.55 | X-H torsion
[ 11005 11000 10999 10996 ] final  -45.69 input  -57.11 | X-H torsion

> <Gold.Protein.ActiveResidues>
 VAL166  LYS551  ARG553  GLY616  TRP617  ASP618  TYR619  PRO620  LYS621  CYS622 
 ASP623  PHE694  ASN695  SER759  ASP760  ASP761  ALA762  ILE779  LEU786  VAL792 
 PHE793  MET794  SER795  GLU796  ALA797  LYS798  CYS799  TRP800  GLU811  SER814 

> <Gold.Protein.RotatedAtoms>
  151.1167  135.0056  159.8518 H   0  0  0  0  0  0  0  0  0  0  0  0  # atno 6907 bound_to 6896
  152.5446  134.1772  159.8631 H   0  0  0  0  0  0  0  0  0  0  0  0  # atno 6908 bound_to 6896
  151.1826  133.4671  159.2627 H   0  0  0  0  0  0  0  0  0  0  0  0  # atno 6909 bound_to 6896
  146.2401  139.9760  142.8441 H   0  0  0  0  0  0  0  0  0  0  0  0  # atno 7974 bound_to 7965
  154.4249  140.1790  156.1415 H   0  0  0  0  0  0  0  0  0  0  0  0  # atno 8008 bound_to 7997
  155.9988  140.3362  155.6800 H   0  0  0  0  0  0  0  0  0  0  0  0  # atno 8009 bound_to 7997
  155.6271  140.0666  157.2651 H   0  0  0  0  0  0  0  0  0  0  0  0  # atno 8010 bound_to 7997
  140.1212  143.4441  152.1689 H   0  0  0  0  0  0  0  0  0  0  0  0  # atno 10167 bound_to 10162
  156.5142  130.8449  151.2658 H   0  0  0  0  0  0  0  0  0  0  0  0  # atno 10718 bound_to 10713
  153.2176  135.4366  155.0453 H   0  0  0  0  0  0  0  0  0  0  0  0  # atno 10763 bound_to 10752
  154.8233  135.3348  154.6974 H   0  0  0  0  0  0  0  0  0  0  0  0  # atno 10764 bound_to 10752
  153.7408  135.7005  153.5023 H   0  0  0  0  0  0  0  0  0  0  0  0  # atno 10765 bound_to 10752
  141.0531  133.6735  156.3049 H   0  0  0  0  0  0  0  0  0  0  0  0  # atno 11005 bound_to 11000
  145.1637  140.9686  143.4362 LP  0  0  0  0  0  0  0  0  0  0  0  0  # atno 17320 bound_to 7965
  145.0093  139.3525  143.6128 LP  0  0  0  0  0  0  0  0  0  0  0  0  # atno 17321 bound_to 7965
  139.5567  144.7378  151.4272 LP  0  0  0  0  0  0  0  0  0  0  0  0  # atno 17342 bound_to 10162
  140.6871  143.7949  150.7201 LP  0  0  0  0  0  0  0  0  0  0  0  0  # atno 17343 bound_to 10162
  157.7446  130.9939  150.2689 LP  0  0  0  0  0  0  0  0  0  0  0  0  # atno 17370 bound_to 10713
  156.3211  130.3786  149.7574 LP  0  0  0  0  0  0  0  0  0  0  0  0  # atno 17371 bound_to 10713
  140.6016  134.5549  157.5518 LP  0  0  0  0  0  0  0  0  0  0  0  0  # atno 17394 bound_to 11000
  139.9367  134.7862  156.0784 LP  0  0  0  0  0  0  0  0  0  0  0  0  # atno 17395 bound_to 11000

$$$$
