AV-unprocessed.smi:1047|AV-procd|sdf|4580|dock5
  -GOLD-   22720 3 43D 1   1.00000     0.00000
 Structure written by MMmdl.
 58 60  0  0  0  0  0  0  0  0  4 V2000
  144.6235  134.0849  150.4992 C   0  0  0  0  0  0  0  0  0  0  0  0
  145.0814  135.5277  150.7569 C   0  0  0  0  0  0  0  0  0  0  0  0
  145.4302  135.7715  152.1791 N   0  3  1  0  0  0  0  0  0  0  0  0
  146.1726  134.6366  152.7784 C   0  0  0  0  0  0  0  0  0  0  0  0
  146.4570  134.9025  154.2663 C   0  0  0  0  0  0  0  0  0  0  0  0
  147.1822  136.1185  154.4067 O   0  0  0  0  0  0  0  0  0  0  0  0
  146.4581  137.2377  153.9068 C   0  0  1  0  0  0  0  0  0  0  0  0
  147.2480  138.5218  154.2138 C   0  0  0  0  0  0  0  0  0  0  0  0
  148.5488  138.5568  153.5135 N   0  3  0  0  0  0  0  0  0  0  0  0
  149.6556  139.1031  154.3238 C   0  0  0  0  0  0  0  0  0  0  0  0
  149.3766  140.5607  154.7352 C   0  0  2  0  0  0  0  0  0  0  0  0
  148.8895  141.2655  153.6115 O   0  0  0  0  0  0  0  0  0  0  0  0
  150.6142  141.3143  155.2618 C   0  0  0  0  0  0  0  0  0  0  0  0
  151.2146  140.6755  156.4416 N   0  0  0  0  0  0  0  0  0  0  0  0
  151.5719  139.3758  156.6316 C   0  0  0  0  0  0  0  0  0  0  0  0
  152.0772  139.2676  157.8910 N   0  3  0  0  0  0  0  0  0  0  0  0
  152.0380  140.5145  158.5177 C   0  0  0  0  0  0  0  0  0  0  0  0
  152.4368  140.9041  159.7907 C   0  0  0  0  0  0  0  0  0  0  0  0
  152.2631  142.2638  160.1333 C   0  0  0  0  0  0  0  0  0  0  0  0
  152.6869  142.7219  161.5187 C   0  0  0  0  0  0  0  0  0  0  0  0
  151.7066  143.1839  159.2077 C   0  0  0  0  0  0  0  0  0  0  0  0
  151.5255  144.6442  159.5860 C   0  0  0  0  0  0  0  0  0  0  0  0
  151.3059  142.7677  157.9177 C   0  0  0  0  0  0  0  0  0  0  0  0
  151.4826  141.4235  157.5955 C   0  0  0  0  0  0  0  0  0  0  0  0
  146.1627  137.0426  152.4041 C   0  0  0  0  0  0  0  0  0  0  0  0
  144.4739  133.9163  149.4325 H   0  0  0  0  0  0  0  0  0  0  0  0
  143.6797  133.8594  150.9948 H   0  0  0  0  0  0  0  0  0  0  0  0
  145.3672  133.3664  150.8448 H   0  0  0  0  0  0  0  0  0  0  0  0
  145.9617  135.7139  150.1402 H   0  0  0  0  0  0  0  0  0  0  0  0
  144.3195  136.2368  150.4298 H   0  0  0  0  0  0  0  0  0  0  0  0
  145.5923  133.7186  152.6767 H   0  0  0  0  0  0  0  0  0  0  0  0
  147.1093  134.4852  152.2394 H   0  0  0  0  0  0  0  0  0  0  0  0
  145.5288  134.9493  154.8382 H   0  0  0  0  0  0  0  0  0  0  0  0
  147.0482  134.0888  154.6870 H   0  0  0  0  0  0  0  0  0  0  0  0
  145.5093  137.3009  154.4434 H   0  0  0  0  0  0  0  0  0  0  0  0
  146.6586  139.3931  153.9255 H   0  0  0  0  0  0  0  0  0  0  0  0
  147.4232  138.5983  155.2878 H   0  0  0  0  0  0  0  0  0  0  0  0
  148.7923  137.6154  153.2375 H   0  0  0  0  0  0  0  0  0  0  0  0
  149.7583  138.4741  155.2082 H   0  0  0  0  0  0  0  0  0  0  0  0
  150.5938  139.0343  153.7709 H   0  0  0  0  0  0  0  0  0  0  0  0
  148.6017  140.5779  155.5029 H   0  0  0  0  0  0  0  0  0  0  0  0
  148.5657  140.6437  152.9769 H   0  0  0  0  0  0  0  0  0  0  0  0
  151.3698  141.4316  154.4849 H   0  0  0  0  0  0  0  0  0  0  0  0
  150.3313  142.3241  155.5631 H   0  0  0  0  0  0  0  0  0  0  0  0
  151.4708  138.5742  155.9138 H   0  0  0  0  0  0  0  0  0  0  0  0
  152.8605  140.1978  160.4901 H   0  0  0  0  0  0  0  0  0  0  0  0
  151.8522  143.1895  162.0419 H   0  0  0  0  0  0  0  0  0  0  0  0
  153.5012  143.4436  161.4502 H   0  0  0  0  0  0  0  0  0  0  0  0
  153.0326  141.8857  162.1271 H   0  0  0  0  0  0  0  0  0  0  0  0
  151.1567  145.2322  158.7450 H   0  0  0  0  0  0  0  0  0  0  0  0
  152.4719  145.0807  159.9055 H   0  0  0  0  0  0  0  0  0  0  0  0
  150.8071  144.7395  160.4007 H   0  0  0  0  0  0  0  0  0  0  0  0
  150.8816  143.4721  157.2180 H   0  0  0  0  0  0  0  0  0  0  0  0
  147.0897  137.0274  151.8288 H   0  0  0  0  0  0  0  0  0  0  0  0
  145.5757  137.8864  152.0425 H   0  0  0  0  0  0  0  0  0  0  0  0
  148.4565  139.1213  152.6813 H   0  0  0  0  0  0  0  0  0  0  0  0
  144.5567  135.8368  152.6829 H   0  0  0  0  0  0  0  0  0  0  0  0
  152.4178  138.4032  158.2934 H   0  0  0  0  0  0  0  0  0  0  0  0
  1  2  1  0  0  0  0
  1 26  1  0  0  0  0
  1 27  1  0  0  0  0
  1 28  1  0  0  0  0
  2  3  1  0  0  0  0
  2 29  1  0  0  0  0
  2 30  1  0  0  0  0
  3 25  1  0  0  0  0
  3  4  1  0  0  0  0
  3 57  1  0  0  0  0
  4  5  1  0  0  0  0
  4 31  1  0  0  0  0
  4 32  1  0  0  0  0
  5  6  1  0  0  0  0
  5 33  1  0  0  0  0
  5 34  1  0  0  0  0
  6  7  1  0  0  0  0
  7  8  1  0  0  0  0
  7 25  1  0  0  0  0
  7 35  1  0  0  0  0
  8  9  1  0  0  0  0
  8 36  1  0  0  0  0
  8 37  1  0  0  0  0
  9 10  1  0  0  0  0
  9 38  1  0  0  0  0
  9 56  1  0  0  0  0
 10 11  1  0  0  0  0
 10 39  1  0  0  0  0
 10 40  1  0  0  0  0
 11 12  1  0  0  0  0
 11 13  1  0  0  0  0
 11 41  1  0  0  0  0
 12 42  1  0  0  0  0
 13 14  1  0  0  0  0
 13 43  1  0  0  0  0
 13 44  1  0  0  0  0
 14 24  1  0  0  0  0
 14 15  1  0  0  0  0
 15 16  2  0  0  0  0
 15 45  1  0  0  0  0
 16 17  1  0  0  0  0
 16 58  1  0  0  0  0
 17 24  2  0  0  0  0
 17 18  1  0  0  0  0
 18 19  2  0  0  0  0
 18 46  1  0  0  0  0
 19 20  1  0  0  0  0
 19 21  1  0  0  0  0
 20 47  1  0  0  0  0
 20 48  1  0  0  0  0
 20 49  1  0  0  0  0
 21 22  1  0  0  0  0
 21 23  2  0  0  0  0
 22 50  1  0  0  0  0
 22 51  1  0  0  0  0
 22 52  1  0  0  0  0
 23 24  1  0  0  0  0
 23 53  1  0  0  0  0
 25 54  1  0  0  0  0
 25 55  1  0  0  0  0
M  CHG  1   3   1
M  CHG  1   9   1
M  CHG  1  16   1
M  END
> <s_m_source_file>
AV-unprocessed.smi

> <i_m_source_file_index>
1047

> <i_lp_mmshare_version>
43012

> <i_f3d_flags>
0

> <s_epik_input>
W0NIM11bQ0gyXU4xW0NIMl1bQ0gyXU9bQ0BIXShbQ0gyXTEpW0NIMl1bTkhdW0NIMl1bQ0BIXShbT0hdKVtDSDJdbihbY0hdbjIpYyhjMjMpW2NIXWMoW0NIM10pYyhbY0hdMylbQ0gzXQ==

> <s_epik_cmdline>
J2VwaWtfcHl0aG9uJywgJy1waCcsICc3LjAnLCAnLXRuJywgJzgnLCAnLW1hJywgJzIwMCcsICctbWV0YWxfYmluZGluZycsICctaW1hZScsICc8aW5maWxlLm1hZT4nLCAnLW9tYWUnLCAnPG91dGZpbGUubWFlPic=

> <r_epik_Ionization_Penalty>
1.6114

> <r_epik_Ionization_Penalty_Charging>
1.61139

> <r_epik_Ionization_Penalty_Neutral>
5.04732e-06

> <r_epik_State_Penalty>
1.63724

> <r_epik_Charging_Adjusted_Penalty>
3.24864

> <i_epik_Tot_Q>
3

> <i_epik_Tot_abs_Q>
3

> <r_epik_Metal_State_Penalty>
5.64594

> <b_epik_Metal_Only>
0

> <s_lp_Force_Field>
OPLS_2005

> <r_lp_Energy>
43.5462

> <b_lp_Chiralities_Consistent>
1

> <s_lp_Variant>
AV-unprocessed.smi:1047-21

> <Gold.Version>
5.8.1

> <Gold.Id.Protein>
6NUR|6NUR_protein|mol2

> <Gold.PLP.Fitness>
57.7291

> <Gold.PLP.PLP>
-45.9901

> <Gold.PLP.part.hbond>
-4.9669

> <Gold.PLP.part.metal>
0.0000

> <Gold.PLP.part.buried>
-1.1592

> <Gold.PLP.part.nonpolar>
-38.9000

> <Gold.PLP.part.repulsive>
0.2217

> <Gold.PLP.ligand.clash>
0.0000

> <Gold.PLP.ligand.torsion>
0.6089

> <Gold.PLP.Chemscore.Hbond>
4.2472

> <Gold.PLP.Chemscore.CHOScore>
0.0000

> <Gold.PLP.Chemscore.Metal>
0.0000

> <Gold.Chemscore.Hbonds>
donor molecule, donor type, donor heavy atom, donor atom, acceptor molecule, acceptor atom, score
      L1  H     9    38       P1  7948  2.00
      L1  H     9    56       P1  7957  0.69
      L1  H    12    42       P1  7957  0.32
      P1  H  8011  8017       L1    12  0.72

> <Gold.PLP.Chemscore.Internal.Correction>
0.2151

> <Gold.Rescore>
     Score         DG    S(hbond)    S(metal)    S(lipo)     H(rot)  DE(clash)    DE(int)     intcor
     18.41     -24.06       2.89        0.00     137.35       2.78       4.45       1.21       ----

> <Gold.Chemscore.Fitness>
18.4072

> <Gold.Chemscore.DG>
-24.0610

> <Gold.Chemscore.ZeroCoef>
-5.4800

> <Gold.Chemscore.Hbond>
2.8863

> <Gold.Chemscore.Metal>
0.0000

> <Gold.Chemscore.Lipo>
137.3489

> <Gold.Chemscore.Internal_Hbond>
0.0000

> <Gold.Chemscore.DEClash>
4.4463

> <Gold.Chemscore.DEInternal>
1.2076

> <Gold.Chemscore.Rot>
2.7848

> <Gold.Chemscore.Internal.Correction>
   9.000000E+99

> <Gold.Chemscore.Hbonds>
donor molecule, donor type, donor heavy atom, donor atom, acceptor molecule, acceptor atom, score
      L1  H     9    38       P1  7948  0.94
      L1  H     9    56       P1  7957  0.67
      L1  H    12    42       P1  7957  0.32
      P1  H  8011  8017       L1    12  0.10

> <Gold.Chemscore.Hbond.Weighted>
-9.6403

> <Gold.Chemscore.Metal.Weighted>
-0.0000

> <Gold.Chemscore.Lipo.Weighted>
-16.0698

> <Gold.Chemscore.Internal_Hbond.Weighted>
0.0000

> <Gold.Chemscore.DEClash.Weighted>
4.4463

> <Gold.Chemscore.DEInternal.Weighted>
1.2076

> <Gold.Chemscore.Rot.Weighted>
7.1291

> <Gold.Chemscore.Internal.Correction.Weighted>
   9.000000E+99

> <Gold.Protein.RotatedTorsions>
[ 6907 6896 6895 6894 ] final -114.60 input  -60.11 | X-H torsion
[ 7974 7965 7964 7962 ] final  127.88 input  175.53 | X-H torsion
[ 8008 7997 7996 7995 ] final  -13.03 input   59.86 | X-H torsion
[ 10167 10162 10161 10158 ] final  100.95 input  -65.29 | X-H torsion
[ 10718 10713 10712 10709 ] final  -89.35 input   66.30 | X-H torsion
[ 10763 10752 10751 10750 ] final   25.85 input  -60.55 | X-H torsion
[ 11005 11000 10999 10996 ] final -108.59 input  -57.11 | X-H torsion

> <Gold.Protein.ActiveResidues>
 VAL166  LYS551  ARG553  GLY616  TRP617  ASP618  TYR619  PRO620  LYS621  CYS622 
 ASP623  PHE694  ASN695  SER759  ASP760  ASP761  ALA762  ILE779  LEU786  VAL792 
 PHE793  MET794  SER795  GLU796  ALA797  LYS798  CYS799  TRP800  GLU811  SER814 

> <Gold.Protein.RotatedAtoms>
  150.7914  133.8778  159.3276 H   0  0  0  0  0  0  0  0  0  0  0  0  # atno 6907 bound_to 6896
  151.6615  135.0987  160.0190 H   0  0  0  0  0  0  0  0  0  0  0  0  # atno 6908 bound_to 6896
  152.3989  133.6749  159.6335 H   0  0  0  0  0  0  0  0  0  0  0  0  # atno 6909 bound_to 6896
  145.0457  139.3925  143.5079 H   0  0  0  0  0  0  0  0  0  0  0  0  # atno 7974 bound_to 7965
  154.5327  140.2260  155.8777 H   0  0  0  0  0  0  0  0  0  0  0  0  # atno 8008 bound_to 7997
  156.1780  140.3107  155.9058 H   0  0  0  0  0  0  0  0  0  0  0  0  # atno 8009 bound_to 7997
  155.3418  140.0451  157.3035 H   0  0  0  0  0  0  0  0  0  0  0  0  # atno 8010 bound_to 7997
  139.7481  144.6992  151.0473 H   0  0  0  0  0  0  0  0  0  0  0  0  # atno 10167 bound_to 10162
  155.9984  130.4869  150.5157 H   0  0  0  0  0  0  0  0  0  0  0  0  # atno 10718 bound_to 10713
  153.0663  135.6574  154.0347 H   0  0  0  0  0  0  0  0  0  0  0  0  # atno 10763 bound_to 10752
  154.0003  135.2938  155.3405 H   0  0  0  0  0  0  0  0  0  0  0  0  # atno 10764 bound_to 10752
  154.7022  135.5240  153.8612 H   0  0  0  0  0  0  0  0  0  0  0  0  # atno 10765 bound_to 10752
  141.0894  133.9082  157.2112 H   0  0  0  0  0  0  0  0  0  0  0  0  # atno 11005 bound_to 11000
  146.3513  140.0082  142.8669 LP  0  0  0  0  0  0  0  0  0  0  0  0  # atno 17320 bound_to 7965
  145.1590  140.9663  143.4388 LP  0  0  0  0  0  0  0  0  0  0  0  0  # atno 17321 bound_to 7965
  140.7794  143.4842  150.9978 LP  0  0  0  0  0  0  0  0  0  0  0  0  # atno 17342 bound_to 10162
  139.8530  143.7413  152.3177 LP  0  0  0  0  0  0  0  0  0  0  0  0  # atno 17343 bound_to 10162
  157.3125  131.0666  151.1991 LP  0  0  0  0  0  0  0  0  0  0  0  0  # atno 17370 bound_to 10713
  157.2932  130.6806  149.6125 LP  0  0  0  0  0  0  0  0  0  0  0  0  # atno 17371 bound_to 10713
  139.9717  135.0126  156.9528 LP  0  0  0  0  0  0  0  0  0  0  0  0  # atno 17394 bound_to 11000
  140.5288  134.0834  155.7310 LP  0  0  0  0  0  0  0  0  0  0  0  0  # atno 17395 bound_to 11000

$$$$
