#       Name:                AV-unprocessed.smi:2057
#       Creating user name   scv26
#       Creation time:       Fri Mar 27 11:00:48 2020


#       File generated by GOLD software.
#

@<TRIPOS>MOLECULE
AV-unprocessed.smi:2057
    53    55     1
SMALL
NO_CHARGES


@<TRIPOS>ATOM
      1 ****        -5.7532  -2.0806  -1.0166 C.3            1 S1                 0.0000
      2 ****        -4.3369  -2.0800  -1.1209 O.3            1 S1                 0.0000
      3 ****        -3.6638  -0.9207  -0.8009 C.ar           1 S1                 0.0000
      4 ****        -4.2917   0.2741  -0.3774 C.ar           1 S1                 0.0000
      5 ****        -3.5240   1.4095  -0.0592 C.ar           1 S1                 0.0000
      6 ****        -2.1109   1.3825  -0.1608 C.ar           1 S1                 0.0000
      7 ****        -1.3062   2.4590   0.1551 O.3            1 S1                 0.0000
      8 ****        -1.9197   3.6452   0.6368 C.3            1 S1                 0.0000
      9 ****        -1.4804   0.1931  -0.6001 C.ar           1 S1                 0.0000
     10 ****         0.0404   0.1322  -0.7114 C.3            1 S1                 0.0000
     11 ****         0.4870  -0.7525  -1.7223 O.3            1 S1                 0.0000
     12 ****         0.6762  -0.2509   0.6400 C.3            1 S1                 0.0000
     13 ****         2.1309  -0.1856   0.6197 N.pl3          1 S1                 0.0000
     14 ****         2.9199   0.8905   0.8649 C.2            1 S1                 0.0000
     15 ****         2.3298   2.2281   1.2144 C.3            1 S1                 0.0000
     16 ****         3.2785   3.2728   1.2930 O.3            1 S1                 0.0000
     17 ****         4.2344   0.6709   0.7836 N.2            1 S1                 0.0000
     18 ****         4.3020  -0.6684   0.4542 C.ar           1 S1                 0.0000
     19 ****         5.4196  -1.5031   0.2263 C.ar           1 S1                 0.0000
     20 ****         5.2400  -2.8627  -0.1029 C.ar           1 S1                 0.0000
     21 ****         3.9432  -3.4061  -0.2084 C.ar           1 S1                 0.0000
     22 ****         2.8164  -2.5922   0.0164 C.ar           1 S1                 0.0000
     23 ****         3.0013  -1.2357   0.3443 C.ar           1 S1                 0.0000
     24 ****        -2.2603  -0.9453  -0.9053 C.ar           1 S1                 0.0000
     25 ****        -6.1344  -3.0626  -1.2960 H              1 S1                 0.0000
     26 ****        -6.2023  -1.3490  -1.6897 H              1 S1                 0.0000
     27 ****        -6.0781  -1.8797   0.0052 H              1 S1                 0.0000
     28 ****        -5.3646   0.3451  -0.2823 H              1 S1                 0.0000
     29 ****        -4.0495   2.2942   0.2662 H              1 S1                 0.0000
     30 ****        -1.1486   4.3846   0.8520 H              1 S1                 0.0000
     31 ****        -2.4685   3.4633   1.5619 H              1 S1                 0.0000
     32 ****        -2.5925   4.0770  -0.1051 H              1 S1                 0.0000
     33 ****         0.4008   1.1159  -1.0119 H              1 S1                 0.0000
     34 ****         0.1749  -0.4360  -2.5562 H              1 S1                 0.0000
     35 ****         0.3110   0.4062   1.4297 H              1 S1                 0.0000
     36 ****         0.3750  -1.2591   0.9274 H              1 S1                 0.0000
     37 ****         1.5848   2.5024   0.4683 H              1 S1                 0.0000
     38 ****         1.8187   2.1506   2.1742 H              1 S1                 0.0000
     39 ****         2.8275   4.0725   1.5159 H              1 S1                 0.0000
     40 ****         6.4167  -1.0961   0.3051 H              1 S1                 0.0000
     41 ****         6.1010  -3.4914  -0.2759 H              1 S1                 0.0000
     42 ****         3.8137  -4.4477  -0.4630 H              1 S1                 0.0000
     43 ****         1.8215  -3.0041  -0.0657 H              1 S1                 0.0000
     44 ****        -1.7816  -1.8608  -1.2206 H              1 S1                 0.0000
     45 ****        -4.1086  -2.3042  -2.0684 LP             1 S1                 0.0000
     46 ****        -3.9941  -2.7991  -0.5164 LP             1 S1                 0.0000
     47 ****        -0.8012   2.7031  -0.6729 LP             1 S1                 0.0000
     48 ****        -0.6649   2.1519   0.8582 LP             1 S1                 0.0000
     49 ****         0.1254  -1.6692  -1.5525 LP             1 S1                 0.0000
     50 ****         1.4865  -0.7839  -1.7259 LP             1 S1                 0.0000
     51 ****         3.7368   3.3790   0.4105 LP             1 S1                 0.0000
     52 ****         3.9562   3.0605   1.9971 LP             1 S1                 0.0000
     53 ****         4.9846   1.3167   0.9260 LP             1 S1                 0.0000
@<TRIPOS>BOND
    1    1    2 1     
    2    1   25 1     
    3    1   26 1     
    4    1   27 1     
    5    2    3 1     
    6    3   24 ar    
    7    3    4 ar    
    8    4    5 ar    
    9    4   28 1     
   10    5    6 ar    
   11    5   29 1     
   12    6    7 1     
   13    6    9 ar    
   14    7    8 1     
   15    8   30 1     
   16    8   31 1     
   17    8   32 1     
   18    9   10 1     
   19    9   24 ar    
   20   10   11 1     
   21   10   12 1     
   22   10   33 1     
   23   11   34 1     
   24   12   13 1     
   25   12   35 1     
   26   12   36 1     
   27   13   23 1     
   28   13   14 1     
   29   14   15 1     
   30   14   17 2     
   31   15   16 1     
   32   15   37 1     
   33   15   38 1     
   34   16   39 1     
   35   17   18 1     
   36   18   23 ar    
   37   18   19 ar    
   38   19   20 ar    
   39   19   40 1     
   40   20   21 ar    
   41   20   41 1     
   42   21   22 ar    
   43   21   42 1     
   44   22   23 ar    
   45   22   43 1     
   46   24   44 1     
   47    2   45 1     
   48    2   46 1     
   49    7   47 1     
   50    7   48 1     
   51   11   49 1     
   52   11   50 1     
   53   16   51 1     
   54   16   52 1     
   55   17   53 1     
@<TRIPOS>SUBSTRUCTURE
      1 S1             1
@<TRIPOS>SET
LONE_PAIRS      STATIC     ATOMS    <user>   **** ""
9 45 46 47 48 49 50 51 52 53
DONOR_HYDROGENS      STATIC     ATOMS    <user>   **** ""
2 34 39
ATOM$BLUE        STATIC     ATOMS    COLORGROUP SYSTEM
9 45 46 47 48 49 50 51 52 53
ATOM$RED        STATIC     ATOMS    COLORGROUP SYSTEM
2 34 39
