AV-unprocessed.smi:1179|AV-procd|sdf|4958|dock6
  -GOLD-   22720 3553D 1   1.00000     0.00000
 Structure written by MMmdl.
 47 48  0  0  0  0  0  0  0  0  2 V2000
  149.9235  142.1197  157.3671 C   0  0  0  0  0  0  0  0  0  0  0  0
  150.3169  140.9554  156.5067 C   0  0  0  0  0  0  0  0  0  0  0  0
  151.6253  140.5318  156.1423 C   0  0  0  0  0  0  0  0  0  0  0  0
  151.4187  139.4328  155.3572 C   0  0  0  0  0  0  0  0  0  0  0  0
  152.4008  138.5406  154.6719 C   0  0  0  0  0  0  0  0  0  0  0  0
  150.0497  139.2456  155.2813 N   0  0  0  0  0  0  0  0  0  0  0  0
  149.3012  138.2149  154.5782 C   0  0  0  0  0  0  0  0  0  0  0  0
  149.4503  136.8558  155.2639 C   0  0  0  0  0  0  0  0  0  0  0  0
  149.9059  136.7871  156.4052 O   0  0  0  0  0  0  0  0  0  0  0  0
  149.0609  135.7820  154.5590 N   0  0  0  0  0  0  0  0  0  0  0  0
  149.1055  134.4067  155.0387 C   0  0  0  0  0  0  0  0  0  0  0  0
  148.6312  133.4189  153.9551 C   0  0  0  0  0  0  0  0  0  0  0  0
  147.6861  134.0415  152.9947 N   0  3  2  0  0  0  0  0  0  0  0  0
  146.4675  134.5626  153.6666 C   0  0  0  0  0  0  0  0  0  0  0  0
  145.5671  135.3220  152.6778 C   0  0  0  0  0  0  0  0  0  0  0  0
  145.1783  134.4360  151.4827 C   0  0  1  0  0  0  0  0  0  0  0  0
  144.3053  135.1937  150.4725 C   0  0  0  0  0  0  0  0  0  0  0  0
  146.4550  133.8815  150.8291 C   0  0  0  0  0  0  0  0  0  0  0  0
  147.3380  133.1512  151.8551 C   0  0  0  0  0  0  0  0  0  0  0  0
  149.3779  140.1798  155.9901 N   0  0  0  0  0  0  0  0  0  0  0  0
  150.7919  142.7205  157.6378 H   0  0  0  0  0  0  0  0  0  0  0  0
  149.4517  141.7833  158.2905 H   0  0  0  0  0  0  0  0  0  0  0  0
  149.2189  142.7716  156.8499 H   0  0  0  0  0  0  0  0  0  0  0  0
  152.5737  140.9696  156.4164 H   0  0  0  0  0  0  0  0  0  0  0  0
  153.4233  138.8586  154.8764 H   0  0  0  0  0  0  0  0  0  0  0  0
  152.2547  138.5577  153.5920 H   0  0  0  0  0  0  0  0  0  0  0  0
  152.2961  137.5109  155.0135 H   0  0  0  0  0  0  0  0  0  0  0  0
  148.2470  138.4939  154.5355 H   0  0  0  0  0  0  0  0  0  0  0  0
  149.6546  138.1573  153.5481 H   0  0  0  0  0  0  0  0  0  0  0  0
  148.6966  135.9343  153.6290 H   0  0  0  0  0  0  0  0  0  0  0  0
  150.1335  134.1808  155.3226 H   0  0  0  0  0  0  0  0  0  0  0  0
  148.5077  134.3269  155.9470 H   0  0  0  0  0  0  0  0  0  0  0  0
  149.4759  132.9935  153.4110 H   0  0  0  0  0  0  0  0  0  0  0  0
  148.1388  132.5842  154.4564 H   0  0  0  0  0  0  0  0  0  0  0  0
  145.9178  133.7351  154.1187 H   0  0  0  0  0  0  0  0  0  0  0  0
  146.7512  135.2354  154.4768 H   0  0  0  0  0  0  0  0  0  0  0  0
  144.6707  135.6699  153.1925 H   0  0  0  0  0  0  0  0  0  0  0  0
  146.0859  136.2145  152.3245 H   0  0  0  0  0  0  0  0  0  0  0  0
  144.5948  133.5941  151.8590 H   0  0  0  0  0  0  0  0  0  0  0  0
  144.8345  136.0496  150.0522 H   0  0  0  0  0  0  0  0  0  0  0  0
  143.3934  135.5644  150.9416 H   0  0  0  0  0  0  0  0  0  0  0  0
  144.0104  134.5463  149.6463 H   0  0  0  0  0  0  0  0  0  0  0  0
  146.1935  133.1985  150.0201 H   0  0  0  0  0  0  0  0  0  0  0  0
  147.0226  134.6949  150.3746 H   0  0  0  0  0  0  0  0  0  0  0  0
  148.2400  132.8016  151.3546 H   0  0  0  0  0  0  0  0  0  0  0  0
  146.8227  132.2648  152.2282 H   0  0  0  0  0  0  0  0  0  0  0  0
  148.1590  134.8459  152.6080 H   0  0  0  0  0  0  0  0  0  0  0  0
  1  2  1  0  0  0  0
  1 21  1  0  0  0  0
  1 22  1  0  0  0  0
  1 23  1  0  0  0  0
  2 20  2  0  0  0  0
  2  3  1  0  0  0  0
  3  4  2  0  0  0  0
  3 24  1  0  0  0  0
  4  5  1  0  0  0  0
  4  6  1  0  0  0  0
  5 25  1  0  0  0  0
  5 26  1  0  0  0  0
  5 27  1  0  0  0  0
  6  7  1  0  0  0  0
  6 20  1  0  0  0  0
  7  8  1  0  0  0  0
  7 28  1  0  0  0  0
  7 29  1  0  0  0  0
  8  9  2  0  0  0  0
  8 10  1  0  0  0  0
 10 11  1  0  0  0  0
 10 30  1  0  0  0  0
 11 12  1  0  0  0  0
 11 31  1  0  0  0  0
 11 32  1  0  0  0  0
 12 13  1  0  0  0  0
 12 33  1  0  0  0  0
 12 34  1  0  0  0  0
 13 19  1  0  0  0  0
 13 14  1  0  0  0  0
 13 47  1  0  0  0  0
 14 15  1  0  0  0  0
 14 35  1  0  0  0  0
 14 36  1  0  0  0  0
 15 16  1  0  0  0  0
 15 37  1  0  0  0  0
 15 38  1  0  0  0  0
 16 17  1  0  0  0  0
 16 18  1  0  0  0  0
 16 39  1  0  0  0  0
 17 40  1  0  0  0  0
 17 41  1  0  0  0  0
 17 42  1  0  0  0  0
 18 19  1  0  0  0  0
 18 43  1  0  0  0  0
 18 44  1  0  0  0  0
 19 45  1  0  0  0  0
 19 46  1  0  0  0  0
M  CHG  1  13   1
M  END
> <s_m_source_file>
AV-unprocessed.smi

> <i_m_source_file_index>
1179

> <i_lp_mmshare_version>
43012

> <i_f3d_flags>
0

> <s_epik_input>
W0NIM11jMVtjSF1jKFtDSDNdKW4objEpW0NIMl1DKD1PKVtOSF1bQ0gyXVtDSDJdTjJbQ0gyXVtDSDJdW0NIXShbQ0gzXSlbQ0gyXVtDSDJdMg==

> <s_epik_cmdline>
J2VwaWtfcHl0aG9uJywgJy1waCcsICc3LjAnLCAnLXRuJywgJzgnLCAnLW1hJywgJzIwMCcsICctbWV0YWxfYmluZGluZycsICctaW1hZScsICc8aW5maWxlLm1hZT4nLCAnLW9tYWUnLCAnPG91dGZpbGUubWFlPic=

> <r_lp_tautomer_probability>
1

> <r_epik_Ionization_Penalty>
0.00206343

> <r_epik_Ionization_Penalty_Charging>
0.00187095

> <r_epik_Ionization_Penalty_Neutral>
0.000192474

> <r_epik_State_Penalty>
-0

> <r_epik_Charging_Adjusted_Penalty>
0.00187095

> <i_epik_Tot_Q>
1

> <i_epik_Tot_abs_Q>
1

> <r_epik_Metal_State_Penalty>
-0

> <b_epik_Metal_Only>
0

> <s_lp_Force_Field>
OPLS_2005

> <r_lp_Energy>
13.8345

> <b_lp_Chiralities_Consistent>
1

> <s_lp_Variant>
AV-unprocessed.smi:1179-1

> <Gold.Version>
5.8.1

> <Gold.Id.Protein>
6NUR|6NUR_protein|mol2

> <Gold.PLP.Fitness>
42.7082

> <Gold.PLP.PLP>
-34.7452

> <Gold.PLP.part.hbond>
-2.0000

> <Gold.PLP.part.metal>
0.0000

> <Gold.PLP.part.buried>
-2.7880

> <Gold.PLP.part.nonpolar>
-29.5792

> <Gold.PLP.part.repulsive>
0.0670

> <Gold.PLP.ligand.clash>
0.0000

> <Gold.PLP.ligand.torsion>
0.5330

> <Gold.PLP.Chemscore.Hbond>
3.0000

> <Gold.PLP.Chemscore.CHOScore>
0.0000

> <Gold.PLP.Chemscore.Metal>
0.0000

> <Gold.Chemscore.Hbonds>
donor molecule, donor type, donor heavy atom, donor atom, acceptor molecule, acceptor atom, score
      L1  H    10    30       P1  7948  0.99
      L1  H    13    47       P1  7948  2.00

> <Gold.PLP.Chemscore.Internal.Correction>
0.0290

> <Gold.Rescore>
     Score         DG    S(hbond)    S(metal)    S(lipo)     H(rot)  DE(clash)    DE(int)     intcor
     15.37     -15.86       1.97        0.00      69.04       1.67       0.02       0.47       ----

> <Gold.Chemscore.Fitness>
15.3728

> <Gold.Chemscore.DG>
-15.8633

> <Gold.Chemscore.ZeroCoef>
-5.4800

> <Gold.Chemscore.Hbond>
1.9670

> <Gold.Chemscore.Metal>
0.0000

> <Gold.Chemscore.Lipo>
69.0392

> <Gold.Chemscore.Internal_Hbond>
0.0000

> <Gold.Chemscore.DEClash>
0.0214

> <Gold.Chemscore.DEInternal>
0.4692

> <Gold.Chemscore.Rot>
1.6657

> <Gold.Chemscore.Internal.Correction>
   9.000000E+99

> <Gold.Chemscore.Hbonds>
donor molecule, donor type, donor heavy atom, donor atom, acceptor molecule, acceptor atom, score
      L1  H    10    30       P1  7948  0.94
      L1  H    13    47       P1  7948  0.65

> <Gold.Chemscore.Hbond.Weighted>
-6.5698

> <Gold.Chemscore.Metal.Weighted>
-0.0000

> <Gold.Chemscore.Lipo.Weighted>
-8.0776

> <Gold.Chemscore.Internal_Hbond.Weighted>
0.0000

> <Gold.Chemscore.DEClash.Weighted>
0.0214

> <Gold.Chemscore.DEInternal.Weighted>
0.4692

> <Gold.Chemscore.Rot.Weighted>
4.2641

> <Gold.Chemscore.Internal.Correction.Weighted>
   9.000000E+99

> <Gold.Protein.RotatedTorsions>
[ 6907 6896 6895 6894 ] final  177.29 input  -60.11 | X-H torsion
[ 7974 7965 7964 7962 ] final  132.31 input  175.53 | X-H torsion
[ 8008 7997 7996 7995 ] final   82.82 input   59.86 | X-H torsion
[ 10167 10162 10161 10158 ] final -116.25 input  -65.29 | X-H torsion
[ 10718 10713 10712 10709 ] final  -15.68 input   66.30 | X-H torsion
[ 10763 10752 10751 10750 ] final  175.35 input  -60.55 | X-H torsion
[ 11005 11000 10999 10996 ] final  107.73 input  -57.11 | X-H torsion

> <Gold.Protein.ActiveResidues>
 VAL166  LYS551  ARG553  GLY616  TRP617  ASP618  TYR619  PRO620  LYS621  CYS622 
 ASP623  PHE694  ASN695  SER759  ASP760  ASP761  ALA762  ILE779  LEU786  VAL792 
 PHE793  MET794  SER795  GLU796  ALA797  LYS798  CYS799  TRP800  GLU811  SER814 

> <Gold.Protein.RotatedAtoms>
  151.7064  133.3311  159.3279 H   0  0  0  0  0  0  0  0  0  0  0  0  # atno 6907 bound_to 6896
  150.7713  134.6570  159.6328 H   0  0  0  0  0  0  0  0  0  0  0  0  # atno 6908 bound_to 6896
  152.3738  134.6697  160.0219 H   0  0  0  0  0  0  0  0  0  0  0  0  # atno 6909 bound_to 6896
  144.9982  139.4339  143.5305 H   0  0  0  0  0  0  0  0  0  0  0  0  # atno 7974 bound_to 7965
  155.9157  140.3424  155.6133 H   0  0  0  0  0  0  0  0  0  0  0  0  # atno 8008 bound_to 7997
  155.7334  140.0798  157.2297 H   0  0  0  0  0  0  0  0  0  0  0  0  # atno 8009 bound_to 7997
  154.4062  140.1584  156.2522 H   0  0  0  0  0  0  0  0  0  0  0  0  # atno 8010 bound_to 7997
  140.0813  143.4785  152.1924 H   0  0  0  0  0  0  0  0  0  0  0  0  # atno 10167 bound_to 10162
  156.5983  130.4817  149.6250 H   0  0  0  0  0  0  0  0  0  0  0  0  # atno 10718 bound_to 10713
  154.4664  135.2769  155.1675 H   0  0  0  0  0  0  0  0  0  0  0  0  # atno 10763 bound_to 10752
  154.3442  135.6163  153.5615 H   0  0  0  0  0  0  0  0  0  0  0  0  # atno 10764 bound_to 10752
  152.9860  135.5796  154.5036 H   0  0  0  0  0  0  0  0  0  0  0  0  # atno 10765 bound_to 10752
  139.8832  134.9409  156.5864 H   0  0  0  0  0  0  0  0  0  0  0  0  # atno 11005 bound_to 11000
  146.3446  139.9354  142.8748 LP  0  0  0  0  0  0  0  0  0  0  0  0  # atno 17320 bound_to 7965
  145.2191  140.9927  143.4056 LP  0  0  0  0  0  0  0  0  0  0  0  0  # atno 17321 bound_to 7965
  139.5778  144.7496  151.3719 LP  0  0  0  0  0  0  0  0  0  0  0  0  # atno 17342 bound_to 10162
  140.7076  143.7473  150.7510 LP  0  0  0  0  0  0  0  0  0  0  0  0  # atno 17343 bound_to 10162
  156.2491  130.6896  151.1628 LP  0  0  0  0  0  0  0  0  0  0  0  0  # atno 17370 bound_to 10713
  157.7286  131.0630  150.5812 LP  0  0  0  0  0  0  0  0  0  0  0  0  # atno 17371 bound_to 10713
  140.7988  133.8522  155.8709 LP  0  0  0  0  0  0  0  0  0  0  0  0  # atno 17394 bound_to 11000
  140.9611  134.1654  157.4653 LP  0  0  0  0  0  0  0  0  0  0  0  0  # atno 17395 bound_to 11000

$$$$
