AV-unprocessed.smi:2739|AV-procd|sdf|10550|dock6
  -GOLD-   2272015 03D 1   1.00000     0.00000
 Structure written by MMmdl.
 35 35  0  0  0  0  0  0  0  0  1 V2000
  150.1925  138.2796  154.7327 C   0  0  0  0  0  0  0  0  0  0  0  0
  150.6870  139.6315  155.2667 C   0  0  0  0  0  0  0  0  0  0  0  0
  149.5531  140.6270  155.5753 C   0  0  2  0  0  0  0  0  0  0  0  0
  148.5612  140.7342  154.4065 C   0  0  0  0  0  0  0  0  0  0  0  0
  150.1046  141.9459  155.8760 N   0  0  0  0  0  0  0  0  0  0  0  0
  151.0313  142.2097  156.8103 C   0  0  0  0  0  0  0  0  0  0  0  0
  151.5547  141.3468  157.5148 O   0  0  0  0  0  0  0  0  0  0  0  0
  151.4152  143.6783  156.9902 C   0  0  0  0  0  0  0  0  0  0  0  0
  151.4437  144.0322  158.3976 N   0  0  0  0  0  0  0  0  0  0  0  0
  150.8235  145.0903  159.0262 C   0  0  0  0  0  0  0  0  0  0  0  0
  151.1544  145.0257  160.3489 C   0  0  0  0  0  0  0  0  0  0  0  0
  151.9975  143.8799  160.4400 C   0  0  0  0  0  0  0  0  0  0  0  0
  152.6723  143.3056  161.6583 C   0  0  2  0  0  0  0  0  0  0  0  0
  153.5315  142.0850  161.3021 C   0  0  0  0  0  0  0  0  0  0  0  0
  151.7423  142.9201  162.6492 O   0  0  0  0  0  0  0  0  0  0  0  0
  152.1614  143.2867  159.2658 N   0  0  0  0  0  0  0  0  0  0  0  0
  151.0334  137.6321  154.4834 H   0  0  0  0  0  0  0  0  0  0  0  0
  149.5951  138.4090  153.8296 H   0  0  0  0  0  0  0  0  0  0  0  0
  149.5810  137.7563  155.4680 H   0  0  0  0  0  0  0  0  0  0  0  0
  151.2898  139.4675  156.1609 H   0  0  0  0  0  0  0  0  0  0  0  0
  151.3570  140.0715  154.5270 H   0  0  0  0  0  0  0  0  0  0  0  0
  149.0123  140.2547  156.4474 H   0  0  0  0  0  0  0  0  0  0  0  0
  148.1261  139.7628  154.1706 H   0  0  0  0  0  0  0  0  0  0  0  0
  149.0489  141.1084  153.5056 H   0  0  0  0  0  0  0  0  0  0  0  0
  147.7403  141.4110  154.6459 H   0  0  0  0  0  0  0  0  0  0  0  0
  149.7323  142.7236  155.3505 H   0  0  0  0  0  0  0  0  0  0  0  0
  152.4018  143.8594  156.5617 H   0  0  0  0  0  0  0  0  0  0  0  0
  150.7118  144.3255  156.4630 H   0  0  0  0  0  0  0  0  0  0  0  0
  150.2089  145.7946  158.4851 H   0  0  0  0  0  0  0  0  0  0  0  0
  150.8436  145.6979  161.1348 H   0  0  0  0  0  0  0  0  0  0  0  0
  153.3152  144.0636  162.1076 H   0  0  0  0  0  0  0  0  0  0  0  0
  154.3049  142.3469  160.5796 H   0  0  0  0  0  0  0  0  0  0  0  0
  152.9268  141.2882  160.8676 H   0  0  0  0  0  0  0  0  0  0  0  0
  154.0293  141.6828  162.1850 H   0  0  0  0  0  0  0  0  0  0  0  0
  152.1526  143.0146  163.4952 H   0  0  0  0  0  0  0  0  0  0  0  0
  1  2  1  0  0  0  0
  1 17  1  0  0  0  0
  1 18  1  0  0  0  0
  1 19  1  0  0  0  0
  2  3  1  0  0  0  0
  2 20  1  0  0  0  0
  2 21  1  0  0  0  0
  3  4  1  0  0  0  0
  3  5  1  0  0  0  0
  3 22  1  0  0  0  0
  4 23  1  0  0  0  0
  4 24  1  0  0  0  0
  4 25  1  0  0  0  0
  5  6  1  0  0  0  0
  5 26  1  0  0  0  0
  6  7  2  0  0  0  0
  6  8  1  0  0  0  0
  8  9  1  0  0  0  0
  8 27  1  0  0  0  0
  8 28  1  0  0  0  0
  9 16  1  0  0  0  0
  9 10  1  0  0  0  0
 10 11  2  0  0  0  0
 10 29  1  0  0  0  0
 11 12  1  0  0  0  0
 11 30  1  0  0  0  0
 12 13  1  0  0  0  0
 12 16  2  0  0  0  0
 13 14  1  0  0  0  0
 13 15  1  0  0  0  0
 13 31  1  0  0  0  0
 14 32  1  0  0  0  0
 14 33  1  0  0  0  0
 14 34  1  0  0  0  0
 15 35  1  0  0  0  0
M  END
> <s_m_source_file>
AV-unprocessed.smi

> <i_m_source_file_index>
2739

> <i_lp_mmshare_version>
43012

> <i_f3d_flags>
0

> <s_epik_input>
W0NIM11bQ0gyXVtDQEhdKFtDSDNdKVtOSF1DKD1PKVtDSDJdbjFbY0hdW2NIXWMobjEpW0NASF0oW0NIM10pW09IXQ==

> <s_epik_cmdline>
J2VwaWtfcHl0aG9uJywgJy1waCcsICc3LjAnLCAnLXRuJywgJzgnLCAnLW1hJywgJzIwMCcsICctbWV0YWxfYmluZGluZycsICctaW1hZScsICc8aW5maWxlLm1hZT4nLCAnLW9tYWUnLCAnPG91dGZpbGUubWFlPic=

> <r_lp_tautomer_probability>
1

> <r_epik_Ionization_Penalty>
5.22246e-06

> <r_epik_Ionization_Penalty_Charging>
0

> <r_epik_Ionization_Penalty_Neutral>
5.22246e-06

> <r_epik_State_Penalty>
-0

> <r_epik_Charging_Adjusted_Penalty>
0

> <i_epik_Tot_Q>
0

> <i_epik_Tot_abs_Q>
0

> <r_epik_Metal_State_Penalty>
-0

> <b_epik_Metal_Only>
0

> <s_lp_Force_Field>
OPLS_2005

> <r_lp_Energy>
0.862384

> <b_lp_Chiralities_Consistent>
1

> <s_lp_Variant>
AV-unprocessed.smi:2739-1

> <Gold.Version>
5.8.1

> <Gold.Id.Protein>
6NUR|6NUR_protein|mol2

> <Gold.PLP.Fitness>
47.4597

> <Gold.PLP.PLP>
-39.8930

> <Gold.PLP.part.hbond>
-3.0000

> <Gold.PLP.part.metal>
0.0000

> <Gold.PLP.part.buried>
-3.2291

> <Gold.PLP.part.nonpolar>
-34.4807

> <Gold.PLP.part.repulsive>
0.1766

> <Gold.PLP.ligand.clash>
0.0000

> <Gold.PLP.ligand.torsion>
0.3129

> <Gold.PLP.Chemscore.Hbond>
1.8160

> <Gold.PLP.Chemscore.CHOScore>
0.9058

> <Gold.PLP.Chemscore.Metal>
0.0000

> <Gold.Chemscore.Hbonds>
donor molecule, donor type, donor heavy atom, donor atom, acceptor molecule, acceptor atom, score
      L1  H     5    26       P1  8028  0.50
      P1  H  6933  6945       L1    15  0.86
      L1  C    10    29       P1  8029  0.85

> <Gold.PLP.Chemscore.Internal.Correction>
0.0271

> <Gold.Rescore>
     Score         DG    S(hbond)    S(metal)    S(lipo)     H(rot)  DE(clash)    DE(int)     intcor
     12.60     -17.15       1.98        0.00      94.70       2.34       2.48       2.08       ----

> <Gold.Chemscore.Fitness>
12.6026

> <Gold.Chemscore.DG>
-17.1545

> <Gold.Chemscore.ZeroCoef>
-5.4800

> <Gold.Chemscore.Hbond>
1.9754

> <Gold.Chemscore.Metal>
0.0000

> <Gold.Chemscore.Lipo>
94.6958

> <Gold.Chemscore.Internal_Hbond>
0.0000

> <Gold.Chemscore.DEClash>
2.4757

> <Gold.Chemscore.DEInternal>
2.0762

> <Gold.Chemscore.Rot>
2.3448

> <Gold.Chemscore.Internal.Correction>
   9.000000E+99

> <Gold.Chemscore.Hbonds>
donor molecule, donor type, donor heavy atom, donor atom, acceptor molecule, acceptor atom, score
      L1  H     5    26       P1  8028  0.49
      P1  H  6933  6945       L1    15  0.81

> <Gold.Chemscore.Hbond.Weighted>
-6.5978

> <Gold.Chemscore.Metal.Weighted>
-0.0000

> <Gold.Chemscore.Lipo.Weighted>
-11.0794

> <Gold.Chemscore.Internal_Hbond.Weighted>
0.0000

> <Gold.Chemscore.DEClash.Weighted>
2.4757

> <Gold.Chemscore.DEInternal.Weighted>
2.0762

> <Gold.Chemscore.Rot.Weighted>
6.0027

> <Gold.Chemscore.Internal.Correction.Weighted>
   9.000000E+99

> <Gold.Protein.RotatedTorsions>
[ 6907 6896 6895 6894 ] final   17.79 input  -60.11 | X-H torsion
[ 7974 7965 7964 7962 ] final   84.05 input  175.53 | X-H torsion
[ 8008 7997 7996 7995 ] final   43.17 input   59.86 | X-H torsion
[ 10167 10162 10161 10158 ] final  174.13 input  -65.29 | X-H torsion
[ 10718 10713 10712 10709 ] final  -31.86 input   66.30 | X-H torsion
[ 10763 10752 10751 10750 ] final -159.00 input  -60.55 | X-H torsion
[ 11005 11000 10999 10996 ] final  -49.69 input  -57.11 | X-H torsion

> <Gold.Protein.ActiveResidues>
 VAL166  LYS551  ARG553  GLY616  TRP617  ASP618  TYR619  PRO620  LYS621  CYS622 
 ASP623  PHE694  ASN695  SER759  ASP760  ASP761  ALA762  ILE779  LEU786  VAL792 
 PHE793  MET794  SER795  GLU796  ALA797  LYS798  CYS799  TRP800  GLU811  SER814 

> <Gold.Protein.RotatedAtoms>
  151.8551  135.0544  160.0462 H   0  0  0  0  0  0  0  0  0  0  0  0  # atno 6907 bound_to 6896
  152.2706  133.5375  159.5445 H   0  0  0  0  0  0  0  0  0  0  0  0  # atno 6908 bound_to 6896
  150.7150  134.0618  159.3876 H   0  0  0  0  0  0  0  0  0  0  0  0  # atno 6909 bound_to 6896
  145.6039  139.2357  143.2230 H   0  0  0  0  0  0  0  0  0  0  0  0  # atno 7974 bound_to 7965
  155.2984  140.3383  155.4249 H   0  0  0  0  0  0  0  0  0  0  0  0  # atno 8008 bound_to 7997
  156.2013  140.1734  156.7932 H   0  0  0  0  0  0  0  0  0  0  0  0  # atno 8009 bound_to 7997
  154.5563  140.0696  156.8732 H   0  0  0  0  0  0  0  0  0  0  0  0  # atno 8010 bound_to 7997
  139.5131  144.3182  152.0227 H   0  0  0  0  0  0  0  0  0  0  0  0  # atno 10167 bound_to 10162
  156.3820  130.4357  149.7461 H   0  0  0  0  0  0  0  0  0  0  0  0  # atno 10718 bound_to 10713
  154.7511  135.3092  154.8556 H   0  0  0  0  0  0  0  0  0  0  0  0  # atno 10763 bound_to 10752
  153.9343  135.6782  153.4749 H   0  0  0  0  0  0  0  0  0  0  0  0  # atno 10764 bound_to 10752
  153.1107  135.4868  154.8957 H   0  0  0  0  0  0  0  0  0  0  0  0  # atno 10765 bound_to 10752
  141.0773  133.6662  156.3622 H   0  0  0  0  0  0  0  0  0  0  0  0  # atno 11005 bound_to 11000
  146.1555  140.6863  142.9302 LP  0  0  0  0  0  0  0  0  0  0  0  0  # atno 17320 bound_to 7965
  144.7298  140.4637  143.6946 LP  0  0  0  0  0  0  0  0  0  0  0  0  # atno 17321 bound_to 7965
  140.2625  144.4052  150.6180 LP  0  0  0  0  0  0  0  0  0  0  0  0  # atno 17342 bound_to 10162
  140.6147  143.2171  151.6816 LP  0  0  0  0  0  0  0  0  0  0  0  0  # atno 17343 bound_to 10162
  156.4548  130.7924  151.2945 LP  0  0  0  0  0  0  0  0  0  0  0  0  # atno 17370 bound_to 10713
  157.7493  131.0084  150.3227 LP  0  0  0  0  0  0  0  0  0  0  0  0  # atno 17371 bound_to 10713
  140.5544  134.5995  157.5417 LP  0  0  0  0  0  0  0  0  0  0  0  0  # atno 17394 bound_to 11000
  139.9586  134.7492  156.0286 LP  0  0  0  0  0  0  0  0  0  0  0  0  # atno 17395 bound_to 11000

$$$$
