#       Name:                AV-unprocessed.smi:2600
#       Creating user name   scv26
#       Creation time:       Fri Mar 27 14:19:26 2020


#       File generated by GOLD software.
#

@<TRIPOS>MOLECULE
AV-unprocessed.smi:2600
    49    50     1
SMALL
NO_CHARGES


@<TRIPOS>ATOM
      1 ****        -4.4200  -0.1380  -3.0103 C.3            1 S1                 0.0000
      2 ****        -3.8207  -0.8612  -1.7930 C.3            1 S1                 0.0000
      3 ****        -2.8785  -0.0101  -0.9086 C.3            1 S1                 0.0000
      4 ****        -2.4566  -0.8650   0.3093 C.3            1 S1                 0.0000
      5 ****        -1.6471   0.4995  -1.7048 C.3            1 S1                 0.0000
      6 ****        -0.8909   1.4570  -0.8847 N.am           1 S1                 0.0000
      7 ****         0.3396   1.2777  -0.3433 C.2            1 S1                 0.0000
      8 ****         0.8649   2.0871   0.4225 O.2            1 S1                 0.0000
      9 ****         0.9512   0.1380  -0.7076 N.am           1 S1                 0.0000
     10 ****         2.2546  -0.3061  -0.2294 C.3            1 S1                 0.0000
     11 ****         2.1518  -0.9445   1.1659 C.3            1 S1                 0.0000
     12 ****         3.4644  -1.4331   1.6906 C.2            1 S1                 0.0000
     13 ****         3.9451  -2.7082   1.7957 C.2            1 S1                 0.0000
     14 ****         5.2410  -2.5452   2.3577 C.2            1 S1                 0.0000
     15 ****         5.5407  -1.2777   2.5826 N.2            1 S1                 0.0000
     16 ****         4.4509  -0.5916   2.1770 N.pl3          1 S1                 0.0000
     17 ****         4.4526   0.8553   2.2863 C.3            1 S1                 0.0000
     18 ****        -1.7306   2.6153  -0.5753 C.3            1 S1                 0.0000
     19 ****        -2.9352   2.1305   0.2479 C.3            1 S1                 0.0000
     20 ****        -3.6483   1.1149  -0.4621 O.3            1 S1                 0.0000
     21 ****        -5.1462  -0.7770  -3.5128 H              1 S1                 0.0000
     22 ****        -3.6594   0.1200  -3.7463 H              1 S1                 0.0000
     23 ****        -4.9356   0.7775  -2.7196 H              1 S1                 0.0000
     24 ****        -4.6466  -1.2250  -1.1800 H              1 S1                 0.0000
     25 ****        -3.2931  -1.7510  -2.1392 H              1 S1                 0.0000
     26 ****        -1.9309  -1.7652  -0.0104 H              1 S1                 0.0000
     27 ****        -3.3257  -1.1802   0.8870 H              1 S1                 0.0000
     28 ****        -1.7914  -0.3362   0.9908 H              1 S1                 0.0000
     29 ****        -1.0568  -0.3468  -2.0565 H              1 S1                 0.0000
     30 ****        -1.9579   1.0233  -2.6084 H              1 S1                 0.0000
     31 ****         0.4658  -0.4751  -1.3462 H              1 S1                 0.0000
     32 ****         2.6478  -1.0323  -0.9413 H              1 S1                 0.0000
     33 ****         2.9532   0.5316  -0.2242 H              1 S1                 0.0000
     34 ****         1.7216  -0.2344   1.8728 H              1 S1                 0.0000
     35 ****         1.4513  -1.7795   1.1269 H              1 S1                 0.0000
     36 ****         3.4446  -3.6221   1.5115 H              1 S1                 0.0000
     37 ****         5.9673  -3.3046   2.6067 H              1 S1                 0.0000
     38 ****         3.4561   1.2168   2.5394 H              1 S1                 0.0000
     39 ****         4.7606   1.2931   1.3366 H              1 S1                 0.0000
     40 ****         5.1450   1.1768   3.0654 H              1 S1                 0.0000
     41 ****        -1.1965   3.3940  -0.0293 H              1 S1                 0.0000
     42 ****        -2.0704   3.0785  -1.5029 H              1 S1                 0.0000
     43 ****        -2.6162   1.7644   1.2238 H              1 S1                 0.0000
     44 ****        -3.6154   2.9607   0.4381 H              1 S1                 0.0000
     45 ****         0.3807   2.9254   0.6729 LP             1 S1                 0.0000
     46 ****         1.7755   1.9057   0.7938 LP             1 S1                 0.0000
     47 ****         6.3867  -0.9089   2.9677 LP             1 S1                 0.0000
     48 ****        -4.3687   0.7710   0.1403 LP             1 S1                 0.0000
     49 ****        -4.0618   1.5397  -1.2674 LP             1 S1                 0.0000
@<TRIPOS>BOND
    1    1    2 1     
    2    1   21 1     
    3    1   22 1     
    4    1   23 1     
    5    2    3 1     
    6    2   24 1     
    7    2   25 1     
    8    3   20 1     
    9    3    4 1     
   10    3    5 1     
   11    4   26 1     
   12    4   27 1     
   13    4   28 1     
   14    5    6 1     
   15    5   29 1     
   16    5   30 1     
   17    6    7 am    
   18    6   18 1     
   19    7    8 2     
   20    7    9 am    
   21    9   10 1     
   22    9   31 1     
   23   10   11 1     
   24   10   32 1     
   25   10   33 1     
   26   11   12 1     
   27   11   34 1     
   28   11   35 1     
   29   12   16 1     
   30   12   13 2     
   31   13   14 1     
   32   13   36 1     
   33   14   15 2     
   34   14   37 1     
   35   15   16 1     
   36   16   17 1     
   37   17   38 1     
   38   17   39 1     
   39   17   40 1     
   40   18   19 1     
   41   18   41 1     
   42   18   42 1     
   43   19   20 1     
   44   19   43 1     
   45   19   44 1     
   46    8   45 1     
   47    8   46 1     
   48   15   47 1     
   49   20   48 1     
   50   20   49 1     
@<TRIPOS>SUBSTRUCTURE
      1 S1             1
@<TRIPOS>SET
LONE_PAIRS      STATIC     ATOMS    <user>   **** ""
5 45 46 47 48 49
DONOR_HYDROGENS      STATIC     ATOMS    <user>   **** ""
1 31
ATOM$BLUE        STATIC     ATOMS    COLORGROUP SYSTEM
5 45 46 47 48 49
ATOM$RED        STATIC     ATOMS    COLORGROUP SYSTEM
1 31
