AV-unprocessed.smi:1705|AV-procd|sdf|6882|dock3
  -GOLD-   22720 8 83D 1   1.00000     0.00000
 Structure written by MMmdl.
 38 39  0  0  0  0  0  0  0  0  1 V2000
  149.3319  141.6937  157.1079 C   0  0  0  0  0  0  0  0  0  0  0  0
  150.5059  140.8366  157.6060 C   0  0  2  0  0  0  0  0  0  0  0  0
  150.0137  139.5450  158.0612 N   0  0  0  0  0  0  0  0  0  0  0  0
  150.1994  138.3176  157.4327 C   0  0  0  0  0  0  0  0  0  0  0  0
  150.8963  138.2042  156.2668 C   0  0  0  0  0  0  0  0  0  0  0  0
  151.4547  139.3177  155.5666 C   0  0  0  0  0  0  0  0  0  0  0  0
  151.8884  140.2399  155.0163 N   0  0  0  0  0  0  0  0  0  0  0  0
  151.1027  136.9152  155.6101 C   0  0  0  0  0  0  0  0  0  0  0  0
  151.7320  136.7727  154.5589 O   0  0  0  0  0  0  0  0  0  0  0  0
  150.5271  135.8136  156.2746 N   0  0  0  0  0  0  0  0  0  0  0  0
  150.7256  134.5162  155.6587 C   0  0  0  0  0  0  0  0  0  0  0  0
  149.8048  135.9019  157.4828 C   0  0  0  0  0  0  0  0  0  0  0  0
  149.3389  134.9009  158.0355 O   0  0  0  0  0  0  0  0  0  0  0  0
  149.6384  137.1920  158.0439 N   0  0  0  0  0  0  0  0  0  0  0  0
  148.8948  137.2162  159.2878 C   0  0  0  0  0  0  0  0  0  0  0  0
  151.2841  141.5191  158.7460 C   0  0  2  0  0  0  0  0  0  0  0  0
  151.8884  142.8765  158.3898 C   0  0  0  0  0  0  0  0  0  0  0  0
  153.0249  143.0233  159.3872 C   0  0  0  0  0  0  0  0  0  0  0  0
  153.3053  141.5881  159.8424 C   0  0  0  0  0  0  0  0  0  0  0  0
  152.4462  140.7671  159.0624 O   0  0  0  0  0  0  0  0  0  0  0  0
  149.6793  142.6351  156.6824 H   0  0  0  0  0  0  0  0  0  0  0  0
  148.6421  141.9284  157.9192 H   0  0  0  0  0  0  0  0  0  0  0  0
  148.7646  141.1782  156.3332 H   0  0  0  0  0  0  0  0  0  0  0  0
  151.1987  140.6833  156.7791 H   0  0  0  0  0  0  0  0  0  0  0  0
  149.9935  139.4874  159.0693 H   0  0  0  0  0  0  0  0  0  0  0  0
  150.1684  133.7368  156.1768 H   0  0  0  0  0  0  0  0  0  0  0  0
  151.7954  134.3040  155.6979 H   0  0  0  0  0  0  0  0  0  0  0  0
  150.3706  134.5834  154.6287 H   0  0  0  0  0  0  0  0  0  0  0  0
  149.4967  136.6941  160.0335 H   0  0  0  0  0  0  0  0  0  0  0  0
  147.9376  136.7199  159.1165 H   0  0  0  0  0  0  0  0  0  0  0  0
  148.7097  138.2394  159.6067 H   0  0  0  0  0  0  0  0  0  0  0  0
  150.6627  141.6098  159.6393 H   0  0  0  0  0  0  0  0  0  0  0  0
  152.2914  142.8536  157.3762 H   0  0  0  0  0  0  0  0  0  0  0  0
  151.1669  143.6917  158.4491 H   0  0  0  0  0  0  0  0  0  0  0  0
  153.8986  143.4896  158.9310 H   0  0  0  0  0  0  0  0  0  0  0  0
  152.7213  143.6366  160.2365 H   0  0  0  0  0  0  0  0  0  0  0  0
  154.3467  141.3009  159.6963 H   0  0  0  0  0  0  0  0  0  0  0  0
  153.0631  141.4652  160.8990 H   0  0  0  0  0  0  0  0  0  0  0  0
  1  2  1  0  0  0  0
  1 21  1  0  0  0  0
  1 22  1  0  0  0  0
  1 23  1  0  0  0  0
  2  3  1  0  0  0  0
  2 16  1  0  0  0  0
  2 24  1  0  0  0  0
  3  4  1  0  0  0  0
  3 25  1  0  0  0  0
  4 14  1  0  0  0  0
  4  5  2  0  0  0  0
  5  6  1  0  0  0  0
  5  8  1  0  0  0  0
  6  7  3  0  0  0  0
  8  9  2  0  0  0  0
  8 10  1  0  0  0  0
 10 11  1  0  0  0  0
 10 12  1  0  0  0  0
 11 26  1  0  0  0  0
 11 27  1  0  0  0  0
 11 28  1  0  0  0  0
 12 13  2  0  0  0  0
 12 14  1  0  0  0  0
 14 15  1  0  0  0  0
 15 29  1  0  0  0  0
 15 30  1  0  0  0  0
 15 31  1  0  0  0  0
 16 20  1  0  0  0  0
 16 17  1  0  0  0  0
 16 32  1  0  0  0  0
 17 18  1  0  0  0  0
 17 33  1  0  0  0  0
 17 34  1  0  0  0  0
 18 19  1  0  0  0  0
 18 35  1  0  0  0  0
 18 36  1  0  0  0  0
 19 20  1  0  0  0  0
 19 37  1  0  0  0  0
 19 38  1  0  0  0  0
M  END
> <s_m_source_file>
AV-unprocessed.smi

> <i_m_source_file_index>
1705

> <i_lp_mmshare_version>
43012

> <i_f3d_flags>
0

> <s_epik_input>
TzFbQ0gyXVtDSDJdW0NIMl1bQ0BIXTFbQ0BIXShbQ0gzXSlbTkhdYzJjKEMjTiljKD1PKW4oW0NIM10pYyg9TyluMltDSDNd

> <s_epik_cmdline>
J2VwaWtfcHl0aG9uJywgJy1waCcsICc3LjAnLCAnLXRuJywgJzgnLCAnLW1hJywgJzIwMCcsICctbWV0YWxfYmluZGluZycsICctaW1hZScsICc8aW5maWxlLm1hZT4nLCAnLW9tYWUnLCAnPG91dGZpbGUubWFlPic=

> <r_epik_Ionization_Penalty>
0.000446268

> <r_epik_Ionization_Penalty_Charging>
9.41922e-10

> <r_epik_Ionization_Penalty_Neutral>
0.000446267

> <r_epik_State_Penalty>
0.000275531

> <r_epik_Charging_Adjusted_Penalty>
0.000275532

> <i_epik_Tot_Q>
0

> <i_epik_Tot_abs_Q>
0

> <r_epik_Metal_State_Penalty>
-0

> <b_epik_Metal_Only>
0

> <s_lp_Force_Field>
OPLS_2005

> <r_lp_Energy>
37.8394

> <b_lp_Chiralities_Consistent>
1

> <s_lp_Variant>
AV-unprocessed.smi:1705-1

> <Gold.Version>
5.8.1

> <Gold.Id.Protein>
6NUR|6NUR_protein|mol2

> <Gold.PLP.Fitness>
38.5008

> <Gold.PLP.PLP>
-30.0780

> <Gold.PLP.part.hbond>
-2.9801

> <Gold.PLP.part.metal>
0.0000

> <Gold.PLP.part.buried>
-5.8563

> <Gold.PLP.part.nonpolar>
-21.9514

> <Gold.PLP.part.repulsive>
0.3591

> <Gold.PLP.ligand.clash>
9.0766

> <Gold.PLP.ligand.torsion>
0.0993

> <Gold.PLP.Chemscore.Hbond>
2.8640

> <Gold.PLP.Chemscore.CHOScore>
0.0000

> <Gold.PLP.Chemscore.Metal>
0.0000

> <Gold.Chemscore.Hbonds>
donor molecule, donor type, donor heavy atom, donor atom, acceptor molecule, acceptor atom, score
      P1  H  6896  6907       L1    13  0.99
      P1  H  7989  7998       L1     7  0.82
      P1  H 10752 10763       L1     9  1.00

> <Gold.PLP.Chemscore.Internal.Correction>
9.1059

> <Gold.Rescore>
     Score         DG    S(hbond)    S(metal)    S(lipo)     H(rot)  DE(clash)    DE(int)     intcor
     16.33     -19.04       2.88        0.00      61.65       1.28       0.09       2.61       ----

> <Gold.Chemscore.Fitness>
16.3346

> <Gold.Chemscore.DG>
-19.0376

> <Gold.Chemscore.ZeroCoef>
-5.4800

> <Gold.Chemscore.Hbond>
2.8791

> <Gold.Chemscore.Metal>
0.0000

> <Gold.Chemscore.Lipo>
61.6504

> <Gold.Chemscore.Internal_Hbond>
0.0000

> <Gold.Chemscore.DEClash>
0.0914

> <Gold.Chemscore.DEInternal>
2.6116

> <Gold.Chemscore.Rot>
1.2780

> <Gold.Chemscore.Internal.Correction>
   9.000000E+99

> <Gold.Chemscore.Hbonds>
donor molecule, donor type, donor heavy atom, donor atom, acceptor molecule, acceptor atom, score
      P1  H  6896  6907       L1    13  0.70
      P1  H  7989  7998       L1     7  0.81
      P1  H 10752 10763       L1     9  0.99

> <Gold.Chemscore.Hbond.Weighted>
-9.6161

> <Gold.Chemscore.Metal.Weighted>
-0.0000

> <Gold.Chemscore.Lipo.Weighted>
-7.2131

> <Gold.Chemscore.Internal_Hbond.Weighted>
0.0000

> <Gold.Chemscore.DEClash.Weighted>
0.0914

> <Gold.Chemscore.DEInternal.Weighted>
2.6116

> <Gold.Chemscore.Rot.Weighted>
3.2717

> <Gold.Chemscore.Internal.Correction.Weighted>
   9.000000E+99

> <Gold.Protein.RotatedTorsions>
[ 6907 6896 6895 6894 ] final -101.77 input  -60.11 | X-H torsion
[ 7974 7965 7964 7962 ] final -125.39 input  175.53 | X-H torsion
[ 8008 7997 7996 7995 ] final   45.70 input   59.86 | X-H torsion
[ 10167 10162 10161 10158 ] final   14.74 input  -65.29 | X-H torsion
[ 10718 10713 10712 10709 ] final   25.73 input   66.30 | X-H torsion
[ 10763 10752 10751 10750 ] final   41.65 input  -60.55 | X-H torsion
[ 11005 11000 10999 10996 ] final  -12.70 input  -57.11 | X-H torsion

> <Gold.Protein.ActiveResidues>
 VAL166  LYS551  ARG553  GLY616  TRP617  ASP618  TYR619  PRO620  LYS621  CYS622 
 ASP623  PHE694  ASN695  SER759  ASP760  ASP761  ALA762  ILE779  LEU786  VAL792 
 PHE793  MET794  SER795  GLU796  ALA797  LYS798  CYS799  TRP800  GLU811  SER814 

> <Gold.Protein.RotatedAtoms>
  150.7168  134.0683  159.3855 H   0  0  0  0  0  0  0  0  0  0  0  0  # atno 6907 bound_to 6896
  151.8665  135.0503  160.0484 H   0  0  0  0  0  0  0  0  0  0  0  0  # atno 6908 bound_to 6896
  152.2676  133.5318  159.5456 H   0  0  0  0  0  0  0  0  0  0  0  0  # atno 6909 bound_to 6896
  144.9981  140.7795  143.4513 H   0  0  0  0  0  0  0  0  0  0  0  0  # atno 7974 bound_to 7965
  155.3402  140.3407  155.4239 H   0  0  0  0  0  0  0  0  0  0  0  0  # atno 8008 bound_to 7997
  156.1817  140.1666  156.8298 H   0  0  0  0  0  0  0  0  0  0  0  0  # atno 8009 bound_to 7997
  154.5341  140.0739  156.8379 H   0  0  0  0  0  0  0  0  0  0  0  0  # atno 8010 bound_to 7997
  140.5915  143.8785  150.6878 H   0  0  0  0  0  0  0  0  0  0  0  0  # atno 10167 bound_to 10162
  157.1973  130.6873  149.6174 H   0  0  0  0  0  0  0  0  0  0  0  0  # atno 10718 bound_to 10713
  152.9903  135.6155  154.2822 H   0  0  0  0  0  0  0  0  0  0  0  0  # atno 10763 bound_to 10752
  154.2550  135.2784  155.2803 H   0  0  0  0  0  0  0  0  0  0  0  0  # atno 10764 bound_to 10752
  154.5255  135.5803  153.6773 H   0  0  0  0  0  0  0  0  0  0  0  0  # atno 10765 bound_to 10752
  140.7685  133.8458  155.9186 H   0  0  0  0  0  0  0  0  0  0  0  0  # atno 11005 bound_to 11000
  145.2192  139.2167  143.5102 LP  0  0  0  0  0  0  0  0  0  0  0  0  # atno 17320 bound_to 7965
  146.3446  140.2046  142.8589 LP  0  0  0  0  0  0  0  0  0  0  0  0  # atno 17321 bound_to 7965
  140.2309  143.3736  152.1566 LP  0  0  0  0  0  0  0  0  0  0  0  0  # atno 17342 bound_to 10162
  139.5231  144.7067  151.5333 LP  0  0  0  0  0  0  0  0  0  0  0  0  # atno 17343 bound_to 10162
  155.9704  130.4594  150.6037 LP  0  0  0  0  0  0  0  0  0  0  0  0  # atno 17370 bound_to 10713
  157.3802  131.0779  151.1483 LP  0  0  0  0  0  0  0  0  0  0  0  0  # atno 17371 bound_to 10713
  140.9596  134.1672  157.4664 LP  0  0  0  0  0  0  0  0  0  0  0  0  # atno 17394 bound_to 11000
  139.8759  134.9940  156.5671 LP  0  0  0  0  0  0  0  0  0  0  0  0  # atno 17395 bound_to 11000

$$$$
