AV-unprocessed.smi:3223|AV-procd|sdf|12307|dock1
  -GOLD-   2272018153D 1   1.00000     0.00000
 Structure written by MMmdl.
 43 43  0  0  0  0  0  0  0  0  2 V2000
  151.9593  142.8985  158.4891 C   0  0  0  0  0  0  0  0  0  0  0  0
  151.3252  141.8896  157.5755 C   0  0  0  0  0  0  0  0  0  0  0  0
  151.2537  140.4780  157.7472 C   0  0  0  0  0  0  0  0  0  0  0  0
  150.6267  139.8715  156.7527 N   0  0  0  0  0  0  0  0  0  0  0  0
  150.2693  140.8701  155.9175 N   0  0  0  0  0  0  0  0  0  0  0  0
  149.5616  140.5665  154.6849 C   0  0  0  0  0  0  0  0  0  0  0  0
  149.4294  139.0518  154.4250 C   0  0  2  0  0  0  0  0  0  0  0  0
  150.8148  138.3880  154.3631 C   0  0  0  0  0  0  0  0  0  0  0  0
  148.6728  138.8120  153.1746 N   0  3  0  0  0  0  0  0  0  0  0  0
  147.2417  139.1751  153.2281 C   0  0  0  0  0  0  0  0  0  0  0  0
  146.5067  138.6984  151.9641 C   0  0  0  0  0  0  0  0  0  0  0  0
  145.9377  137.2848  152.1158 C   0  0  0  0  0  0  0  0  0  0  0  0
  146.1936  136.6185  153.1187 O   0  0  0  0  0  0  0  0  0  0  0  0
  145.1618  136.8420  151.1139 N   0  0  0  0  0  0  0  0  0  0  0  0
  144.5239  135.5297  151.0541 C   0  0  0  0  0  0  0  0  0  0  0  0
  143.5827  135.3638  152.2545 C   0  0  0  0  0  0  0  0  0  0  0  0
  145.5856  134.4202  151.0064 C   0  0  0  0  0  0  0  0  0  0  0  0
  150.6872  142.0981  156.3856 C   0  0  0  0  0  0  0  0  0  0  0  0
  152.4579  142.4236  159.3343 H   0  0  0  0  0  0  0  0  0  0  0  0
  151.2225  143.5898  158.8981 H   0  0  0  0  0  0  0  0  0  0  0  0
  152.7089  143.4963  157.9700 H   0  0  0  0  0  0  0  0  0  0  0  0
  151.6387  139.8795  158.5596 H   0  0  0  0  0  0  0  0  0  0  0  0
  148.5761  141.0332  154.7246 H   0  0  0  0  0  0  0  0  0  0  0  0
  150.0996  141.0442  153.8647 H   0  0  0  0  0  0  0  0  0  0  0  0
  148.8769  138.6099  155.2557 H   0  0  0  0  0  0  0  0  0  0  0  0
  151.3778  138.5770  155.2776 H   0  0  0  0  0  0  0  0  0  0  0  0
  151.4025  138.7722  153.5287 H   0  0  0  0  0  0  0  0  0  0  0  0
  150.7413  137.3065  154.2497 H   0  0  0  0  0  0  0  0  0  0  0  0
  149.0944  139.3783  152.4520 H   0  0  0  0  0  0  0  0  0  0  0  0
  146.7810  138.7328  154.1118 H   0  0  0  0  0  0  0  0  0  0  0  0
  147.1607  140.2587  153.3286 H   0  0  0  0  0  0  0  0  0  0  0  0
  145.6818  139.3739  151.7343 H   0  0  0  0  0  0  0  0  0  0  0  0
  147.1850  138.7304  151.1098 H   0  0  0  0  0  0  0  0  0  0  0  0
  144.9990  137.4592  150.3314 H   0  0  0  0  0  0  0  0  0  0  0  0
  143.9175  135.4676  150.1487 H   0  0  0  0  0  0  0  0  0  0  0  0
  143.0737  134.4001  152.2218 H   0  0  0  0  0  0  0  0  0  0  0  0
  142.8160  136.1395  152.2635 H   0  0  0  0  0  0  0  0  0  0  0  0
  144.1261  135.4203  153.1985 H   0  0  0  0  0  0  0  0  0  0  0  0
  145.1201  133.4359  150.9510 H   0  0  0  0  0  0  0  0  0  0  0  0
  146.2195  134.4385  151.8936 H   0  0  0  0  0  0  0  0  0  0  0  0
  146.2305  134.5263  150.1336 H   0  0  0  0  0  0  0  0  0  0  0  0
  150.4976  143.0111  155.8403 H   0  0  0  0  0  0  0  0  0  0  0  0
  148.7657  137.8401  152.9164 H   0  0  0  0  0  0  0  0  0  0  0  0
  1  2  1  0  0  0  0
  1 19  1  0  0  0  0
  1 20  1  0  0  0  0
  1 21  1  0  0  0  0
  2 18  2  0  0  0  0
  2  3  1  0  0  0  0
  3  4  2  0  0  0  0
  3 22  1  0  0  0  0
  4  5  1  0  0  0  0
  5  6  1  0  0  0  0
  5 18  1  0  0  0  0
  6  7  1  0  0  0  0
  6 23  1  0  0  0  0
  6 24  1  0  0  0  0
  7  8  1  0  0  0  0
  7  9  1  0  0  0  0
  7 25  1  0  0  0  0
  8 26  1  0  0  0  0
  8 27  1  0  0  0  0
  8 28  1  0  0  0  0
  9 10  1  0  0  0  0
  9 29  1  0  0  0  0
  9 43  1  0  0  0  0
 10 11  1  0  0  0  0
 10 30  1  0  0  0  0
 10 31  1  0  0  0  0
 11 12  1  0  0  0  0
 11 32  1  0  0  0  0
 11 33  1  0  0  0  0
 12 13  2  0  0  0  0
 12 14  1  0  0  0  0
 14 15  1  0  0  0  0
 14 34  1  0  0  0  0
 15 16  1  0  0  0  0
 15 17  1  0  0  0  0
 15 35  1  0  0  0  0
 16 36  1  0  0  0  0
 16 37  1  0  0  0  0
 16 38  1  0  0  0  0
 17 39  1  0  0  0  0
 17 40  1  0  0  0  0
 17 41  1  0  0  0  0
 18 42  1  0  0  0  0
M  CHG  1   9   1
M  END
> <s_m_source_file>
AV-unprocessed.smi

> <i_m_source_file_index>
3223

> <i_lp_mmshare_version>
43012

> <i_f3d_flags>
0

> <s_epik_input>
W0NIM11jMVtjSF1ubihbY0hdMSlbQ0gyXVtDQEhdKFtDSDNdKVtOSF1bQ0gyXVtDSDJdQyg9TylbTkhdW0NIXShbQ0gzXSlbQ0gzXQ==

> <s_epik_cmdline>
J2VwaWtfcHl0aG9uJywgJy1waCcsICc3LjAnLCAnLXRuJywgJzgnLCAnLW1hJywgJzIwMCcsICctbWV0YWxfYmluZGluZycsICctaW1hZScsICc8aW5maWxlLm1hZT4nLCAnLW9tYWUnLCAnPG91dGZpbGUubWFlPic=

> <r_lp_tautomer_probability>
1

> <r_epik_Ionization_Penalty>
0.0057861

> <r_epik_Ionization_Penalty_Charging>
0.00577767

> <r_epik_Ionization_Penalty_Neutral>
8.4224e-06

> <r_epik_State_Penalty>
0.00424195

> <r_epik_Charging_Adjusted_Penalty>
0.0100196

> <i_epik_Tot_Q>
1

> <i_epik_Tot_abs_Q>
1

> <r_epik_Metal_State_Penalty>
-0

> <b_epik_Metal_Only>
0

> <s_lp_Force_Field>
OPLS_2005

> <r_lp_Energy>
5.53081

> <b_lp_Chiralities_Consistent>
1

> <s_lp_Variant>
AV-unprocessed.smi:3223-1

> <Gold.Version>
5.8.1

> <Gold.Id.Protein>
6NUR|6NUR_protein|mol2

> <Gold.PLP.Fitness>
52.3926

> <Gold.PLP.PLP>
-38.3076

> <Gold.PLP.part.hbond>
-2.9983

> <Gold.PLP.part.metal>
0.0000

> <Gold.PLP.part.buried>
-5.1003

> <Gold.PLP.part.nonpolar>
-32.2011

> <Gold.PLP.part.repulsive>
0.7080

> <Gold.PLP.ligand.clash>
0.0000

> <Gold.PLP.ligand.torsion>
0.3499

> <Gold.PLP.Chemscore.Hbond>
3.8480

> <Gold.PLP.Chemscore.CHOScore>
1.0000

> <Gold.PLP.Chemscore.Metal>
0.0000

> <Gold.Chemscore.Hbonds>
donor molecule, donor type, donor heavy atom, donor atom, acceptor molecule, acceptor atom, score
      L1  H     9    29       P1  7957  1.00
      L1  H     9    43       P1  7948  2.00
      L1  H    14    34       P1 10171  0.80
      L1  C    18    42       P1  8028  1.00

> <Gold.PLP.Chemscore.Internal.Correction>
0.2408

> <Gold.Rescore>
     Score         DG    S(hbond)    S(metal)    S(lipo)     H(rot)  DE(clash)    DE(int)     intcor
     16.95     -19.50       2.96        0.00      83.16       2.19       0.06       2.49       ----

> <Gold.Chemscore.Fitness>
16.9529

> <Gold.Chemscore.DG>
-19.5047

> <Gold.Chemscore.ZeroCoef>
-5.4800

> <Gold.Chemscore.Hbond>
2.9607

> <Gold.Chemscore.Metal>
0.0000

> <Gold.Chemscore.Lipo>
83.1600

> <Gold.Chemscore.Internal_Hbond>
0.0000

> <Gold.Chemscore.DEClash>
0.0618

> <Gold.Chemscore.DEInternal>
2.4901

> <Gold.Chemscore.Rot>
2.1850

> <Gold.Chemscore.Internal.Correction>
   9.000000E+99

> <Gold.Chemscore.Hbonds>
donor molecule, donor type, donor heavy atom, donor atom, acceptor molecule, acceptor atom, score
      L1  H     9    29       P1  7957  0.93
      L1  H     9    43       P1  7948  0.99
      L1  H    14    34       P1 10171  0.79

> <Gold.Chemscore.Hbond.Weighted>
-9.8886

> <Gold.Chemscore.Metal.Weighted>
-0.0000

> <Gold.Chemscore.Lipo.Weighted>
-9.7297

> <Gold.Chemscore.Internal_Hbond.Weighted>
0.0000

> <Gold.Chemscore.DEClash.Weighted>
0.0618

> <Gold.Chemscore.DEInternal.Weighted>
2.4901

> <Gold.Chemscore.Rot.Weighted>
5.5936

> <Gold.Chemscore.Internal.Correction.Weighted>
   9.000000E+99

> <Gold.Protein.RotatedTorsions>
[ 6907 6896 6895 6894 ] final  111.88 input  -60.11 | X-H torsion
[ 7974 7965 7964 7962 ] final   -0.09 input  175.53 | X-H torsion
[ 8008 7997 7996 7995 ] final   45.06 input   59.86 | X-H torsion
[ 10167 10162 10161 10158 ] final  148.48 input  -65.29 | X-H torsion
[ 10718 10713 10712 10709 ] final -108.70 input   66.30 | X-H torsion
[ 10763 10752 10751 10750 ] final -171.39 input  -60.55 | X-H torsion
[ 11005 11000 10999 10996 ] final  151.74 input  -57.11 | X-H torsion

> <Gold.Protein.ActiveResidues>
 VAL166  LYS551  ARG553  GLY616  TRP617  ASP618  TYR619  PRO620  LYS621  CYS622 
 ASP623  PHE694  ASN695  SER759  ASP760  ASP761  ALA762  ILE779  LEU786  VAL792 
 PHE793  MET794  SER795  GLU796  ALA797  LYS798  CYS799  TRP800  GLU811  SER814 

> <Gold.Protein.RotatedAtoms>
  152.4946  133.8595  159.7242 H   0  0  0  0  0  0  0  0  0  0  0  0  # atno 6907 bound_to 6896
  150.9111  133.6988  159.2861 H   0  0  0  0  0  0  0  0  0  0  0  0  # atno 6908 bound_to 6896
  151.4397  135.1023  159.9719 H   0  0  0  0  0  0  0  0  0  0  0  0  # atno 6909 bound_to 6896
  146.2430  140.1217  142.8340 H   0  0  0  0  0  0  0  0  0  0  0  0  # atno 7974 bound_to 7965
  155.3296  140.3402  155.4240 H   0  0  0  0  0  0  0  0  0  0  0  0  # atno 8008 bound_to 7997
  156.1868  140.1683  156.8206 H   0  0  0  0  0  0  0  0  0  0  0  0  # atno 8009 bound_to 7997
  154.5396  140.0728  156.8470 H   0  0  0  0  0  0  0  0  0  0  0  0  # atno 8010 bound_to 7997
  139.4874  144.5676  151.7116 H   0  0  0  0  0  0  0  0  0  0  0  0  # atno 10167 bound_to 10162
  156.0499  130.5726  150.7998 H   0  0  0  0  0  0  0  0  0  0  0  0  # atno 10718 bound_to 10713
  154.6310  135.2886  155.0216 H   0  0  0  0  0  0  0  0  0  0  0  0  # atno 10763 bound_to 10752
  154.1377  135.6523  153.4939 H   0  0  0  0  0  0  0  0  0  0  0  0  # atno 10764 bound_to 10752
  153.0280  135.5325  154.7138 H   0  0  0  0  0  0  0  0  0  0  0  0  # atno 10765 bound_to 10752
  140.1246  134.8842  157.2119 H   0  0  0  0  0  0  0  0  0  0  0  0  # atno 11005 bound_to 11000
  145.0400  140.8938  143.5058 LP  0  0  0  0  0  0  0  0  0  0  0  0  # atno 17320 bound_to 7965
  145.1296  139.2640  143.5546 LP  0  0  0  0  0  0  0  0  0  0  0  0  # atno 17321 bound_to 7965
  140.5257  144.0810  150.6037 LP  0  0  0  0  0  0  0  0  0  0  0  0  # atno 17342 bound_to 10162
  140.3783  143.2817  152.0200 LP  0  0  0  0  0  0  0  0  0  0  0  0  # atno 17343 bound_to 10162
  157.5414  131.0941  150.9822 LP  0  0  0  0  0  0  0  0  0  0  0  0  # atno 17370 bound_to 10713
  157.0104  130.5634  149.5320 LP  0  0  0  0  0  0  0  0  0  0  0  0  # atno 17371 bound_to 10713
  140.2921  134.3229  155.7312 LP  0  0  0  0  0  0  0  0  0  0  0  0  # atno 17394 bound_to 11000
  141.2158  133.7541  156.9518 LP  0  0  0  0  0  0  0  0  0  0  0  0  # atno 17395 bound_to 11000

$$$$
