AV-unprocessed.smi:1012|AV-procd|sdf|4424|dock6
  -GOLD-   22720 2373D 1   1.00000     0.00000
 Structure written by MMmdl.
 44 46  0  0  0  0  0  0  0  0  2 V2000
  146.9463  131.6749  157.9699 C   0  0  0  0  0  0  0  0  0  0  0  0
  147.5891  132.9257  158.1679 O   0  0  0  0  0  0  0  0  0  0  0  0
  147.5450  133.4985  159.4232 C   0  0  0  0  0  0  0  0  0  0  0  0
  147.0263  132.8314  160.5633 C   0  0  0  0  0  0  0  0  0  0  0  0
  147.0067  133.4645  161.8203 C   0  0  0  0  0  0  0  0  0  0  0  0
  147.5042  134.7713  161.9595 C   0  0  0  0  0  0  0  0  0  0  0  0
  148.0211  135.4439  160.8381 C   0  0  0  0  0  0  0  0  0  0  0  0
  148.0418  134.8180  159.5738 C   0  0  0  0  0  0  0  0  0  0  0  0
  148.6225  135.5882  158.3988 C   0  0  0  0  0  0  0  0  0  0  0  0
  149.1120  136.8561  158.8036 O   0  0  0  0  0  0  0  0  0  0  0  0
  150.2502  137.2670  158.0645 C   0  0  0  0  0  0  0  0  0  0  0  0
  149.9889  138.6624  157.4809 C   0  0  2  0  0  0  0  0  0  0  0  0
  149.4474  138.5181  156.1830 O   0  0  0  0  0  0  0  0  0  0  0  0
  151.2659  139.5238  157.4170 C   0  0  0  0  0  0  0  0  0  0  0  0
  150.9902  140.9572  157.5789 N   0  0  0  0  0  0  0  0  0  0  0  0
  150.3426  141.8249  156.7548 C   0  0  0  0  0  0  0  0  0  0  0  0
  150.3421  143.0443  157.3615 N   0  3  0  0  0  0  0  0  0  0  0  0
  150.9999  142.9540  158.5906 C   0  0  0  0  0  0  0  0  0  0  0  0
  151.2528  143.9153  159.5636 C   0  0  0  0  0  0  0  0  0  0  0  0
  151.9531  143.4886  160.7115 C   0  0  0  0  0  0  0  0  0  0  0  0
  152.2248  144.3842  161.6901 F   0  0  0  0  0  0  0  0  0  0  0  0
  152.3744  142.1498  160.8592 C   0  0  0  0  0  0  0  0  0  0  0  0
  153.0438  141.7823  161.9774 F   0  0  0  0  0  0  0  0  0  0  0  0
  152.1125  141.1838  159.8653 C   0  0  0  0  0  0  0  0  0  0  0  0
  151.4197  141.6154  158.7354 C   0  0  0  0  0  0  0  0  0  0  0  0
  147.0716  131.3681  156.9316 H   0  0  0  0  0  0  0  0  0  0  0  0
  145.8752  131.7404  158.1661 H   0  0  0  0  0  0  0  0  0  0  0  0
  147.3836  130.8975  158.5977 H   0  0  0  0  0  0  0  0  0  0  0  0
  146.6353  131.8273  160.5020 H   0  0  0  0  0  0  0  0  0  0  0  0
  146.6096  132.9445  162.6796 H   0  0  0  0  0  0  0  0  0  0  0  0
  147.4913  135.2567  162.9244 H   0  0  0  0  0  0  0  0  0  0  0  0
  148.4046  136.4476  160.9500 H   0  0  0  0  0  0  0  0  0  0  0  0
  149.4381  134.9975  157.9786 H   0  0  0  0  0  0  0  0  0  0  0  0
  147.8875  135.7182  157.6045 H   0  0  0  0  0  0  0  0  0  0  0  0
  151.1375  137.2768  158.6999 H   0  0  0  0  0  0  0  0  0  0  0  0
  150.4310  136.5538  157.2583 H   0  0  0  0  0  0  0  0  0  0  0  0
  149.2370  139.1625  158.0923 H   0  0  0  0  0  0  0  0  0  0  0  0
  149.1674  137.6223  156.0729 H   0  0  0  0  0  0  0  0  0  0  0  0
  151.9817  139.2239  158.1835 H   0  0  0  0  0  0  0  0  0  0  0  0
  151.7675  139.3910  156.4573 H   0  0  0  0  0  0  0  0  0  0  0  0
  149.9038  141.5877  155.7961 H   0  0  0  0  0  0  0  0  0  0  0  0
  150.9312  144.9406  159.4552 H   0  0  0  0  0  0  0  0  0  0  0  0
  152.4365  140.1608  159.9878 H   0  0  0  0  0  0  0  0  0  0  0  0
  149.9199  143.8742  156.9644 H   0  0  0  0  0  0  0  0  0  0  0  0
  1  2  1  0  0  0  0
  1 26  1  0  0  0  0
  1 27  1  0  0  0  0
  1 28  1  0  0  0  0
  2  3  1  0  0  0  0
  3  8  1  0  0  0  0
  3  4  2  0  0  0  0
  4  5  1  0  0  0  0
  4 29  1  0  0  0  0
  5  6  2  0  0  0  0
  5 30  1  0  0  0  0
  6  7  1  0  0  0  0
  6 31  1  0  0  0  0
  7  8  2  0  0  0  0
  7 32  1  0  0  0  0
  8  9  1  0  0  0  0
  9 10  1  0  0  0  0
  9 33  1  0  0  0  0
  9 34  1  0  0  0  0
 10 11  1  0  0  0  0
 11 12  1  0  0  0  0
 11 35  1  0  0  0  0
 11 36  1  0  0  0  0
 12 13  1  0  0  0  0
 12 14  1  0  0  0  0
 12 37  1  0  0  0  0
 13 38  1  0  0  0  0
 14 15  1  0  0  0  0
 14 39  1  0  0  0  0
 14 40  1  0  0  0  0
 15 25  1  0  0  0  0
 15 16  1  0  0  0  0
 16 17  2  0  0  0  0
 16 41  1  0  0  0  0
 17 18  1  0  0  0  0
 17 44  1  0  0  0  0
 18 25  2  0  0  0  0
 18 19  1  0  0  0  0
 19 20  2  0  0  0  0
 19 42  1  0  0  0  0
 20 21  1  0  0  0  0
 20 22  1  0  0  0  0
 22 23  1  0  0  0  0
 22 24  2  0  0  0  0
 24 25  1  0  0  0  0
 24 43  1  0  0  0  0
M  CHG  1  17   1
M  END
> <s_m_source_file>
AV-unprocessed.smi

> <i_m_source_file_index>
1012

> <i_lp_mmshare_version>
43012

> <i_f3d_flags>
0

> <s_epik_input>
W0NIM11PYzFbY0hdW2NIXVtjSF1bY0hdYzFbQ0gyXU9bQ0gyXVtDQEhdKFtPSF0pW0NIMl1uKFtjSF1uMiljKGMyMylbY0hdYyhGKWMoRilbY0hdMw==

> <s_epik_cmdline>
J2VwaWtfcHl0aG9uJywgJy1waCcsICc3LjAnLCAnLXRuJywgJzgnLCAnLW1hJywgJzIwMCcsICctbWV0YWxfYmluZGluZycsICctaW1hZScsICc8aW5maWxlLm1hZT4nLCAnLW9tYWUnLCAnPG91dGZpbGUubWFlPic=

> <r_lp_tautomer_probability>
1

> <r_epik_Ionization_Penalty>
2.14697

> <r_epik_Ionization_Penalty_Charging>
2.14697

> <r_epik_Ionization_Penalty_Neutral>
1.07667e-06

> <r_epik_State_Penalty>
2.28651

> <r_epik_Charging_Adjusted_Penalty>
4.43348

> <i_epik_Tot_Q>
1

> <i_epik_Tot_abs_Q>
1

> <r_epik_Metal_State_Penalty>
6.36664

> <b_epik_Metal_Only>
0

> <s_lp_Force_Field>
OPLS_2005

> <r_lp_Energy>
22.239

> <b_lp_Chiralities_Consistent>
1

> <s_lp_Variant>
AV-unprocessed.smi:1012-3

> <Gold.Version>
5.8.1

> <Gold.Id.Protein>
6NUR|6NUR_protein|mol2

> <Gold.PLP.Fitness>
57.9053

> <Gold.PLP.PLP>
-54.9466

> <Gold.PLP.part.hbond>
-0.8705

> <Gold.PLP.part.metal>
0.0000

> <Gold.PLP.part.buried>
-6.9758

> <Gold.PLP.part.nonpolar>
-48.4768

> <Gold.PLP.part.repulsive>
0.0825

> <Gold.PLP.ligand.clash>
0.0000

> <Gold.PLP.ligand.torsion>
1.5421

> <Gold.PLP.Chemscore.Hbond>
1.9840

> <Gold.PLP.Chemscore.CHOScore>
0.0000

> <Gold.PLP.Chemscore.Metal>
0.0000

> <Gold.Chemscore.Hbonds>
donor molecule, donor type, donor heavy atom, donor atom, acceptor molecule, acceptor atom, score
      L1  H    17    44       P1  8028  2.00

> <Gold.PLP.Chemscore.Internal.Correction>
0.0908

> <Gold.Rescore>
     Score         DG    S(hbond)    S(metal)    S(lipo)     H(rot)  DE(clash)    DE(int)     intcor
     13.36     -15.50       0.99        0.00     123.57       3.03       0.15       1.99       ----

> <Gold.Chemscore.Fitness>
13.3639

> <Gold.Chemscore.DG>
-15.4985

> <Gold.Chemscore.ZeroCoef>
-5.4800

> <Gold.Chemscore.Hbond>
0.9918

> <Gold.Chemscore.Metal>
0.0000

> <Gold.Chemscore.Lipo>
123.5656

> <Gold.Chemscore.Internal_Hbond>
0.0000

> <Gold.Chemscore.DEClash>
0.1469

> <Gold.Chemscore.DEInternal>
1.9877

> <Gold.Chemscore.Rot>
3.0278

> <Gold.Chemscore.Internal.Correction>
   9.000000E+99

> <Gold.Chemscore.Hbonds>
donor molecule, donor type, donor heavy atom, donor atom, acceptor molecule, acceptor atom, score
      L1  H    17    44       P1  8028  0.93

> <Gold.Chemscore.Hbond.Weighted>
-3.3125

> <Gold.Chemscore.Metal.Weighted>
-0.0000

> <Gold.Chemscore.Lipo.Weighted>
-14.4572

> <Gold.Chemscore.Internal_Hbond.Weighted>
0.0000

> <Gold.Chemscore.DEClash.Weighted>
0.1469

> <Gold.Chemscore.DEInternal.Weighted>
1.9877

> <Gold.Chemscore.Rot.Weighted>
7.7512

> <Gold.Chemscore.Internal.Correction.Weighted>
   9.000000E+99

> <Gold.Protein.RotatedTorsions>
[ 6907 6896 6895 6894 ] final -172.18 input  -60.11 | X-H torsion
[ 7974 7965 7964 7962 ] final   92.51 input  175.53 | X-H torsion
[ 8008 7997 7996 7995 ] final   15.97 input   59.86 | X-H torsion
[ 10167 10162 10161 10158 ] final -134.43 input  -65.29 | X-H torsion
[ 10718 10713 10712 10709 ] final  -81.24 input   66.30 | X-H torsion
[ 10763 10752 10751 10750 ] final   53.61 input  -60.55 | X-H torsion
[ 11005 11000 10999 10996 ] final   40.29 input  -57.11 | X-H torsion

> <Gold.Protein.ActiveResidues>
 VAL166  LYS551  ARG553  GLY616  TRP617  ASP618  TYR619  PRO620  LYS621  CYS622 
 ASP623  PHE694  ASN695  SER759  ASP760  ASP761  ALA762  ILE779  LEU786  VAL792 
 PHE793  MET794  SER795  GLU796  ALA797  LYS798  CYS799  TRP800  GLU811  SER814 

> <Gold.Protein.RotatedAtoms>
  151.5359  133.3441  159.2926 H   0  0  0  0  0  0  0  0  0  0  0  0  # atno 6907 bound_to 6896
  150.8565  134.7908  159.7061 H   0  0  0  0  0  0  0  0  0  0  0  0  # atno 6908 bound_to 6896
  152.4597  134.5220  159.9837 H   0  0  0  0  0  0  0  0  0  0  0  0  # atno 6909 bound_to 6896
  145.4913  139.2276  143.2828 H   0  0  0  0  0  0  0  0  0  0  0  0  # atno 7974 bound_to 7965
  154.8702  140.2957  155.5486 H   0  0  0  0  0  0  0  0  0  0  0  0  # atno 8008 bound_to 7997
  156.3021  140.2461  156.3623 H   0  0  0  0  0  0  0  0  0  0  0  0  # atno 8009 bound_to 7997
  154.8825  140.0397  157.1780 H   0  0  0  0  0  0  0  0  0  0  0  0  # atno 8010 bound_to 7997
  139.8881  143.6756  152.2616 H   0  0  0  0  0  0  0  0  0  0  0  0  # atno 10167 bound_to 10162
  156.0054  130.4598  150.3922 H   0  0  0  0  0  0  0  0  0  0  0  0  # atno 10718 bound_to 10713
  152.9797  135.5773  154.4770 H   0  0  0  0  0  0  0  0  0  0  0  0  # atno 10763 bound_to 10752
  154.4324  135.2774  155.1905 H   0  0  0  0  0  0  0  0  0  0  0  0  # atno 10764 bound_to 10752
  154.3608  135.6189  153.5743 H   0  0  0  0  0  0  0  0  0  0  0  0  # atno 10765 bound_to 10752
  140.1945  134.3945  155.8128 H   0  0  0  0  0  0  0  0  0  0  0  0  # atno 11005 bound_to 11000
  146.2282  140.5707  142.8987 LP  0  0  0  0  0  0  0  0  0  0  0  0  # atno 17320 bound_to 7965
  144.7832  140.5883  143.6591 LP  0  0  0  0  0  0  0  0  0  0  0  0  # atno 17321 bound_to 7965
  139.7134  144.7616  151.1074 LP  0  0  0  0  0  0  0  0  0  0  0  0  # atno 17342 bound_to 10162
  140.7732  143.5301  150.9434 LP  0  0  0  0  0  0  0  0  0  0  0  0  # atno 17343 bound_to 10162
  157.1996  131.0435  151.2657 LP  0  0  0  0  0  0  0  0  0  0  0  0  # atno 17370 bound_to 10713
  157.3988  130.7322  149.6751 LP  0  0  0  0  0  0  0  0  0  0  0  0  # atno 17371 bound_to 10713
  141.2227  133.7063  156.8153 LP  0  0  0  0  0  0  0  0  0  0  0  0  # atno 17394 bound_to 11000
  140.2122  134.8819  157.3287 LP  0  0  0  0  0  0  0  0  0  0  0  0  # atno 17395 bound_to 11000

$$$$
