#       Name:                AV-unprocessed.smi:1786
#       Creating user name   scv26
#       Creation time:       Fri Mar 27 08:44:26 2020


#       File generated by GOLD software.
#

@<TRIPOS>MOLECULE
AV-unprocessed.smi:1786
    48    49     1
SMALL
NO_CHARGES


@<TRIPOS>ATOM
      1 ****        -2.1274   0.8865   3.1643 C.3            1 S1                 0.0000
      2 ****        -2.0209   1.7406   1.8824 C.3            1 S1                 0.0000
      3 ****        -2.6905   3.1221   2.0399 C.3            1 S1                 0.0000
      4 ****        -1.8675   4.0649   2.9299 C.3            1 S1                 0.0000
      5 ****        -0.4323   4.1686   2.3997 C.3            1 S1                 0.0000
      6 ****         0.2087   2.7789   2.2529 C.3            1 S1                 0.0000
      7 ****        -0.6199   1.8957   1.3872 N.4            1 S1                 1.0000
      8 ****         0.0385   0.6089   1.0446 C.3            1 S1                 0.0000
      9 ****         1.1041   0.7755  -0.0551 C.3            1 S1                 0.0000
     10 ****         1.7098  -0.5016  -0.4131 N.am           1 S1                 0.0000
     11 ****         1.1503  -1.4184  -1.2172 C.2            1 S1                 0.0000
     12 ****         0.0354  -1.2779  -1.7215 O.2            1 S1                 0.0000
     13 ****         1.9721  -2.6916  -1.4643 C.3            1 S1                 0.0000
     14 ****         1.6133  -3.3826  -2.7140 N.am           1 S1                 0.0000
     15 ****         0.7444  -4.4873  -2.6111 C.2            1 S1                 0.0000
     16 ****         0.3549  -5.1868  -3.6885 C.2            1 S1                 0.0000
     17 ****         0.8515  -4.7810  -4.9819 C.2            1 S1                 0.0000
     18 ****         1.6798  -3.7235  -5.0923 C.2            1 S1                 0.0000
     19 ****         2.1058  -2.9542  -3.9175 C.2            1 S1                 0.0000
     20 ****         2.8585  -1.9839  -4.0086 O.2            1 S1                 0.0000
     21 ****        -3.1686   0.7838   3.4708 H              1 S1                 0.0000
     22 ****        -1.5863   1.3241   4.0023 H              1 S1                 0.0000
     23 ****        -1.7422  -0.1215   3.0123 H              1 S1                 0.0000
     24 ****        -2.5758   1.2140   1.1044 H              1 S1                 0.0000
     25 ****        -2.8073   3.5771   1.0553 H              1 S1                 0.0000
     26 ****        -3.6983   3.0121   2.4420 H              1 S1                 0.0000
     27 ****        -2.3289   5.0525   2.9577 H              1 S1                 0.0000
     28 ****        -1.8586   3.7003   3.9573 H              1 S1                 0.0000
     29 ****        -0.4359   4.6727   1.4323 H              1 S1                 0.0000
     30 ****         0.1677   4.7873   3.0677 H              1 S1                 0.0000
     31 ****         1.2033   2.8998   1.8248 H              1 S1                 0.0000
     32 ****         0.3504   2.3206   3.2321 H              1 S1                 0.0000
     33 ****         0.4738   0.1622   1.9397 H              1 S1                 0.0000
     34 ****        -0.7176  -0.0911   0.6863 H              1 S1                 0.0000
     35 ****         0.6692   1.2414  -0.9413 H              1 S1                 0.0000
     36 ****         1.9067   1.4324   0.2778 H              1 S1                 0.0000
     37 ****         2.6268  -0.6964  -0.0369 H              1 S1                 0.0000
     38 ****         3.0355  -2.4443  -1.4681 H              1 S1                 0.0000
     39 ****         1.8369  -3.3534  -0.6079 H              1 S1                 0.0000
     40 ****         0.4134  -4.7221  -1.6099 H              1 S1                 0.0000
     41 ****        -0.3149  -6.0286  -3.5908 H              1 S1                 0.0000
     42 ****         0.5565  -5.3274  -5.8656 H              1 S1                 0.0000
     43 ****         2.0403  -3.4338  -6.0684 H              1 S1                 0.0000
     44 ****        -0.7135   2.3852   0.5085 H              1 S1                 0.0000
     45 ****        -0.4959  -0.4509  -1.5376 LP             1 S1                 0.0000
     46 ****        -0.3385  -1.9908  -2.3147 LP             1 S1                 0.0000
     47 ****         3.1285  -1.4817  -3.1871 LP             1 S1                 0.0000
     48 ****         3.1997  -1.6982  -4.9040 LP             1 S1                 0.0000
@<TRIPOS>BOND
    1    1    2 1     
    2    1   21 1     
    3    1   22 1     
    4    1   23 1     
    5    2    7 1     
    6    2    3 1     
    7    2   24 1     
    8    3    4 1     
    9    3   25 1     
   10    3   26 1     
   11    4    5 1     
   12    4   27 1     
   13    4   28 1     
   14    5    6 1     
   15    5   29 1     
   16    5   30 1     
   17    6    7 1     
   18    6   31 1     
   19    6   32 1     
   20    7    8 1     
   21    7   44 1     
   22    8    9 1     
   23    8   33 1     
   24    8   34 1     
   25    9   10 1     
   26    9   35 1     
   27    9   36 1     
   28   10   11 am    
   29   10   37 1     
   30   11   12 2     
   31   11   13 1     
   32   13   14 1     
   33   13   38 1     
   34   13   39 1     
   35   14   19 am    
   36   14   15 1     
   37   15   16 2     
   38   15   40 1     
   39   16   17 1     
   40   16   41 1     
   41   17   18 2     
   42   17   42 1     
   43   18   19 1     
   44   18   43 1     
   45   19   20 2     
   46   12   45 1     
   47   12   46 1     
   48   20   47 1     
   49   20   48 1     
@<TRIPOS>SUBSTRUCTURE
      1 S1             1
@<TRIPOS>SET
LONE_PAIRS      STATIC     ATOMS    <user>   **** ""
4 45 46 47 48
DONOR_HYDROGENS      STATIC     ATOMS    <user>   **** ""
2 44 37
ATOM$BLUE        STATIC     ATOMS    COLORGROUP SYSTEM
4 45 46 47 48
ATOM$RED        STATIC     ATOMS    COLORGROUP SYSTEM
2 44 37
