#       Name:                AV-unprocessed.smi:261
#       Creating user name   scv26
#       Creation time:       Thu Mar 26 21:16:37 2020


#       File generated by GOLD software.
#

@<TRIPOS>MOLECULE
AV-unprocessed.smi:261
    62    65     1
SMALL
NO_CHARGES


@<TRIPOS>ATOM
      1 ****        -6.0768   2.0315  -0.4751 C.3            1 S1                 0.0000
      2 ****        -4.6695   2.0366  -0.2951 O.3            1 S1                 0.0000
      3 ****        -3.9375   2.3358  -1.4776 C.3            1 S1                 0.0000
      4 ****        -3.7728   1.1070  -2.3823 C.3            1 S1                 0.0000
      5 ****        -2.5585   0.3545  -1.8149 C.3            1 S1                 0.0000
      6 ****        -2.9791  -0.7061  -0.7742 C.2            1 S1                 0.0000
      7 ****        -2.6258  -0.5347   0.5044 N.am           1 S1                 0.0000
      8 ****        -3.6198  -1.6907  -1.1353 O.2            1 S1                 0.0000
      9 ****        -1.7318   1.4352  -1.2759 N.pl3          1 S1                 0.0000
     10 ****        -0.3946   1.3587  -1.0272 C.ar           1 S1                 0.0000
     11 ****         0.2161   2.4582  -0.5102 N.ar           1 S1                 0.0000
     12 ****         1.5224   2.4505  -0.2345 C.ar           1 S1                 0.0000
     13 ****         2.4005   1.4611  -0.3931 N.ar           1 S1                 0.0000
     14 ****         1.8024   0.3512  -0.9111 C.ar           1 S1                 0.0000
     15 ****         0.4261   0.2118  -1.2569 C.ar           1 S1                 0.0000
     16 ****         0.2065  -1.0697  -1.7526 N.2            1 S1                 0.0000
     17 ****         1.3715  -1.6522  -1.6910 C.2            1 S1                 0.0000
     18 ****         2.3862  -0.8721  -1.1899 N.pl3          1 S1                 0.0000
     19 ****         3.7721  -1.2629  -0.9936 C.3            1 S1                 0.0000
     20 ****         4.0195  -2.0694   0.3014 C.3            1 S1                 0.0000
     21 ****         3.4278  -3.3515   0.2141 O.3            1 S1                 0.0000
     22 ****         3.5911  -1.3625   1.6087 C.3            1 S1                 0.0000
     23 ****         3.9065  -2.1023   2.9083 C.3            1 S1                 0.0000
     24 ****         2.9481  -1.4672   3.9050 C.3            1 S1                 0.0000
     25 ****         1.9010  -0.7631   3.0336 C.3            1 S1                 0.0000
     26 ****         2.1906  -1.1535   1.6990 O.3            1 S1                 0.0000
     27 ****        -2.4953   2.6635  -1.0761 C.3            1 S1                 0.0000
     28 ****        -4.3936   3.1777  -2.0012 H              1 S1                 0.0000
     29 ****        -2.0530  -0.1477  -2.6393 H              1 S1                 0.0000
     30 ****        -6.5624   1.8115   0.4755 H              1 S1                 0.0000
     31 ****        -6.3932   1.2738  -1.1917 H              1 S1                 0.0000
     32 ****        -6.4338   3.0047  -0.8146 H              1 S1                 0.0000
     33 ****        -4.6716   0.4950  -2.4598 H              1 S1                 0.0000
     34 ****        -3.5372   1.4432  -3.3931 H              1 S1                 0.0000
     35 ****        -2.8898  -1.2220   1.1956 H              1 S1                 0.0000
     36 ****        -2.0925   0.2797   0.7722 H              1 S1                 0.0000
     37 ****         1.9198   3.3682   0.1732 H              1 S1                 0.0000
     38 ****         1.5211  -2.6755  -2.0028 H              1 S1                 0.0000
     39 ****         4.0929  -1.8370  -1.8638 H              1 S1                 0.0000
     40 ****         4.3844  -0.3605  -0.9841 H              1 S1                 0.0000
     41 ****         5.0940  -2.2437   0.3659 H              1 S1                 0.0000
     42 ****         3.7826  -3.7953  -0.5408 H              1 S1                 0.0000
     43 ****         4.0710  -0.3821   1.6431 H              1 S1                 0.0000
     44 ****         3.6796  -3.1650   2.8174 H              1 S1                 0.0000
     45 ****         4.9516  -2.0062   3.2036 H              1 S1                 0.0000
     46 ****         2.4980  -2.2216   4.5512 H              1 S1                 0.0000
     47 ****         3.4613  -0.7448   4.5405 H              1 S1                 0.0000
     48 ****         0.8805  -1.0350   3.3037 H              1 S1                 0.0000
     49 ****         1.9971   0.3203   3.1171 H              1 S1                 0.0000
     50 ****        -2.0920   3.4379  -1.7304 H              1 S1                 0.0000
     51 ****        -2.4315   3.0224  -0.0477 H              1 S1                 0.0000
     52 ****        -4.3902   1.1323   0.0276 LP             1 S1                 0.0000
     53 ****        -4.4433   2.7220   0.3970 LP             1 S1                 0.0000
     54 ****        -3.8659  -1.8015  -2.0982 LP             1 S1                 0.0000
     55 ****        -3.8952  -2.3810  -0.4662 LP             1 S1                 0.0000
     56 ****        -0.3204   3.2836  -0.3341 LP             1 S1                 0.0000
     57 ****         3.3714   1.5245  -0.1623 LP             1 S1                 0.0000
     58 ****        -0.6539  -1.4578  -2.0828 LP             1 S1                 0.0000
     59 ****         2.4368  -3.2595   0.1163 LP             1 S1                 0.0000
     60 ****         3.6340  -3.8750   1.0408 LP             1 S1                 0.0000
     61 ****         1.7045  -1.9989   1.4777 LP             1 S1                 0.0000
     62 ****         1.9115  -0.4327   1.0645 LP             1 S1                 0.0000
@<TRIPOS>BOND
    1    1    2 1     
    2    1   30 1     
    3    1   31 1     
    4    1   32 1     
    5    2    3 1     
    6    3   28 1     
    7    3   27 1     
    8    3    4 1     
    9    4    5 1     
   10    4   33 1     
   11    4   34 1     
   12    5   29 1     
   13    5    6 1     
   14    5    9 1     
   15    6    7 am    
   16    6    8 2     
   17    7   35 1     
   18    7   36 1     
   19    9   10 1     
   20    9   27 1     
   21   10   15 ar    
   22   10   11 ar    
   23   11   12 ar    
   24   12   13 ar    
   25   12   37 1     
   26   13   14 ar    
   27   14   18 1     
   28   14   15 ar    
   29   15   16 1     
   30   16   17 2     
   31   17   18 1     
   32   17   38 1     
   33   18   19 1     
   34   19   20 1     
   35   19   39 1     
   36   19   40 1     
   37   20   21 1     
   38   20   22 1     
   39   20   41 1     
   40   21   42 1     
   41   22   26 1     
   42   22   23 1     
   43   22   43 1     
   44   23   24 1     
   45   23   44 1     
   46   23   45 1     
   47   24   25 1     
   48   24   46 1     
   49   24   47 1     
   50   25   26 1     
   51   25   48 1     
   52   25   49 1     
   53   27   50 1     
   54   27   51 1     
   55    2   52 1     
   56    2   53 1     
   57    8   54 1     
   58    8   55 1     
   59   11   56 1     
   60   13   57 1     
   61   16   58 1     
   62   21   59 1     
   63   21   60 1     
   64   26   61 1     
   65   26   62 1     
@<TRIPOS>SUBSTRUCTURE
      1 S1             1
@<TRIPOS>SET
LONE_PAIRS      STATIC     ATOMS    <user>   **** ""
11 52 53 54 55 56 57 58 59 60 61 62
DONOR_HYDROGENS      STATIC     ATOMS    <user>   **** ""
3 35 36 42
ATOM$BLUE        STATIC     ATOMS    COLORGROUP SYSTEM
11 52 53 54 55 56 57 58 59 60 61 62
ATOM$RED        STATIC     ATOMS    COLORGROUP SYSTEM
3 35 36 42
