#       Name:                AV-unprocessed.smi:3031
#       Creating user name   scv26
#       Creation time:       Fri Mar 27 16:50:19 2020


#       File generated by GOLD software.
#

@<TRIPOS>MOLECULE
AV-unprocessed.smi:3031
    53    54     1
SMALL
NO_CHARGES


@<TRIPOS>ATOM
      1 ****        -2.7797   2.0272   4.6698 C.3            1 S1                 0.0000
      2 ****        -2.6277   0.8468   3.7542 C.2            1 S1                 0.0000
      3 ****        -1.6386  -0.1765   3.8035 C.2            1 S1                 0.0000
      4 ****        -1.7792  -1.0746   2.8425 N.2            1 S1                 0.0000
      5 ****        -2.8592  -0.6575   2.1468 N.pl3          1 S1                 0.0000
      6 ****        -3.3110  -1.4124   0.9921 C.3            1 S1                 0.0000
      7 ****        -2.9581  -0.7533  -0.3625 C.3            1 S1                 0.0000
      8 ****        -3.6396  -1.5186  -1.5050 C.3            1 S1                 0.0000
      9 ****        -1.5117  -0.7321  -0.6004 N.3            1 S1                 0.0000
     10 ****        -0.8289   0.4798  -0.1406 C.3            1 S1                 0.0000
     11 ****         0.7031   0.3510  -0.2115 C.3            1 S1                 0.0000
     12 ****         1.1258  -0.5688   0.7761 O.3            1 S1                 0.0000
     13 ****         1.2405  -0.0649  -1.5980 C.3            1 S1                 0.0000
     14 ****         2.7229  -0.0105  -1.6688 N.4            1 S1                 1.0000
     15 ****         3.2788  -0.9119  -2.7059 C.3            1 S1                 0.0000
     16 ****         4.8161  -0.8669  -2.6888 C.3            1 S1                 0.0000
     17 ****         5.2570   0.4718  -2.8782 O.3            1 S1                 0.0000
     18 ****         4.8014   1.3336  -1.8428 C.3            1 S1                 0.0000
     19 ****         3.2637   1.3619  -1.8333 C.3            1 S1                 0.0000
     20 ****        -3.3952   0.4954   2.6798 C.2            1 S1                 0.0000
     21 ****        -2.2437   1.8837   5.6082 H              1 S1                 0.0000
     22 ****        -3.8243   2.2105   4.9224 H              1 S1                 0.0000
     23 ****        -2.3933   2.9396   4.2151 H              1 S1                 0.0000
     24 ****        -0.8246  -0.2901   4.5042 H              1 S1                 0.0000
     25 ****        -2.9013  -2.4229   1.0424 H              1 S1                 0.0000
     26 ****        -4.3930  -1.5196   1.0790 H              1 S1                 0.0000
     27 ****        -3.3489   0.2652  -0.3792 H              1 S1                 0.0000
     28 ****        -4.7231  -1.5236  -1.3828 H              1 S1                 0.0000
     29 ****        -3.3053  -2.5559  -1.5466 H              1 S1                 0.0000
     30 ****        -3.4224  -1.0594  -2.4700 H              1 S1                 0.0000
     31 ****        -1.0923  -1.5374  -0.1451 H              1 S1                 0.0000
     32 ****        -1.1473   1.3233  -0.7541 H              1 S1                 0.0000
     33 ****        -1.1118   0.7323   0.8791 H              1 S1                 0.0000
     34 ****         1.1124   1.3213   0.0665 H              1 S1                 0.0000
     35 ****         0.7422  -0.3190   1.6036 H              1 S1                 0.0000
     36 ****         0.9070  -1.0812  -1.8136 H              1 S1                 0.0000
     37 ****         0.8166   0.5668  -2.3802 H              1 S1                 0.0000
     38 ****         2.9425  -1.9343  -2.5286 H              1 S1                 0.0000
     39 ****         2.9054  -0.6157  -3.6875 H              1 S1                 0.0000
     40 ****         5.2075  -1.2628  -1.7503 H              1 S1                 0.0000
     41 ****         5.2195  -1.4883  -3.4885 H              1 S1                 0.0000
     42 ****         5.1909   1.0027  -0.8786 H              1 S1                 0.0000
     43 ****         5.1946   2.3351  -2.0187 H              1 S1                 0.0000
     44 ****         2.8951   1.7922  -2.7659 H              1 S1                 0.0000
     45 ****         2.9221   2.0093  -1.0268 H              1 S1                 0.0000
     46 ****        -4.2654   0.9692   2.2497 H              1 S1                 0.0000
     47 ****         3.0593  -0.3604  -0.7826 H              1 S1                 0.0000
     48 ****        -1.2133  -1.8808   2.6699 LP             1 S1                 0.0000
     49 ****        -1.3960  -0.7535  -1.5935 LP             1 S1                 0.0000
     50 ****         2.1231  -0.5517   0.8479 LP             1 S1                 0.0000
     51 ****         0.8251  -1.4901   0.5295 LP             1 S1                 0.0000
     52 ****         4.9079   0.8060  -3.7536 LP             1 S1                 0.0000
     53 ****         6.2569   0.4837  -2.8917 LP             1 S1                 0.0000
@<TRIPOS>BOND
    1    1    2 1     
    2    1   21 1     
    3    1   22 1     
    4    1   23 1     
    5    2   20 2     
    6    2    3 1     
    7    3    4 2     
    8    3   24 1     
    9    4    5 1     
   10    5    6 1     
   11    5   20 1     
   12    6    7 1     
   13    6   25 1     
   14    6   26 1     
   15    7    8 1     
   16    7    9 1     
   17    7   27 1     
   18    8   28 1     
   19    8   29 1     
   20    8   30 1     
   21    9   10 1     
   22    9   31 1     
   23   10   11 1     
   24   10   32 1     
   25   10   33 1     
   26   11   12 1     
   27   11   13 1     
   28   11   34 1     
   29   12   35 1     
   30   13   14 1     
   31   13   36 1     
   32   13   37 1     
   33   14   19 1     
   34   14   15 1     
   35   14   47 1     
   36   15   16 1     
   37   15   38 1     
   38   15   39 1     
   39   16   17 1     
   40   16   40 1     
   41   16   41 1     
   42   17   18 1     
   43   18   19 1     
   44   18   42 1     
   45   18   43 1     
   46   19   44 1     
   47   19   45 1     
   48   20   46 1     
   49    4   48 1     
   50    9   49 1     
   51   12   50 1     
   52   12   51 1     
   53   17   52 1     
   54   17   53 1     
@<TRIPOS>SUBSTRUCTURE
      1 S1             1
@<TRIPOS>SET
LONE_PAIRS      STATIC     ATOMS    <user>   **** ""
6 48 49 50 51 52 53
DONOR_HYDROGENS      STATIC     ATOMS    <user>   **** ""
3 31 35 47
ATOM$BLUE        STATIC     ATOMS    COLORGROUP SYSTEM
6 48 49 50 51 52 53
ATOM$RED        STATIC     ATOMS    COLORGROUP SYSTEM
3 31 35 47
