AV-unprocessed.smi:1222|AV-procd|sdf|5123|dock6
  -GOLD-   22720 4183D 1   1.00000     0.00000
 Structure written by MMmdl.
 36 38  0  0  0  0  0  0  0  0  3 V2000
  147.3199  132.8663  158.2968 O   0  0  0  0  0  0  0  0  0  0  0  0
  148.0756  133.8255  158.1251 C   0  0  0  0  0  0  0  0  0  0  0  0
  148.6461  134.5808  159.0902 N   0  5  0  0  0  0  0  0  0  0  0  0
  148.1083  134.6174  160.3203 C   0  0  0  0  0  0  0  0  0  0  0  0
  147.5916  133.5399  160.9222 N   0  0  0  0  0  0  0  0  0  0  0  0
  147.0918  133.8037  162.1988 C   0  0  0  0  0  0  0  0  0  0  0  0
  147.2384  135.1108  162.5809 C   0  0  0  0  0  0  0  0  0  0  0  0
  148.0149  136.0549  161.3418 S   0  0  0  0  0  0  0  0  0  0  0  0
  148.4035  134.2043  156.8816 N   0  0  0  0  0  0  0  0  0  0  0  0
  147.9447  133.5783  155.6453 C   0  0  2  0  0  0  0  0  0  0  0  0
  149.0920  133.4792  154.6219 C   0  0  0  0  0  0  0  0  0  0  0  0
  148.5907  132.9263  153.2784 C   0  0  0  0  0  0  0  0  0  0  0  0
  147.4796  133.7525  152.7449 N   0  3  1  0  0  0  0  0  0  0  0  0
  147.0556  133.3146  151.3973 C   0  0  0  0  0  0  0  0  0  0  0  0
  145.6804  133.8014  151.0039 C   0  0  0  0  0  0  0  0  0  0  0  0
  145.8854  132.3587  151.4095 C   0  0  0  0  0  0  0  0  0  0  0  0
  146.3417  133.8210  153.6947 C   0  0  0  0  0  0  0  0  0  0  0  0
  146.7883  134.3970  155.0483 C   0  0  0  0  0  0  0  0  0  0  0  0
  146.6471  132.9997  162.7662 H   0  0  0  0  0  0  0  0  0  0  0  0
  146.9403  135.5735  163.5094 H   0  0  0  0  0  0  0  0  0  0  0  0
  149.0230  134.9963  156.7919 H   0  0  0  0  0  0  0  0  0  0  0  0
  147.5749  132.5755  155.8679 H   0  0  0  0  0  0  0  0  0  0  0  0
  149.5362  134.4638  154.4658 H   0  0  0  0  0  0  0  0  0  0  0  0
  149.8877  132.8397  155.0055 H   0  0  0  0  0  0  0  0  0  0  0  0
  149.4130  132.9115  152.5624 H   0  0  0  0  0  0  0  0  0  0  0  0
  148.2553  131.8949  153.3981 H   0  0  0  0  0  0  0  0  0  0  0  0
  147.8419  133.2169  150.6507 H   0  0  0  0  0  0  0  0  0  0  0  0
  145.1432  134.4464  151.6972 H   0  0  0  0  0  0  0  0  0  0  0  0
  145.5017  134.0021  149.9494 H   0  0  0  0  0  0  0  0  0  0  0  0
  145.8404  131.6088  150.6222 H   0  0  0  0  0  0  0  0  0  0  0  0
  145.4845  132.0463  152.3723 H   0  0  0  0  0  0  0  0  0  0  0  0
  145.5527  134.4468  153.2764 H   0  0  0  0  0  0  0  0  0  0  0  0
  145.9177  132.8247  153.8310 H   0  0  0  0  0  0  0  0  0  0  0  0
  145.9447  134.4123  155.7395 H   0  0  0  0  0  0  0  0  0  0  0  0
  147.0977  135.4350  154.9150 H   0  0  0  0  0  0  0  0  0  0  0  0
  147.8364  134.6925  152.6477 H   0  0  0  0  0  0  0  0  0  0  0  0
  1  2  2  0  0  0  0
  2  3  1  0  0  0  0
  2  9  1  0  0  0  0
  3  4  1  0  0  0  0
  4  8  1  0  0  0  0
  4  5  2  0  0  0  0
  5  6  1  0  0  0  0
  6  7  2  0  0  0  0
  6 19  1  0  0  0  0
  7  8  1  0  0  0  0
  7 20  1  0  0  0  0
  9 10  1  0  0  0  0
  9 21  1  0  0  0  0
 10 18  1  0  0  0  0
 10 11  1  0  0  0  0
 10 22  1  0  0  0  0
 11 12  1  0  0  0  0
 11 23  1  0  0  0  0
 11 24  1  0  0  0  0
 12 13  1  0  0  0  0
 12 25  1  0  0  0  0
 12 26  1  0  0  0  0
 13 14  1  0  0  0  0
 13 17  1  0  0  0  0
 13 36  1  0  0  0  0
 14 16  1  0  0  0  0
 14 15  1  0  0  0  0
 14 27  1  0  0  0  0
 15 16  1  0  0  0  0
 15 28  1  0  0  0  0
 15 29  1  0  0  0  0
 16 30  1  0  0  0  0
 16 31  1  0  0  0  0
 17 18  1  0  0  0  0
 17 32  1  0  0  0  0
 17 33  1  0  0  0  0
 18 34  1  0  0  0  0
 18 35  1  0  0  0  0
M  CHG  1   3  -1
M  CHG  1  13   1
M  END
> <s_m_source_file>
AV-unprocessed.smi

> <i_m_source_file_index>
1222

> <i_lp_mmshare_version>
43012

> <i_f3d_flags>
0

> <s_epik_input>
czFbY0hdW2NIXW5jMVtOSF1DKD1PKVtOSF1bQ0hdMltDSDJdW0NIMl1OKFtDSDJdW0NIMl0yKVtDSF0zW0NIMl1bQ0gyXTM=

> <s_epik_cmdline>
J2VwaWtfcHl0aG9uJywgJy1waCcsICc3LjAnLCAnLXRuJywgJzgnLCAnLW1hJywgJzIwMCcsICctbWV0YWxfYmluZGluZycsICctaW1hZScsICc8aW5maWxlLm1hZT4nLCAnLW9tYWUnLCAnPG91dGZpbGUubWFlPic=

> <r_lp_tautomer_probability>
0.999

> <r_epik_Ionization_Penalty>
6.4609

> <r_epik_Ionization_Penalty_Charging>
5.58663

> <r_epik_Ionization_Penalty_Neutral>
0.874262

> <r_epik_State_Penalty>
5.57752

> <r_epik_Charging_Adjusted_Penalty>
11.1642

> <i_epik_Tot_Q>
0

> <i_epik_Tot_abs_Q>
2

> <r_epik_Metal_State_Penalty>
1.58738

> <b_epik_Metal_Only>
1

> <s_lp_Force_Field>
OPLS_2005

> <r_lp_Energy>
15.8934

> <b_lp_Chiralities_Consistent>
1

> <s_lp_Variant>
AV-unprocessed.smi:1222-4

> <Gold.Version>
5.8.1

> <Gold.Id.Protein>
6NUR|6NUR_protein|mol2

> <Gold.PLP.Fitness>
40.0496

> <Gold.PLP.PLP>
-29.3763

> <Gold.PLP.part.hbond>
-2.0000

> <Gold.PLP.part.metal>
0.0000

> <Gold.PLP.part.buried>
-4.2882

> <Gold.PLP.part.nonpolar>
-23.6793

> <Gold.PLP.part.repulsive>
0.0357

> <Gold.PLP.ligand.clash>
0.0000

> <Gold.PLP.ligand.torsion>
1.2960

> <Gold.PLP.Chemscore.Hbond>
4.0000

> <Gold.PLP.Chemscore.CHOScore>
0.0000

> <Gold.PLP.Chemscore.Metal>
0.0000

> <Gold.Chemscore.Hbonds>
donor molecule, donor type, donor heavy atom, donor atom, acceptor molecule, acceptor atom, score
      L1  H    13    36       P1  7948  2.00
      P1  H  6896  6909       L1     3  1.98

> <Gold.PLP.Chemscore.Internal.Correction>
1.2653

> <Gold.Rescore>
     Score         DG    S(hbond)    S(metal)    S(lipo)     H(rot)  DE(clash)    DE(int)     intcor
     11.91     -14.74       1.51        0.00      63.16       1.25       0.00       2.83       ----

> <Gold.Chemscore.Fitness>
11.9102

> <Gold.Chemscore.DG>
-14.7368

> <Gold.Chemscore.ZeroCoef>
-5.4800

> <Gold.Chemscore.Hbond>
1.5146

> <Gold.Chemscore.Metal>
0.0000

> <Gold.Chemscore.Lipo>
63.1648

> <Gold.Chemscore.Internal_Hbond>
0.0000

> <Gold.Chemscore.DEClash>
0.0015

> <Gold.Chemscore.DEInternal>
2.8251

> <Gold.Chemscore.Rot>
1.2470

> <Gold.Chemscore.Internal.Correction>
   9.000000E+99

> <Gold.Chemscore.Hbonds>
donor molecule, donor type, donor heavy atom, donor atom, acceptor molecule, acceptor atom, score
      L1  H    13    36       P1  7948  0.76
      P1  H  6896  6909       L1     3  0.31

> <Gold.Chemscore.Hbond.Weighted>
-5.0589

> <Gold.Chemscore.Metal.Weighted>
-0.0000

> <Gold.Chemscore.Lipo.Weighted>
-7.3903

> <Gold.Chemscore.Internal_Hbond.Weighted>
0.0000

> <Gold.Chemscore.DEClash.Weighted>
0.0015

> <Gold.Chemscore.DEInternal.Weighted>
2.8251

> <Gold.Chemscore.Rot.Weighted>
3.1924

> <Gold.Chemscore.Internal.Correction.Weighted>
   9.000000E+99

> <Gold.Protein.RotatedTorsions>
[ 6907 6896 6895 6894 ] final   42.30 input  -60.11 | X-H torsion
[ 7974 7965 7964 7962 ] final   -5.12 input  175.53 | X-H torsion
[ 8008 7997 7996 7995 ] final -142.28 input   59.86 | X-H torsion
[ 10167 10162 10161 10158 ] final  118.06 input  -65.29 | X-H torsion
[ 10718 10713 10712 10709 ] final  -64.40 input   66.30 | X-H torsion
[ 10763 10752 10751 10750 ] final  -39.05 input  -60.55 | X-H torsion
[ 11005 11000 10999 10996 ] final   99.48 input  -57.11 | X-H torsion

> <Gold.Protein.ActiveResidues>
 VAL166  LYS551  ARG553  GLY616  TRP617  ASP618  TYR619  PRO620  LYS621  CYS622 
 ASP623  PHE694  ASN695  SER759  ASP760  ASP761  ALA762  ILE779  LEU786  VAL792 
 PHE793  MET794  SER795  GLU796  ALA797  LYS798  CYS799  TRP800  GLU811  SER814 

> <Gold.Protein.RotatedAtoms>
  152.2062  134.8543  160.0502 H   0  0  0  0  0  0  0  0  0  0  0  0  # atno 6907 bound_to 6896
  151.9379  133.3624  159.3962 H   0  0  0  0  0  0  0  0  0  0  0  0  # atno 6908 bound_to 6896
  150.6965  134.4394  159.5329 H   0  0  0  0  0  0  0  0  0  0  0  0  # atno 6909 bound_to 6896
  146.2359  140.1974  142.8333 H   0  0  0  0  0  0  0  0  0  0  0  0  # atno 7974 bound_to 7965
  155.4916  140.0568  157.2953 H   0  0  0  0  0  0  0  0  0  0  0  0  # atno 8008 bound_to 7997
  154.4621  140.2001  156.0168 H   0  0  0  0  0  0  0  0  0  0  0  0  # atno 8009 bound_to 7997
  156.0909  140.3233  155.7818 H   0  0  0  0  0  0  0  0  0  0  0  0  # atno 8010 bound_to 7997
  139.6137  144.7087  151.2787 H   0  0  0  0  0  0  0  0  0  0  0  0  # atno 10167 bound_to 10162
  156.0731  130.4233  150.1415 H   0  0  0  0  0  0  0  0  0  0  0  0  # atno 10718 bound_to 10713
  153.9229  135.6780  153.4747 H   0  0  0  0  0  0  0  0  0  0  0  0  # atno 10763 bound_to 10752
  153.1019  135.4824  154.8879 H   0  0  0  0  0  0  0  0  0  0  0  0  # atno 10764 bound_to 10752
  154.7468  135.3174  154.8586 H   0  0  0  0  0  0  0  0  0  0  0  0  # atno 10765 bound_to 10752
  139.8771  134.9097  156.4612 H   0  0  0  0  0  0  0  0  0  0  0  0  # atno 11005 bound_to 11000
  144.9809  140.8458  143.5398 LP  0  0  0  0  0  0  0  0  0  0  0  0  # atno 17320 bound_to 7965
  145.1967  139.2273  143.5214 LP  0  0  0  0  0  0  0  0  0  0  0  0  # atno 17321 bound_to 7965
  140.7336  143.6789  150.8018 LP  0  0  0  0  0  0  0  0  0  0  0  0  # atno 17342 bound_to 10162
  140.0388  143.5367  152.2727 LP  0  0  0  0  0  0  0  0  0  0  0  0  # atno 17343 bound_to 10162
  156.9462  130.9760  151.3507 LP  0  0  0  0  0  0  0  0  0  0  0  0  # atno 17370 bound_to 10713
  157.5813  130.8378  149.8526 LP  0  0  0  0  0  0  0  0  0  0  0  0  # atno 17371 bound_to 10713
  140.8863  133.7881  155.9521 LP  0  0  0  0  0  0  0  0  0  0  0  0  # atno 17394 bound_to 11000
  140.8801  134.2621  157.5148 LP  0  0  0  0  0  0  0  0  0  0  0  0  # atno 17395 bound_to 11000

$$$$
