AV-unprocessed.smi:3275|AV-procd|sdf|12533|dock3
  -GOLD-   2272018443D 1   1.00000     0.00000
 Structure written by MMmdl.
 34 35  0  0  0  0  0  0  0  0  1 V2000
  151.3011  139.5164  154.5961 O   0  0  0  0  0  0  0  0  0  0  0  0
  152.4895  139.3469  155.3383 C   0  0  0  0  0  0  0  0  0  0  0  0
  152.1640  138.7721  156.7209 C   0  0  0  0  0  0  0  0  0  0  0  0
  153.3026  138.9261  157.5557 O   0  0  0  0  0  0  0  0  0  0  0  0
  153.0375  139.5536  158.8038 C   0  0  1  0  0  0  0  0  0  0  0  0
  154.2485  139.4386  159.7539 C   0  0  0  0  0  0  0  0  0  0  0  0
  154.0074  140.2597  161.0314 C   0  0  0  0  0  0  0  0  0  0  0  0
  153.6527  141.7174  160.6946 C   0  0  0  0  0  0  0  0  0  0  0  0
  152.5274  141.7707  159.7652 N   0  0  0  0  0  0  0  0  0  0  0  0
  151.9317  143.0415  159.6678 C   0  0  0  0  0  0  0  0  0  0  0  0
  152.5419  144.1926  160.2205 C   0  0  0  0  0  0  0  0  0  0  0  0
  151.8877  145.4346  160.1018 C   0  0  0  0  0  0  0  0  0  0  0  0
  150.6993  145.5918  159.4833 N   0  0  0  0  0  0  0  0  0  0  0  0
  150.1181  144.4954  158.9534 C   0  0  0  0  0  0  0  0  0  0  0  0
  150.6845  143.2058  159.0156 C   0  0  0  0  0  0  0  0  0  0  0  0
  149.8577  141.8798  158.2732 Cl  0  0  0  0  0  0  0  0  0  0  0  0
  152.7264  141.0341  158.5189 C   0  0  0  0  0  0  0  0  0  0  0  0
  150.7169  138.8013  154.7974 H   0  0  0  0  0  0  0  0  0  0  0  0
  153.1587  138.6799  154.7941 H   0  0  0  0  0  0  0  0  0  0  0  0
  152.9916  140.3103  155.4326 H   0  0  0  0  0  0  0  0  0  0  0  0
  151.3111  139.2990  157.1519 H   0  0  0  0  0  0  0  0  0  0  0  0
  151.8913  137.7206  156.6293 H   0  0  0  0  0  0  0  0  0  0  0  0
  152.1584  139.1028  159.2683 H   0  0  0  0  0  0  0  0  0  0  0  0
  154.4386  138.3999  160.0220 H   0  0  0  0  0  0  0  0  0  0  0  0
  155.1456  139.8016  159.2509 H   0  0  0  0  0  0  0  0  0  0  0  0
  153.1943  139.8116  161.6043 H   0  0  0  0  0  0  0  0  0  0  0  0
  154.8907  140.2283  161.6697 H   0  0  0  0  0  0  0  0  0  0  0  0
  153.4250  142.2623  161.6110 H   0  0  0  0  0  0  0  0  0  0  0  0
  154.5106  142.2137  160.2387 H   0  0  0  0  0  0  0  0  0  0  0  0
  153.4876  144.1392  160.7386 H   0  0  0  0  0  0  0  0  0  0  0  0
  152.3311  146.3266  160.5190 H   0  0  0  0  0  0  0  0  0  0  0  0
  149.1709  144.6526  158.4587 H   0  0  0  0  0  0  0  0  0  0  0  0
  153.5523  141.4788  157.9625 H   0  0  0  0  0  0  0  0  0  0  0  0
  151.8350  141.1129  157.8951 H   0  0  0  0  0  0  0  0  0  0  0  0
  1  2  1  0  0  0  0
  1 18  1  0  0  0  0
  2  3  1  0  0  0  0
  2 19  1  0  0  0  0
  2 20  1  0  0  0  0
  3  4  1  0  0  0  0
  3 21  1  0  0  0  0
  3 22  1  0  0  0  0
  4  5  1  0  0  0  0
  5 17  1  0  0  0  0
  5  6  1  0  0  0  0
  5 23  1  0  0  0  0
  6  7  1  0  0  0  0
  6 24  1  0  0  0  0
  6 25  1  0  0  0  0
  7  8  1  0  0  0  0
  7 26  1  0  0  0  0
  7 27  1  0  0  0  0
  8  9  1  0  0  0  0
  8 28  1  0  0  0  0
  8 29  1  0  0  0  0
  9 10  1  0  0  0  0
  9 17  1  0  0  0  0
 10 15  1  0  0  0  0
 10 11  2  0  0  0  0
 11 12  1  0  0  0  0
 11 30  1  0  0  0  0
 12 13  2  0  0  0  0
 12 31  1  0  0  0  0
 13 14  1  0  0  0  0
 14 15  2  0  0  0  0
 14 32  1  0  0  0  0
 15 16  1  0  0  0  0
 17 33  1  0  0  0  0
 17 34  1  0  0  0  0
M  END
> <s_m_source_file>
AV-unprocessed.smi

> <i_m_source_file_index>
3275

> <i_lp_mmshare_version>
43012

> <i_f3d_flags>
0

> <s_epik_input>
W09IXVtDSDJdW0NIMl1PW0NAQEhdMVtDSDJdW0NIMl1bQ0gyXU4oW0NIMl0xKWMyW2NIXVtjSF1uW2NIXWMyQ2w=

> <s_epik_cmdline>
J2VwaWtfcHl0aG9uJywgJy1waCcsICc3LjAnLCAnLXRuJywgJzgnLCAnLW1hJywgJzIwMCcsICctbWV0YWxfYmluZGluZycsICctaW1hZScsICc8aW5maWxlLm1hZT4nLCAnLW9tYWUnLCAnPG91dGZpbGUubWFlPic=

> <r_lp_tautomer_probability>
1

> <r_epik_Ionization_Penalty>
1.24095

> <r_epik_Ionization_Penalty_Charging>
0

> <r_epik_Ionization_Penalty_Neutral>
1.24095

> <r_epik_State_Penalty>
1.30987

> <r_epik_Charging_Adjusted_Penalty>
1.30987

> <i_epik_Tot_Q>
0

> <i_epik_Tot_abs_Q>
0

> <r_epik_Metal_State_Penalty>
0.00479332

> <b_epik_Metal_Only>
0

> <s_lp_Force_Field>
OPLS_2005

> <r_lp_Energy>
20.7809

> <b_lp_Chiralities_Consistent>
1

> <s_lp_Variant>
AV-unprocessed.smi:3275-4

> <Gold.Version>
5.8.1

> <Gold.Id.Protein>
6NUR|6NUR_protein|mol2

> <Gold.PLP.Fitness>
41.1626

> <Gold.PLP.PLP>
-33.1019

> <Gold.PLP.part.hbond>
-3.5095

> <Gold.PLP.part.metal>
0.0000

> <Gold.PLP.part.buried>
-3.2694

> <Gold.PLP.part.nonpolar>
-25.9460

> <Gold.PLP.part.repulsive>
0.2101

> <Gold.PLP.ligand.clash>
0.0000

> <Gold.PLP.ligand.torsion>
0.6276

> <Gold.PLP.Chemscore.Hbond>
2.0000

> <Gold.PLP.Chemscore.CHOScore>
1.0000

> <Gold.PLP.Chemscore.Metal>
0.0000

> <Gold.Chemscore.Hbonds>
donor molecule, donor type, donor heavy atom, donor atom, acceptor molecule, acceptor atom, score
      P1  H  7989  7998       L1     1  1.00
      P1  H  7997  8009       L1     4  1.00
      L1  C    14    32       P1  8029  1.00

> <Gold.PLP.Chemscore.Internal.Correction>
0.3159

> <Gold.Rescore>
     Score         DG    S(hbond)    S(metal)    S(lipo)     H(rot)  DE(clash)    DE(int)     intcor
     15.92     -16.73       1.31        0.00     103.75       2.06       0.10       0.71       ----

> <Gold.Chemscore.Fitness>
15.9205

> <Gold.Chemscore.DG>
-16.7288

> <Gold.Chemscore.ZeroCoef>
-5.4800

> <Gold.Chemscore.Hbond>
1.3103

> <Gold.Chemscore.Metal>
0.0000

> <Gold.Chemscore.Lipo>
103.7461

> <Gold.Chemscore.Internal_Hbond>
0.0000

> <Gold.Chemscore.DEClash>
0.0979

> <Gold.Chemscore.DEInternal>
0.7105

> <Gold.Chemscore.Rot>
2.0570

> <Gold.Chemscore.Internal.Correction>
   9.000000E+99

> <Gold.Chemscore.Hbonds>
donor molecule, donor type, donor heavy atom, donor atom, acceptor molecule, acceptor atom, score
      P1  H  7989  7998       L1     1  0.50
      P1  H  7997  8009       L1     4  0.22

> <Gold.Chemscore.Hbond.Weighted>
-4.3766

> <Gold.Chemscore.Metal.Weighted>
-0.0000

> <Gold.Chemscore.Lipo.Weighted>
-12.1383

> <Gold.Chemscore.Internal_Hbond.Weighted>
0.0000

> <Gold.Chemscore.DEClash.Weighted>
0.0979

> <Gold.Chemscore.DEInternal.Weighted>
0.7105

> <Gold.Chemscore.Rot.Weighted>
5.2660

> <Gold.Chemscore.Internal.Correction.Weighted>
   9.000000E+99

> <Gold.Protein.RotatedTorsions>
[ 6907 6896 6895 6894 ] final  163.51 input  -60.11 | X-H torsion
[ 7974 7965 7964 7962 ] final  118.48 input  175.53 | X-H torsion
[ 8008 7997 7996 7995 ] final  163.84 input   59.86 | X-H torsion
[ 10167 10162 10161 10158 ] final   88.83 input  -65.29 | X-H torsion
[ 10718 10713 10712 10709 ] final  169.28 input   66.30 | X-H torsion
[ 10763 10752 10751 10750 ] final   56.11 input  -60.55 | X-H torsion
[ 11005 11000 10999 10996 ] final -168.70 input  -57.11 | X-H torsion

> <Gold.Protein.ActiveResidues>
 VAL166  LYS551  ARG553  GLY616  TRP617  ASP618  TYR619  PRO620  LYS621  CYS622 
 ASP623  PHE694  ASN695  SER759  ASP760  ASP761  ALA762  ILE779  LEU786  VAL792 
 PHE793  MET794  SER795  GLU796  ALA797  LYS798  CYS799  TRP800  GLU811  SER814 

> <Gold.Protein.RotatedAtoms>
  151.9240  133.3593  159.3906 H   0  0  0  0  0  0  0  0  0  0  0  0  # atno 6907 bound_to 6896
  150.7031  134.4605  159.5388 H   0  0  0  0  0  0  0  0  0  0  0  0  # atno 6908 bound_to 6896
  152.2234  134.8391  160.0534 H   0  0  0  0  0  0  0  0  0  0  0  0  # atno 6909 bound_to 6896
  145.1546  139.3190  143.4549 H   0  0  0  0  0  0  0  0  0  0  0  0  # atno 7974 bound_to 7965
  156.1926  140.1712  156.8062 H   0  0  0  0  0  0  0  0  0  0  0  0  # atno 8008 bound_to 7997
  154.5490  140.0721  156.8667 H   0  0  0  0  0  0  0  0  0  0  0  0  # atno 8009 bound_to 7997
  155.3066  140.3365  155.4248 H   0  0  0  0  0  0  0  0  0  0  0  0  # atno 8010 bound_to 7997
  139.8633  144.6532  150.9032 H   0  0  0  0  0  0  0  0  0  0  0  0  # atno 10167 bound_to 10162
  157.0249  131.0242  151.2763 H   0  0  0  0  0  0  0  0  0  0  0  0  # atno 10718 bound_to 10713
  152.9827  135.5687  154.5176 H   0  0  0  0  0  0  0  0  0  0  0  0  # atno 10763 bound_to 10752
  154.4670  135.2783  155.1673 H   0  0  0  0  0  0  0  0  0  0  0  0  # atno 10764 bound_to 10752
  154.3237  135.6263  153.5573 H   0  0  0  0  0  0  0  0  0  0  0  0  # atno 10765 bound_to 10752
  140.5390  134.5541  157.5095 H   0  0  0  0  0  0  0  0  0  0  0  0  # atno 11005 bound_to 11000
  146.3490  140.1634  142.8590 LP  0  0  0  0  0  0  0  0  0  0  0  0  # atno 17320 bound_to 7965
  145.0394  140.8934  143.5061 LP  0  0  0  0  0  0  0  0  0  0  0  0  # atno 17321 bound_to 7965
  140.7772  143.3725  151.1623 LP  0  0  0  0  0  0  0  0  0  0  0  0  # atno 17342 bound_to 10162
  139.7352  143.9009  152.3032 LP  0  0  0  0  0  0  0  0  0  0  0  0  # atno 17343 bound_to 10162
  157.5222  130.8005  149.7821 LP  0  0  0  0  0  0  0  0  0  0  0  0  # atno 17370 bound_to 10713
  156.0089  130.3842  150.2332 LP  0  0  0  0  0  0  0  0  0  0  0  0  # atno 17371 bound_to 10713
  139.9514  134.7611  156.0440 LP  0  0  0  0  0  0  0  0  0  0  0  0  # atno 17394 bound_to 11000
  141.1238  133.6605  156.3283 LP  0  0  0  0  0  0  0  0  0  0  0  0  # atno 17395 bound_to 11000

$$$$
