AV-unprocessed.smi:3252|AV-procd|sdf|12442|dock8
  -GOLD-   2272018333D 1   1.00000     0.00000
 Structure written by MMmdl.
 37 38  0  0  0  0  0  0  0  0  2 V2000
  147.0720  128.3116  151.1300 C   0  0  0  0  0  0  0  0  0  0  0  0
  146.7947  129.1154  152.4084 C   0  0  0  0  0  0  0  0  0  0  0  0
  146.8324  130.5815  152.1806 N   0  3  2  0  0  0  0  0  0  0  0  0
  147.4300  131.3118  153.3234 C   0  0  0  0  0  0  0  0  0  0  0  0
  147.4886  132.8192  153.0294 C   0  0  0  0  0  0  0  0  0  0  0  0
  146.1826  133.2940  152.7308 O   0  0  0  0  0  0  0  0  0  0  0  0
  145.6360  132.6770  151.5694 C   0  0  2  0  0  0  0  0  0  0  0  0
  144.2706  133.3180  151.2854 C   0  0  0  0  0  0  0  0  0  0  0  0
  143.5026  133.5105  152.5078 N   0  0  0  0  0  0  0  0  0  0  0  0
  142.8684  134.7325  152.7689 C   0  0  0  0  0  0  0  0  0  0  0  0
  141.6628  134.7251  153.5019 C   0  0  0  0  0  0  0  0  0  0  0  0
  141.0236  135.9514  153.7713 C   0  0  0  0  0  0  0  0  0  0  0  0
  141.6125  137.1409  153.2990 C   0  0  0  0  0  0  0  0  0  0  0  0
  140.9939  138.4306  153.5535 C   0  0  0  0  0  0  0  0  0  0  0  0
  140.5013  139.4576  153.7565 N   0  0  0  0  0  0  0  0  0  0  0  0
  142.8181  137.0479  152.5743 C   0  0  0  0  0  0  0  0  0  0  0  0
  143.4357  135.8751  152.3135 N   0  0  0  0  0  0  0  0  0  0  0  0
  145.5125  131.1626  151.8298 C   0  0  0  0  0  0  0  0  0  0  0  0
  147.1303  127.2463  151.3540 H   0  0  0  0  0  0  0  0  0  0  0  0
  148.0196  128.6045  150.6772 H   0  0  0  0  0  0  0  0  0  0  0  0
  146.2868  128.4412  150.3856 H   0  0  0  0  0  0  0  0  0  0  0  0
  145.8366  128.8282  152.8438 H   0  0  0  0  0  0  0  0  0  0  0  0
  147.5591  128.8511  153.1406 H   0  0  0  0  0  0  0  0  0  0  0  0
  146.8394  131.1298  154.2227 H   0  0  0  0  0  0  0  0  0  0  0  0
  148.4361  130.9386  153.5187 H   0  0  0  0  0  0  0  0  0  0  0  0
  147.8696  133.3572  153.8976 H   0  0  0  0  0  0  0  0  0  0  0  0
  148.1662  133.0309  152.2010 H   0  0  0  0  0  0  0  0  0  0  0  0
  146.2957  132.8453  150.7157 H   0  0  0  0  0  0  0  0  0  0  0  0
  144.4157  134.2906  150.8134 H   0  0  0  0  0  0  0  0  0  0  0  0
  143.7032  132.7019  150.5864 H   0  0  0  0  0  0  0  0  0  0  0  0
  143.3254  132.7165  153.1059 H   0  0  0  0  0  0  0  0  0  0  0  0
  141.2319  133.7990  153.8540 H   0  0  0  0  0  0  0  0  0  0  0  0
  140.0994  135.9720  154.3308 H   0  0  0  0  0  0  0  0  0  0  0  0
  143.3048  137.9337  152.1925 H   0  0  0  0  0  0  0  0  0  0  0  0
  145.1137  130.6780  150.9391 H   0  0  0  0  0  0  0  0  0  0  0  0
  144.8046  130.9755  152.6393 H   0  0  0  0  0  0  0  0  0  0  0  0
  147.4442  130.7371  151.3920 H   0  0  0  0  0  0  0  0  0  0  0  0
  1  2  1  0  0  0  0
  1 19  1  0  0  0  0
  1 20  1  0  0  0  0
  1 21  1  0  0  0  0
  2  3  1  0  0  0  0
  2 22  1  0  0  0  0
  2 23  1  0  0  0  0
  3 18  1  0  0  0  0
  3  4  1  0  0  0  0
  3 37  1  0  0  0  0
  4  5  1  0  0  0  0
  4 24  1  0  0  0  0
  4 25  1  0  0  0  0
  5  6  1  0  0  0  0
  5 26  1  0  0  0  0
  5 27  1  0  0  0  0
  6  7  1  0  0  0  0
  7  8  1  0  0  0  0
  7 18  1  0  0  0  0
  7 28  1  0  0  0  0
  8  9  1  0  0  0  0
  8 29  1  0  0  0  0
  8 30  1  0  0  0  0
  9 10  1  0  0  0  0
  9 31  1  0  0  0  0
 10 17  1  0  0  0  0
 10 11  2  0  0  0  0
 11 12  1  0  0  0  0
 11 32  1  0  0  0  0
 12 13  2  0  0  0  0
 12 33  1  0  0  0  0
 13 14  1  0  0  0  0
 13 16  1  0  0  0  0
 14 15  3  0  0  0  0
 16 17  2  0  0  0  0
 16 34  1  0  0  0  0
 18 35  1  0  0  0  0
 18 36  1  0  0  0  0
M  CHG  1   3   1
M  END
> <s_m_source_file>
AV-unprocessed.smi

> <i_m_source_file_index>
3252

> <i_lp_mmshare_version>
43012

> <i_f3d_flags>
0

> <s_epik_input>
W0NIM11bQ0gyXU4xW0NIMl1bQ0gyXU9bQ0BIXShbQ0gyXTEpW0NIMl1bTkhdYzJbY0hdW2NIXWMoQyNOKVtjSF1uMg==

> <s_epik_cmdline>
J2VwaWtfcHl0aG9uJywgJy1waCcsICc3LjAnLCAnLXRuJywgJzgnLCAnLW1hJywgJzIwMCcsICctbWV0YWxfYmluZGluZycsICctaW1hZScsICc8aW5maWxlLm1hZT4nLCAnLW9tYWUnLCAnPG91dGZpbGUubWFlPic=

> <r_epik_Ionization_Penalty>
0.178512

> <r_epik_Ionization_Penalty_Charging>
0.178504

> <r_epik_Ionization_Penalty_Neutral>
8.15545e-06

> <r_epik_State_Penalty>
0.167974

> <r_epik_Charging_Adjusted_Penalty>
0.346478

> <i_epik_Tot_Q>
1

> <i_epik_Tot_abs_Q>
1

> <r_epik_Metal_State_Penalty>
0.167974

> <b_epik_Metal_Only>
0

> <s_lp_Force_Field>
OPLS_2005

> <r_lp_Energy>
17.709

> <b_lp_Chiralities_Consistent>
1

> <s_lp_Variant>
AV-unprocessed.smi:3252-4

> <Gold.Version>
5.8.1

> <Gold.Id.Protein>
6NUR|6NUR_protein|mol2

> <Gold.PLP.Fitness>
43.9804

> <Gold.PLP.PLP>
-34.0982

> <Gold.PLP.part.hbond>
-2.0000

> <Gold.PLP.part.metal>
0.0000

> <Gold.PLP.part.buried>
-7.1289

> <Gold.PLP.part.nonpolar>
-26.3689

> <Gold.PLP.part.repulsive>
0.7346

> <Gold.PLP.ligand.clash>
0.0000

> <Gold.PLP.ligand.torsion>
0.8836

> <Gold.PLP.Chemscore.Hbond>
1.9425

> <Gold.PLP.Chemscore.CHOScore>
1.9369

> <Gold.PLP.Chemscore.Metal>
0.0000

> <Gold.Chemscore.Hbonds>
donor molecule, donor type, donor heavy atom, donor atom, acceptor molecule, acceptor atom, score
      L1  H     3    37       P1 10747  1.00
      L1  H     9    31       P1 10957  1.00
      L1  C    16    34       P1 10171  1.00
      L1  C    16    34       P1 10175  1.00

> <Gold.PLP.Chemscore.Internal.Correction>
0.0112

> <Gold.Rescore>
     Score         DG    S(hbond)    S(metal)    S(lipo)     H(rot)  DE(clash)    DE(int)     intcor
     15.11     -15.70       1.79        0.00      68.32       1.47       0.11       0.49       ----

> <Gold.Chemscore.Fitness>
15.1082

> <Gold.Chemscore.DG>
-15.7023

> <Gold.Chemscore.ZeroCoef>
-5.4800

> <Gold.Chemscore.Hbond>
1.7926

> <Gold.Chemscore.Metal>
0.0000

> <Gold.Chemscore.Lipo>
68.3196

> <Gold.Chemscore.Internal_Hbond>
0.0000

> <Gold.Chemscore.DEClash>
0.1066

> <Gold.Chemscore.DEInternal>
0.4874

> <Gold.Chemscore.Rot>
1.4681

> <Gold.Chemscore.Internal.Correction>
   9.000000E+99

> <Gold.Chemscore.Hbonds>
donor molecule, donor type, donor heavy atom, donor atom, acceptor molecule, acceptor atom, score
      L1  H     3    37       P1 10747  1.00
      L1  H     9    31       P1 10957  0.28

> <Gold.Chemscore.Hbond.Weighted>
-5.9873

> <Gold.Chemscore.Metal.Weighted>
-0.0000

> <Gold.Chemscore.Lipo.Weighted>
-7.9934

> <Gold.Chemscore.Internal_Hbond.Weighted>
0.0000

> <Gold.Chemscore.DEClash.Weighted>
0.1066

> <Gold.Chemscore.DEInternal.Weighted>
0.4874

> <Gold.Chemscore.Rot.Weighted>
3.7584

> <Gold.Chemscore.Internal.Correction.Weighted>
   9.000000E+99

> <Gold.Protein.RotatedTorsions>
[ 6907 6896 6895 6894 ] final -165.55 input  -60.11 | X-H torsion
[ 7974 7965 7964 7962 ] final  103.04 input  175.53 | X-H torsion
[ 8008 7997 7996 7995 ] final  -21.58 input   59.86 | X-H torsion
[ 10167 10162 10161 10158 ] final   88.45 input  -65.29 | X-H torsion
[ 10718 10713 10712 10709 ] final   30.57 input   66.30 | X-H torsion
[ 10763 10752 10751 10750 ] final -162.71 input  -60.55 | X-H torsion
[ 11005 11000 10999 10996 ] final -155.05 input  -57.11 | X-H torsion

> <Gold.Protein.ActiveResidues>
 VAL166  LYS551  ARG553  GLY616  TRP617  ASP618  TYR619  PRO620  LYS621  CYS622 
 ASP623  PHE694  ASN695  SER759  ASP760  ASP761  ALA762  ILE779  LEU786  VAL792 
 PHE793  MET794  SER795  GLU796  ALA797  LYS798  CYS799  TRP800  GLU811  SER814 

> <Gold.Protein.RotatedAtoms>
  151.4295  133.3674  159.2766 H   0  0  0  0  0  0  0  0  0  0  0  0  # atno 6907 bound_to 6896
  150.9235  134.8654  159.7515 H   0  0  0  0  0  0  0  0  0  0  0  0  # atno 6908 bound_to 6896
  152.4994  134.4234  159.9540 H   0  0  0  0  0  0  0  0  0  0  0  0  # atno 6909 bound_to 6896
  145.3511  139.2439  143.3557 H   0  0  0  0  0  0  0  0  0  0  0  0  # atno 7974 bound_to 7965
  154.4696  140.2031  156.0028 H   0  0  0  0  0  0  0  0  0  0  0  0  # atno 8008 bound_to 7997
  156.0988  140.3247  155.7885 H   0  0  0  0  0  0  0  0  0  0  0  0  # atno 8009 bound_to 7997
  155.4832  140.0540  157.2955 H   0  0  0  0  0  0  0  0  0  0  0  0  # atno 8010 bound_to 7997
  139.8671  144.6513  150.8991 H   0  0  0  0  0  0  0  0  0  0  0  0  # atno 10167 bound_to 10162
  157.2613  130.7162  149.6455 H   0  0  0  0  0  0  0  0  0  0  0  0  # atno 10718 bound_to 10713
  154.7189  135.3021  154.9079 H   0  0  0  0  0  0  0  0  0  0  0  0  # atno 10763 bound_to 10752
  153.9957  135.6713  153.4760 H   0  0  0  0  0  0  0  0  0  0  0  0  # atno 10764 bound_to 10752
  153.0817  135.5005  154.8433 H   0  0  0  0  0  0  0  0  0  0  0  0  # atno 10765 bound_to 10752
  140.6907  134.4045  157.5219 H   0  0  0  0  0  0  0  0  0  0  0  0  # atno 11005 bound_to 11000
  146.2967  140.4127  142.8719 LP  0  0  0  0  0  0  0  0  0  0  0  0  # atno 17320 bound_to 7965
  144.8717  140.7281  143.6043 LP  0  0  0  0  0  0  0  0  0  0  0  0  # atno 17321 bound_to 7965
  140.7766  143.3694  151.1677 LP  0  0  0  0  0  0  0  0  0  0  0  0  # atno 17342 bound_to 10162
  139.7318  143.9060  152.3022 LP  0  0  0  0  0  0  0  0  0  0  0  0  # atno 17343 bound_to 10162
  155.9664  130.4396  150.5267 LP  0  0  0  0  0  0  0  0  0  0  0  0  # atno 17370 bound_to 10713
  157.3172  131.0675  151.1958 LP  0  0  0  0  0  0  0  0  0  0  0  0  # atno 17371 bound_to 10713
  139.8924  134.8755  156.2271 LP  0  0  0  0  0  0  0  0  0  0  0  0  # atno 17394 bound_to 11000
  141.0244  133.7023  156.1322 LP  0  0  0  0  0  0  0  0  0  0  0  0  # atno 17395 bound_to 11000

$$$$
