AV-unprocessed.smi:1019|AV-procd|sdf|4448|dock2
  -GOLD-   22720 2413D 1   1.00000     0.00000
 Structure written by MMmdl.
 45 47  0  0  0  0  0  0  0  0  3 V2000
  148.5008  135.7650  155.2616 C   0  0  0  0  0  0  0  0  0  0  0  0
  149.7149  135.5607  154.4380 N   0  3  2  0  0  0  0  0  0  0  0  0
  150.1805  134.1520  154.4835 C   0  0  0  0  0  0  0  0  0  0  0  0
  149.1514  133.1914  153.9113 C   0  0  0  0  0  0  0  0  0  0  0  0
  149.2552  131.8084  154.1714 C   0  0  0  0  0  0  0  0  0  0  0  0
  148.2952  130.9170  153.6542 C   0  0  0  0  0  0  0  0  0  0  0  0
  147.2305  131.4040  152.8719 C   0  0  0  0  0  0  0  0  0  0  0  0
  147.1265  132.7826  152.6052 C   0  0  0  0  0  0  0  0  0  0  0  0
  148.0853  133.6749  153.1227 C   0  0  0  0  0  0  0  0  0  0  0  0
  150.7826  136.5540  154.7324 C   0  0  0  0  0  0  0  0  0  0  0  0
  150.2400  137.9957  154.7477 C   0  0  2  0  0  0  0  0  0  0  0  0
  149.6355  138.2651  153.4969 O   0  0  0  0  0  0  0  0  0  0  0  0
  151.3551  139.0258  155.0156 C   0  0  0  0  0  0  0  0  0  0  0  0
  150.8418  140.2951  155.5511 N   0  0  0  0  0  0  0  0  0  0  0  0
  149.9026  141.1350  155.0363 C   0  0  0  0  0  0  0  0  0  0  0  0
  149.7678  142.1810  155.8974 N   0  3  0  0  0  0  0  0  0  0  0  0
  150.6321  142.0084  156.9800 C   0  0  0  0  0  0  0  0  0  0  0  0
  150.8537  142.8008  158.1021 C   0  0  0  0  0  0  0  0  0  0  0  0
  151.8130  142.3364  159.0253 C   0  0  0  0  0  0  0  0  0  0  0  0
  152.5092  141.1283  158.8154 C   0  0  0  0  0  0  0  0  0  0  0  0
  152.2761  140.3324  157.6743 C   0  0  0  0  0  0  0  0  0  0  0  0
  151.3257  140.7978  156.7656 C   0  0  0  0  0  0  0  0  0  0  0  0
  148.7079  135.5744  156.3153 H   0  0  0  0  0  0  0  0  0  0  0  0
  147.7036  135.0918  154.9448 H   0  0  0  0  0  0  0  0  0  0  0  0
  148.1227  136.7825  155.1675 H   0  0  0  0  0  0  0  0  0  0  0  0
  151.1320  134.0572  153.9575 H   0  0  0  0  0  0  0  0  0  0  0  0
  150.3645  133.8571  155.5178 H   0  0  0  0  0  0  0  0  0  0  0  0
  150.0678  131.4279  154.7729 H   0  0  0  0  0  0  0  0  0  0  0  0
  148.3750  129.8591  153.8573 H   0  0  0  0  0  0  0  0  0  0  0  0
  146.4949  130.7198  152.4749 H   0  0  0  0  0  0  0  0  0  0  0  0
  146.3109  133.1558  152.0034 H   0  0  0  0  0  0  0  0  0  0  0  0
  147.9964  134.7313  152.9148 H   0  0  0  0  0  0  0  0  0  0  0  0
  151.2494  136.3084  155.6875 H   0  0  0  0  0  0  0  0  0  0  0  0
  151.5816  136.5000  153.9931 H   0  0  0  0  0  0  0  0  0  0  0  0
  149.4779  138.1002  155.5199 H   0  0  0  0  0  0  0  0  0  0  0  0
  149.3488  137.4492  153.1156 H   0  0  0  0  0  0  0  0  0  0  0  0
  152.0531  138.6302  155.7545 H   0  0  0  0  0  0  0  0  0  0  0  0
  151.9421  139.2224  154.1181 H   0  0  0  0  0  0  0  0  0  0  0  0
  149.3610  140.9972  154.1115 H   0  0  0  0  0  0  0  0  0  0  0  0
  150.3221  143.7269  158.2653 H   0  0  0  0  0  0  0  0  0  0  0  0
  152.0192  142.9187  159.9118 H   0  0  0  0  0  0  0  0  0  0  0  0
  153.2378  140.8055  159.5448 H   0  0  0  0  0  0  0  0  0  0  0  0
  152.8184  139.4110  157.5257 H   0  0  0  0  0  0  0  0  0  0  0  0
  149.4407  135.7220  153.4790 H   0  0  0  0  0  0  0  0  0  0  0  0
  149.1311  142.9546  155.7545 H   0  0  0  0  0  0  0  0  0  0  0  0
  1  2  1  0  0  0  0
  1 23  1  0  0  0  0
  1 24  1  0  0  0  0
  1 25  1  0  0  0  0
  2  3  1  0  0  0  0
  2 10  1  0  0  0  0
  2 44  1  0  0  0  0
  3  4  1  0  0  0  0
  3 26  1  0  0  0  0
  3 27  1  0  0  0  0
  4  9  1  0  0  0  0
  4  5  2  0  0  0  0
  5  6  1  0  0  0  0
  5 28  1  0  0  0  0
  6  7  2  0  0  0  0
  6 29  1  0  0  0  0
  7  8  1  0  0  0  0
  7 30  1  0  0  0  0
  8  9  2  0  0  0  0
  8 31  1  0  0  0  0
  9 32  1  0  0  0  0
 10 11  1  0  0  0  0
 10 33  1  0  0  0  0
 10 34  1  0  0  0  0
 11 12  1  0  0  0  0
 11 13  1  0  0  0  0
 11 35  1  0  0  0  0
 12 36  1  0  0  0  0
 13 14  1  0  0  0  0
 13 37  1  0  0  0  0
 13 38  1  0  0  0  0
 14 22  1  0  0  0  0
 14 15  1  0  0  0  0
 15 16  2  0  0  0  0
 15 39  1  0  0  0  0
 16 17  1  0  0  0  0
 16 45  1  0  0  0  0
 17 22  2  0  0  0  0
 17 18  1  0  0  0  0
 18 19  2  0  0  0  0
 18 40  1  0  0  0  0
 19 20  1  0  0  0  0
 19 41  1  0  0  0  0
 20 21  2  0  0  0  0
 20 42  1  0  0  0  0
 21 22  1  0  0  0  0
 21 43  1  0  0  0  0
M  CHG  1   2   1
M  CHG  1  16   1
M  END
> <s_m_source_file>
AV-unprocessed.smi

> <i_m_source_file_index>
1019

> <i_lp_mmshare_version>
43012

> <i_f3d_flags>
0

> <s_epik_input>
W2NIXTFbY0hdW2NIXVtjSF1bY0hdYzFbQ0gyXU4oW0NIM10pW0NIMl1bQ0BIXShbT0hdKVtDSDJdbihbY0hdbjIpYyhjMjMpW2NIXVtjSF1bY0hdW2NIXTM=

> <s_epik_cmdline>
J2VwaWtfcHl0aG9uJywgJy1waCcsICc3LjAnLCAnLXRuJywgJzgnLCAnLW1hJywgJzIwMCcsICctbWV0YWxfYmluZGluZycsICctaW1hZScsICc8aW5maWxlLm1hZT4nLCAnLW9tYWUnLCAnPG91dGZpbGUubWFlPic=

> <r_epik_Ionization_Penalty>
1.5198

> <r_epik_Ionization_Penalty_Charging>
1.5198

> <r_epik_Ionization_Penalty_Neutral>
3.13312e-06

> <r_epik_State_Penalty>
1.624

> <r_epik_Charging_Adjusted_Penalty>
3.1438

> <i_epik_Tot_Q>
2

> <i_epik_Tot_abs_Q>
2

> <r_epik_Metal_State_Penalty>
5.67392

> <b_epik_Metal_Only>
0

> <s_lp_Force_Field>
OPLS_2005

> <r_lp_Energy>
24.0682

> <b_lp_Chiralities_Consistent>
1

> <s_lp_Variant>
AV-unprocessed.smi:1019-6

> <Gold.Version>
5.8.1

> <Gold.Id.Protein>
6NUR|6NUR_protein|mol2

> <Gold.PLP.Fitness>
56.9540

> <Gold.PLP.PLP>
-42.8365

> <Gold.PLP.part.hbond>
-4.0000

> <Gold.PLP.part.metal>
0.0000

> <Gold.PLP.part.buried>
-1.8072

> <Gold.PLP.part.nonpolar>
-36.6167

> <Gold.PLP.part.repulsive>
0.1762

> <Gold.PLP.ligand.clash>
0.0000

> <Gold.PLP.ligand.torsion>
0.5206

> <Gold.PLP.Chemscore.Hbond>
4.9840

> <Gold.PLP.Chemscore.CHOScore>
0.0000

> <Gold.PLP.Chemscore.Metal>
0.0000

> <Gold.Chemscore.Hbonds>
donor molecule, donor type, donor heavy atom, donor atom, acceptor molecule, acceptor atom, score
      L1  H     2    44       P1  7948  2.00
      L1  H    12    36       P1  7948  1.00
      L1  H    16    45       P1  8028  1.95

> <Gold.PLP.Chemscore.Internal.Correction>
0.2067

> <Gold.Rescore>
     Score         DG    S(hbond)    S(metal)    S(lipo)     H(rot)  DE(clash)    DE(int)     intcor
     20.04     -20.77       2.87        0.00     102.38       2.46       0.16       0.57       ----

> <Gold.Chemscore.Fitness>
20.0380

> <Gold.Chemscore.DG>
-20.7730

> <Gold.Chemscore.ZeroCoef>
-5.4800

> <Gold.Chemscore.Hbond>
2.8744

> <Gold.Chemscore.Metal>
0.0000

> <Gold.Chemscore.Lipo>
102.3753

> <Gold.Chemscore.Internal_Hbond>
0.0000

> <Gold.Chemscore.DEClash>
0.1623

> <Gold.Chemscore.DEInternal>
0.5727

> <Gold.Chemscore.Rot>
2.4552

> <Gold.Chemscore.Internal.Correction>
   9.000000E+99

> <Gold.Chemscore.Hbonds>
donor molecule, donor type, donor heavy atom, donor atom, acceptor molecule, acceptor atom, score
      L1  H     2    44       P1  7948  0.30
      L1  H    12    36       P1  7948  0.95
      L1  H    16    45       P1  8028  0.93

> <Gold.Chemscore.Hbond.Weighted>
-9.6005

> <Gold.Chemscore.Metal.Weighted>
-0.0000

> <Gold.Chemscore.Lipo.Weighted>
-11.9779

> <Gold.Chemscore.Internal_Hbond.Weighted>
0.0000

> <Gold.Chemscore.DEClash.Weighted>
0.1623

> <Gold.Chemscore.DEInternal.Weighted>
0.5727

> <Gold.Chemscore.Rot.Weighted>
6.2854

> <Gold.Chemscore.Internal.Correction.Weighted>
   9.000000E+99

> <Gold.Protein.RotatedTorsions>
[ 6907 6896 6895 6894 ] final -118.21 input  -60.11 | X-H torsion
[ 7974 7965 7964 7962 ] final    0.13 input  175.53 | X-H torsion
[ 8008 7997 7996 7995 ] final   35.63 input   59.86 | X-H torsion
[ 10167 10162 10161 10158 ] final -153.66 input  -65.29 | X-H torsion
[ 10718 10713 10712 10709 ] final   -5.30 input   66.30 | X-H torsion
[ 10763 10752 10751 10750 ] final -124.53 input  -60.55 | X-H torsion
[ 11005 11000 10999 10996 ] final  113.86 input  -57.11 | X-H torsion

> <Gold.Protein.ActiveResidues>
 VAL166  LYS551  ARG553  GLY616  TRP617  ASP618  TYR619  PRO620  LYS621  CYS622 
 ASP623  PHE694  ASN695  SER759  ASP760  ASP761  ALA762  ILE779  LEU786  VAL792 
 PHE793  MET794  SER795  GLU796  ALA797  LYS798  CYS799  TRP800  GLU811  SER814 

> <Gold.Protein.RotatedAtoms>
  150.8201  133.8268  159.3142 H   0  0  0  0  0  0  0  0  0  0  0  0  # atno 6907 bound_to 6896
  151.6029  135.1044  160.0073 H   0  0  0  0  0  0  0  0  0  0  0  0  # atno 6908 bound_to 6896
  152.4290  133.7204  159.6587 H   0  0  0  0  0  0  0  0  0  0  0  0  # atno 6909 bound_to 6896
  146.2432  140.1184  142.8341 H   0  0  0  0  0  0  0  0  0  0  0  0  # atno 7974 bound_to 7965
  155.1742  140.3294  155.4387 H   0  0  0  0  0  0  0  0  0  0  0  0  # atno 8008 bound_to 7997
  156.2499  140.1938  156.6794 H   0  0  0  0  0  0  0  0  0  0  0  0  # atno 8009 bound_to 7997
  154.6316  140.0582  156.9725 H   0  0  0  0  0  0  0  0  0  0  0  0  # atno 8010 bound_to 7997
  139.7078  143.9158  152.2455 H   0  0  0  0  0  0  0  0  0  0  0  0  # atno 10167 bound_to 10162
  156.7486  130.5232  149.5808 H   0  0  0  0  0  0  0  0  0  0  0  0  # atno 10718 bound_to 10713
  154.8724  135.4060  154.3121 H   0  0  0  0  0  0  0  0  0  0  0  0  # atno 10763 bound_to 10752
  153.3963  135.7016  153.6463 H   0  0  0  0  0  0  0  0  0  0  0  0  # atno 10764 bound_to 10752
  153.5225  135.3684  155.2609 H   0  0  0  0  0  0  0  0  0  0  0  0  # atno 10765 bound_to 10752
  139.8964  134.9557  156.6804 H   0  0  0  0  0  0  0  0  0  0  0  0  # atno 11005 bound_to 11000
  145.0427  140.8958  143.5043 LP  0  0  0  0  0  0  0  0  0  0  0  0  # atno 17320 bound_to 7965
  145.1268  139.2658  143.5560 LP  0  0  0  0  0  0  0  0  0  0  0  0  # atno 17321 bound_to 7965
  139.9019  144.6907  150.8656 LP  0  0  0  0  0  0  0  0  0  0  0  0  # atno 17342 bound_to 10162
  140.7726  143.3508  151.2019 LP  0  0  0  0  0  0  0  0  0  0  0  0  # atno 17343 bound_to 10162
  156.1416  130.6248  151.0475 LP  0  0  0  0  0  0  0  0  0  0  0  0  # atno 17370 bound_to 10713
  157.6787  131.0844  150.7427 LP  0  0  0  0  0  0  0  0  0  0  0  0  # atno 17371 bound_to 10713
  140.7304  133.9064  155.8207 LP  0  0  0  0  0  0  0  0  0  0  0  0  # atno 17394 bound_to 11000
  141.0158  134.0958  157.4174 LP  0  0  0  0  0  0  0  0  0  0  0  0  # atno 17395 bound_to 11000

$$$$
