#       Name:                AV-unprocessed.smi:2524
#       Creating user name   scv26
#       Creation time:       Fri Mar 27 13:56:23 2020


#       File generated by GOLD software.
#

@<TRIPOS>MOLECULE
AV-unprocessed.smi:2524
    37    38     1
SMALL
NO_CHARGES


@<TRIPOS>ATOM
      1 ****        -4.3599   3.7299   0.3347 C.2            1 S1                 0.0000
      2 ****        -3.5416   3.3416  -0.6546 C.2            1 S1                 0.0000
      3 ****        -3.4784   1.9352  -1.2123 C.3            1 S1                 0.0000
      4 ****        -2.0802   1.3232  -1.0620 C.3            1 S1                 0.0000
      5 ****        -2.0330  -0.3989  -1.7344 S.o2           1 S1                 0.0000
      6 ****        -2.9110  -1.2050  -0.8693 O.2            1 S1                 0.0000
      7 ****        -2.4391  -0.2717  -3.1422 O.2            1 S1                 0.0000
      8 ****        -0.4566  -0.7747  -1.6118 N.pl3          1 S1                -1.0000
      9 ****         0.1310  -1.1626  -0.3342 C.3            1 S1                 0.0000
     10 ****         1.6654  -0.9967  -0.3087 C.3            1 S1                 0.0000
     11 ****         2.2259  -1.4230   1.0290 C.ar           1 S1                 0.0000
     12 ****         2.3697  -0.5014   2.0925 C.ar           1 S1                 0.0000
     13 ****         2.9113  -0.9452   3.3150 C.ar           1 S1                 0.0000
     14 ****         3.3133  -2.2152   3.5304 N.ar           1 S1                 0.0000
     15 ****         3.1855  -3.0947   2.5148 C.ar           1 S1                 0.0000
     16 ****         2.6562  -2.7513   1.2551 C.ar           1 S1                 0.0000
     17 ****         2.5208  -1.2489  -1.5418 C.3            1 S1                 0.0000
     18 ****         2.3544   0.1587  -1.0204 C.3            1 S1                 0.0000
     19 ****        -5.0411   3.0356   0.8043 H              1 S1                 0.0000
     20 ****        -4.3576   4.7504   0.6879 H              1 S1                 0.0000
     21 ****        -2.8737   4.0639  -1.1009 H              1 S1                 0.0000
     22 ****        -4.2152   1.3075  -0.7094 H              1 S1                 0.0000
     23 ****        -3.7600   1.9696  -2.2650 H              1 S1                 0.0000
     24 ****        -1.3398   1.9149  -1.6004 H              1 S1                 0.0000
     25 ****        -1.7883   1.2962  -0.0122 H              1 S1                 0.0000
     26 ****        -0.2754  -0.5706   0.4865 H              1 S1                 0.0000
     27 ****        -0.1036  -2.2004  -0.0952 H              1 S1                 0.0000
     28 ****         2.0650   0.5280   1.9734 H              1 S1                 0.0000
     29 ****         3.0262  -0.2601   4.1419 H              1 S1                 0.0000
     30 ****         3.5169  -4.1037   2.7112 H              1 S1                 0.0000
     31 ****         2.5775  -3.4954   0.4760 H              1 S1                 0.0000
     32 ****         3.4932  -1.7161  -1.3988 H              1 S1                 0.0000
     33 ****         2.0483  -1.4680  -2.4983 H              1 S1                 0.0000
     34 ****         1.7758   0.8386  -1.6444 H              1 S1                 0.0000
     35 ****         3.2184   0.6105  -0.5370 H              1 S1                 0.0000
     36 ****         0.1212  -0.7394  -2.4272 LP             1 S1                 0.0000
     37 ****         3.6928  -2.4950   4.4123 LP             1 S1                 0.0000
@<TRIPOS>BOND
    1    1    2 2     
    2    1   19 1     
    3    1   20 1     
    4    2    3 1     
    5    2   21 1     
    6    3    4 1     
    7    3   22 1     
    8    3   23 1     
    9    4    5 1     
   10    4   24 1     
   11    4   25 1     
   12    5    6 2     
   13    5    7 2     
   14    5    8 1     
   15    8    9 1     
   16    9   10 1     
   17    9   26 1     
   18    9   27 1     
   19   10   18 1     
   20   10   11 1     
   21   10   17 1     
   22   11   16 ar    
   23   11   12 ar    
   24   12   13 ar    
   25   12   28 1     
   26   13   14 ar    
   27   13   29 1     
   28   14   15 ar    
   29   15   16 ar    
   30   15   30 1     
   31   16   31 1     
   32   17   18 1     
   33   17   32 1     
   34   17   33 1     
   35   18   34 1     
   36   18   35 1     
   37    8   36 1     
   38   14   37 1     
@<TRIPOS>SUBSTRUCTURE
      1 S1             1
@<TRIPOS>SET
LONE_PAIRS      STATIC     ATOMS    <user>   **** ""
4 6 7 36 37
ATOM$BLUE        STATIC     ATOMS    COLORGROUP SYSTEM
4 6 7 36 37
