AV-unprocessed.smi:1754|AV-procd|sdf|7069|dock5
  -GOLD-   22720 8283D 1   1.00000     0.00000
 Structure written by MMmdl.
 44 45  0  0  0  0  0  0  0  0  3 V2000
  145.8692  132.0645  149.5207 C   0  0  0  0  0  0  0  0  0  0  0  0
  145.1014  132.7299  150.6701 C   0  0  0  0  0  0  0  0  0  0  0  0
  145.9870  133.4576  151.5751 N   0  0  0  0  0  0  0  0  0  0  0  0
  145.8638  134.9111  151.6716 C   0  0  0  0  0  0  0  0  0  0  0  0
  144.7144  135.4543  150.8121 C   0  0  0  0  0  0  0  0  0  0  0  0
  146.9852  132.7732  152.3067 C   0  0  0  0  0  0  0  0  0  0  0  0
  146.8699  131.4177  152.7031 C   0  0  0  0  0  0  0  0  0  0  0  0
  147.9131  130.8057  153.4276 C   0  0  0  0  0  0  0  0  0  0  0  0
  149.0627  131.5482  153.7645 C   0  0  0  0  0  0  0  0  0  0  0  0
  150.0988  130.8819  154.4723 N   0  0  0  0  0  0  0  0  0  0  0  0
  150.9338  131.3595  155.4280 C   0  0  0  0  0  0  0  0  0  0  0  0
  150.7794  132.5098  155.8344 O   0  0  0  0  0  0  0  0  0  0  0  0
  151.9101  130.5511  155.9418 N   0  5  0  0  0  0  0  0  0  0  0  0
  152.4068  129.2560  155.4440 C   0  0  1  0  0  0  0  0  0  0  0  0
  153.1315  129.4722  154.0973 C   0  0  0  0  0  0  0  0  0  0  0  0
  154.5517  129.9938  154.3555 C   0  0  0  0  0  0  0  0  0  0  0  0
  155.0936  129.1754  155.8999 S   0  0  0  0  0  0  0  0  0  0  0  0
  155.8714  127.9730  155.5624 O   0  0  0  0  0  0  0  0  0  0  0  0
  155.6348  130.1854  156.8225 O   0  0  0  0  0  0  0  0  0  0  0  0
  153.4162  128.6590  156.4453 C   0  0  0  0  0  0  0  0  0  0  0  0
  149.1386  132.8939  153.3372 C   0  0  0  0  0  0  0  0  0  0  0  0
  148.1162  133.4399  152.6448 N   0  3  0  0  0  0  0  0  0  0  0  0
  145.1884  131.5170  148.8687 H   0  0  0  0  0  0  0  0  0  0  0  0
  146.6082  131.3561  149.8964 H   0  0  0  0  0  0  0  0  0  0  0  0
  146.3921  132.8012  148.9104 H   0  0  0  0  0  0  0  0  0  0  0  0
  144.3179  133.3822  150.2854 H   0  0  0  0  0  0  0  0  0  0  0  0
  144.5819  131.9594  151.2403 H   0  0  0  0  0  0  0  0  0  0  0  0
  145.6841  135.1744  152.7145 H   0  0  0  0  0  0  0  0  0  0  0  0
  146.8024  135.3975  151.4050 H   0  0  0  0  0  0  0  0  0  0  0  0
  144.6350  136.5367  150.9146 H   0  0  0  0  0  0  0  0  0  0  0  0
  143.7583  135.0227  151.1095 H   0  0  0  0  0  0  0  0  0  0  0  0
  144.8682  135.2323  149.7558 H   0  0  0  0  0  0  0  0  0  0  0  0
  145.9937  130.8326  152.4700 H   0  0  0  0  0  0  0  0  0  0  0  0
  147.8252  129.7715  153.7271 H   0  0  0  0  0  0  0  0  0  0  0  0
  150.2093  129.9017  154.2577 H   0  0  0  0  0  0  0  0  0  0  0  0
  151.5878  128.5507  155.2945 H   0  0  0  0  0  0  0  0  0  0  0  0
  153.2084  128.5091  153.5919 H   0  0  0  0  0  0  0  0  0  0  0  0
  152.5756  130.1285  153.4266 H   0  0  0  0  0  0  0  0  0  0  0  0
  155.2446  129.7696  153.5449 H   0  0  0  0  0  0  0  0  0  0  0  0
  154.5497  131.0722  154.5233 H   0  0  0  0  0  0  0  0  0  0  0  0
  153.2475  128.9689  157.4772 H   0  0  0  0  0  0  0  0  0  0  0  0
  153.3826  127.5702  156.4119 H   0  0  0  0  0  0  0  0  0  0  0  0
  149.9775  133.5524  153.5054 H   0  0  0  0  0  0  0  0  0  0  0  0
  148.2056  134.4132  152.3533 H   0  0  0  0  0  0  0  0  0  0  0  0
  1  2  1  0  0  0  0
  1 23  1  0  0  0  0
  1 24  1  0  0  0  0
  1 25  1  0  0  0  0
  2  3  1  0  0  0  0
  2 26  1  0  0  0  0
  2 27  1  0  0  0  0
  3  4  1  0  0  0  0
  3  6  1  0  0  0  0
  4  5  1  0  0  0  0
  4 28  1  0  0  0  0
  4 29  1  0  0  0  0
  5 30  1  0  0  0  0
  5 31  1  0  0  0  0
  5 32  1  0  0  0  0
  6 22  1  0  0  0  0
  6  7  2  0  0  0  0
  7  8  1  0  0  0  0
  7 33  1  0  0  0  0
  8  9  2  0  0  0  0
  8 34  1  0  0  0  0
  9 10  1  0  0  0  0
  9 21  1  0  0  0  0
 10 11  1  0  0  0  0
 10 35  1  0  0  0  0
 11 12  2  0  0  0  0
 11 13  1  0  0  0  0
 13 14  1  0  0  0  0
 14 20  1  0  0  0  0
 14 15  1  0  0  0  0
 14 36  1  0  0  0  0
 15 16  1  0  0  0  0
 15 37  1  0  0  0  0
 15 38  1  0  0  0  0
 16 17  1  0  0  0  0
 16 39  1  0  0  0  0
 16 40  1  0  0  0  0
 17 18  2  0  0  0  0
 17 19  2  0  0  0  0
 17 20  1  0  0  0  0
 20 41  1  0  0  0  0
 20 42  1  0  0  0  0
 21 22  2  0  0  0  0
 21 43  1  0  0  0  0
 22 44  1  0  0  0  0
M  CHG  1  13  -1
M  CHG  1  22   1
M  END
> <s_m_source_file>
AV-unprocessed.smi

> <i_m_source_file_index>
1754

> <i_lp_mmshare_version>
43012

> <i_f3d_flags>
0

> <s_epik_input>
W0NIM11bQ0gyXU4oW0NIMl1bQ0gzXSljMVtjSF1bY0hdYyhbY0hdbjEpW05IXUMoPU8pW05IXVtDQEBIXShbQ0gyXTIpW0NIMl1bQ0gyXVMyKD1PKT1P

> <s_epik_cmdline>
J2VwaWtfcHl0aG9uJywgJy1waCcsICc3LjAnLCAnLXRuJywgJzgnLCAnLW1hJywgJzIwMCcsICctbWV0YWxfYmluZGluZycsICctaW1hZScsICc8aW5maWxlLm1hZT4nLCAnLW9tYWUnLCAnPG91dGZpbGUubWFlPic=

> <r_lp_tautomer_probability>
0.999994

> <r_epik_Ionization_Penalty>
7.1175

> <r_epik_Ionization_Penalty_Charging>
7.11749

> <r_epik_Ionization_Penalty_Neutral>
3.13064e-06

> <r_epik_State_Penalty>
6.65299

> <r_epik_Charging_Adjusted_Penalty>
13.7705

> <i_epik_Tot_Q>
0

> <i_epik_Tot_abs_Q>
2

> <r_epik_Metal_State_Penalty>
2.60496

> <b_epik_Metal_Only>
1

> <s_lp_Force_Field>
OPLS_2005

> <r_lp_Energy>
22.4709

> <b_lp_Chiralities_Consistent>
1

> <s_lp_Variant>
AV-unprocessed.smi:1754-6

> <Gold.Version>
5.8.1

> <Gold.Id.Protein>
6NUR|6NUR_protein|mol2

> <Gold.PLP.Fitness>
39.7867

> <Gold.PLP.PLP>
-35.5272

> <Gold.PLP.part.hbond>
-1.0000

> <Gold.PLP.part.metal>
0.0000

> <Gold.PLP.part.buried>
-5.9693

> <Gold.PLP.part.nonpolar>
-30.0630

> <Gold.PLP.part.repulsive>
0.0083

> <Gold.PLP.ligand.clash>
0.0000

> <Gold.PLP.ligand.torsion>
0.6756

> <Gold.PLP.Chemscore.Hbond>
1.8000

> <Gold.PLP.Chemscore.CHOScore>
0.0000

> <Gold.PLP.Chemscore.Metal>
0.0000

> <Gold.Chemscore.Hbonds>
donor molecule, donor type, donor heavy atom, donor atom, acceptor molecule, acceptor atom, score
      L1  H    22    44       P1  7948  1.70

> <Gold.PLP.Chemscore.Internal.Correction>
0.2107

> <Gold.Rescore>
     Score         DG    S(hbond)    S(metal)    S(lipo)     H(rot)  DE(clash)    DE(int)     intcor
      9.57     -11.16       0.13        0.00      75.34       1.39       0.01       1.58       ----

> <Gold.Chemscore.Fitness>
9.5694

> <Gold.Chemscore.DG>
-11.1601

> <Gold.Chemscore.ZeroCoef>
-5.4800

> <Gold.Chemscore.Hbond>
0.1251

> <Gold.Chemscore.Metal>
0.0000

> <Gold.Chemscore.Lipo>
75.3376

> <Gold.Chemscore.Internal_Hbond>
0.0000

> <Gold.Chemscore.DEClash>
0.0073

> <Gold.Chemscore.DEInternal>
1.5833

> <Gold.Chemscore.Rot>
1.3876

> <Gold.Chemscore.Internal.Correction>
   9.000000E+99

> <Gold.Chemscore.Hbonds>
donor molecule, donor type, donor heavy atom, donor atom, acceptor molecule, acceptor atom, score
      L1  H    22    44       P1  7948  0.14

> <Gold.Chemscore.Hbond.Weighted>
-0.4180

> <Gold.Chemscore.Metal.Weighted>
-0.0000

> <Gold.Chemscore.Lipo.Weighted>
-8.8145

> <Gold.Chemscore.Internal_Hbond.Weighted>
0.0000

> <Gold.Chemscore.DEClash.Weighted>
0.0073

> <Gold.Chemscore.DEInternal.Weighted>
1.5833

> <Gold.Chemscore.Rot.Weighted>
3.5524

> <Gold.Chemscore.Internal.Correction.Weighted>
   9.000000E+99

> <Gold.Protein.RotatedTorsions>
[ 6907 6896 6895 6894 ] final  -11.21 input  -60.11 | X-H torsion
[ 7974 7965 7964 7962 ] final -101.52 input  175.53 | X-H torsion
[ 8008 7997 7996 7995 ] final  -29.76 input   59.86 | X-H torsion
[ 10167 10162 10161 10158 ] final   57.96 input  -65.29 | X-H torsion
[ 10718 10713 10712 10709 ] final  -72.41 input   66.30 | X-H torsion
[ 10763 10752 10751 10750 ] final -133.91 input  -60.55 | X-H torsion
[ 11005 11000 10999 10996 ] final  175.47 input  -57.11 | X-H torsion

> <Gold.Protein.ActiveResidues>
 VAL166  LYS551  ARG553  GLY616  TRP617  ASP618  TYR619  PRO620  LYS621  CYS622 
 ASP623  PHE694  ASN695  SER759  ASP760  ASP761  ALA762  ILE779  LEU786  VAL792 
 PHE793  MET794  SER795  GLU796  ALA797  LYS798  CYS799  TRP800  GLU811  SER814 

> <Gold.Protein.RotatedAtoms>
  151.3898  135.0954  159.9522 H   0  0  0  0  0  0  0  0  0  0  0  0  # atno 6907 bound_to 6896
  152.5083  133.8991  159.7442 H   0  0  0  0  0  0  0  0  0  0  0  0  # atno 6908 bound_to 6896
  150.9442  133.6566  159.2813 H   0  0  0  0  0  0  0  0  0  0  0  0  # atno 6909 bound_to 6896
  145.2805  140.9325  143.2935 H   0  0  0  0  0  0  0  0  0  0  0  0  # atno 7974 bound_to 7965
  154.4277  140.1809  156.1299 H   0  0  0  0  0  0  0  0  0  0  0  0  # atno 8008 bound_to 7997
  156.0076  140.3354  155.6883 H   0  0  0  0  0  0  0  0  0  0  0  0  # atno 8009 bound_to 7997
  155.6156  140.0654  157.2684 H   0  0  0  0  0  0  0  0  0  0  0  0  # atno 8010 bound_to 7997
  140.1923  144.4073  150.6565 H   0  0  0  0  0  0  0  0  0  0  0  0  # atno 10167 bound_to 10162
  156.0321  130.4371  150.2588 H   0  0  0  0  0  0  0  0  0  0  0  0  # atno 10718 bound_to 10713
  154.8726  135.3751  154.4650 H   0  0  0  0  0  0  0  0  0  0  0  0  # atno 10763 bound_to 10752
  153.5315  135.7027  153.5686 H   0  0  0  0  0  0  0  0  0  0  0  0  # atno 10764 bound_to 10752
  153.3888  135.3977  155.1874 H   0  0  0  0  0  0  0  0  0  0  0  0  # atno 10765 bound_to 10752
  140.3625  134.7100  157.4340 H   0  0  0  0  0  0  0  0  0  0  0  0  # atno 11005 bound_to 11000
  144.9257  139.4358  143.6519 LP  0  0  0  0  0  0  0  0  0  0  0  0  # atno 17320 bound_to 7965
  146.3218  139.8142  142.8940 LP  0  0  0  0  0  0  0  0  0  0  0  0  # atno 17321 bound_to 7965
  140.6447  143.2211  151.6212 LP  0  0  0  0  0  0  0  0  0  0  0  0  # atno 17342 bound_to 10162
  139.5251  144.3085  152.1013 LP  0  0  0  0  0  0  0  0  0  0  0  0  # atno 17343 bound_to 10162
  157.0690  131.0111  151.3197 LP  0  0  0  0  0  0  0  0  0  0  0  0  # atno 17370 bound_to 10713
  157.5014  130.7882  149.7608 LP  0  0  0  0  0  0  0  0  0  0  0  0  # atno 17371 bound_to 10713
  140.0615  134.5989  155.8743 LP  0  0  0  0  0  0  0  0  0  0  0  0  # atno 17394 bound_to 11000
  141.1979  133.6599  156.5768 LP  0  0  0  0  0  0  0  0  0  0  0  0  # atno 17395 bound_to 11000

$$$$
