AV-unprocessed.smi:964|AV-procd|sdf|4279|dock4
  -GOLD-   22720 2183D 1   1.00000     0.00000
 Structure written by MMmdl.
 20 20  0  0  0  0  0  0  0  0  2 V2000
  151.3747  137.9876  154.4237 C   0  0  0  0  0  0  0  0  0  0  0  0
  150.2871  138.9818  154.1944 C   0  0  0  0  0  0  0  0  0  0  0  0
  149.1731  138.6680  153.5176 N   0  0  0  0  0  0  0  0  0  0  0  0
  148.4745  139.8127  153.5461 C   0  0  0  0  0  0  0  0  0  0  0  0
  147.1361  139.9470  152.8967 C   0  0  0  0  0  0  0  0  0  0  0  0
  146.7608  138.7132  152.0645 C   0  0  0  0  0  0  0  0  0  0  0  0
  145.3005  138.5403  151.9887 N   0  3  0  0  0  0  0  0  0  0  0  0
  149.1061  140.7969  154.1927 N   0  0  0  0  0  0  0  0  0  0  0  0
  150.3027  140.2478  154.6219 N   0  0  0  0  0  0  0  0  0  0  0  0
  148.9232  137.7846  153.0970 H   0  0  0  0  0  0  0  0  0  0  0  0
  152.1479  138.4095  155.0664 H   0  0  0  0  0  0  0  0  0  0  0  0
  151.8279  137.7023  153.4741 H   0  0  0  0  0  0  0  0  0  0  0  0
  150.9725  137.0956  154.9045 H   0  0  0  0  0  0  0  0  0  0  0  0
  147.1499  140.8356  152.2639 H   0  0  0  0  0  0  0  0  0  0  0  0
  146.3843  140.1250  153.6672 H   0  0  0  0  0  0  0  0  0  0  0  0
  147.1526  138.8060  151.0508 H   0  0  0  0  0  0  0  0  0  0  0  0
  147.2000  137.8145  152.4986 H   0  0  0  0  0  0  0  0  0  0  0  0
  145.0146  138.5134  151.0201 H   0  0  0  0  0  0  0  0  0  0  0  0
  144.8451  139.3150  152.4503 H   0  0  0  0  0  0  0  0  0  0  0  0
  145.0363  137.6768  152.4411 H   0  0  0  0  0  0  0  0  0  0  0  0
  1 11  1  0  0  0  0
  1 12  1  0  0  0  0
  1 13  1  0  0  0  0
  1  2  1  0  0  0  0
  2  3  1  0  0  0  0
  2  9  2  0  0  0  0
  3 10  1  0  0  0  0
  3  4  1  0  0  0  0
  4  8  2  0  0  0  0
  4  5  1  0  0  0  0
  5  6  1  0  0  0  0
  5 14  1  0  0  0  0
  5 15  1  0  0  0  0
  6  7  1  0  0  0  0
  6 16  1  0  0  0  0
  6 17  1  0  0  0  0
  7 18  1  0  0  0  0
  7 19  1  0  0  0  0
  7 20  1  0  0  0  0
  8  9  1  0  0  0  0
M  CHG  1   7   1
M  END
> <s_m_source_file>
AV-unprocessed.smi

> <i_m_source_file_index>
964

> <i_lp_mmshare_version>
43012

> <i_f3d_flags>
0

> <s_epik_input>
W0NIM11jMW5jKG5bbkhdMSlbQ0gyXVtDSDJdW05IMl0=

> <s_epik_cmdline>
J2VwaWtfcHl0aG9uJywgJy1waCcsICc3LjAnLCAnLXRuJywgJzgnLCAnLW1hJywgJzIwMCcsICctbWV0YWxfYmluZGluZycsICctaW1hZScsICc8aW5maWxlLm1hZT4nLCAnLW9tYWUnLCAnPG91dGZpbGUubWFlPic=

> <r_lp_tautomer_probability>
0.0517155

> <r_epik_Ionization_Penalty>
0.0139864

> <r_epik_Ionization_Penalty_Charging>
0.00465044

> <r_epik_Ionization_Penalty_Neutral>
0.00933595

> <r_epik_State_Penalty>
2.23303

> <r_epik_Charging_Adjusted_Penalty>
2.23768

> <i_epik_Tot_Q>
1

> <i_epik_Tot_abs_Q>
1

> <r_epik_Metal_State_Penalty>
2.43351

> <b_epik_Metal_Only>
0

> <s_lp_Force_Field>
OPLS_2005

> <r_lp_Energy>
2.69796

> <b_lp_Chiralities_Consistent>
1

> <s_lp_Variant>
AV-unprocessed.smi:964-3

> <Gold.Version>
5.8.1

> <Gold.Id.Protein>
6NUR|6NUR_protein|mol2

> <Gold.PLP.Fitness>
33.6307

> <Gold.PLP.PLP>
-19.0837

> <Gold.PLP.part.hbond>
-5.2942

> <Gold.PLP.part.metal>
0.0000

> <Gold.PLP.part.buried>
2.5802

> <Gold.PLP.part.nonpolar>
-16.2830

> <Gold.PLP.part.repulsive>
0.5563

> <Gold.PLP.ligand.clash>
0.0000

> <Gold.PLP.ligand.torsion>
0.2267

> <Gold.PLP.Chemscore.Hbond>
5.0000

> <Gold.PLP.Chemscore.CHOScore>
0.0000

> <Gold.PLP.Chemscore.Metal>
0.0000

> <Gold.Chemscore.Hbonds>
donor molecule, donor type, donor heavy atom, donor atom, acceptor molecule, acceptor atom, score
      L1  H     3    10       P1  7948  1.00
      L1  H     7    18       P1 10171  1.00
      L1  H     7    19       P1 10175  1.95
      P1  H  7989  7998       L1     9  0.90

> <Gold.PLP.Chemscore.Internal.Correction>
0.0004

> <Gold.Rescore>
     Score         DG    S(hbond)    S(metal)    S(lipo)     H(rot)  DE(clash)    DE(int)     intcor
     13.10     -14.73       3.02        0.00      25.78       1.51       1.42       0.21       ----

> <Gold.Chemscore.Fitness>
13.0971

> <Gold.Chemscore.DG>
-14.7267

> <Gold.Chemscore.ZeroCoef>
-5.4800

> <Gold.Chemscore.Hbond>
3.0212

> <Gold.Chemscore.Metal>
0.0000

> <Gold.Chemscore.Lipo>
25.7847

> <Gold.Chemscore.Internal_Hbond>
0.0000

> <Gold.Chemscore.DEClash>
1.4230

> <Gold.Chemscore.DEInternal>
0.2066

> <Gold.Chemscore.Rot>
1.5082

> <Gold.Chemscore.Internal.Correction>
   9.000000E+99

> <Gold.Chemscore.Hbonds>
donor molecule, donor type, donor heavy atom, donor atom, acceptor molecule, acceptor atom, score
      L1  H     3    10       P1  7948  0.98
      L1  H     7    18       P1 10171  0.97
      L1  H     7    19       P1 10175  0.93
      P1  H  7989  7998       L1     9  0.11

> <Gold.Chemscore.Hbond.Weighted>
-10.0909

> <Gold.Chemscore.Metal.Weighted>
-0.0000

> <Gold.Chemscore.Lipo.Weighted>
-3.0168

> <Gold.Chemscore.Internal_Hbond.Weighted>
0.0000

> <Gold.Chemscore.DEClash.Weighted>
1.4230

> <Gold.Chemscore.DEInternal.Weighted>
0.2066

> <Gold.Chemscore.Rot.Weighted>
3.8611

> <Gold.Chemscore.Internal.Correction.Weighted>
   9.000000E+99

> <Gold.Protein.RotatedTorsions>
[ 6907 6896 6895 6894 ] final -139.93 input  -60.11 | X-H torsion
[ 7974 7965 7964 7962 ] final  127.82 input  175.53 | X-H torsion
[ 8008 7997 7996 7995 ] final   87.95 input   59.86 | X-H torsion
[ 10167 10162 10161 10158 ] final  -46.98 input  -65.29 | X-H torsion
[ 10718 10713 10712 10709 ] final   20.75 input   66.30 | X-H torsion
[ 10763 10752 10751 10750 ] final  148.07 input  -60.55 | X-H torsion
[ 11005 11000 10999 10996 ] final -167.73 input  -57.11 | X-H torsion

> <Gold.Protein.ActiveResidues>
 VAL166  LYS551  ARG553  GLY616  TRP617  ASP618  TYR619  PRO620  LYS621  CYS622 
 ASP623  PHE694  ASN695  SER759  ASP760  ASP761  ALA762  ILE779  LEU786  VAL792 
 PHE793  MET794  SER795  GLU796  ALA797  LYS798  CYS799  TRP800  GLU811  SER814 

> <Gold.Protein.RotatedAtoms>
  151.0541  133.5599  159.2639 H   0  0  0  0  0  0  0  0  0  0  0  0  # atno 6907 bound_to 6896
  151.2598  135.0649  159.9104 H   0  0  0  0  0  0  0  0  0  0  0  0  # atno 6908 bound_to 6896
  152.5387  134.0289  159.8069 H   0  0  0  0  0  0  0  0  0  0  0  0  # atno 6909 bound_to 6896
  145.0463  139.3920  143.5076 H   0  0  0  0  0  0  0  0  0  0  0  0  # atno 7974 bound_to 7965
  155.9817  140.3376  155.6669 H   0  0  0  0  0  0  0  0  0  0  0  0  # atno 8008 bound_to 7997
  155.6539  140.0708  157.2595 H   0  0  0  0  0  0  0  0  0  0  0  0  # atno 8009 bound_to 7997
  154.4194  140.1720  156.1692 H   0  0  0  0  0  0  0  0  0  0  0  0  # atno 8010 bound_to 7997
  140.6795  143.2805  151.3860 H   0  0  0  0  0  0  0  0  0  0  0  0  # atno 10167 bound_to 10162
  157.1288  130.6582  149.5945 H   0  0  0  0  0  0  0  0  0  0  0  0  # atno 10718 bound_to 10713
  154.0488  135.2883  155.3344 H   0  0  0  0  0  0  0  0  0  0  0  0  # atno 10763 bound_to 10752
  154.6882  135.5237  153.8359 H   0  0  0  0  0  0  0  0  0  0  0  0  # atno 10764 bound_to 10752
  153.0569  135.6599  154.0686 H   0  0  0  0  0  0  0  0  0  0  0  0  # atno 10765 bound_to 10752
  140.5499  134.5438  157.5120 H   0  0  0  0  0  0  0  0  0  0  0  0  # atno 11005 bound_to 11000
  146.3514  140.0090  142.8669 LP  0  0  0  0  0  0  0  0  0  0  0  0  # atno 17320 bound_to 7965
  145.1583  140.9659  143.4392 LP  0  0  0  0  0  0  0  0  0  0  0  0  # atno 17321 bound_to 7965
  139.6107  144.1103  152.2296 LP  0  0  0  0  0  0  0  0  0  0  0  0  # atno 17342 bound_to 10162
  140.0517  144.5927  150.7331 LP  0  0  0  0  0  0  0  0  0  0  0  0  # atno 17343 bound_to 10162
  155.9812  130.4818  150.6816 LP  0  0  0  0  0  0  0  0  0  0  0  0  # atno 17370 bound_to 10713
  157.4411  131.0861  151.0943 LP  0  0  0  0  0  0  0  0  0  0  0  0  # atno 17371 bound_to 10713
  139.9460  134.7701  156.0560 LP  0  0  0  0  0  0  0  0  0  0  0  0  # atno 17394 bound_to 11000
  141.1178  133.6622  156.3137 LP  0  0  0  0  0  0  0  0  0  0  0  0  # atno 17395 bound_to 11000

$$$$
