AV-unprocessed.smi:2574|AV-procd|sdf|10115|dock3
  -GOLD-   2272014133D 1   1.00000     0.00000
 Structure written by MMmdl.
 38 40  0  0  0  0  0  0  0  0  1 V2000
  152.6874  136.9208  159.4574 O   0  0  0  0  0  0  0  0  0  0  0  0
  152.9352  138.0739  159.8130 C   0  0  0  0  0  0  0  0  0  0  0  0
  153.8475  138.4047  160.9182 C   0  0  0  0  0  0  0  0  0  0  0  0
  154.5067  137.2523  161.6715 C   0  0  0  0  0  0  0  0  0  0  0  0
  155.7251  137.5791  162.1051 F   0  0  0  0  0  0  0  0  0  0  0  0
  153.7765  136.9045  162.7319 F   0  0  0  0  0  0  0  0  0  0  0  0
  154.6274  136.1858  160.8804 F   0  0  0  0  0  0  0  0  0  0  0  0
  154.0748  139.6998  161.2467 C   0  0  0  0  0  0  0  0  0  0  0  0
  153.4277  140.7663  160.5090 C   0  0  0  0  0  0  0  0  0  0  0  0
  153.6478  142.2216  160.8091 C   0  0  0  0  0  0  0  0  0  0  0  0
  152.7428  142.9840  161.7483 C   0  0  0  0  0  0  0  0  0  0  0  0
  152.7375  143.3022  160.2709 C   0  0  0  0  0  0  0  0  0  0  0  0
  152.6222  140.4731  159.5442 N   0  0  0  0  0  0  0  0  0  0  0  0
  152.3720  139.1587  159.2034 N   0  0  0  0  0  0  0  0  0  0  0  0
  151.4281  139.0041  158.0890 C   0  0  0  0  0  0  0  0  0  0  0  0
  151.8108  139.8688  156.8676 C   0  0  1  0  0  0  0  0  0  0  0  0
  152.9248  139.2812  156.2237 O   0  0  0  0  0  0  0  0  0  0  0  0
  150.6318  140.0178  155.9174 C   0  0  0  0  0  0  0  0  0  0  0  0
  150.0918  138.8948  155.2512 C   0  0  0  0  0  0  0  0  0  0  0  0
  148.9960  139.0454  154.3794 C   0  0  0  0  0  0  0  0  0  0  0  0
  148.4307  140.3181  154.1712 C   0  0  0  0  0  0  0  0  0  0  0  0
  148.9604  141.4399  154.8372 C   0  0  0  0  0  0  0  0  0  0  0  0
  150.0567  141.2900  155.7087 C   0  0  0  0  0  0  0  0  0  0  0  0
  154.7369  139.9625  162.0579 H   0  0  0  0  0  0  0  0  0  0  0  0
  154.7113  142.4494  160.8520 H   0  0  0  0  0  0  0  0  0  0  0  0
  151.8733  142.4682  162.1514 H   0  0  0  0  0  0  0  0  0  0  0  0
  153.2082  143.7052  162.4169 H   0  0  0  0  0  0  0  0  0  0  0  0
  153.1984  144.2367  159.9573 H   0  0  0  0  0  0  0  0  0  0  0  0
  151.8589  143.0034  159.7026 H   0  0  0  0  0  0  0  0  0  0  0  0
  151.3274  137.9565  157.7975 H   0  0  0  0  0  0  0  0  0  0  0  0
  150.4364  139.2930  158.4426 H   0  0  0  0  0  0  0  0  0  0  0  0
  152.1113  140.8663  157.1902 H   0  0  0  0  0  0  0  0  0  0  0  0
  152.8745  139.4795  155.3011 H   0  0  0  0  0  0  0  0  0  0  0  0
  150.5152  137.9132  155.4073 H   0  0  0  0  0  0  0  0  0  0  0  0
  148.5887  138.1841  153.8707 H   0  0  0  0  0  0  0  0  0  0  0  0
  147.5905  140.4339  153.5025 H   0  0  0  0  0  0  0  0  0  0  0  0
  148.5259  142.4162  154.6807 H   0  0  0  0  0  0  0  0  0  0  0  0
  150.4536  142.1561  156.2182 H   0  0  0  0  0  0  0  0  0  0  0  0
  1  2  2  0  0  0  0
  2 14  1  0  0  0  0
  2  3  1  0  0  0  0
  3  4  1  0  0  0  0
  3  8  2  0  0  0  0
  4  5  1  0  0  0  0
  4  6  1  0  0  0  0
  4  7  1  0  0  0  0
  8  9  1  0  0  0  0
  8 24  1  0  0  0  0
  9 10  1  0  0  0  0
  9 13  2  0  0  0  0
 10 12  1  0  0  0  0
 10 11  1  0  0  0  0
 10 25  1  0  0  0  0
 11 12  1  0  0  0  0
 11 26  1  0  0  0  0
 11 27  1  0  0  0  0
 12 28  1  0  0  0  0
 12 29  1  0  0  0  0
 13 14  1  0  0  0  0
 14 15  1  0  0  0  0
 15 16  1  0  0  0  0
 15 30  1  0  0  0  0
 15 31  1  0  0  0  0
 16 17  1  0  0  0  0
 16 18  1  0  0  0  0
 16 32  1  0  0  0  0
 17 33  1  0  0  0  0
 18 23  1  0  0  0  0
 18 19  2  0  0  0  0
 19 20  1  0  0  0  0
 19 34  1  0  0  0  0
 20 21  2  0  0  0  0
 20 35  1  0  0  0  0
 21 22  1  0  0  0  0
 21 36  1  0  0  0  0
 22 23  2  0  0  0  0
 22 37  1  0  0  0  0
 23 38  1  0  0  0  0
M  END
> <s_m_source_file>
AV-unprocessed.smi

> <i_m_source_file_index>
2574

> <i_lp_mmshare_version>
43012

> <i_f3d_flags>
0

> <s_epik_input>
Tz1jMWMoQyhGKShGKUYpW2NIXWMoW0NIXTJbQ0gyXVtDSDJdMilubjFbQ0gyXVtDQEhdKFtPSF0pYzNbY0hdW2NIXVtjSF1bY0hdW2NIXTM=

> <s_epik_cmdline>
J2VwaWtfcHl0aG9uJywgJy1waCcsICc3LjAnLCAnLXRuJywgJzgnLCAnLW1hJywgJzIwMCcsICctbWV0YWxfYmluZGluZycsICctaW1hZScsICc8aW5maWxlLm1hZT4nLCAnLW9tYWUnLCAnPG91dGZpbGUubWFlPic=

> <r_lp_tautomer_probability>
1

> <r_epik_Ionization_Penalty>
7.26807e-08

> <r_epik_Ionization_Penalty_Charging>
9.677e-10

> <r_epik_Ionization_Penalty_Neutral>
7.1713e-08

> <r_epik_State_Penalty>
-0

> <r_epik_Charging_Adjusted_Penalty>
9.677e-10

> <i_epik_Tot_Q>
0

> <i_epik_Tot_abs_Q>
0

> <r_epik_Metal_State_Penalty>
-0

> <b_epik_Metal_Only>
0

> <s_lp_Force_Field>
OPLS_2005

> <r_lp_Energy>
33.5512

> <b_lp_Chiralities_Consistent>
1

> <s_lp_Variant>
AV-unprocessed.smi:2574-2

> <Gold.Version>
5.8.1

> <Gold.Id.Protein>
6NUR|6NUR_protein|mol2

> <Gold.PLP.Fitness>
50.0384

> <Gold.PLP.PLP>
-47.2666

> <Gold.PLP.part.hbond>
-2.0000

> <Gold.PLP.part.metal>
0.0000

> <Gold.PLP.part.buried>
-4.2460

> <Gold.PLP.part.nonpolar>
-41.6953

> <Gold.PLP.part.repulsive>
0.0000

> <Gold.PLP.ligand.clash>
0.0000

> <Gold.PLP.ligand.torsion>
1.8869

> <Gold.PLP.Chemscore.Hbond>
1.9750

> <Gold.PLP.Chemscore.CHOScore>
0.0000

> <Gold.PLP.Chemscore.Metal>
0.0000

> <Gold.Chemscore.Hbonds>
donor molecule, donor type, donor heavy atom, donor atom, acceptor molecule, acceptor atom, score
      P1  H  6896  6907       L1     1  0.94
      P1  H  7997  8010       L1    17  1.00

> <Gold.PLP.Chemscore.Internal.Correction>
0.6207

> <Gold.Rescore>
     Score         DG    S(hbond)    S(metal)    S(lipo)     H(rot)  DE(clash)    DE(int)     intcor
     15.47     -18.71       1.63        0.00     112.28       2.09       0.07       3.17       ----

> <Gold.Chemscore.Fitness>
15.4685

> <Gold.Chemscore.DG>
-18.7084

> <Gold.Chemscore.ZeroCoef>
-5.4800

> <Gold.Chemscore.Hbond>
1.6297

> <Gold.Chemscore.Metal>
0.0000

> <Gold.Chemscore.Lipo>
112.2843

> <Gold.Chemscore.Internal_Hbond>
0.0000

> <Gold.Chemscore.DEClash>
0.0671

> <Gold.Chemscore.DEInternal>
3.1727

> <Gold.Chemscore.Rot>
2.0906

> <Gold.Chemscore.Internal.Correction>
   9.000000E+99

> <Gold.Chemscore.Hbonds>
donor molecule, donor type, donor heavy atom, donor atom, acceptor molecule, acceptor atom, score
      P1  H  6896  6907       L1     1  0.89
      P1  H  7997  8010       L1    17  0.24

> <Gold.Chemscore.Hbond.Weighted>
-5.4431

> <Gold.Chemscore.Metal.Weighted>
-0.0000

> <Gold.Chemscore.Lipo.Weighted>
-13.1373

> <Gold.Chemscore.Internal_Hbond.Weighted>
0.0000

> <Gold.Chemscore.DEClash.Weighted>
0.0671

> <Gold.Chemscore.DEInternal.Weighted>
3.1727

> <Gold.Chemscore.Rot.Weighted>
5.3520

> <Gold.Chemscore.Internal.Correction.Weighted>
   9.000000E+99

> <Gold.Protein.RotatedTorsions>
[ 6907 6896 6895 6894 ] final   22.86 input  -60.11 | X-H torsion
[ 7974 7965 7964 7962 ] final  -28.08 input  175.53 | X-H torsion
[ 8008 7997 7996 7995 ] final   57.49 input   59.86 | X-H torsion
[ 10167 10162 10161 10158 ] final  -58.75 input  -65.29 | X-H torsion
[ 10718 10713 10712 10709 ] final -160.90 input   66.30 | X-H torsion
[ 10763 10752 10751 10750 ] final  -33.92 input  -60.55 | X-H torsion
[ 11005 11000 10999 10996 ] final   -6.17 input  -57.11 | X-H torsion

> <Gold.Protein.ActiveResidues>
 VAL166  LYS551  ARG553  GLY616  TRP617  ASP618  TYR619  PRO620  LYS621  CYS622 
 ASP623  PHE694  ASN695  SER759  ASP760  ASP761  ALA762  ILE779  LEU786  VAL792 
 PHE793  MET794  SER795  GLU796  ALA797  LYS798  CYS799  TRP800  GLU811  SER814 

> <Gold.Protein.RotatedAtoms>
  151.9336  135.0245  160.0530 H   0  0  0  0  0  0  0  0  0  0  0  0  # atno 6907 bound_to 6896
  152.2097  133.4898  159.5112 H   0  0  0  0  0  0  0  0  0  0  0  0  # atno 6908 bound_to 6896
  150.6973  134.1399  159.4144 H   0  0  0  0  0  0  0  0  0  0  0  0  # atno 6909 bound_to 6896
  146.1313  140.5236  142.8692 H   0  0  0  0  0  0  0  0  0  0  0  0  # atno 7974 bound_to 7965
  155.5346  140.3483  155.4433 H   0  0  0  0  0  0  0  0  0  0  0  0  # atno 8008 bound_to 7997
  156.0694  140.1359  156.9873 H   0  0  0  0  0  0  0  0  0  0  0  0  # atno 8009 bound_to 7997
  154.4520  140.0969  156.6621 H   0  0  0  0  0  0  0  0  0  0  0  0  # atno 8010 bound_to 7997
  140.6178  143.2408  151.5555 H   0  0  0  0  0  0  0  0  0  0  0  0  # atno 10167 bound_to 10162
  156.5886  130.8760  151.2884 H   0  0  0  0  0  0  0  0  0  0  0  0  # atno 10718 bound_to 10713
  153.8382  135.6860  153.4806 H   0  0  0  0  0  0  0  0  0  0  0  0  # atno 10763 bound_to 10752
  153.1470  135.4634  154.9578 H   0  0  0  0  0  0  0  0  0  0  0  0  # atno 10764 bound_to 10752
  154.7857  135.3284  154.7838 H   0  0  0  0  0  0  0  0  0  0  0  0  # atno 10765 bound_to 10752
  140.6991  133.9005  155.8671 H   0  0  0  0  0  0  0  0  0  0  0  0  # atno 11005 bound_to 11000
  144.7693  140.5602  143.6681 LP  0  0  0  0  0  0  0  0  0  0  0  0  # atno 17320 bound_to 7965
  145.5255  139.1476  143.3529 LP  0  0  0  0  0  0  0  0  0  0  0  0  # atno 17321 bound_to 7965
  139.5413  144.2640  152.1356 LP  0  0  0  0  0  0  0  0  0  0  0  0  # atno 17342 bound_to 10162
  140.1854  144.4804  150.6506 LP  0  0  0  0  0  0  0  0  0  0  0  0  # atno 17343 bound_to 10162
  157.7309  130.9692  150.1855 LP  0  0  0  0  0  0  0  0  0  0  0  0  # atno 17370 bound_to 10713
  156.2569  130.3706  149.8172 LP  0  0  0  0  0  0  0  0  0  0  0  0  # atno 17371 bound_to 10713
  141.0178  134.0931  157.4153 LP  0  0  0  0  0  0  0  0  0  0  0  0  # atno 17394 bound_to 11000
  139.8902  135.0110  156.6721 LP  0  0  0  0  0  0  0  0  0  0  0  0  # atno 17395 bound_to 11000

$$$$
