AV-unprocessed.smi:2928|AV-procd|sdf|11232|dock7
  -GOLD-   2272016123D 1   1.00000     0.00000
 Structure written by MMmdl.
 55 58  0  0  0  0  0  0  0  0  2 V2000
  143.0825  135.1167  152.5304 C   0  0  0  0  0  0  0  0  0  0  0  0
  143.4022  134.2806  151.3486 N   0  3  2  0  0  0  0  0  0  0  0  0
  143.7993  132.8858  151.6602 C   0  0  1  0  0  0  0  0  0  0  0  0
  143.6736  132.0318  150.3771 C   0  0  0  0  0  0  0  0  0  0  0  0
  144.4389  132.6086  149.1688 C   0  0  0  0  0  0  0  0  0  0  0  0
  144.2797  134.1382  149.0478 C   0  0  0  0  0  0  0  0  0  0  0  0
  144.3675  134.8860  150.3992 C   0  0  2  0  0  0  0  0  0  0  0  0
  145.7883  134.9557  151.0115 C   0  0  0  0  0  0  0  0  0  0  0  0
  146.3002  133.6244  151.6074 C   0  0  1  0  0  0  0  0  0  0  0  0
  147.3876  133.9101  152.5412 N   0  0  0  0  0  0  0  0  0  0  0  0
  147.9654  133.0316  153.3731 C   0  0  0  0  0  0  0  0  0  0  0  0
  147.6356  131.8487  153.4572 O   0  0  0  0  0  0  0  0  0  0  0  0
  148.9241  133.6231  154.1041 N   0  0  0  0  0  0  0  0  0  0  0  0
  149.7803  133.0395  155.0800 C   0  0  0  0  0  0  0  0  0  0  0  0
  150.2794  131.7187  154.9715 C   0  0  0  0  0  0  0  0  0  0  0  0
  151.1435  131.2288  155.9679 C   0  0  0  0  0  0  0  0  0  0  0  0
  151.4859  132.0801  157.0336 C   0  0  0  0  0  0  0  0  0  0  0  0
  151.0315  133.3452  157.1436 N   0  0  0  0  0  0  0  0  0  0  0  0
  150.1982  133.8221  156.1867 C   0  0  0  0  0  0  0  0  0  0  0  0
  149.7353  135.1432  156.3225 N   0  0  0  0  0  0  0  0  0  0  0  0
  149.0104  135.4283  157.5495 C   0  0  0  0  0  0  0  0  0  0  0  0
  148.9477  136.9552  157.6389 C   0  0  0  0  0  0  0  0  0  0  0  0
  150.1000  137.4498  156.7557 C   0  0  0  0  0  0  0  0  0  0  0  0
  150.7496  136.1773  156.2051 C   0  0  0  0  0  0  0  0  0  0  0  0
  145.1904  132.8345  152.3409 C   0  0  0  0  0  0  0  0  0  0  0  0
  143.9470  135.2708  153.1756 H   0  0  0  0  0  0  0  0  0  0  0  0
  142.2975  134.6490  153.1251 H   0  0  0  0  0  0  0  0  0  0  0  0
  142.7181  136.0949  152.2159 H   0  0  0  0  0  0  0  0  0  0  0  0
  143.0749  132.4843  152.3705 H   0  0  0  0  0  0  0  0  0  0  0  0
  143.9930  131.0066  150.5679 H   0  0  0  0  0  0  0  0  0  0  0  0
  142.6172  131.9692  150.1120 H   0  0  0  0  0  0  0  0  0  0  0  0
  145.4902  132.3389  149.2226 H   0  0  0  0  0  0  0  0  0  0  0  0
  144.0830  132.1336  148.2539 H   0  0  0  0  0  0  0  0  0  0  0  0
  145.0111  134.5356  148.3433 H   0  0  0  0  0  0  0  0  0  0  0  0
  143.3026  134.3441  148.6087 H   0  0  0  0  0  0  0  0  0  0  0  0
  144.0471  135.9110  150.2063 H   0  0  0  0  0  0  0  0  0  0  0  0
  146.4975  135.3224  150.2683 H   0  0  0  0  0  0  0  0  0  0  0  0
  145.7793  135.7141  151.7954 H   0  0  0  0  0  0  0  0  0  0  0  0
  146.6872  133.0150  150.7947 H   0  0  0  0  0  0  0  0  0  0  0  0
  147.7310  134.8594  152.5560 H   0  0  0  0  0  0  0  0  0  0  0  0
  149.0084  134.6242  154.0043 H   0  0  0  0  0  0  0  0  0  0  0  0
  150.0294  131.0808  154.1379 H   0  0  0  0  0  0  0  0  0  0  0  0
  151.5386  130.2254  155.9129 H   0  0  0  0  0  0  0  0  0  0  0  0
  152.1474  131.7389  157.8160 H   0  0  0  0  0  0  0  0  0  0  0  0
  148.0145  134.9849  157.5295 H   0  0  0  0  0  0  0  0  0  0  0  0
  149.5417  135.0247  158.4128 H   0  0  0  0  0  0  0  0  0  0  0  0
  147.9971  137.3193  157.2473 H   0  0  0  0  0  0  0  0  0  0  0  0
  149.0364  137.3002  158.6695 H   0  0  0  0  0  0  0  0  0  0  0  0
  149.7076  138.0594  155.9409 H   0  0  0  0  0  0  0  0  0  0  0  0
  150.8163  138.0567  157.3103 H   0  0  0  0  0  0  0  0  0  0  0  0
  151.6301  135.9200  156.7954 H   0  0  0  0  0  0  0  0  0  0  0  0
  151.0637  136.3027  155.1686 H   0  0  0  0  0  0  0  0  0  0  0  0
  145.0833  133.2315  153.3513 H   0  0  0  0  0  0  0  0  0  0  0  0
  145.5027  131.7979  152.4740 H   0  0  0  0  0  0  0  0  0  0  0  0
  142.5315  134.2090  150.8419 H   0  0  0  0  0  0  0  0  0  0  0  0
  1  2  1  0  0  0  0
  1 26  1  0  0  0  0
  1 27  1  0  0  0  0
  1 28  1  0  0  0  0
  2  7  1  0  0  0  0
  2  3  1  0  0  0  0
  2 55  1  0  0  0  0
  3 25  1  0  0  0  0
  3  4  1  0  0  0  0
  3 29  1  0  0  0  0
  4  5  1  0  0  0  0
  4 30  1  0  0  0  0
  4 31  1  0  0  0  0
  5  6  1  0  0  0  0
  5 32  1  0  0  0  0
  5 33  1  0  0  0  0
  6  7  1  0  0  0  0
  6 34  1  0  0  0  0
  6 35  1  0  0  0  0
  7  8  1  0  0  0  0
  7 36  1  0  0  0  0
  8  9  1  0  0  0  0
  8 37  1  0  0  0  0
  8 38  1  0  0  0  0
  9 10  1  0  0  0  0
  9 25  1  0  0  0  0
  9 39  1  0  0  0  0
 10 11  1  0  0  0  0
 10 40  1  0  0  0  0
 11 12  2  0  0  0  0
 11 13  1  0  0  0  0
 13 14  1  0  0  0  0
 13 41  1  0  0  0  0
 14 19  1  0  0  0  0
 14 15  2  0  0  0  0
 15 16  1  0  0  0  0
 15 42  1  0  0  0  0
 16 17  2  0  0  0  0
 16 43  1  0  0  0  0
 17 18  1  0  0  0  0
 17 44  1  0  0  0  0
 18 19  2  0  0  0  0
 19 20  1  0  0  0  0
 20 24  1  0  0  0  0
 20 21  1  0  0  0  0
 21 22  1  0  0  0  0
 21 45  1  0  0  0  0
 21 46  1  0  0  0  0
 22 23  1  0  0  0  0
 22 47  1  0  0  0  0
 22 48  1  0  0  0  0
 23 24  1  0  0  0  0
 23 49  1  0  0  0  0
 23 50  1  0  0  0  0
 24 51  1  0  0  0  0
 24 52  1  0  0  0  0
 25 53  1  0  0  0  0
 25 54  1  0  0  0  0
M  CHG  1   2   1
M  END
> <s_m_source_file>
AV-unprocessed.smi

> <i_m_source_file_index>
2928

> <i_lp_mmshare_version>
43012

> <i_f3d_flags>
0

> <s_epik_input>
W0NIMl0xW0NIMl1bQ0gyXVtDQEhdKE4oW0NIM10pW0NIXTEyKVtDSDJdW0NASF0oW0NIMl0yKVtOSF1DKD1PKVtOSF1jM1tjSF1bY0hdW2NIXW5jM040W0NIMl1bQ0gyXVtDSDJdW0NIMl00

> <s_epik_cmdline>
J2VwaWtfcHl0aG9uJywgJy1waCcsICc3LjAnLCAnLXRuJywgJzgnLCAnLW1hJywgJzIwMCcsICctbWV0YWxfYmluZGluZycsICctaW1hZScsICc8aW5maWxlLm1hZT4nLCAnLW9tYWUnLCAnPG91dGZpbGUubWFlPic=

> <r_lp_tautomer_probability>
1

> <r_epik_Ionization_Penalty>
0.07954

> <r_epik_Ionization_Penalty_Charging>
0.00089841

> <r_epik_Ionization_Penalty_Neutral>
0.0786416

> <r_epik_State_Penalty>
0.0689917

> <r_epik_Charging_Adjusted_Penalty>
0.0698901

> <i_epik_Tot_Q>
1

> <i_epik_Tot_abs_Q>
1

> <r_epik_Metal_State_Penalty>
0.0608947

> <b_epik_Metal_Only>
0

> <s_lp_Force_Field>
OPLS_2005

> <r_lp_Energy>
65.7965

> <b_lp_Chiralities_Consistent>
1

> <s_lp_Variant>
AV-unprocessed.smi:2928-2

> <Gold.Version>
5.8.1

> <Gold.Id.Protein>
6NUR|6NUR_protein|mol2

> <Gold.PLP.Fitness>
47.1705

> <Gold.PLP.PLP>
-37.0612

> <Gold.PLP.part.hbond>
-3.0000

> <Gold.PLP.part.metal>
0.0000

> <Gold.PLP.part.buried>
-1.5560

> <Gold.PLP.part.nonpolar>
-32.1381

> <Gold.PLP.part.repulsive>
0.1098

> <Gold.PLP.ligand.clash>
0.0000

> <Gold.PLP.ligand.torsion>
0.3767

> <Gold.PLP.Chemscore.Hbond>
3.6109

> <Gold.PLP.Chemscore.CHOScore>
0.0000

> <Gold.PLP.Chemscore.Metal>
0.0000

> <Gold.Chemscore.Hbonds>
donor molecule, donor type, donor heavy atom, donor atom, acceptor molecule, acceptor atom, score
      L1  H     2    55       P1 10186  2.00
      L1  H    10    40       P1  7948  0.96
      P1  H  6896  6908       L1    18  0.52

> <Gold.PLP.Chemscore.Internal.Correction>
0.0301

> <Gold.Rescore>
     Score         DG    S(hbond)    S(metal)    S(lipo)     H(rot)  DE(clash)    DE(int)     intcor
     16.00     -20.36       1.84        0.00     100.30       1.18       1.82       2.54       ----

> <Gold.Chemscore.Fitness>
15.9976

> <Gold.Chemscore.DG>
-20.3565

> <Gold.Chemscore.ZeroCoef>
-5.4800

> <Gold.Chemscore.Hbond>
1.8433

> <Gold.Chemscore.Metal>
0.0000

> <Gold.Chemscore.Lipo>
100.2955

> <Gold.Chemscore.Internal_Hbond>
0.0000

> <Gold.Chemscore.DEClash>
1.8202

> <Gold.Chemscore.DEInternal>
2.5387

> <Gold.Chemscore.Rot>
1.1776

> <Gold.Chemscore.Internal.Correction>
   9.000000E+99

> <Gold.Chemscore.Hbonds>
donor molecule, donor type, donor heavy atom, donor atom, acceptor molecule, acceptor atom, score
      L1  H     2    55       P1 10186  0.38
      L1  H    10    40       P1  7948  0.85
      P1  H  6896  6908       L1    18  0.06

> <Gold.Chemscore.Hbond.Weighted>
-6.1567

> <Gold.Chemscore.Metal.Weighted>
-0.0000

> <Gold.Chemscore.Lipo.Weighted>
-11.7346

> <Gold.Chemscore.Internal_Hbond.Weighted>
0.0000

> <Gold.Chemscore.DEClash.Weighted>
1.8202

> <Gold.Chemscore.DEInternal.Weighted>
2.5387

> <Gold.Chemscore.Rot.Weighted>
3.0147

> <Gold.Chemscore.Internal.Correction.Weighted>
   9.000000E+99

> <Gold.Protein.RotatedTorsions>
[ 6907 6896 6895 6894 ] final   84.44 input  -60.11 | X-H torsion
[ 7974 7965 7964 7962 ] final  -73.69 input  175.53 | X-H torsion
[ 8008 7997 7996 7995 ] final  139.18 input   59.86 | X-H torsion
[ 10167 10162 10161 10158 ] final  124.70 input  -65.29 | X-H torsion
[ 10718 10713 10712 10709 ] final  108.42 input   66.30 | X-H torsion
[ 10763 10752 10751 10750 ] final  168.51 input  -60.55 | X-H torsion
[ 11005 11000 10999 10996 ] final  -21.81 input  -57.11 | X-H torsion

> <Gold.Protein.ActiveResidues>
 VAL166  LYS551  ARG553  GLY616  TRP617  ASP618  TYR619  PRO620  LYS621  CYS622 
 ASP623  PHE694  ASN695  SER759  ASP760  ASP761  ALA762  ILE779  LEU786  VAL792 
 PHE793  MET794  SER795  GLU796  ALA797  LYS798  CYS799  TRP800  GLU811  SER814 

> <Gold.Protein.RotatedAtoms>
  152.5352  134.2741  159.8982 H   0  0  0  0  0  0  0  0  0  0  0  0  # atno 6907 bound_to 6896
  151.2697  133.4255  159.2628 H   0  0  0  0  0  0  0  0  0  0  0  0  # atno 6908 bound_to 6896
  151.0379  134.9601  159.8202 H   0  0  0  0  0  0  0  0  0  0  0  0  # atno 6909 bound_to 6896
  145.6489  140.9288  143.0995 H   0  0  0  0  0  0  0  0  0  0  0  0  # atno 7974 bound_to 7965
  156.2992  140.2374  156.4195 H   0  0  0  0  0  0  0  0  0  0  0  0  # atno 8008 bound_to 7997
  154.8368  140.0430  157.1534 H   0  0  0  0  0  0  0  0  0  0  0  0  # atno 8009 bound_to 7997
  154.9147  140.2995  155.5251 H   0  0  0  0  0  0  0  0  0  0  0  0  # atno 8010 bound_to 7997
  139.5727  144.6947  151.3736 H   0  0  0  0  0  0  0  0  0  0  0  0  # atno 10167 bound_to 10162
  157.6587  131.0893  150.6303 H   0  0  0  0  0  0  0  0  0  0  0  0  # atno 10718 bound_to 10713
  154.3697  135.2753  155.2273 H   0  0  0  0  0  0  0  0  0  0  0  0  # atno 10763 bound_to 10752
  154.4426  135.5950  153.6143 H   0  0  0  0  0  0  0  0  0  0  0  0  # atno 10764 bound_to 10752
  152.9839  135.6022  154.3926 H   0  0  0  0  0  0  0  0  0  0  0  0  # atno 10765 bound_to 10752
  140.8597  133.7797  156.0060 H   0  0  0  0  0  0  0  0  0  0  0  0  # atno 11005 bound_to 11000
  144.7130  139.8301  143.7408 LP  0  0  0  0  0  0  0  0  0  0  0  0  # atno 17320 bound_to 7965
  146.1220  139.4240  143.0222 LP  0  0  0  0  0  0  0  0  0  0  0  0  # atno 17321 bound_to 7965
  140.7011  143.7630  150.7404 LP  0  0  0  0  0  0  0  0  0  0  0  0  # atno 17342 bound_to 10162
  140.1141  143.4672  152.2353 LP  0  0  0  0  0  0  0  0  0  0  0  0  # atno 17343 bound_to 10162
  156.6607  130.4511  149.5688 LP  0  0  0  0  0  0  0  0  0  0  0  0  # atno 17370 bound_to 10713
  156.2069  130.6655  151.1228 LP  0  0  0  0  0  0  0  0  0  0  0  0  # atno 17371 bound_to 10713
  140.8697  134.2741  157.5196 LP  0  0  0  0  0  0  0  0  0  0  0  0  # atno 17394 bound_to 11000
  139.8706  134.9561  156.4226 LP  0  0  0  0  0  0  0  0  0  0  0  0  # atno 17395 bound_to 11000

$$$$
