AV-unprocessed.smi:2124|AV-procd|sdf|8659|dock10
  -GOLD-   2272011403D 1   1.00000     0.00000
 Structure written by MMmdl.
 47 49  0  0  0  0  0  0  0  0  1 V2000
  150.8978  142.3590  156.9649 C   0  0  0  0  0  0  0  0  0  0  0  0
  150.1984  141.5337  155.9070 C   0  0  0  0  0  0  0  0  0  0  0  0
  149.0850  142.1535  155.3637 N   0  0  0  0  0  0  0  0  0  0  0  0
  148.3779  141.4743  154.3872 C   0  0  0  0  0  0  0  0  0  0  0  0
  147.1766  142.2247  153.8396 C   0  0  0  0  0  0  0  0  0  0  0  0
  148.7608  140.2396  153.9739 C   0  0  0  0  0  0  0  0  0  0  0  0
  148.0173  139.4580  152.8914 C   0  0  0  0  0  0  0  0  0  0  0  0
  146.8691  138.5652  153.3695 C   0  0  0  0  0  0  0  0  0  0  0  0
  145.8283  139.0584  153.8052 O   0  0  0  0  0  0  0  0  0  0  0  0
  147.0773  137.2431  153.2770 N   0  0  0  0  0  0  0  0  0  0  0  0
  146.1259  136.2049  153.6667 C   0  0  1  0  0  0  0  0  0  0  0  0
  145.5535  136.5347  155.0557 C   0  0  0  0  0  0  0  0  0  0  0  0
  145.0169  136.0796  152.5962 C   0  0  2  0  0  0  0  0  0  0  0  0
  143.9593  134.9899  152.8839 C   0  0  0  0  0  0  0  0  0  0  0  0
  143.8974  134.2077  151.5587 C   0  0  2  0  0  0  0  0  0  0  0  0
  145.1650  133.3442  151.4245 C   0  0  0  0  0  0  0  0  0  0  0  0
  146.2545  134.3888  151.1226 C   0  0  0  0  0  0  0  0  0  0  0  0
  145.4730  135.7188  151.1593 C   0  0  1  0  0  0  0  0  0  0  0  0
  144.1495  135.3006  150.5266 C   0  0  0  0  0  0  0  0  0  0  0  0
  149.9637  139.6302  154.5884 C   0  0  0  0  0  0  0  0  0  0  0  0
  150.3683  138.5200  154.2458 O   0  0  0  0  0  0  0  0  0  0  0  0
  150.6433  140.3591  155.5776 N   0  0  0  0  0  0  0  0  0  0  0  0
  148.7660  143.0706  155.6415 H   0  0  0  0  0  0  0  0  0  0  0  0
  151.7965  141.8548  157.3223 H   0  0  0  0  0  0  0  0  0  0  0  0
  150.2368  142.5227  157.8165 H   0  0  0  0  0  0  0  0  0  0  0  0
  151.1905  143.3283  156.5602 H   0  0  0  0  0  0  0  0  0  0  0  0
  147.2574  142.3365  152.7581 H   0  0  0  0  0  0  0  0  0  0  0  0
  147.0934  143.2219  154.2737 H   0  0  0  0  0  0  0  0  0  0  0  0
  146.2567  141.6844  154.0635 H   0  0  0  0  0  0  0  0  0  0  0  0
  148.7289  138.8224  152.3647 H   0  0  0  0  0  0  0  0  0  0  0  0
  147.6394  140.1412  152.1296 H   0  0  0  0  0  0  0  0  0  0  0  0
  147.9634  136.9302  152.9074 H   0  0  0  0  0  0  0  0  0  0  0  0
  146.6440  135.2479  153.7415 H   0  0  0  0  0  0  0  0  0  0  0  0
  144.8597  135.7648  155.3934 H   0  0  0  0  0  0  0  0  0  0  0  0
  145.0176  137.4845  155.0498 H   0  0  0  0  0  0  0  0  0  0  0  0
  146.3464  136.6051  155.8011 H   0  0  0  0  0  0  0  0  0  0  0  0
  144.5037  137.0412  152.5375 H   0  0  0  0  0  0  0  0  0  0  0  0
  144.2267  134.3424  153.7200 H   0  0  0  0  0  0  0  0  0  0  0  0
  142.9959  135.4455  153.1156 H   0  0  0  0  0  0  0  0  0  0  0  0
  142.9713  133.6482  151.4240 H   0  0  0  0  0  0  0  0  0  0  0  0
  145.3753  132.7731  152.3296 H   0  0  0  0  0  0  0  0  0  0  0  0
  145.0710  132.6385  150.5982 H   0  0  0  0  0  0  0  0  0  0  0  0
  147.0836  134.3533  151.8286 H   0  0  0  0  0  0  0  0  0  0  0  0
  146.6707  134.2212  150.1286 H   0  0  0  0  0  0  0  0  0  0  0  0
  145.9800  136.5350  150.6439 H   0  0  0  0  0  0  0  0  0  0  0  0
  144.2550  134.9200  149.5091 H   0  0  0  0  0  0  0  0  0  0  0  0
  143.3937  136.0881  150.5363 H   0  0  0  0  0  0  0  0  0  0  0  0
  1 24  1  0  0  0  0
  1 25  1  0  0  0  0
  1 26  1  0  0  0  0
  1  2  1  0  0  0  0
  2  3  1  0  0  0  0
  2 22  2  0  0  0  0
  3  4  1  0  0  0  0
  3 23  1  0  0  0  0
  4  6  2  0  0  0  0
  4  5  1  0  0  0  0
  5 27  1  0  0  0  0
  5 28  1  0  0  0  0
  5 29  1  0  0  0  0
  6 20  1  0  0  0  0
  6  7  1  0  0  0  0
  7  8  1  0  0  0  0
  7 30  1  0  0  0  0
  7 31  1  0  0  0  0
  8  9  2  0  0  0  0
  8 10  1  0  0  0  0
 10 11  1  0  0  0  0
 10 32  1  0  0  0  0
 11 12  1  0  0  0  0
 11 13  1  0  0  0  0
 11 33  1  0  0  0  0
 12 34  1  0  0  0  0
 12 35  1  0  0  0  0
 12 36  1  0  0  0  0
 13 18  1  0  0  0  0
 13 14  1  0  0  0  0
 13 37  1  0  0  0  0
 14 15  1  0  0  0  0
 14 38  1  0  0  0  0
 14 39  1  0  0  0  0
 15 19  1  0  0  0  0
 15 16  1  0  0  0  0
 15 40  1  0  0  0  0
 16 17  1  0  0  0  0
 16 41  1  0  0  0  0
 16 42  1  0  0  0  0
 17 18  1  0  0  0  0
 17 43  1  0  0  0  0
 17 44  1  0  0  0  0
 18 19  1  0  0  0  0
 18 45  1  0  0  0  0
 19 46  1  0  0  0  0
 19 47  1  0  0  0  0
 20 21  2  0  0  0  0
 20 22  1  0  0  0  0
M  END
> <s_m_source_file>
AV-unprocessed.smi

> <i_m_source_file_index>
2124

> <i_lp_mmshare_version>
43012

> <i_f3d_flags>
0

> <s_epik_input>
W0NIM11jMW5jKFtDSDNdKWMoYyg9TylbbkhdMSlbQ0gyXUMoPU8pW05IXVtDQEhdKFtDSDNdKVtDQEhdKFtDSDJdW0NASF0yMylbQ0BIXShbQ0gyXTMpW0NIMl1bQ0gyXTI=

> <s_epik_cmdline>
J2VwaWtfcHl0aG9uJywgJy1waCcsICc3LjAnLCAnLXRuJywgJzgnLCAnLW1hJywgJzIwMCcsICctbWV0YWxfYmluZGluZycsICctaW1hZScsICc8aW5maWxlLm1hZT4nLCAnLW9tYWUnLCAnPG91dGZpbGUubWFlPic=

> <r_lp_tautomer_probability>
0.156392

> <r_epik_Ionization_Penalty>
0.0139374

> <r_epik_Ionization_Penalty_Charging>
0.0138122

> <r_epik_Ionization_Penalty_Neutral>
0.000125146

> <r_epik_State_Penalty>
1.15342

> <r_epik_Charging_Adjusted_Penalty>
1.16723

> <i_epik_Tot_Q>
0

> <i_epik_Tot_abs_Q>
0

> <r_epik_Metal_State_Penalty>
1.3173

> <b_epik_Metal_Only>
0

> <s_lp_Force_Field>
OPLS_2005

> <r_lp_Energy>
55.6294

> <b_lp_Chiralities_Consistent>
1

> <s_lp_Variant>
AV-unprocessed.smi:2124-10

> <Gold.Version>
5.8.1

> <Gold.Id.Protein>
6NUR|6NUR_protein|mol2

> <Gold.PLP.Fitness>
39.2575

> <Gold.PLP.PLP>
-34.5430

> <Gold.PLP.part.hbond>
-2.3259

> <Gold.PLP.part.metal>
0.0000

> <Gold.PLP.part.buried>
-1.9420

> <Gold.PLP.part.nonpolar>
-32.1249

> <Gold.PLP.part.repulsive>
1.0479

> <Gold.PLP.ligand.clash>
0.0000

> <Gold.PLP.ligand.torsion>
0.6368

> <Gold.PLP.Chemscore.Hbond>
1.9920

> <Gold.PLP.Chemscore.CHOScore>
0.0000

> <Gold.PLP.Chemscore.Metal>
0.0000

> <Gold.Chemscore.Hbonds>
donor molecule, donor type, donor heavy atom, donor atom, acceptor molecule, acceptor atom, score
      L1  H     3    23       P1  8028  1.00
      L1  H    10    32       P1  7948  1.00

> <Gold.PLP.Chemscore.Internal.Correction>
0.0122

> <Gold.Rescore>
     Score         DG    S(hbond)    S(metal)    S(lipo)     H(rot)  DE(clash)    DE(int)     intcor
     12.88     -16.46       1.96        0.00      74.11       1.65       1.76       1.82       ----

> <Gold.Chemscore.Fitness>
12.8785

> <Gold.Chemscore.DG>
-16.4647

> <Gold.Chemscore.ZeroCoef>
-5.4800

> <Gold.Chemscore.Hbond>
1.9600

> <Gold.Chemscore.Metal>
0.0000

> <Gold.Chemscore.Lipo>
74.1090

> <Gold.Chemscore.Internal_Hbond>
0.0000

> <Gold.Chemscore.DEClash>
1.7643

> <Gold.Chemscore.DEInternal>
1.8220

> <Gold.Chemscore.Rot>
1.6534

> <Gold.Chemscore.Internal.Correction>
   9.000000E+99

> <Gold.Chemscore.Hbonds>
donor molecule, donor type, donor heavy atom, donor atom, acceptor molecule, acceptor atom, score
      L1  H     3    23       P1  8028  0.97
      L1  H    10    32       P1  7948  0.97

> <Gold.Chemscore.Hbond.Weighted>
-6.5466

> <Gold.Chemscore.Metal.Weighted>
-0.0000

> <Gold.Chemscore.Lipo.Weighted>
-8.6708

> <Gold.Chemscore.Internal_Hbond.Weighted>
0.0000

> <Gold.Chemscore.DEClash.Weighted>
1.7643

> <Gold.Chemscore.DEInternal.Weighted>
1.8220

> <Gold.Chemscore.Rot.Weighted>
4.2326

> <Gold.Chemscore.Internal.Correction.Weighted>
   9.000000E+99

> <Gold.Protein.RotatedTorsions>
[ 6907 6896 6895 6894 ] final  144.37 input  -60.11 | X-H torsion
[ 7974 7965 7964 7962 ] final   29.11 input  175.53 | X-H torsion
[ 8008 7997 7996 7995 ] final   88.46 input   59.86 | X-H torsion
[ 10167 10162 10161 10158 ] final -164.98 input  -65.29 | X-H torsion
[ 10718 10713 10712 10709 ] final -114.59 input   66.30 | X-H torsion
[ 10763 10752 10751 10750 ] final  -66.34 input  -60.55 | X-H torsion
[ 11005 11000 10999 10996 ] final  -72.05 input  -57.11 | X-H torsion

> <Gold.Protein.ActiveResidues>
 VAL166  LYS551  ARG553  GLY616  TRP617  ASP618  TYR619  PRO620  LYS621  CYS622 
 ASP623  PHE694  ASN695  SER759  ASP760  ASP761  ALA762  ILE779  LEU786  VAL792 
 PHE793  MET794  SER795  GLU796  ALA797  LYS798  CYS799  TRP800  GLU811  SER814 

> <Gold.Protein.RotatedAtoms>
  152.1945  133.4796  159.5025 H   0  0  0  0  0  0  0  0  0  0  0  0  # atno 6907 bound_to 6896
  150.6957  134.1670  159.4207 H   0  0  0  0  0  0  0  0  0  0  0  0  # atno 6908 bound_to 6896
  151.9586  135.0134  160.0597 H   0  0  0  0  0  0  0  0  0  0  0  0  # atno 6909 bound_to 6896
  146.1690  139.6965  142.8981 H   0  0  0  0  0  0  0  0  0  0  0  0  # atno 7974 bound_to 7965
  155.9881  140.3371  155.6726 H   0  0  0  0  0  0  0  0  0  0  0  0  # atno 8008 bound_to 7997
  155.6458  140.0700  157.2621 H   0  0  0  0  0  0  0  0  0  0  0  0  # atno 8009 bound_to 7997
  154.4211  140.1734  156.1609 H   0  0  0  0  0  0  0  0  0  0  0  0  # atno 8010 bound_to 7997
  139.6213  144.0618  152.1935 H   0  0  0  0  0  0  0  0  0  0  0  0  # atno 10167 bound_to 10162
  156.0840  130.6035  150.8794 H   0  0  0  0  0  0  0  0  0  0  0  0  # atno 10718 bound_to 10713
  154.3584  135.6121  153.5678 H   0  0  0  0  0  0  0  0  0  0  0  0  # atno 10763 bound_to 10752
  152.9794  135.5809  154.4662 H   0  0  0  0  0  0  0  0  0  0  0  0  # atno 10764 bound_to 10752
  154.4395  135.2850  155.1835 H   0  0  0  0  0  0  0  0  0  0  0  0  # atno 10765 bound_to 10752
  141.1602  133.6835  156.7000 H   0  0  0  0  0  0  0  0  0  0  0  0  # atno 11005 bound_to 11000
  145.4391  141.0421  143.2868 LP  0  0  0  0  0  0  0  0  0  0  0  0  # atno 17320 bound_to 7965
  144.8135  139.5919  143.7019 LP  0  0  0  0  0  0  0  0  0  0  0  0  # atno 17321 bound_to 7965
  140.0261  144.6116  150.7526 LP  0  0  0  0  0  0  0  0  0  0  0  0  # atno 17342 bound_to 10162
  140.7384  143.2777  151.3691 LP  0  0  0  0  0  0  0  0  0  0  0  0  # atno 17343 bound_to 10162
  157.5967  131.0943  150.9029 LP  0  0  0  0  0  0  0  0  0  0  0  0  # atno 17370 bound_to 10713
  156.9194  130.5309  149.5279 LP  0  0  0  0  0  0  0  0  0  0  0  0  # atno 17371 bound_to 10713
  140.2966  134.8198  157.4062 LP  0  0  0  0  0  0  0  0  0  0  0  0  # atno 17394 bound_to 11000
  140.1299  134.5108  155.8114 LP  0  0  0  0  0  0  0  0  0  0  0  0  # atno 17395 bound_to 11000

$$$$
