#       Name:                AV-unprocessed.smi:290
#       Creating user name   scv26
#       Creation time:       Thu Mar 26 22:11:30 2020


#       File generated by GOLD software.
#

@<TRIPOS>MOLECULE
AV-unprocessed.smi:290
    68    71     1
SMALL
NO_CHARGES


@<TRIPOS>ATOM
      1 ****        -6.0512  -3.6219   1.1801 C.3            1 S1                 0.0000
      2 ****        -5.5986  -2.2727   1.7615 C.3            1 S1                 0.0000
      3 ****        -5.7283  -2.2690   3.1829 O.3            1 S1                 0.0000
      4 ****        -4.4755  -1.9800   3.7869 C.3            1 S1                 0.0000
      5 ****        -3.7368  -1.1562   2.7406 C.3            1 S1                 0.0000
      6 ****        -4.1517  -1.8297   1.4400 C.3            1 S1                 0.0000
      7 ****        -3.3119  -2.9551   1.2344 O.3            1 S1                 0.0000
      8 ****        -4.0595  -0.9145   0.1958 C.3            1 S1                 0.0000
      9 ****        -2.7192  -0.4039  -0.0503 N.pl3          1 S1                 0.0000
     10 ****        -1.7262  -1.0173  -0.7775 C.2            1 S1                 0.0000
     11 ****        -0.6029  -0.3581  -0.8462 N.2            1 S1                 0.0000
     12 ****        -0.8374   0.8100  -0.1269 C.ar           1 S1                 0.0000
     13 ****        -0.0610   1.9623   0.2047 C.ar           1 S1                 0.0000
     14 ****         1.2256   2.1849  -0.1763 N.pl3          1 S1                 0.0000
     15 ****         2.1227   2.9874   0.6372 C.3            1 S1                 0.0000
     16 ****         3.4940   2.3614   0.4245 C.3            1 S1                 0.0000
     17 ****         3.4423   1.8146  -1.0115 C.3            1 S1                 0.0000
     18 ****         4.4423   0.7224  -1.2347 N.4            1 S1                 1.0000
     19 ****         5.8360   1.2259  -1.1152 C.3            1 S1                 0.0000
     20 ****         4.2301  -0.0659  -2.4834 C.3            1 S1                 0.0000
     21 ****         5.1418  -1.3009  -2.6151 C.3            1 S1                 0.0000
     22 ****         4.9189  -2.1898  -1.5407 O.3            1 S1                 0.0000
     23 ****         1.9523   1.4093  -1.1774 C.3            1 S1                 0.0000
     24 ****         1.4025   1.7185  -2.5878 C.3            1 S1                 0.0000
     25 ****        -0.6615   2.9150   0.9655 N.ar           1 S1                 0.0000
     26 ****        -1.9253   2.7685   1.3705 C.ar           1 S1                 0.0000
     27 ****        -2.7626   1.7588   1.1352 N.ar           1 S1                 0.0000
     28 ****        -2.1702   0.7915   0.3796 C.ar           1 S1                 0.0000
     29 ****         3.6600   2.6364  -1.6966 H              1 S1                 0.0000
     30 ****         1.8410   0.3534  -0.9337 H              1 S1                 0.0000
     31 ****        -5.9421  -3.6380   0.0957 H              1 S1                 0.0000
     32 ****        -7.1001  -3.8084   1.4105 H              1 S1                 0.0000
     33 ****        -5.4751  -4.4513   1.5911 H              1 S1                 0.0000
     34 ****        -6.2871  -1.5047   1.4067 H              1 S1                 0.0000
     35 ****        -4.5978  -1.4515   4.7324 H              1 S1                 0.0000
     36 ****        -3.9499  -2.9153   3.9839 H              1 S1                 0.0000
     37 ****        -4.1093  -0.1316   2.7697 H              1 S1                 0.0000
     38 ****        -2.6580  -1.1248   2.8990 H              1 S1                 0.0000
     39 ****        -2.4200  -2.6528   1.1586 H              1 S1                 0.0000
     40 ****        -4.3901  -1.4534  -0.6933 H              1 S1                 0.0000
     41 ****        -4.7326  -0.0626   0.3016 H              1 S1                 0.0000
     42 ****        -1.8605  -1.9791  -1.2515 H              1 S1                 0.0000
     43 ****         2.1023   4.0171   0.2781 H              1 S1                 0.0000
     44 ****         1.8521   2.9854   1.6939 H              1 S1                 0.0000
     45 ****         4.2951   3.0827   0.5870 H              1 S1                 0.0000
     46 ****         3.6281   1.5421   1.1329 H              1 S1                 0.0000
     47 ****         6.0857   1.8813  -1.9504 H              1 S1                 0.0000
     48 ****         6.5593   0.4129  -1.0882 H              1 S1                 0.0000
     49 ****         5.9904   1.7836  -0.1928 H              1 S1                 0.0000
     50 ****         3.2083  -0.4383  -2.5216 H              1 S1                 0.0000
     51 ****         4.3631   0.5863  -3.3475 H              1 S1                 0.0000
     52 ****         4.9078  -1.8263  -3.5414 H              1 S1                 0.0000
     53 ****         6.1975  -1.0396  -2.6757 H              1 S1                 0.0000
     54 ****         5.4507  -2.9608  -1.6717 H              1 S1                 0.0000
     55 ****         1.9374   1.1872  -3.3723 H              1 S1                 0.0000
     56 ****         1.4791   2.7833  -2.8107 H              1 S1                 0.0000
     57 ****         0.3515   1.4473  -2.6803 H              1 S1                 0.0000
     58 ****        -2.3214   3.5751   1.9696 H              1 S1                 0.0000
     59 ****         4.3084   0.0672  -0.4773 H              1 S1                 0.0000
     60 ****        -6.0434  -3.1675   3.4885 LP             1 S1                 0.0000
     61 ****        -6.3938  -1.5729   3.4524 LP             1 S1                 0.0000
     62 ****        -3.5806  -3.4278   0.3951 LP             1 S1                 0.0000
     63 ****        -3.3912  -3.5815   2.0098 LP             1 S1                 0.0000
     64 ****         0.2389  -0.6310  -1.3118 LP             1 S1                 0.0000
     65 ****         3.9531  -2.4476  -1.5116 LP             1 S1                 0.0000
     66 ****         5.1720  -1.7481  -0.6800 LP             1 S1                 0.0000
     67 ****        -0.1511   3.7349   1.2248 LP             1 S1                 0.0000
     68 ****        -3.7040   1.7164   1.4698 LP             1 S1                 0.0000
@<TRIPOS>BOND
    1    1    2 1     
    2    1   31 1     
    3    1   32 1     
    4    1   33 1     
    5    2    6 1     
    6    2    3 1     
    7    2   34 1     
    8    3    4 1     
    9    4    5 1     
   10    4   35 1     
   11    4   36 1     
   12    5    6 1     
   13    5   37 1     
   14    5   38 1     
   15    6    7 1     
   16    6    8 1     
   17    7   39 1     
   18    8    9 1     
   19    8   40 1     
   20    8   41 1     
   21    9   28 1     
   22    9   10 1     
   23   10   11 2     
   24   10   42 1     
   25   11   12 1     
   26   12   28 ar    
   27   12   13 ar    
   28   13   14 1     
   29   13   25 ar    
   30   14   23 1     
   31   14   15 1     
   32   15   16 1     
   33   15   43 1     
   34   15   44 1     
   35   16   17 1     
   36   16   45 1     
   37   16   46 1     
   38   17   29 1     
   39   17   18 1     
   40   17   23 1     
   41   18   19 1     
   42   18   20 1     
   43   18   59 1     
   44   19   47 1     
   45   19   48 1     
   46   19   49 1     
   47   20   21 1     
   48   20   50 1     
   49   20   51 1     
   50   21   22 1     
   51   21   52 1     
   52   21   53 1     
   53   22   54 1     
   54   23   30 1     
   55   23   24 1     
   56   24   55 1     
   57   24   56 1     
   58   24   57 1     
   59   25   26 ar    
   60   26   27 ar    
   61   26   58 1     
   62   27   28 ar    
   63    3   60 1     
   64    3   61 1     
   65    7   62 1     
   66    7   63 1     
   67   11   64 1     
   68   22   65 1     
   69   22   66 1     
   70   25   67 1     
   71   27   68 1     
@<TRIPOS>SUBSTRUCTURE
      1 S1             1
@<TRIPOS>SET
LONE_PAIRS      STATIC     ATOMS    <user>   **** ""
9 60 61 62 63 64 65 66 67 68
DONOR_HYDROGENS      STATIC     ATOMS    <user>   **** ""
3 39 59 54
ATOM$BLUE        STATIC     ATOMS    COLORGROUP SYSTEM
9 60 61 62 63 64 65 66 67 68
ATOM$RED        STATIC     ATOMS    COLORGROUP SYSTEM
3 39 59 54
