#       Name:                AV-unprocessed.smi:1554
#       Creating user name   scv26
#       Creation time:       Fri Mar 27 06:44:40 2020


#       File generated by GOLD software.
#

@<TRIPOS>MOLECULE
AV-unprocessed.smi:1554
    53    55     1
SMALL
NO_CHARGES


@<TRIPOS>ATOM
      1 ****        -4.1701   4.1217   3.3154 C.3            1 S1                 0.0000
      2 ****        -3.4255   3.3526   2.2372 C.ar           1 S1                 0.0000
      3 ****        -3.0661   4.0312   1.0511 C.ar           1 S1                 0.0000
      4 ****        -2.3852   3.3012   0.0841 C.ar           1 S1                 0.0000
      5 ****        -1.9016   3.6773  -1.1702 N.pl3          1 S1                 1.0000
      6 ****        -1.2966   2.6112  -1.7626 C.2            1 S1                 0.0000
      7 ****        -1.3852   1.5582  -0.9044 N.pl3          1 S1                 0.0000
      8 ****        -0.8930   0.1811  -1.0587 C.3            1 S1                 0.0000
      9 ****         0.5969   0.0338  -0.6913 C.3            1 S1                 0.0000
     10 ****         0.7914   0.4016   0.6611 O.3            1 S1                 0.0000
     11 ****         1.0952  -1.4116  -0.8895 C.3            1 S1                 0.0000
     12 ****         2.5633  -1.5389  -0.6822 N.4            1 S1                 1.0000
     13 ****         3.3940  -1.0824  -1.8260 C.3            1 S1                 0.0000
     14 ****         3.4453  -2.1387  -2.9472 C.3            1 S1                 0.0000
     15 ****         3.8840  -3.3848  -2.4201 O.3            1 S1                 0.0000
     16 ****         3.0142  -3.8868  -1.4113 C.3            1 S1                 0.0000
     17 ****         3.5242  -5.2677  -0.9843 C.3            1 S1                 0.0000
     18 ****         2.9890  -2.8881  -0.2358 C.3            1 S1                 0.0000
     19 ****        -2.0591   1.9424   0.2623 C.ar           1 S1                 0.0000
     20 ****        -2.4055   1.2596   1.4265 C.ar           1 S1                 0.0000
     21 ****        -3.0991   1.9844   2.4224 C.ar           1 S1                 0.0000
     22 ****        -3.4905   1.2647   3.7020 C.3            1 S1                 0.0000
     23 ****        -4.3803   5.1453   3.0032 H              1 S1                 0.0000
     24 ****        -3.5776   4.1672   4.2296 H              1 S1                 0.0000
     25 ****        -5.1224   3.6418   3.5424 H              1 S1                 0.0000
     26 ****        -3.3095   5.0733   0.9035 H              1 S1                 0.0000
     27 ****        -0.8303   2.6039  -2.7374 H              1 S1                 0.0000
     28 ****        -1.5172  -0.4954  -0.4748 H              1 S1                 0.0000
     29 ****        -1.0436  -0.0935  -2.1034 H              1 S1                 0.0000
     30 ****         1.1724   0.7200  -1.3119 H              1 S1                 0.0000
     31 ****         0.2628  -0.1591   1.2083 H              1 S1                 0.0000
     32 ****         0.5653  -2.0566  -0.1870 H              1 S1                 0.0000
     33 ****         0.8286  -1.7711  -1.8835 H              1 S1                 0.0000
     34 ****         3.0413  -0.1282  -2.2153 H              1 S1                 0.0000
     35 ****         4.4055  -0.9051  -1.4585 H              1 S1                 0.0000
     36 ****         2.4749  -2.2568  -3.4309 H              1 S1                 0.0000
     37 ****         4.1433  -1.8228  -3.7228 H              1 S1                 0.0000
     38 ****         2.0113  -4.0042  -1.8253 H              1 S1                 0.0000
     39 ****         2.8848  -5.7014  -0.2149 H              1 S1                 0.0000
     40 ****         4.5371  -5.2102  -0.5848 H              1 S1                 0.0000
     41 ****         3.5388  -5.9563  -1.8294 H              1 S1                 0.0000
     42 ****         3.9895  -2.8040   0.1910 H              1 S1                 0.0000
     43 ****         2.3449  -3.2459   0.5685 H              1 S1                 0.0000
     44 ****        -2.1572   0.2193   1.5730 H              1 S1                 0.0000
     45 ****        -3.1338   0.2342   3.7057 H              1 S1                 0.0000
     46 ****        -4.5750   1.2426   3.8117 H              1 S1                 0.0000
     47 ****        -3.0643   1.7665   4.5710 H              1 S1                 0.0000
     48 ****         2.7682  -0.9189   0.0892 H              1 S1                 0.0000
     49 ****        -1.9783   4.5937  -1.5933 H              1 S1                 0.0000
     50 ****         0.5181   1.3544   0.7929 LP             1 S1                 0.0000
     51 ****         1.7558   0.2950   0.9030 LP             1 S1                 0.0000
     52 ****         4.7953  -3.2635  -2.0265 LP             1 S1                 0.0000
     53 ****         3.9287  -4.0503  -3.1652 LP             1 S1                 0.0000
@<TRIPOS>BOND
    1    1    2 1     
    2    1   23 1     
    3    1   24 1     
    4    1   25 1     
    5    2   21 ar    
    6    2    3 ar    
    7    3    4 ar    
    8    3   26 1     
    9    4   19 ar    
   10    4    5 1     
   11    5    6 2     
   12    5   49 1     
   13    6    7 1     
   14    6   27 1     
   15    7    8 1     
   16    7   19 1     
   17    8    9 1     
   18    8   28 1     
   19    8   29 1     
   20    9   10 1     
   21    9   11 1     
   22    9   30 1     
   23   10   31 1     
   24   11   12 1     
   25   11   32 1     
   26   11   33 1     
   27   12   18 1     
   28   12   13 1     
   29   12   48 1     
   30   13   14 1     
   31   13   34 1     
   32   13   35 1     
   33   14   15 1     
   34   14   36 1     
   35   14   37 1     
   36   15   16 1     
   37   16   17 1     
   38   16   18 1     
   39   16   38 1     
   40   17   39 1     
   41   17   40 1     
   42   17   41 1     
   43   18   42 1     
   44   18   43 1     
   45   19   20 ar    
   46   20   21 ar    
   47   20   44 1     
   48   21   22 1     
   49   22   45 1     
   50   22   46 1     
   51   22   47 1     
   52   10   50 1     
   53   10   51 1     
   54   15   52 1     
   55   15   53 1     
@<TRIPOS>SUBSTRUCTURE
      1 S1             1
@<TRIPOS>SET
LONE_PAIRS      STATIC     ATOMS    <user>   **** ""
4 50 51 52 53
DONOR_HYDROGENS      STATIC     ATOMS    <user>   **** ""
3 49 31 48
ATOM$BLUE        STATIC     ATOMS    COLORGROUP SYSTEM
4 50 51 52 53
ATOM$RED        STATIC     ATOMS    COLORGROUP SYSTEM
3 49 31 48
