AV-unprocessed.smi:2557|AV-procd|sdf|10031|dock8
  -GOLD-   2272014 73D 1   1.00000     0.00000
 Structure written by MMmdl.
 39 41  0  0  0  0  0  0  0  0  3 V2000
  151.7862  137.0454  154.1159 O   0  5  0  0  0  0  0  0  0  0  0  0
  151.0395  137.4262  155.0478 C   0  0  0  0  0  0  0  0  0  0  0  0
  151.0845  138.5295  155.9028 C   0  0  0  0  0  0  0  0  0  0  0  0
  152.1580  139.5213  155.7647 C   0  0  0  0  0  0  0  0  0  0  0  0
  153.0703  139.5251  154.9400 O   0  0  0  0  0  0  0  0  0  0  0  0
  152.1176  140.5926  156.7097 N   0  0  0  0  0  0  0  0  0  0  0  0
  151.1623  140.6875  157.6552 C   0  0  0  0  0  0  0  0  0  0  0  0
  151.2195  141.8486  158.6061 C   0  0  0  0  0  0  0  0  0  0  0  0
  151.2076  143.1723  157.8182 C   0  0  0  0  0  0  0  0  0  0  0  0
  151.3112  144.3788  158.7657 C   0  0  0  0  0  0  0  0  0  0  0  0
  152.5562  144.2776  159.6633 C   0  0  0  0  0  0  0  0  0  0  0  0
  152.5785  142.9519  160.4427 C   0  0  0  0  0  0  0  0  0  0  0  0
  152.4756  141.7471  159.4935 C   0  0  0  0  0  0  0  0  0  0  0  0
  150.1735  139.7794  157.7701 N   0  3  0  0  0  0  0  0  0  0  0  0
  150.1060  138.7139  156.8784 N   0  0  0  0  0  0  0  0  0  0  0  0
  149.9641  136.4344  155.2302 C   0  0  0  0  0  0  0  0  0  0  0  0
  150.2651  135.0842  155.5124 C   0  0  0  0  0  0  0  0  0  0  0  0
  149.2027  134.1722  155.6671 C   0  0  0  0  0  0  0  0  0  0  0  0
  147.9030  134.5219  155.5607 N   0  0  0  0  0  0  0  0  0  0  0  0
  147.6194  135.8127  155.2836 C   0  0  0  0  0  0  0  0  0  0  0  0
  148.6065  136.8021  155.1082 C   0  0  0  0  0  0  0  0  0  0  0  0
  150.3383  141.8200  159.2501 H   0  0  0  0  0  0  0  0  0  0  0  0
  152.0385  143.1972  157.1127 H   0  0  0  0  0  0  0  0  0  0  0  0
  150.2957  143.2406  157.2246 H   0  0  0  0  0  0  0  0  0  0  0  0
  151.3425  145.3036  158.1890 H   0  0  0  0  0  0  0  0  0  0  0  0
  150.4168  144.4328  159.3876 H   0  0  0  0  0  0  0  0  0  0  0  0
  153.4553  144.3560  159.0504 H   0  0  0  0  0  0  0  0  0  0  0  0
  152.5826  145.1175  160.3580 H   0  0  0  0  0  0  0  0  0  0  0  0
  153.4921  142.8828  161.0339 H   0  0  0  0  0  0  0  0  0  0  0  0
  151.7497  142.9308  161.1515 H   0  0  0  0  0  0  0  0  0  0  0  0
  152.4487  140.8205  160.0673 H   0  0  0  0  0  0  0  0  0  0  0  0
  153.3729  141.7029  158.8757 H   0  0  0  0  0  0  0  0  0  0  0  0
  149.4723  139.8746  158.4913 H   0  0  0  0  0  0  0  0  0  0  0  0
  149.3856  138.0364  157.0865 H   0  0  0  0  0  0  0  0  0  0  0  0
  151.2898  134.7558  155.6049 H   0  0  0  0  0  0  0  0  0  0  0  0
  149.4024  133.1335  155.8838 H   0  0  0  0  0  0  0  0  0  0  0  0
  146.5728  136.0656  155.2003 H   0  0  0  0  0  0  0  0  0  0  0  0
  148.3292  137.8222  154.8865 H   0  0  0  0  0  0  0  0  0  0  0  0
  152.8059  141.3310  156.7154 H   0  0  0  0  0  0  0  0  0  0  0  0
  1  2  1  0  0  0  0
  2  3  2  0  0  0  0
  2 16  1  0  0  0  0
  3 15  1  0  0  0  0
  3  4  1  0  0  0  0
  4  5  2  0  0  0  0
  4  6  1  0  0  0  0
  6  7  1  0  0  0  0
  6 39  1  0  0  0  0
  7  8  1  0  0  0  0
  7 14  2  0  0  0  0
  8 13  1  0  0  0  0
  8  9  1  0  0  0  0
  8 22  1  0  0  0  0
  9 10  1  0  0  0  0
  9 23  1  0  0  0  0
  9 24  1  0  0  0  0
 10 11  1  0  0  0  0
 10 25  1  0  0  0  0
 10 26  1  0  0  0  0
 11 12  1  0  0  0  0
 11 27  1  0  0  0  0
 11 28  1  0  0  0  0
 12 13  1  0  0  0  0
 12 29  1  0  0  0  0
 12 30  1  0  0  0  0
 13 31  1  0  0  0  0
 13 32  1  0  0  0  0
 14 15  1  0  0  0  0
 14 33  1  0  0  0  0
 15 34  1  0  0  0  0
 16 21  1  0  0  0  0
 16 17  2  0  0  0  0
 17 18  1  0  0  0  0
 17 35  1  0  0  0  0
 18 19  2  0  0  0  0
 18 36  1  0  0  0  0
 19 20  1  0  0  0  0
 20 21  2  0  0  0  0
 20 37  1  0  0  0  0
 21 38  1  0  0  0  0
M  CHG  1   1  -1
M  CHG  1  14   1
M  END
> <s_m_source_file>
AV-unprocessed.smi

> <i_m_source_file_index>
2557

> <i_lp_mmshare_version>
43012

> <i_f3d_flags>
0

> <s_epik_input>
W2NIXTFbY0hdbltjSF1bY0hdYzFDKD1PKUMyPUMoW09IXSlOPUMoW05IXVtOSF0yKVtDSF0zW0NIMl1bQ0gyXVtDSDJdW0NIMl1bQ0gyXTM=

> <s_epik_cmdline>
J2VwaWtfcHl0aG9uJywgJy1waCcsICc3LjAnLCAnLXRuJywgJzgnLCAnLW1hJywgJzIwMCcsICctbWV0YWxfYmluZGluZycsICctaW1hZScsICc8aW5maWxlLm1hZT4nLCAnLW9tYWUnLCAnPG91dGZpbGUubWFlPic=

> <r_epik_Ionization_Penalty>
2.4889

> <r_epik_Ionization_Penalty_Charging>
1.64109

> <r_epik_Ionization_Penalty_Neutral>
0.84781

> <r_epik_State_Penalty>
2.44612

> <r_epik_Charging_Adjusted_Penalty>
4.08721

> <i_epik_Tot_Q>
0

> <i_epik_Tot_abs_Q>
2

> <r_epik_Metal_State_Penalty>
1.55557

> <b_epik_Metal_Only>
0

> <s_epik_Chemistry_Notes>
This compound has an imine and may undergo hydrolysis.

> <s_lp_Force_Field>
OPLS_2005

> <r_lp_Energy>
23.4412

> <b_lp_Chiralities_Consistent>
1

> <s_lp_Variant>
AV-unprocessed.smi:2557-5

> <Gold.Version>
5.8.1

> <Gold.Id.Protein>
6NUR|6NUR_protein|mol2

> <Gold.PLP.Fitness>
43.2348

> <Gold.PLP.PLP>
-33.1870

> <Gold.PLP.part.hbond>
-3.0000

> <Gold.PLP.part.metal>
0.0000

> <Gold.PLP.part.buried>
-4.7580

> <Gold.PLP.part.nonpolar>
-28.3963

> <Gold.PLP.part.repulsive>
2.0352

> <Gold.PLP.ligand.clash>
0.0000

> <Gold.PLP.ligand.torsion>
1.1488

> <Gold.PLP.Chemscore.Hbond>
3.3735

> <Gold.PLP.Chemscore.CHOScore>
0.0000

> <Gold.PLP.Chemscore.Metal>
0.0000

> <Gold.Chemscore.Hbonds>
donor molecule, donor type, donor heavy atom, donor atom, acceptor molecule, acceptor atom, score
      P1  H  7989  7998       L1     5  0.01
      P1  H  7997  8008       L1     5  1.00
      P1  H 10752 10764       L1     1  2.00

> <Gold.PLP.Chemscore.Internal.Correction>
2.2250

> <Gold.Rescore>
     Score         DG    S(hbond)    S(metal)    S(lipo)     H(rot)  DE(clash)    DE(int)     intcor
     17.82     -19.34       1.81        0.00      88.61       1.00       0.13       1.39       ----

> <Gold.Chemscore.Fitness>
17.8159

> <Gold.Chemscore.DG>
-19.3363

> <Gold.Chemscore.ZeroCoef>
-5.4800

> <Gold.Chemscore.Hbond>
1.8111

> <Gold.Chemscore.Metal>
0.0000

> <Gold.Chemscore.Lipo>
88.6083

> <Gold.Chemscore.Internal_Hbond>
0.0000

> <Gold.Chemscore.DEClash>
0.1342

> <Gold.Chemscore.DEInternal>
1.3862

> <Gold.Chemscore.Rot>
1.0000

> <Gold.Chemscore.Internal.Correction>
   9.000000E+99

> <Gold.Chemscore.Hbonds>
donor molecule, donor type, donor heavy atom, donor atom, acceptor molecule, acceptor atom, score
      P1  H  7997  8008       L1     5  0.60
      P1  H 10752 10764       L1     1  0.98

> <Gold.Chemscore.Hbond.Weighted>
-6.0491

> <Gold.Chemscore.Metal.Weighted>
-0.0000

> <Gold.Chemscore.Lipo.Weighted>
-10.3672

> <Gold.Chemscore.Internal_Hbond.Weighted>
0.0000

> <Gold.Chemscore.DEClash.Weighted>
0.1342

> <Gold.Chemscore.DEInternal.Weighted>
1.3862

> <Gold.Chemscore.Rot.Weighted>
2.5600

> <Gold.Chemscore.Internal.Correction.Weighted>
   9.000000E+99

> <Gold.Protein.RotatedTorsions>
[ 6907 6896 6895 6894 ] final -120.90 input  -60.11 | X-H torsion
[ 7974 7965 7964 7962 ] final   -7.16 input  175.53 | X-H torsion
[ 8008 7997 7996 7995 ] final   -7.37 input   59.86 | X-H torsion
[ 10167 10162 10161 10158 ] final  153.04 input  -65.29 | X-H torsion
[ 10718 10713 10712 10709 ] final   94.64 input   66.30 | X-H torsion
[ 10763 10752 10751 10750 ] final  -92.41 input  -60.55 | X-H torsion
[ 11005 11000 10999 10996 ] final  -43.09 input  -57.11 | X-H torsion

> <Gold.Protein.ActiveResidues>
 VAL166  LYS551  ARG553  GLY616  TRP617  ASP618  TYR619  PRO620  LYS621  CYS622 
 ASP623  PHE694  ASN695  SER759  ASP760  ASP761  ALA762  ILE779  LEU786  VAL792 
 PHE793  MET794  SER795  GLU796  ALA797  LYS798  CYS799  TRP800  GLU811  SER814 

> <Gold.Protein.RotatedAtoms>
  150.8435  133.7899  159.3051 H   0  0  0  0  0  0  0  0  0  0  0  0  # atno 6907 bound_to 6896
  151.5593  135.1064  159.9978 H   0  0  0  0  0  0  0  0  0  0  0  0  # atno 6908 bound_to 6896
  152.4494  133.7556  159.6774 H   0  0  0  0  0  0  0  0  0  0  0  0  # atno 6909 bound_to 6896
  146.2313  140.2278  142.8339 H   0  0  0  0  0  0  0  0  0  0  0  0  # atno 7974 bound_to 7965
  154.5845  140.2409  155.8006 H   0  0  0  0  0  0  0  0  0  0  0  0  # atno 8008 bound_to 7997
  156.2203  140.2999  155.9893 H   0  0  0  0  0  0  0  0  0  0  0  0  # atno 8009 bound_to 7997
  155.2482  140.0409  157.2974 H   0  0  0  0  0  0  0  0  0  0  0  0  # atno 8010 bound_to 7997
  139.4829  144.5306  151.7728 H   0  0  0  0  0  0  0  0  0  0  0  0  # atno 10167 bound_to 10162
  157.6946  131.0519  150.4217 H   0  0  0  0  0  0  0  0  0  0  0  0  # atno 10718 bound_to 10713
  154.6858  135.5232  153.8324 H   0  0  0  0  0  0  0  0  0  0  0  0  # atno 10763 bound_to 10752
  153.0596  135.6563  154.0503 H   0  0  0  0  0  0  0  0  0  0  0  0  # atno 10764 bound_to 10752
  154.0384  135.2979  155.3338 H   0  0  0  0  0  0  0  0  0  0  0  0  # atno 10765 bound_to 10752
  141.0360  133.6800  156.2684 H   0  0  0  0  0  0  0  0  0  0  0  0  # atno 11005 bound_to 11000
  144.9581  140.8247  143.5530 LP  0  0  0  0  0  0  0  0  0  0  0  0  # atno 17320 bound_to 7965
  145.2246  139.2143  143.5075 LP  0  0  0  0  0  0  0  0  0  0  0  0  # atno 17321 bound_to 7965
  140.4832  144.1419  150.5936 LP  0  0  0  0  0  0  0  0  0  0  0  0  # atno 17342 bound_to 10162
  140.4254  143.2592  151.9663 LP  0  0  0  0  0  0  0  0  0  0  0  0  # atno 17343 bound_to 10162
  156.4591  130.4028  149.6587 LP  0  0  0  0  0  0  0  0  0  0  0  0  # atno 17370 bound_to 10713
  156.3709  130.7530  151.2513 LP  0  0  0  0  0  0  0  0  0  0  0  0  # atno 17371 bound_to 10713
  140.6321  134.5253  157.5560 LP  0  0  0  0  0  0  0  0  0  0  0  0  # atno 17394 bound_to 11000
  139.9241  134.8091  156.1122 LP  0  0  0  0  0  0  0  0  0  0  0  0  # atno 17395 bound_to 11000

$$$$
