#       Name:                AV-unprocessed.smi:1820
#       Creating user name   scv26
#       Creation time:       Fri Mar 27 09:05:25 2020


#       File generated by GOLD software.
#

@<TRIPOS>MOLECULE
AV-unprocessed.smi:1820
    39    40     1
SMALL
NO_CHARGES


@<TRIPOS>ATOM
      1 ****        -0.1562   2.0117  -0.7225 O.2            1 S1                 0.0000
      2 ****        -0.5938   0.8620  -0.7573 C.2            1 S1                 0.0000
      3 ****         0.1880  -0.2264  -0.7816 N.am           1 S1                 0.0000
      4 ****         1.6479  -0.2167  -0.7384 C.3            1 S1                 0.0000
      5 ****         2.2158  -0.4098   0.6917 C.3            1 S1                 0.0000
      6 ****         2.0736   0.8089   1.3953 O.3            1 S1                 0.0000
      7 ****         1.6062  -1.5831   1.4758 C.3            1 S1                 0.0000
      8 ****         2.3652  -2.8198   0.9844 C.3            1 S1                 0.0000
      9 ****         3.7390  -2.3145   0.5161 C.3            1 S1                 0.0000
     10 ****         3.7043  -0.7855   0.6499 C.3            1 S1                 0.0000
     11 ****        -1.8943   0.5224  -0.7930 N.am           1 S1                 0.0000
     12 ****        -3.0388   1.3659  -0.7820 C.ar           1 S1                 0.0000
     13 ****        -4.2639   0.8107  -1.2065 C.ar           1 S1                 0.0000
     14 ****        -5.4177   1.6194  -1.1936 C.ar           1 S1                 0.0000
     15 ****        -5.4173   2.9058  -0.7862 N.ar           1 S1                 0.0000
     16 ****        -4.2472   3.4320  -0.3671 C.ar           1 S1                 0.0000
     17 ****        -3.0367   2.7108  -0.3392 C.ar           1 S1                 0.0000
     18 ****        -0.2577  -1.1313  -0.8141 H              1 S1                 0.0000
     19 ****         1.9741  -1.0383  -1.3766 H              1 S1                 0.0000
     20 ****         2.0514   0.6875  -1.1978 H              1 S1                 0.0000
     21 ****         2.4526   0.7068   2.2547 H              1 S1                 0.0000
     22 ****         1.8086  -1.4542   2.5405 H              1 S1                 0.0000
     23 ****         0.5257  -1.6812   1.3715 H              1 S1                 0.0000
     24 ****         2.4480  -3.5779   1.7639 H              1 S1                 0.0000
     25 ****         1.8350  -3.2715   0.1450 H              1 S1                 0.0000
     26 ****         4.5503  -2.7413   1.1066 H              1 S1                 0.0000
     27 ****         3.9063  -2.6027  -0.5224 H              1 S1                 0.0000
     28 ****         4.2503  -0.2814  -0.1485 H              1 S1                 0.0000
     29 ****         4.1852  -0.5099   1.5903 H              1 S1                 0.0000
     30 ****        -2.0888  -0.4630  -0.8913 H              1 S1                 0.0000
     31 ****        -4.3231  -0.2145  -1.5414 H              1 S1                 0.0000
     32 ****        -6.3672   1.2204  -1.5185 H              1 S1                 0.0000
     33 ****        -4.2769   4.4600  -0.0374 H              1 S1                 0.0000
     34 ****        -2.1467   3.1976   0.0281 H              1 S1                 0.0000
     35 ****         0.8310   2.1708  -0.7109 LP             1 S1                 0.0000
     36 ****        -0.7878   2.7868  -0.7057 LP             1 S1                 0.0000
     37 ****         1.1038   1.0380   1.4799 LP             1 S1                 0.0000
     38 ****         2.5469   1.5394   0.9030 LP             1 S1                 0.0000
     39 ****        -6.2557   3.4509  -0.7945 LP             1 S1                 0.0000
@<TRIPOS>BOND
    1    1    2 2     
    2    2    3 am    
    3    2   11 am    
    4    3    4 1     
    5    3   18 1     
    6    4    5 1     
    7    4   19 1     
    8    4   20 1     
    9    5   10 1     
   10    5    6 1     
   11    5    7 1     
   12    6   21 1     
   13    7    8 1     
   14    7   22 1     
   15    7   23 1     
   16    8    9 1     
   17    8   24 1     
   18    8   25 1     
   19    9   10 1     
   20    9   26 1     
   21    9   27 1     
   22   10   28 1     
   23   10   29 1     
   24   11   12 1     
   25   11   30 1     
   26   12   17 ar    
   27   12   13 ar    
   28   13   14 ar    
   29   13   31 1     
   30   14   15 ar    
   31   14   32 1     
   32   15   16 ar    
   33   16   17 ar    
   34   16   33 1     
   35   17   34 1     
   36    1   35 1     
   37    1   36 1     
   38    6   37 1     
   39    6   38 1     
   40   15   39 1     
@<TRIPOS>SUBSTRUCTURE
      1 S1             1
@<TRIPOS>SET
LONE_PAIRS      STATIC     ATOMS    <user>   **** ""
5 35 36 37 38 39
DONOR_HYDROGENS      STATIC     ATOMS    <user>   **** ""
3 18 21 30
ATOM$BLUE        STATIC     ATOMS    COLORGROUP SYSTEM
5 35 36 37 38 39
ATOM$RED        STATIC     ATOMS    COLORGROUP SYSTEM
3 18 21 30
