AV-unprocessed.smi:790|AV-procd|sdf|3743|dock1
  -GOLD-   22720 1173D 1   1.00000     0.00000
 Structure written by MMmdl.
 38 40  0  0  0  0  0  0  0  0  1 V2000
  145.7079  137.5369  154.4447 O   0  0  0  0  0  0  0  0  0  0  0  0
  146.6079  137.1060  153.7250 C   0  0  0  0  0  0  0  0  0  0  0  0
  147.7561  137.7455  153.4437 N   0  0  0  0  0  0  0  0  0  0  0  0
  148.1836  139.0351  153.8623 C   0  0  0  0  0  0  0  0  0  0  0  0
  147.2089  140.0487  153.9670 C   0  0  0  0  0  0  0  0  0  0  0  0
  147.5954  141.3331  154.3944 C   0  0  0  0  0  0  0  0  0  0  0  0
  148.9496  141.5539  154.7102 C   0  0  0  0  0  0  0  0  0  0  0  0
  149.8937  140.5931  154.6289 N   0  0  0  0  0  0  0  0  0  0  0  0
  149.5161  139.3631  154.2174 C   0  0  0  0  0  0  0  0  0  0  0  0
  146.5691  135.9040  153.1331 N   0  0  0  0  0  0  0  0  0  0  0  0
  145.4582  134.9533  153.2135 C   0  0  1  0  0  0  0  0  0  0  0  0
  144.2942  135.3278  152.2624 C   0  0  1  0  0  0  0  0  0  0  0  0
  144.7991  135.5817  150.8258 C   0  0  0  0  0  0  0  0  0  0  0  0
  145.1988  134.1713  150.3569 C   0  0  0  0  0  0  0  0  0  0  0  0
  144.8383  133.2883  151.5701 C   0  0  2  0  0  0  0  0  0  0  0  0
  143.5861  133.9886  152.0846 C   0  0  0  0  0  0  0  0  0  0  0  0
  145.8082  133.5063  152.7576 C   0  0  1  0  0  0  0  0  0  0  0  0
  147.2945  133.1814  152.4852 C   0  0  0  0  0  0  0  0  0  0  0  0
  147.4357  131.8382  152.0734 O   0  0  0  0  0  0  0  0  0  0  0  0
  148.4269  137.2274  152.8953 H   0  0  0  0  0  0  0  0  0  0  0  0
  146.1764  139.8483  153.7204 H   0  0  0  0  0  0  0  0  0  0  0  0
  146.8714  142.1300  154.4790 H   0  0  0  0  0  0  0  0  0  0  0  0
  149.2823  142.5266  155.0408 H   0  0  0  0  0  0  0  0  0  0  0  0
  150.3117  138.6354  154.1982 H   0  0  0  0  0  0  0  0  0  0  0  0
  147.3594  135.6268  152.5698 H   0  0  0  0  0  0  0  0  0  0  0  0
  145.0744  134.9236  154.2352 H   0  0  0  0  0  0  0  0  0  0  0  0
  143.6619  136.1292  152.6458 H   0  0  0  0  0  0  0  0  0  0  0  0
  143.9916  135.9696  150.2032 H   0  0  0  0  0  0  0  0  0  0  0  0
  145.6211  136.2946  150.7655 H   0  0  0  0  0  0  0  0  0  0  0  0
  144.6082  133.8827  149.4866 H   0  0  0  0  0  0  0  0  0  0  0  0
  146.2474  134.1044  150.0703 H   0  0  0  0  0  0  0  0  0  0  0  0
  144.6938  132.2379  151.3152 H   0  0  0  0  0  0  0  0  0  0  0  0
  143.2067  133.5718  153.0194 H   0  0  0  0  0  0  0  0  0  0  0  0
  142.7748  134.0194  151.3550 H   0  0  0  0  0  0  0  0  0  0  0  0
  145.4902  132.8361  153.5587 H   0  0  0  0  0  0  0  0  0  0  0  0
  147.7298  133.8365  151.7316 H   0  0  0  0  0  0  0  0  0  0  0  0
  147.8789  133.3153  153.3956 H   0  0  0  0  0  0  0  0  0  0  0  0
  148.0983  131.7981  151.4007 H   0  0  0  0  0  0  0  0  0  0  0  0
  1  2  2  0  0  0  0
  2  3  1  0  0  0  0
  2 10  1  0  0  0  0
  3  4  1  0  0  0  0
  3 20  1  0  0  0  0
  4  9  1  0  0  0  0
  4  5  2  0  0  0  0
  5  6  1  0  0  0  0
  5 21  1  0  0  0  0
  6  7  2  0  0  0  0
  6 22  1  0  0  0  0
  7  8  1  0  0  0  0
  7 23  1  0  0  0  0
  8  9  2  0  0  0  0
  9 24  1  0  0  0  0
 10 11  1  0  0  0  0
 10 25  1  0  0  0  0
 11 17  1  0  0  0  0
 11 12  1  0  0  0  0
 11 26  1  0  0  0  0
 12 16  1  0  0  0  0
 12 13  1  0  0  0  0
 12 27  1  0  0  0  0
 13 14  1  0  0  0  0
 13 28  1  0  0  0  0
 13 29  1  0  0  0  0
 14 15  1  0  0  0  0
 14 30  1  0  0  0  0
 14 31  1  0  0  0  0
 15 16  1  0  0  0  0
 15 17  1  0  0  0  0
 15 32  1  0  0  0  0
 16 33  1  0  0  0  0
 16 34  1  0  0  0  0
 17 18  1  0  0  0  0
 17 35  1  0  0  0  0
 18 19  1  0  0  0  0
 18 36  1  0  0  0  0
 18 37  1  0  0  0  0
 19 38  1  0  0  0  0
M  END
> <s_m_source_file>
AV-unprocessed.smi

> <i_m_source_file_index>
790

> <i_lp_mmshare_version>
43012

> <i_f3d_flags>
0

> <s_epik_input>
W0NIMl0xW0NIMl1bQ0BASF0oW0NIMl0yKVtDQEBIXShbQ0gyXVtPSF0pW0NAQEhdKFtDQEhdMTIpW05IXUMoPU8pW05IXWMzW2NIXVtjSF1bY0hdbltjSF0z

> <s_epik_cmdline>
J2VwaWtfcHl0aG9uJywgJy1waCcsICc3LjAnLCAnLXRuJywgJzgnLCAnLW1hJywgJzIwMCcsICctbWV0YWxfYmluZGluZycsICctaW1hZScsICc8aW5maWxlLm1hZT4nLCAnLW9tYWUnLCAnPG91dGZpbGUubWFlPic=

> <r_epik_Ionization_Penalty>
0.00497582

> <r_epik_Ionization_Penalty_Charging>
0

> <r_epik_Ionization_Penalty_Neutral>
0.00497582

> <r_epik_State_Penalty>
0.00358602

> <r_epik_Charging_Adjusted_Penalty>
0.00358602

> <i_epik_Tot_Q>
0

> <i_epik_Tot_abs_Q>
0

> <r_epik_Metal_State_Penalty>
-0

> <b_epik_Metal_Only>
0

> <s_lp_Force_Field>
OPLS_2005

> <r_lp_Energy>
55.7442

> <b_lp_Chiralities_Consistent>
1

> <s_lp_Variant>
AV-unprocessed.smi:790-4

> <Gold.Version>
5.8.1

> <Gold.Id.Protein>
6NUR|6NUR_protein|mol2

> <Gold.PLP.Fitness>
42.6208

> <Gold.PLP.PLP>
-29.8346

> <Gold.PLP.part.hbond>
-3.9528

> <Gold.PLP.part.metal>
0.0000

> <Gold.PLP.part.buried>
0.5736

> <Gold.PLP.part.nonpolar>
-25.7081

> <Gold.PLP.part.repulsive>
0.2501

> <Gold.PLP.ligand.clash>
0.0000

> <Gold.PLP.ligand.torsion>
0.5044

> <Gold.PLP.Chemscore.Hbond>
3.5937

> <Gold.PLP.Chemscore.CHOScore>
1.0000

> <Gold.PLP.Chemscore.Metal>
0.0000

> <Gold.Chemscore.Hbonds>
donor molecule, donor type, donor heavy atom, donor atom, acceptor molecule, acceptor atom, score
      L1  H     3    20       P1  7948  0.98
      L1  H    10    25       P1  7948  0.90
      L1  H    19    38       P1 10747  0.98
      P1  H  7989  7998       L1     8  0.72
      L1  C     7    23       P1  8028  1.00

> <Gold.PLP.Chemscore.Internal.Correction>
0.0139

> <Gold.Rescore>
     Score         DG    S(hbond)    S(metal)    S(lipo)     H(rot)  DE(clash)    DE(int)     intcor
     17.20     -19.63       3.09        0.00      71.62       1.78       0.67       1.76       ----

> <Gold.Chemscore.Fitness>
17.2015

> <Gold.Chemscore.DG>
-19.6338

> <Gold.Chemscore.ZeroCoef>
-5.4800

> <Gold.Chemscore.Hbond>
3.0919

> <Gold.Chemscore.Metal>
0.0000

> <Gold.Chemscore.Lipo>
71.6174

> <Gold.Chemscore.Internal_Hbond>
0.0000

> <Gold.Chemscore.DEClash>
0.6735

> <Gold.Chemscore.DEInternal>
1.7588

> <Gold.Chemscore.Rot>
1.7783

> <Gold.Chemscore.Internal.Correction>
   9.000000E+99

> <Gold.Chemscore.Hbonds>
donor molecule, donor type, donor heavy atom, donor atom, acceptor molecule, acceptor atom, score
      L1  H     3    20       P1  7948  0.91
      L1  H    10    25       P1  7948  0.87
      L1  H    19    38       P1 10747  0.93
      P1  H  7989  7998       L1     8  0.20

> <Gold.Chemscore.Hbond.Weighted>
-10.3271

> <Gold.Chemscore.Metal.Weighted>
-0.0000

> <Gold.Chemscore.Lipo.Weighted>
-8.3792

> <Gold.Chemscore.Internal_Hbond.Weighted>
0.0000

> <Gold.Chemscore.DEClash.Weighted>
0.6735

> <Gold.Chemscore.DEInternal.Weighted>
1.7588

> <Gold.Chemscore.Rot.Weighted>
4.5525

> <Gold.Chemscore.Internal.Correction.Weighted>
   9.000000E+99

> <Gold.Protein.RotatedTorsions>
[ 6907 6896 6895 6894 ] final -122.75 input  -60.11 | X-H torsion
[ 7974 7965 7964 7962 ] final   87.41 input  175.53 | X-H torsion
[ 8008 7997 7996 7995 ] final   88.38 input   59.86 | X-H torsion
[ 10167 10162 10161 10158 ] final -115.23 input  -65.29 | X-H torsion
[ 10718 10713 10712 10709 ] final  -44.73 input   66.30 | X-H torsion
[ 10763 10752 10751 10750 ] final  -30.10 input  -60.55 | X-H torsion
[ 11005 11000 10999 10996 ] final -110.14 input  -57.11 | X-H torsion

> <Gold.Protein.ActiveResidues>
 VAL166  LYS551  ARG553  GLY616  TRP617  ASP618  TYR619  PRO620  LYS621  CYS622 
 ASP623  PHE694  ASN695  SER759  ASP760  ASP761  ALA762  ILE779  LEU786  VAL792 
 PHE793  MET794  SER795  GLU796  ALA797  LYS798  CYS799  TRP800  GLU811  SER814 

> <Gold.Protein.RotatedAtoms>
  150.8606  133.7650  159.2993 H   0  0  0  0  0  0  0  0  0  0  0  0  # atno 6907 bound_to 6896
  151.5293  135.1066  159.9908 H   0  0  0  0  0  0  0  0  0  0  0  0  # atno 6908 bound_to 6896
  152.4623  133.7804  159.6903 H   0  0  0  0  0  0  0  0  0  0  0  0  # atno 6909 bound_to 6896
  145.5593  139.2302  143.2468 H   0  0  0  0  0  0  0  0  0  0  0  0  # atno 7974 bound_to 7965
  155.9870  140.3372  155.6716 H   0  0  0  0  0  0  0  0  0  0  0  0  # atno 8008 bound_to 7997
  155.6472  140.0701  157.2617 H   0  0  0  0  0  0  0  0  0  0  0  0  # atno 8009 bound_to 7997
  154.4208  140.1732  156.1623 H   0  0  0  0  0  0  0  0  0  0  0  0  # atno 8010 bound_to 7997
  140.0924  143.4688  152.1862 H   0  0  0  0  0  0  0  0  0  0  0  0  # atno 10167 bound_to 10162
  156.2355  130.4176  149.8822 H   0  0  0  0  0  0  0  0  0  0  0  0  # atno 10718 bound_to 10713
  153.7755  135.6909  153.4898 H   0  0  0  0  0  0  0  0  0  0  0  0  # atno 10763 bound_to 10752
  153.1846  135.4493  155.0070 H   0  0  0  0  0  0  0  0  0  0  0  0  # atno 10764 bound_to 10752
  154.8101  135.3374  154.7262 H   0  0  0  0  0  0  0  0  0  0  0  0  # atno 10765 bound_to 10752
  141.0808  133.9222  157.2291 H   0  0  0  0  0  0  0  0  0  0  0  0  # atno 11005 bound_to 11000
  146.1862  140.6418  142.9166 LP  0  0  0  0  0  0  0  0  0  0  0  0  # atno 17320 bound_to 7965
  144.7491  140.5144  143.6815 LP  0  0  0  0  0  0  0  0  0  0  0  0  # atno 17321 bound_to 7965
  139.5717  144.7466  151.3872 LP  0  0  0  0  0  0  0  0  0  0  0  0  # atno 17342 bound_to 10162
  140.7022  143.7604  150.7421 LP  0  0  0  0  0  0  0  0  0  0  0  0  # atno 17343 bound_to 10162
  156.6422  130.8709  151.3516 LP  0  0  0  0  0  0  0  0  0  0  0  0  # atno 17370 bound_to 10713
  157.7152  130.9489  150.1231 LP  0  0  0  0  0  0  0  0  0  0  0  0  # atno 17371 bound_to 10713
  139.9622  135.0151  156.9292 LP  0  0  0  0  0  0  0  0  0  0  0  0  # atno 17394 bound_to 11000
  140.5471  134.0663  155.7358 LP  0  0  0  0  0  0  0  0  0  0  0  0  # atno 17395 bound_to 11000

$$$$
