AV-unprocessed.smi:1697|AV-procd|sdf|6807|dock1
  -GOLD-   22720 7583D 1   1.00000     0.00000
 Structure written by MMmdl.
 55 57  0  0  0  0  0  0  0  0  3 V2000
  144.2051  132.9063  148.8358 C   0  0  0  0  0  0  0  0  0  0  0  0
  143.8286  132.7102  150.3061 C   0  0  0  0  0  0  0  0  0  0  0  0
  144.9732  132.9657  151.1068 O   0  0  0  0  0  0  0  0  0  0  0  0
  144.8845  134.1356  151.9089 C   0  0  2  0  0  0  0  0  0  0  0  0
  145.0217  135.4111  151.0572 C   0  0  0  0  0  0  0  0  0  0  0  0
  145.0921  136.6663  151.9438 C   0  0  0  0  0  0  0  0  0  0  0  0
  146.2077  136.5719  152.9238 N   0  3  1  0  0  0  0  0  0  0  0  0
  146.3961  137.8061  153.7305 C   0  0  0  0  0  0  0  0  0  0  0  0
  147.3579  138.8227  153.0803 C   0  0  2  0  0  0  0  0  0  0  0  0
  147.5858  138.4553  151.7325 O   0  0  0  0  0  0  0  0  0  0  0  0
  148.7107  138.8653  153.8187 C   0  0  0  0  0  0  0  0  0  0  0  0
  148.9619  140.1521  154.4815 N   0  0  0  0  0  0  0  0  0  0  0  0
  148.5074  141.3980  154.1751 C   0  0  0  0  0  0  0  0  0  0  0  0
  149.0266  142.2613  155.0915 N   0  3  0  0  0  0  0  0  0  0  0  0
  149.8253  141.5568  155.9950 C   0  0  0  0  0  0  0  0  0  0  0  0
  150.5597  141.9903  157.0925 C   0  0  0  0  0  0  0  0  0  0  0  0
  151.2776  141.0110  157.8158 C   0  0  0  0  0  0  0  0  0  0  0  0
  152.0932  141.4518  159.0193 C   0  0  0  0  0  0  0  0  0  0  0  0
  151.2407  139.6455  157.4307 C   0  0  0  0  0  0  0  0  0  0  0  0
  152.0164  138.6015  158.2160 C   0  0  0  0  0  0  0  0  0  0  0  0
  150.4866  139.2244  156.3120 C   0  0  0  0  0  0  0  0  0  0  0  0
  149.7877  140.2028  155.6093 C   0  0  0  0  0  0  0  0  0  0  0  0
  146.0768  135.3635  153.7786 C   0  0  0  0  0  0  0  0  0  0  0  0
  146.0312  134.0841  152.9281 C   0  0  0  0  0  0  0  0  0  0  0  0
  143.3488  132.7218  148.1865 H   0  0  0  0  0  0  0  0  0  0  0  0
  145.0012  132.2222  148.5407 H   0  0  0  0  0  0  0  0  0  0  0  0
  144.5520  133.9236  148.6520 H   0  0  0  0  0  0  0  0  0  0  0  0
  143.0127  133.3838  150.5685 H   0  0  0  0  0  0  0  0  0  0  0  0
  143.4786  131.6890  150.4636 H   0  0  0  0  0  0  0  0  0  0  0  0
  143.9377  134.1474  152.4522 H   0  0  0  0  0  0  0  0  0  0  0  0
  145.9215  135.3479  150.4432 H   0  0  0  0  0  0  0  0  0  0  0  0
  144.1830  135.5057  150.3677 H   0  0  0  0  0  0  0  0  0  0  0  0
  145.2176  137.5380  151.3031 H   0  0  0  0  0  0  0  0  0  0  0  0
  144.1489  136.8010  152.4762 H   0  0  0  0  0  0  0  0  0  0  0  0
  145.4225  138.2651  153.9102 H   0  0  0  0  0  0  0  0  0  0  0  0
  146.7914  137.5432  154.7132 H   0  0  0  0  0  0  0  0  0  0  0  0
  146.9264  139.8226  153.0925 H   0  0  0  0  0  0  0  0  0  0  0  0
  148.0644  137.6408  151.7117 H   0  0  0  0  0  0  0  0  0  0  0  0
  148.7744  138.0738  154.5667 H   0  0  0  0  0  0  0  0  0  0  0  0
  149.5305  138.6943  153.1193 H   0  0  0  0  0  0  0  0  0  0  0  0
  147.8523  141.6552  153.3551 H   0  0  0  0  0  0  0  0  0  0  0  0
  150.5823  143.0313  157.3804 H   0  0  0  0  0  0  0  0  0  0  0  0
  153.1441  141.1939  158.8859 H   0  0  0  0  0  0  0  0  0  0  0  0
  151.7299  140.9677  159.9262 H   0  0  0  0  0  0  0  0  0  0  0  0
  152.0321  142.5302  159.1696 H   0  0  0  0  0  0  0  0  0  0  0  0
  151.8675  137.6019  157.8069 H   0  0  0  0  0  0  0  0  0  0  0  0
  151.6938  138.5861  159.2571 H   0  0  0  0  0  0  0  0  0  0  0  0
  153.0846  138.8172  158.1868 H   0  0  0  0  0  0  0  0  0  0  0  0
  150.4597  138.1856  156.0186 H   0  0  0  0  0  0  0  0  0  0  0  0
  146.9221  135.3023  154.4650 H   0  0  0  0  0  0  0  0  0  0  0  0
  145.1763  135.4430  154.3898 H   0  0  0  0  0  0  0  0  0  0  0  0
  145.9143  133.2132  153.5743 H   0  0  0  0  0  0  0  0  0  0  0  0
  146.9824  133.9576  152.4087 H   0  0  0  0  0  0  0  0  0  0  0  0
  147.0581  136.4454  152.3939 H   0  0  0  0  0  0  0  0  0  0  0  0
  148.8486  143.2575  155.0960 H   0  0  0  0  0  0  0  0  0  0  0  0
  1  2  1  0  0  0  0
  1 25  1  0  0  0  0
  1 26  1  0  0  0  0
  1 27  1  0  0  0  0
  2  3  1  0  0  0  0
  2 28  1  0  0  0  0
  2 29  1  0  0  0  0
  3  4  1  0  0  0  0
  4 24  1  0  0  0  0
  4  5  1  0  0  0  0
  4 30  1  0  0  0  0
  5  6  1  0  0  0  0
  5 31  1  0  0  0  0
  5 32  1  0  0  0  0
  6  7  1  0  0  0  0
  6 33  1  0  0  0  0
  6 34  1  0  0  0  0
  7  8  1  0  0  0  0
  7 23  1  0  0  0  0
  7 54  1  0  0  0  0
  8  9  1  0  0  0  0
  8 35  1  0  0  0  0
  8 36  1  0  0  0  0
  9 10  1  0  0  0  0
  9 11  1  0  0  0  0
  9 37  1  0  0  0  0
 10 38  1  0  0  0  0
 11 12  1  0  0  0  0
 11 39  1  0  0  0  0
 11 40  1  0  0  0  0
 12 22  1  0  0  0  0
 12 13  1  0  0  0  0
 13 14  2  0  0  0  0
 13 41  1  0  0  0  0
 14 15  1  0  0  0  0
 14 55  1  0  0  0  0
 15 22  2  0  0  0  0
 15 16  1  0  0  0  0
 16 17  2  0  0  0  0
 16 42  1  0  0  0  0
 17 18  1  0  0  0  0
 17 19  1  0  0  0  0
 18 43  1  0  0  0  0
 18 44  1  0  0  0  0
 18 45  1  0  0  0  0
 19 20  1  0  0  0  0
 19 21  2  0  0  0  0
 20 46  1  0  0  0  0
 20 47  1  0  0  0  0
 20 48  1  0  0  0  0
 21 22  1  0  0  0  0
 21 49  1  0  0  0  0
 23 24  1  0  0  0  0
 23 50  1  0  0  0  0
 23 51  1  0  0  0  0
 24 52  1  0  0  0  0
 24 53  1  0  0  0  0
M  CHG  1   7   1
M  CHG  1  14   1
M  END
> <s_m_source_file>
AV-unprocessed.smi

> <i_m_source_file_index>
1697

> <i_lp_mmshare_version>
43012

> <i_f3d_flags>
0

> <s_epik_input>
W0NIM11bQ0gyXU9bQ0hdMVtDSDJdW0NIMl1OKFtDSDJdW0NIMl0xKVtDSDJdW0NASF0oW09IXSlbQ0gyXW4oW2NIXW4yKWMoYzIzKVtjSF1jKFtDSDNdKWMoW2NIXTMpW0NIM10=

> <s_epik_cmdline>
J2VwaWtfcHl0aG9uJywgJy1waCcsICc3LjAnLCAnLXRuJywgJzgnLCAnLW1hJywgJzIwMCcsICctbWV0YWxfYmluZGluZycsICctaW1hZScsICc8aW5maWxlLm1hZT4nLCAnLW9tYWUnLCAnPG91dGZpbGUubWFlPic=

> <r_epik_Ionization_Penalty>
1.20016

> <r_epik_Ionization_Penalty_Charging>
1.20016

> <r_epik_Ionization_Penalty_Neutral>
1.70998e-06

> <r_epik_State_Penalty>
1.27959

> <r_epik_Charging_Adjusted_Penalty>
2.47975

> <i_epik_Tot_Q>
2

> <i_epik_Tot_abs_Q>
2

> <r_epik_Metal_State_Penalty>
5.29682

> <b_epik_Metal_Only>
0

> <s_lp_Force_Field>
OPLS_2005

> <r_lp_Energy>
32.2014

> <b_lp_Chiralities_Consistent>
1

> <s_lp_Variant>
AV-unprocessed.smi:1697-5

> <Gold.Version>
5.8.1

> <Gold.Id.Protein>
6NUR|6NUR_protein|mol2

> <Gold.PLP.Fitness>
53.5766

> <Gold.PLP.PLP>
-43.4993

> <Gold.PLP.part.hbond>
-4.8656

> <Gold.PLP.part.metal>
0.0000

> <Gold.PLP.part.buried>
-2.0350

> <Gold.PLP.part.nonpolar>
-36.7830

> <Gold.PLP.part.repulsive>
0.3315

> <Gold.PLP.ligand.clash>
0.0000

> <Gold.PLP.ligand.torsion>
2.6374

> <Gold.PLP.Chemscore.Hbond>
5.0000

> <Gold.PLP.Chemscore.CHOScore>
0.0000

> <Gold.PLP.Chemscore.Metal>
0.0000

> <Gold.Chemscore.Hbonds>
donor molecule, donor type, donor heavy atom, donor atom, acceptor molecule, acceptor atom, score
      L1  H     7    54       P1  7948  2.00
      L1  H    10    38       P1  7948  1.00
      L1  H    14    55       P1  8028  2.00

> <Gold.PLP.Chemscore.Internal.Correction>
0.3521

> <Gold.Rescore>
     Score         DG    S(hbond)    S(metal)    S(lipo)     H(rot)  DE(clash)    DE(int)     intcor
     18.77     -21.61       2.92        0.00     105.75       2.35       0.24       2.59       ----

> <Gold.Chemscore.Fitness>
18.7722

> <Gold.Chemscore.DG>
-21.6068

> <Gold.Chemscore.ZeroCoef>
-5.4800

> <Gold.Chemscore.Hbond>
2.9227

> <Gold.Chemscore.Metal>
0.0000

> <Gold.Chemscore.Lipo>
105.7512

> <Gold.Chemscore.Internal_Hbond>
0.0000

> <Gold.Chemscore.DEClash>
0.2401

> <Gold.Chemscore.DEInternal>
2.5945

> <Gold.Chemscore.Rot>
2.3468

> <Gold.Chemscore.Internal.Correction>
   9.000000E+99

> <Gold.Chemscore.Hbonds>
donor molecule, donor type, donor heavy atom, donor atom, acceptor molecule, acceptor atom, score
      L1  H     7    54       P1  7948  0.98
      L1  H    10    38       P1  7948  1.00
      L1  H    14    55       P1  8028  0.94

> <Gold.Chemscore.Hbond.Weighted>
-9.7617

> <Gold.Chemscore.Metal.Weighted>
-0.0000

> <Gold.Chemscore.Lipo.Weighted>
-12.3729

> <Gold.Chemscore.Internal_Hbond.Weighted>
0.0000

> <Gold.Chemscore.DEClash.Weighted>
0.2401

> <Gold.Chemscore.DEInternal.Weighted>
2.5945

> <Gold.Chemscore.Rot.Weighted>
6.0077

> <Gold.Chemscore.Internal.Correction.Weighted>
   9.000000E+99

> <Gold.Protein.RotatedTorsions>
[ 6907 6896 6895 6894 ] final  113.97 input  -60.11 | X-H torsion
[ 7974 7965 7964 7962 ] final    9.50 input  175.53 | X-H torsion
[ 8008 7997 7996 7995 ] final  102.23 input   59.86 | X-H torsion
[ 10167 10162 10161 10158 ] final   87.90 input  -65.29 | X-H torsion
[ 10718 10713 10712 10709 ] final  160.83 input   66.30 | X-H torsion
[ 10763 10752 10751 10750 ] final -141.37 input  -60.55 | X-H torsion
[ 11005 11000 10999 10996 ] final   95.95 input  -57.11 | X-H torsion

> <Gold.Protein.ActiveResidues>
 VAL166  LYS551  ARG553  GLY616  TRP617  ASP618  TYR619  PRO620  LYS621  CYS622 
 ASP623  PHE694  ASN695  SER759  ASP760  ASP761  ALA762  ILE779  LEU786  VAL792 
 PHE793  MET794  SER795  GLU796  ALA797  LYS798  CYS799  TRP800  GLU811  SER814 

> <Gold.Protein.RotatedAtoms>
  152.4830  133.8302  159.7098 H   0  0  0  0  0  0  0  0  0  0  0  0  # atno 6907 bound_to 6896
  150.8894  133.7254  159.2915 H   0  0  0  0  0  0  0  0  0  0  0  0  # atno 6908 bound_to 6896
  151.4732  135.1051  159.9809 H   0  0  0  0  0  0  0  0  0  0  0  0  # atno 6909 bound_to 6896
  146.2402  139.9774  142.8440 H   0  0  0  0  0  0  0  0  0  0  0  0  # atno 7974 bound_to 7965
  156.1374  140.3184  155.8441 H   0  0  0  0  0  0  0  0  0  0  0  0  # atno 8008 bound_to 7997
  155.4219  140.0513  157.3042 H   0  0  0  0  0  0  0  0  0  0  0  0  # atno 8009 bound_to 7997
  154.4948  140.2106  155.9484 H   0  0  0  0  0  0  0  0  0  0  0  0  # atno 8010 bound_to 7997
  139.8727  144.6484  150.8931 H   0  0  0  0  0  0  0  0  0  0  0  0  # atno 10167 bound_to 10162
  157.1449  131.0549  151.2308 H   0  0  0  0  0  0  0  0  0  0  0  0  # atno 10718 bound_to 10713
  154.8547  135.3526  154.5857 H   0  0  0  0  0  0  0  0  0  0  0  0  # atno 10763 bound_to 10752
  153.6467  135.6996  153.5227 H   0  0  0  0  0  0  0  0  0  0  0  0  # atno 10764 bound_to 10752
  153.2927  135.4230  155.1140 H   0  0  0  0  0  0  0  0  0  0  0  0  # atno 10765 bound_to 10752
  139.8785  134.8926  156.4087 H   0  0  0  0  0  0  0  0  0  0  0  0  # atno 11005 bound_to 11000
  145.1624  140.9679  143.4369 LP  0  0  0  0  0  0  0  0  0  0  0  0  # atno 17320 bound_to 7965
  145.0104  139.3515  143.6123 LP  0  0  0  0  0  0  0  0  0  0  0  0  # atno 17321 bound_to 7965
  140.7758  143.3650  151.1756 LP  0  0  0  0  0  0  0  0  0  0  0  0  # atno 17342 bound_to 10162
  139.7269  143.9135  152.3006 LP  0  0  0  0  0  0  0  0  0  0  0  0  # atno 17343 bound_to 10162
  157.4273  130.7471  149.6961 LP  0  0  0  0  0  0  0  0  0  0  0  0  # atno 17370 bound_to 10713
  155.9781  130.4055  150.3668 LP  0  0  0  0  0  0  0  0  0  0  0  0  # atno 17371 bound_to 10713
  140.9215  133.7641  155.9913 LP  0  0  0  0  0  0  0  0  0  0  0  0  # atno 17394 bound_to 11000
  140.8433  134.3040  157.5304 LP  0  0  0  0  0  0  0  0  0  0  0  0  # atno 17395 bound_to 11000

$$$$
