#       Name:                AV-unprocessed.smi:2070
#       Creating user name   scv26
#       Creation time:       Fri Mar 27 11:13:55 2020


#       File generated by GOLD software.
#

@<TRIPOS>MOLECULE
AV-unprocessed.smi:2070
    45    46     1
SMALL
NO_CHARGES


@<TRIPOS>ATOM
      1 ****        -1.6409   2.9075  -0.2642 C.3            1 S1                 0.0000
      2 ****        -1.7608   2.0346  -1.4738 C.2            1 S1                 0.0000
      3 ****        -1.6994   2.4345  -2.7853 C.2            1 S1                 0.0000
      4 ****        -1.8828   1.0942  -3.8831 S.3            1 S1                 0.0000
      5 ****        -2.0488   0.0222  -2.4979 C.2            1 S1                 0.0000
      6 ****        -2.2190  -1.4581  -2.6254 C.3            1 S1                 0.0000
      7 ****        -0.8937  -2.2230  -2.8096 C.3            1 S1                 0.0000
      8 ****         0.0969  -1.8845  -1.7930 N.am           1 S1                 0.0000
      9 ****         0.0969  -2.3354  -0.5277 C.2            1 S1                 0.0000
     10 ****        -0.7269  -3.1594  -0.1276 O.2            1 S1                 0.0000
     11 ****         1.0752  -1.8181   0.2581 N.am           1 S1                 0.0000
     12 ****         1.9670  -0.6978  -0.0872 C.3            1 S1                 0.0000
     13 ****         1.4904   0.5587   0.6630 C.3            1 S1                 0.0000
     14 ****         1.4541   0.3147   2.1900 C.3            1 S1                 0.0000
     15 ****         0.8535   1.5194   2.9267 C.2            1 S1                 0.0000
     16 ****         1.6456   2.1630   3.7880 N.am           1 S1                 0.0000
     17 ****        -0.3084   1.8668   2.7244 O.2            1 S1                 0.0000
     18 ****         0.6809  -0.9838   2.5220 C.3            1 S1                 0.0000
     19 ****         1.1935  -2.1664   1.6791 C.3            1 S1                 0.0000
     20 ****        -1.9515   0.6578  -1.3264 N.2            1 S1                 0.0000
     21 ****        -0.5959   3.1055  -0.0247 H              1 S1                 0.0000
     22 ****        -2.0993   2.4452   0.6106 H              1 S1                 0.0000
     23 ****        -2.1318   3.8683  -0.4207 H              1 S1                 0.0000
     24 ****        -1.5566   3.4331  -3.1709 H              1 S1                 0.0000
     25 ****        -2.7365  -1.8242  -1.7377 H              1 S1                 0.0000
     26 ****        -2.8811  -1.6602  -3.4678 H              1 S1                 0.0000
     27 ****        -1.0730  -3.2992  -2.8228 H              1 S1                 0.0000
     28 ****        -0.4630  -1.9707  -3.7789 H              1 S1                 0.0000
     29 ****         0.8079  -1.2171  -2.0544 H              1 S1                 0.0000
     30 ****         2.9863  -0.9456   0.2128 H              1 S1                 0.0000
     31 ****         2.0263  -0.4909  -1.1557 H              1 S1                 0.0000
     32 ****         2.1489   1.3972   0.4327 H              1 S1                 0.0000
     33 ****         0.5000   0.8345   0.2990 H              1 S1                 0.0000
     34 ****         2.4835   0.1819   2.5278 H              1 S1                 0.0000
     35 ****         1.2958   2.9628   4.2951 H              1 S1                 0.0000
     36 ****         2.5944   1.8468   3.9271 H              1 S1                 0.0000
     37 ****         0.7808  -1.2185   3.5825 H              1 S1                 0.0000
     38 ****        -0.3861  -0.8496   2.3349 H              1 S1                 0.0000
     39 ****         0.6460  -3.0739   1.9372 H              1 S1                 0.0000
     40 ****         2.2374  -2.3747   1.9178 H              1 S1                 0.0000
     41 ****        -1.4236  -3.5133  -0.7515 LP             1 S1                 0.0000
     42 ****        -0.6989  -3.4743   0.8212 LP             1 S1                 0.0000
     43 ****        -0.8749   1.3623   2.0728 LP             1 S1                 0.0000
     44 ****        -0.6870   2.6539   3.2115 LP             1 S1                 0.0000
     45 ****        -2.0089   0.1981  -0.4401 LP             1 S1                 0.0000
@<TRIPOS>BOND
    1    1    2 1     
    2    1   21 1     
    3    1   22 1     
    4    1   23 1     
    5    2   20 1     
    6    2    3 2     
    7    3    4 1     
    8    3   24 1     
    9    4    5 1     
   10    5    6 1     
   11    5   20 2     
   12    6    7 1     
   13    6   25 1     
   14    6   26 1     
   15    7    8 1     
   16    7   27 1     
   17    7   28 1     
   18    8    9 am    
   19    8   29 1     
   20    9   10 2     
   21    9   11 am    
   22   11   19 1     
   23   11   12 1     
   24   12   13 1     
   25   12   30 1     
   26   12   31 1     
   27   13   14 1     
   28   13   32 1     
   29   13   33 1     
   30   14   15 1     
   31   14   18 1     
   32   14   34 1     
   33   15   16 am    
   34   15   17 2     
   35   16   35 1     
   36   16   36 1     
   37   18   19 1     
   38   18   37 1     
   39   18   38 1     
   40   19   39 1     
   41   19   40 1     
   42   10   41 1     
   43   10   42 1     
   44   17   43 1     
   45   17   44 1     
   46   20   45 1     
@<TRIPOS>SUBSTRUCTURE
      1 S1             1
@<TRIPOS>SET
LONE_PAIRS      STATIC     ATOMS    <user>   **** ""
5 41 42 43 44 45
DONOR_HYDROGENS      STATIC     ATOMS    <user>   **** ""
3 29 35 36
ATOM$BLUE        STATIC     ATOMS    COLORGROUP SYSTEM
5 41 42 43 44 45
ATOM$RED        STATIC     ATOMS    COLORGROUP SYSTEM
3 29 35 36
