AV-unprocessed.smi:1734|AV-procd|sdf|6984|dock5
  -GOLD-   22720 8203D 1   1.00000     0.00000
 Structure written by MMmdl.
 51 53  0  0  0  0  0  0  0  0  2 V2000
  146.9228  132.0409  152.9405 C   0  0  0  0  0  0  0  0  0  0  0  0
  145.9030  132.5446  151.9318 C   0  0  0  0  0  0  0  0  0  0  0  0
  145.0815  131.6156  151.2584 C   0  0  0  0  0  0  0  0  0  0  0  0
  144.1368  132.0827  150.3287 C   0  0  0  0  0  0  0  0  0  0  0  0
  144.0530  133.4685  150.1103 C   0  0  0  0  0  0  0  0  0  0  0  0
  144.8338  134.3632  150.7495 N   0  0  0  0  0  0  0  0  0  0  0  0
  145.7502  133.9289  151.6508 C   0  0  0  0  0  0  0  0  0  0  0  0
  146.6113  134.8155  152.3576 N   0  0  0  0  0  0  0  0  0  0  0  0
  146.3976  135.4236  153.5380 C   0  0  0  0  0  0  0  0  0  0  0  0
  145.4014  135.2806  154.2470 O   0  0  0  0  0  0  0  0  0  0  0  0
  147.4250  136.2171  153.8682 N   0  0  0  0  0  0  0  0  0  0  0  0
  147.4968  137.0006  155.0980 C   0  0  0  0  0  0  0  0  0  0  0  0
  148.8721  136.9050  155.8108 C   0  0  2  0  0  0  0  0  0  0  0  0
  150.0297  137.5704  155.0240 C   0  0  2  0  0  0  0  0  0  0  0  0
  151.3733  137.5234  155.7295 C   0  0  0  0  0  0  0  0  0  0  0  0
  152.1546  138.6155  155.0062 C   0  0  0  0  0  0  0  0  0  0  0  0
  151.1893  139.5835  154.6087 O   0  0  0  0  0  0  0  0  0  0  0  0
  149.8752  139.0811  154.8263 C   0  0  0  0  0  0  0  0  0  0  0  0
  149.2368  135.5221  156.2460 N   0  3  0  0  0  0  0  0  0  0  0  0
  148.1969  134.8463  157.0604 C   0  0  0  0  0  0  0  0  0  0  0  0
  148.7481  133.5292  157.6331 C   0  0  0  0  0  0  0  0  0  0  0  0
  149.2069  132.6988  156.5727 O   0  0  0  0  0  0  0  0  0  0  0  0
  150.2579  133.3067  155.8309 C   0  0  0  0  0  0  0  0  0  0  0  0
  149.7490  134.6098  155.1928 C   0  0  0  0  0  0  0  0  0  0  0  0
  146.9132  130.9524  153.0047 H   0  0  0  0  0  0  0  0  0  0  0  0
  146.7043  132.4375  153.9326 H   0  0  0  0  0  0  0  0  0  0  0  0
  147.9288  132.3504  152.6560 H   0  0  0  0  0  0  0  0  0  0  0  0
  145.1711  130.5563  151.4501 H   0  0  0  0  0  0  0  0  0  0  0  0
  143.4935  131.3972  149.7973 H   0  0  0  0  0  0  0  0  0  0  0  0
  143.3415  133.8698  149.4038 H   0  0  0  0  0  0  0  0  0  0  0  0
  147.4918  135.0103  151.9053 H   0  0  0  0  0  0  0  0  0  0  0  0
  148.2050  136.2830  153.2311 H   0  0  0  0  0  0  0  0  0  0  0  0
  147.3107  138.0453  154.8428 H   0  0  0  0  0  0  0  0  0  0  0  0
  146.6845  136.7087  155.7637 H   0  0  0  0  0  0  0  0  0  0  0  0
  148.7702  137.4822  156.7313 H   0  0  0  0  0  0  0  0  0  0  0  0
  150.1420  137.1101  154.0417 H   0  0  0  0  0  0  0  0  0  0  0  0
  151.2624  137.7822  156.7837 H   0  0  0  0  0  0  0  0  0  0  0  0
  151.8590  136.5491  155.6672 H   0  0  0  0  0  0  0  0  0  0  0  0
  152.9295  139.0578  155.6327 H   0  0  0  0  0  0  0  0  0  0  0  0
  152.6305  138.2137  154.1109 H   0  0  0  0  0  0  0  0  0  0  0  0
  149.2159  139.3294  153.9942 H   0  0  0  0  0  0  0  0  0  0  0  0
  149.4739  139.5513  155.7252 H   0  0  0  0  0  0  0  0  0  0  0  0
  147.8802  135.4928  157.8796 H   0  0  0  0  0  0  0  0  0  0  0  0
  147.3153  134.6426  156.4518 H   0  0  0  0  0  0  0  0  0  0  0  0
  149.5598  133.7203  158.3371 H   0  0  0  0  0  0  0  0  0  0  0  0
  147.9680  133.0023  158.1826 H   0  0  0  0  0  0  0  0  0  0  0  0
  151.1151  133.4974  156.4788 H   0  0  0  0  0  0  0  0  0  0  0  0
  150.5904  132.6144  155.0573 H   0  0  0  0  0  0  0  0  0  0  0  0
  148.9565  134.3730  154.4820 H   0  0  0  0  0  0  0  0  0  0  0  0
  150.5576  135.0814  154.6351 H   0  0  0  0  0  0  0  0  0  0  0  0
  150.0101  135.6562  156.8820 H   0  0  0  0  0  0  0  0  0  0  0  0
  1  2  1  0  0  0  0
  1 25  1  0  0  0  0
  1 26  1  0  0  0  0
  1 27  1  0  0  0  0
  2  7  1  0  0  0  0
  2  3  2  0  0  0  0
  3  4  1  0  0  0  0
  3 28  1  0  0  0  0
  4  5  2  0  0  0  0
  4 29  1  0  0  0  0
  5  6  1  0  0  0  0
  5 30  1  0  0  0  0
  6  7  2  0  0  0  0
  7  8  1  0  0  0  0
  8  9  1  0  0  0  0
  8 31  1  0  0  0  0
  9 10  2  0  0  0  0
  9 11  1  0  0  0  0
 11 12  1  0  0  0  0
 11 32  1  0  0  0  0
 12 13  1  0  0  0  0
 12 33  1  0  0  0  0
 12 34  1  0  0  0  0
 13 14  1  0  0  0  0
 13 19  1  0  0  0  0
 13 35  1  0  0  0  0
 14 18  1  0  0  0  0
 14 15  1  0  0  0  0
 14 36  1  0  0  0  0
 15 16  1  0  0  0  0
 15 37  1  0  0  0  0
 15 38  1  0  0  0  0
 16 17  1  0  0  0  0
 16 39  1  0  0  0  0
 16 40  1  0  0  0  0
 17 18  1  0  0  0  0
 18 41  1  0  0  0  0
 18 42  1  0  0  0  0
 19 24  1  0  0  0  0
 19 20  1  0  0  0  0
 19 51  1  0  0  0  0
 20 21  1  0  0  0  0
 20 43  1  0  0  0  0
 20 44  1  0  0  0  0
 21 22  1  0  0  0  0
 21 45  1  0  0  0  0
 21 46  1  0  0  0  0
 22 23  1  0  0  0  0
 23 24  1  0  0  0  0
 23 47  1  0  0  0  0
 23 48  1  0  0  0  0
 24 49  1  0  0  0  0
 24 50  1  0  0  0  0
M  CHG  1  19   1
M  END
> <s_m_source_file>
AV-unprocessed.smi

> <i_m_source_file_index>
1734

> <i_lp_mmshare_version>
43012

> <i_f3d_flags>
0

> <s_epik_input>
W0NIM11jMVtjSF1bY0hdW2NIXW5jMVtOSF1DKD1PKVtOSF1bQ0gyXVtDQEhdKFtDQEBIXTJbQ0gyXVtDSDJdT1tDSDJdMilOM1tDSDJdW0NIMl1PW0NIMl1bQ0gyXTM=

> <s_epik_cmdline>
J2VwaWtfcHl0aG9uJywgJy1waCcsICc3LjAnLCAnLXRuJywgJzgnLCAnLW1hJywgJzIwMCcsICctbWV0YWxfYmluZGluZycsICctaW1hZScsICc8aW5maWxlLm1hZT4nLCAnLW9tYWUnLCAnPG91dGZpbGUubWFlPic=

> <r_epik_Ionization_Penalty>
0.983302

> <r_epik_Ionization_Penalty_Charging>
0.98326

> <r_epik_Ionization_Penalty_Neutral>
4.21967e-05

> <r_epik_State_Penalty>
1.0303

> <r_epik_Charging_Adjusted_Penalty>
2.01356

> <i_epik_Tot_Q>
1

> <i_epik_Tot_abs_Q>
1

> <r_epik_Metal_State_Penalty>
1.03031

> <b_epik_Metal_Only>
0

> <s_lp_Force_Field>
OPLS_2005

> <r_lp_Energy>
50.4673

> <b_lp_Chiralities_Consistent>
1

> <s_lp_Variant>
AV-unprocessed.smi:1734-5

> <Gold.Version>
5.8.1

> <Gold.Id.Protein>
6NUR|6NUR_protein|mol2

> <Gold.PLP.Fitness>
43.3587

> <Gold.PLP.PLP>
-33.4360

> <Gold.PLP.part.hbond>
-2.8923

> <Gold.PLP.part.metal>
0.0000

> <Gold.PLP.part.buried>
-5.8222

> <Gold.PLP.part.nonpolar>
-25.2340

> <Gold.PLP.part.repulsive>
0.3680

> <Gold.PLP.ligand.clash>
0.0000

> <Gold.PLP.ligand.torsion>
1.0360

> <Gold.PLP.Chemscore.Hbond>
2.9033

> <Gold.PLP.Chemscore.CHOScore>
1.0000

> <Gold.PLP.Chemscore.Metal>
0.0000

> <Gold.Chemscore.Hbonds>
donor molecule, donor type, donor heavy atom, donor atom, acceptor molecule, acceptor atom, score
      L1  H     8    31       P1  7948  0.91
      L1  H    11    32       P1  7948  1.00
      P1  H  7989  7998       L1    17  1.00
      L1  C     5    30       P1 10186  1.00

> <Gold.PLP.Chemscore.Internal.Correction>
0.2850

> <Gold.Rescore>
     Score         DG    S(hbond)    S(metal)    S(lipo)     H(rot)  DE(clash)    DE(int)     intcor
     18.63     -19.92       2.71        0.00      83.22       1.70       0.03       1.26       ----

> <Gold.Chemscore.Fitness>
18.6250

> <Gold.Chemscore.DG>
-19.9199

> <Gold.Chemscore.ZeroCoef>
-5.4800

> <Gold.Chemscore.Hbond>
2.7101

> <Gold.Chemscore.Metal>
0.0000

> <Gold.Chemscore.Lipo>
83.2182

> <Gold.Chemscore.Internal_Hbond>
0.0000

> <Gold.Chemscore.DEClash>
0.0309

> <Gold.Chemscore.DEInternal>
1.2640

> <Gold.Chemscore.Rot>
1.6986

> <Gold.Chemscore.Internal.Correction>
   9.000000E+99

> <Gold.Chemscore.Hbonds>
donor molecule, donor type, donor heavy atom, donor atom, acceptor molecule, acceptor atom, score
      L1  H     8    31       P1  7948  0.78
      L1  H    11    32       P1  7948  0.95
      P1  H  7989  7998       L1    17  0.98

> <Gold.Chemscore.Hbond.Weighted>
-9.0519

> <Gold.Chemscore.Metal.Weighted>
-0.0000

> <Gold.Chemscore.Lipo.Weighted>
-9.7365

> <Gold.Chemscore.Internal_Hbond.Weighted>
0.0000

> <Gold.Chemscore.DEClash.Weighted>
0.0309

> <Gold.Chemscore.DEInternal.Weighted>
1.2640

> <Gold.Chemscore.Rot.Weighted>
4.3485

> <Gold.Chemscore.Internal.Correction.Weighted>
   9.000000E+99

> <Gold.Protein.RotatedTorsions>
[ 6907 6896 6895 6894 ] final   86.61 input  -60.11 | X-H torsion
[ 7974 7965 7964 7962 ] final  -79.80 input  175.53 | X-H torsion
[ 8008 7997 7996 7995 ] final  -71.35 input   59.86 | X-H torsion
[ 10167 10162 10161 10158 ] final   48.74 input  -65.29 | X-H torsion
[ 10718 10713 10712 10709 ] final -128.87 input   66.30 | X-H torsion
[ 10763 10752 10751 10750 ] final   -9.69 input  -60.55 | X-H torsion
[ 11005 11000 10999 10996 ] final  -71.67 input  -57.11 | X-H torsion

> <Gold.Protein.ActiveResidues>
 VAL166  LYS551  ARG553  GLY616  TRP617  ASP618  TYR619  PRO620  LYS621  CYS622 
 ASP623  PHE694  ASN695  SER759  ASP760  ASP761  ALA762  ILE779  LEU786  VAL792 
 PHE793  MET794  SER795  GLU796  ALA797  LYS798  CYS799  TRP800  GLU811  SER814 

> <Gold.Protein.RotatedAtoms>
  152.5397  134.2404  159.8859 H   0  0  0  0  0  0  0  0  0  0  0  0  # atno 6907 bound_to 6896
  151.2372  133.4412  159.2613 H   0  0  0  0  0  0  0  0  0  0  0  0  # atno 6908 bound_to 6896
  151.0660  134.9781  159.8341 H   0  0  0  0  0  0  0  0  0  0  0  0  # atno 6909 bound_to 6896
  145.5684  140.9470  143.1409 H   0  0  0  0  0  0  0  0  0  0  0  0  # atno 7974 bound_to 7965
  154.5081  140.0817  156.7935 H   0  0  0  0  0  0  0  0  0  0  0  0  # atno 8008 bound_to 7997
  155.3847  140.3429  155.4230 H   0  0  0  0  0  0  0  0  0  0  0  0  # atno 8009 bound_to 7997
  156.1540  140.1567  156.8710 H   0  0  0  0  0  0  0  0  0  0  0  0  # atno 8010 bound_to 7997
  140.2902  144.3055  150.6242 H   0  0  0  0  0  0  0  0  0  0  0  0  # atno 10167 bound_to 10162
  156.1992  130.6846  151.0519 H   0  0  0  0  0  0  0  0  0  0  0  0  # atno 10718 bound_to 10713
  153.4584  135.7016  153.6065 H   0  0  0  0  0  0  0  0  0  0  0  0  # atno 10763 bound_to 10752
  153.4370  135.3789  155.2205 H   0  0  0  0  0  0  0  0  0  0  0  0  # atno 10764 bound_to 10752
  154.8727  135.3964  154.4006 H   0  0  0  0  0  0  0  0  0  0  0  0  # atno 10765 bound_to 10752
  141.1596  133.6824  156.6942 H   0  0  0  0  0  0  0  0  0  0  0  0  # atno 11005 bound_to 11000
  144.7449  139.7347  143.7296 LP  0  0  0  0  0  0  0  0  0  0  0  0  # atno 17320 bound_to 7965
  146.1801  139.4990  142.9872 LP  0  0  0  0  0  0  0  0  0  0  0  0  # atno 17321 bound_to 7965
  140.5739  143.2178  151.7550 LP  0  0  0  0  0  0  0  0  0  0  0  0  # atno 17342 bound_to 10162
  139.4940  144.4178  152.0011 LP  0  0  0  0  0  0  0  0  0  0  0  0  # atno 17343 bound_to 10162
  157.6976  131.0788  150.6922 LP  0  0  0  0  0  0  0  0  0  0  0  0  # atno 17370 bound_to 10713
  156.6979  130.4614  149.5581 LP  0  0  0  0  0  0  0  0  0  0  0  0  # atno 17371 bound_to 10713
  140.3008  134.8165  157.4096 LP  0  0  0  0  0  0  0  0  0  0  0  0  # atno 17394 bound_to 11000
  140.1264  134.5152  155.8141 LP  0  0  0  0  0  0  0  0  0  0  0  0  # atno 17395 bound_to 11000

$$$$
