#       Name:                AV-unprocessed.smi:1780
#       Creating user name   scv26
#       Creation time:       Fri Mar 27 08:42:22 2020


#       File generated by GOLD software.
#

@<TRIPOS>MOLECULE
AV-unprocessed.smi:1780
    49    50     1
SMALL
NO_CHARGES


@<TRIPOS>ATOM
      1 ****        -7.0524   3.1013  -1.4951 C.3            1 S1                 0.0000
      2 ****        -6.4966   2.5173  -0.1908 C.3            1 S1                 0.0000
      3 ****        -5.0670   2.2883  -0.2695 N.pl3          1 S1                 0.0000
      4 ****        -4.4025   1.0941  -0.4673 C.2            1 S1                 0.0000
      5 ****        -3.0753   1.4022  -0.4654 C.2            1 S1                 0.0000
      6 ****        -2.0263   0.4641  -0.6338 N.am           1 S1                 0.0000
      7 ****        -0.7067   0.7115  -0.6221 C.2            1 S1                 0.0000
      8 ****        -0.1979   1.8265  -0.5085 O.2            1 S1                 0.0000
      9 ****         0.0011  -0.4213  -0.7420 N.am           1 S1                 0.0000
     10 ****         1.4597  -0.5166  -0.7479 C.3            1 S1                 0.0000
     11 ****         2.0365  -1.1845   0.5336 C.3            1 S1                 0.0000
     12 ****         1.5472  -0.4043   1.7804 C.3            1 S1                 0.0000
     13 ****         3.5107  -1.3366   0.4983 N.3            1 S1                 0.0000
     14 ****         3.9786  -2.0922  -0.6696 C.3            1 S1                 0.0000
     15 ****         5.5059  -2.2761  -0.6911 C.3            1 S1                 0.0000
     16 ****         5.9290  -2.9164   0.5043 O.3            1 S1                 0.0000
     17 ****         5.5670  -2.1752   1.6607 C.3            1 S1                 0.0000
     18 ****         4.0401  -1.9909   1.7011 C.3            1 S1                 0.0000
     19 ****        -3.0034   2.8090  -0.2591 C.2            1 S1                 0.0000
     20 ****        -4.2137   3.3343  -0.1415 N.2            1 S1                 0.0000
     21 ****        -8.1289   3.2560  -1.4222 H              1 S1                 0.0000
     22 ****        -6.8679   2.4323  -2.3360 H              1 S1                 0.0000
     23 ****        -6.5937   4.0635  -1.7250 H              1 S1                 0.0000
     24 ****        -6.6991   3.1904   0.6433 H              1 S1                 0.0000
     25 ****        -6.9897   1.5718   0.0375 H              1 S1                 0.0000
     26 ****        -4.9203   0.1542  -0.5890 H              1 S1                 0.0000
     27 ****        -2.3093  -0.4978  -0.7496 H              1 S1                 0.0000
     28 ****        -0.5070  -1.2890  -0.8299 H              1 S1                 0.0000
     29 ****         1.6876  -1.1062  -1.6338 H              1 S1                 0.0000
     30 ****         1.9224   0.4595  -0.9034 H              1 S1                 0.0000
     31 ****         1.5992  -2.1824   0.5944 H              1 S1                 0.0000
     32 ****         0.4650  -0.2860   1.7977 H              1 S1                 0.0000
     33 ****         1.9871   0.5929   1.8187 H              1 S1                 0.0000
     34 ****         1.7835  -0.9141   2.7127 H              1 S1                 0.0000
     35 ****         3.4955  -3.0701  -0.6961 H              1 S1                 0.0000
     36 ****         3.7122  -1.5799  -1.5918 H              1 S1                 0.0000
     37 ****         5.8012  -2.8862  -1.5447 H              1 S1                 0.0000
     38 ****         6.0096  -1.3138  -0.7959 H              1 S1                 0.0000
     39 ****         5.9072  -2.7112   2.5468 H              1 S1                 0.0000
     40 ****         6.0735  -1.2088   1.6580 H              1 S1                 0.0000
     41 ****         3.8167  -1.4034   2.5893 H              1 S1                 0.0000
     42 ****         3.5625  -2.9628   1.8338 H              1 S1                 0.0000
     43 ****        -2.1434   3.4581  -0.1896 H              1 S1                 0.0000
     44 ****        -0.7797   2.6344  -0.4155 LP             1 S1                 0.0000
     45 ****         0.7973   1.9244  -0.5092 LP             1 S1                 0.0000
     46 ****         3.8549  -0.3992   0.4466 LP             1 S1                 0.0000
     47 ****         6.9238  -3.0160   0.4827 LP             1 S1                 0.0000
     48 ****         5.5046  -3.8205   0.5541 LP             1 S1                 0.0000
     49 ****        -4.4475   4.2948   0.0091 LP             1 S1                 0.0000
@<TRIPOS>BOND
    1    1    2 1     
    2    1   21 1     
    3    1   22 1     
    4    1   23 1     
    5    2    3 1     
    6    2   24 1     
    7    2   25 1     
    8    3   20 1     
    9    3    4 1     
   10    4    5 2     
   11    4   26 1     
   12    5    6 1     
   13    5   19 1     
   14    6    7 am    
   15    6   27 1     
   16    7    8 2     
   17    7    9 am    
   18    9   10 1     
   19    9   28 1     
   20   10   11 1     
   21   10   29 1     
   22   10   30 1     
   23   11   12 1     
   24   11   13 1     
   25   11   31 1     
   26   12   32 1     
   27   12   33 1     
   28   12   34 1     
   29   13   18 1     
   30   13   14 1     
   31   14   15 1     
   32   14   35 1     
   33   14   36 1     
   34   15   16 1     
   35   15   37 1     
   36   15   38 1     
   37   16   17 1     
   38   17   18 1     
   39   17   39 1     
   40   17   40 1     
   41   18   41 1     
   42   18   42 1     
   43   19   20 2     
   44   19   43 1     
   45    8   44 1     
   46    8   45 1     
   47   13   46 1     
   48   16   47 1     
   49   16   48 1     
   50   20   49 1     
@<TRIPOS>SUBSTRUCTURE
      1 S1             1
@<TRIPOS>SET
LONE_PAIRS      STATIC     ATOMS    <user>   **** ""
6 44 45 46 47 48 49
DONOR_HYDROGENS      STATIC     ATOMS    <user>   **** ""
2 27 28
ATOM$BLUE        STATIC     ATOMS    COLORGROUP SYSTEM
6 44 45 46 47 48 49
ATOM$RED        STATIC     ATOMS    COLORGROUP SYSTEM
2 27 28
