#       Name:                AV-unprocessed.smi:3350
#       Creating user name   scv26
#       Creation time:       Fri Mar 27 19:37:53 2020


#       File generated by GOLD software.
#

@<TRIPOS>MOLECULE
AV-unprocessed.smi:3350
    46    47     1
SMALL
NO_CHARGES


@<TRIPOS>ATOM
      1 ****        -3.2547  -2.4360  -1.2355 C.3            1 S1                 0.0000
      2 ****        -2.6379  -1.5488  -0.1457 C.3            1 S1                 0.0000
      3 ****        -3.0013  -2.0592   1.2657 C.3            1 S1                 0.0000
      4 ****        -2.5770  -1.1532   2.3183 N.pl3          1 S1                 0.0000
      5 ****        -1.4902  -1.2656   3.1600 C.2            1 S1                 0.0000
      6 ****        -1.4862  -0.1650   3.9676 C.2            1 S1                 0.0000
      7 ****        -2.6283   0.5695   3.5424 C.2            1 S1                 0.0000
      8 ****        -3.2817  -0.0266   2.5581 N.2            1 S1                 0.0000
      9 ****        -1.1873  -1.5127  -0.3293 N.am           1 S1                 0.0000
     10 ****        -0.4070  -0.4325  -0.1779 C.2            1 S1                 0.0000
     11 ****        -0.8279   0.6864   0.1154 O.2            1 S1                 0.0000
     12 ****         0.8881  -0.7315  -0.3627 N.am           1 S1                 0.0000
     13 ****         2.0349   0.1711  -0.2359 C.3            1 S1                 0.0000
     14 ****         2.1797   0.6853   1.2094 C.3            1 S1                 0.0000
     15 ****         1.9896   1.3084  -1.2808 C.3            1 S1                 0.0000
     16 ****         3.2540   2.1659  -1.3428 C.3            1 S1                 0.0000
     17 ****         3.2362   2.7262  -2.7563 C.3            1 S1                 0.0000
     18 ****         2.2298   1.8404  -3.4962 C.3            1 S1                 0.0000
     19 ****         1.9343   0.7805  -2.5973 O.3            1 S1                 0.0000
     20 ****        -4.3418  -2.4559  -1.1553 H              1 S1                 0.0000
     21 ****        -2.8970  -3.4637  -1.1623 H              1 S1                 0.0000
     22 ****        -3.0064  -2.0660  -2.2309 H              1 S1                 0.0000
     23 ****        -3.0522  -0.5470  -0.2752 H              1 S1                 0.0000
     24 ****        -4.0809  -2.1914   1.3509 H              1 S1                 0.0000
     25 ****        -2.5548  -3.0382   1.4464 H              1 S1                 0.0000
     26 ****        -0.8126  -2.1048   3.1077 H              1 S1                 0.0000
     27 ****        -0.7746   0.0800   4.7418 H              1 S1                 0.0000
     28 ****        -2.9996   1.5118   3.9171 H              1 S1                 0.0000
     29 ****        -0.7414  -2.3854  -0.5710 H              1 S1                 0.0000
     30 ****         1.1081  -1.6860  -0.6060 H              1 S1                 0.0000
     31 ****         2.9096  -0.4437  -0.4502 H              1 S1                 0.0000
     32 ****         3.1175   1.2244   1.3430 H              1 S1                 0.0000
     33 ****         2.1758  -0.1401   1.9221 H              1 S1                 0.0000
     34 ****         1.3716   1.3645   1.4819 H              1 S1                 0.0000
     35 ****         1.1239   1.9538  -1.1227 H              1 S1                 0.0000
     36 ****         3.2734   2.9446  -0.5799 H              1 S1                 0.0000
     37 ****         4.1397   1.5430  -1.2100 H              1 S1                 0.0000
     38 ****         2.9108   3.7670  -2.7674 H              1 S1                 0.0000
     39 ****         4.2275   2.6789  -3.2083 H              1 S1                 0.0000
     40 ****         1.3154   2.3954  -3.7100 H              1 S1                 0.0000
     41 ****         2.6223   1.4560  -4.4377 H              1 S1                 0.0000
     42 ****        -4.1111   0.2869   2.0957 LP             1 S1                 0.0000
     43 ****        -1.8074   0.8312   0.2560 LP             1 S1                 0.0000
     44 ****        -0.1905   1.4507   0.2130 LP             1 S1                 0.0000
     45 ****         1.0198   0.4208  -2.7826 LP             1 S1                 0.0000
     46 ****         2.6075   0.0483  -2.6999 LP             1 S1                 0.0000
@<TRIPOS>BOND
    1    1    2 1     
    2    1   20 1     
    3    1   21 1     
    4    1   22 1     
    5    2    3 1     
    6    2    9 1     
    7    2   23 1     
    8    3    4 1     
    9    3   24 1     
   10    3   25 1     
   11    4    8 1     
   12    4    5 1     
   13    5    6 2     
   14    5   26 1     
   15    6    7 1     
   16    6   27 1     
   17    7    8 2     
   18    7   28 1     
   19    9   10 am    
   20    9   29 1     
   21   10   11 2     
   22   10   12 am    
   23   12   13 1     
   24   12   30 1     
   25   13   14 1     
   26   13   15 1     
   27   13   31 1     
   28   14   32 1     
   29   14   33 1     
   30   14   34 1     
   31   15   19 1     
   32   15   16 1     
   33   15   35 1     
   34   16   17 1     
   35   16   36 1     
   36   16   37 1     
   37   17   18 1     
   38   17   38 1     
   39   17   39 1     
   40   18   19 1     
   41   18   40 1     
   42   18   41 1     
   43    8   42 1     
   44   11   43 1     
   45   11   44 1     
   46   19   45 1     
   47   19   46 1     
@<TRIPOS>SUBSTRUCTURE
      1 S1             1
@<TRIPOS>SET
LONE_PAIRS      STATIC     ATOMS    <user>   **** ""
5 42 43 44 45 46
DONOR_HYDROGENS      STATIC     ATOMS    <user>   **** ""
2 29 30
ATOM$BLUE        STATIC     ATOMS    COLORGROUP SYSTEM
5 42 43 44 45 46
ATOM$RED        STATIC     ATOMS    COLORGROUP SYSTEM
2 29 30
