#       Name:                AV-unprocessed.smi:1748
#       Creating user name   scv26
#       Creation time:       Fri Mar 27 08:26:02 2020


#       File generated by GOLD software.
#

@<TRIPOS>MOLECULE
AV-unprocessed.smi:1748
    44    45     1
SMALL
NO_CHARGES


@<TRIPOS>ATOM
      1 ****        -2.1280  -2.3632  -2.6308 C.3            1 S1                 0.0000
      2 ****        -1.9565  -2.1201  -1.1826 N.4            1 S1                 1.0000
      3 ****        -2.4871  -3.2313  -0.3533 C.3            1 S1                 0.0000
      4 ****        -2.1805  -3.0074   1.1380 C.3            1 S1                 0.0000
      5 ****        -2.6905  -1.6364   1.6159 C.3            1 S1                 0.0000
      6 ****        -2.1594  -0.5059   0.7156 C.3            1 S1                 0.0000
      7 ****        -0.7175  -0.3540   0.9094 N.am           1 S1                 0.0000
      8 ****         0.0137   0.6982   0.5163 C.2            1 S1                 0.0000
      9 ****        -0.4684   1.6806  -0.0469 O.2            1 S1                 0.0000
     10 ****         1.3157   0.5021   0.7880 N.am           1 S1                 0.0000
     11 ****         2.4102   1.3392   0.5177 C.2            1 S1                 0.0000
     12 ****         2.3238   2.6817   0.3084 C.2            1 S1                 0.0000
     13 ****         3.4957   3.5055   0.0396 C.2            1 S1                 0.0000
     14 ****         3.4437   5.0152  -0.1168 C.3            1 S1                 0.0000
     15 ****         4.5613   5.5855   0.3343 F              1 S1                 0.0000
     16 ****         3.3035   5.3334  -1.4030 F              1 S1                 0.0000
     17 ****         2.4110   5.5274   0.5524 F              1 S1                 0.0000
     18 ****         4.6666   2.7721   0.0554 C.2            1 S1                 0.0000
     19 ****         4.8368   1.4449   0.2452 N.pl3          1 S1                -1.0000
     20 ****         3.7336   0.6838   0.4917 C.2            1 S1                 0.0000
     21 ****         3.8165  -0.5293   0.6880 O.2            1 S1                 0.0000
     22 ****        -2.5067  -0.8078  -0.7595 C.3            1 S1                 0.0000
     23 ****        -3.1844  -2.4017  -2.8993 H              1 S1                 0.0000
     24 ****        -1.6661  -3.3077  -2.9198 H              1 S1                 0.0000
     25 ****        -1.6551  -1.5707  -3.2120 H              1 S1                 0.0000
     26 ****        -3.5642  -3.3176  -0.5056 H              1 S1                 0.0000
     27 ****        -2.0444  -4.1741  -0.6773 H              1 S1                 0.0000
     28 ****        -2.6342  -3.8000   1.7336 H              1 S1                 0.0000
     29 ****        -1.1049  -3.0802   1.3036 H              1 S1                 0.0000
     30 ****        -3.7812  -1.6316   1.5953 H              1 S1                 0.0000
     31 ****        -2.4038  -1.4664   2.6545 H              1 S1                 0.0000
     32 ****        -2.6426   0.4267   1.0120 H              1 S1                 0.0000
     33 ****        -0.2380  -1.1129   1.3718 H              1 S1                 0.0000
     34 ****         1.5662  -0.3911   1.1865 H              1 S1                 0.0000
     35 ****         1.3722   3.1858   0.3534 H              1 S1                 0.0000
     36 ****         5.6098   3.3376  -0.1018 H              1 S1                 0.0000
     37 ****        -2.1182  -0.0213  -1.4079 H              1 S1                 0.0000
     38 ****        -3.5895  -0.8092  -0.8948 H              1 S1                 0.0000
     39 ****        -0.9610  -2.0808  -1.0153 H              1 S1                 0.0000
     40 ****        -1.4504   1.7194  -0.2313 LP             1 S1                 0.0000
     41 ****         0.1220   2.4401  -0.3201 LP             1 S1                 0.0000
     42 ****         5.7471   1.0328   0.2058 LP             1 S1                 0.0000
     43 ****         2.9906  -1.0649   0.8638 LP             1 S1                 0.0000
     44 ****         4.7098  -0.9785   0.6716 LP             1 S1                 0.0000
@<TRIPOS>BOND
    1    1    2 1     
    2    1   23 1     
    3    1   24 1     
    4    1   25 1     
    5    2   22 1     
    6    2    3 1     
    7    2   39 1     
    8    3    4 1     
    9    3   26 1     
   10    3   27 1     
   11    4    5 1     
   12    4   28 1     
   13    4   29 1     
   14    5    6 1     
   15    5   30 1     
   16    5   31 1     
   17    6    7 1     
   18    6   22 1     
   19    6   32 1     
   20    7    8 am    
   21    7   33 1     
   22    8    9 2     
   23    8   10 am    
   24   10   11 1     
   25   10   34 1     
   26   11   20 1     
   27   11   12 2     
   28   12   13 1     
   29   12   35 1     
   30   13   14 1     
   31   13   18 2     
   32   14   15 1     
   33   14   16 1     
   34   14   17 1     
   35   18   19 1     
   36   18   36 1     
   37   19   20 1     
   38   20   21 2     
   39   22   37 1     
   40   22   38 1     
   41    9   40 1     
   42    9   41 1     
   43   19   42 1     
   44   21   43 1     
   45   21   44 1     
@<TRIPOS>SUBSTRUCTURE
      1 S1             1
@<TRIPOS>SET
LONE_PAIRS      STATIC     ATOMS    <user>   **** ""
5 40 41 42 43 44
DONOR_HYDROGENS      STATIC     ATOMS    <user>   **** ""
3 39 33 34
ATOM$BLUE        STATIC     ATOMS    COLORGROUP SYSTEM
5 40 41 42 43 44
ATOM$RED        STATIC     ATOMS    COLORGROUP SYSTEM
3 39 33 34
