AV-unprocessed.smi:2574|AV-procd|sdf|10115|dock2
  -GOLD-   2272014133D 1   1.00000     0.00000
 Structure written by MMmdl.
 38 40  0  0  0  0  0  0  0  0  1 V2000
  153.2484  139.3544  158.3143 O   0  0  0  0  0  0  0  0  0  0  0  0
  152.9647  140.3915  158.9154 C   0  0  0  0  0  0  0  0  0  0  0  0
  153.6776  140.8559  160.1152 C   0  0  0  0  0  0  0  0  0  0  0  0
  154.8187  139.9936  160.6483 C   0  0  0  0  0  0  0  0  0  0  0  0
  155.2111  140.3888  161.8604 F   0  0  0  0  0  0  0  0  0  0  0  0
  154.4420  138.7175  160.7378 F   0  0  0  0  0  0  0  0  0  0  0  0
  155.8737  140.0610  159.8356 F   0  0  0  0  0  0  0  0  0  0  0  0
  153.3101  142.0126  160.7183 C   0  0  0  0  0  0  0  0  0  0  0  0
  152.2192  142.8026  160.1833 C   0  0  0  0  0  0  0  0  0  0  0  0
  151.7718  144.1010  160.7916 C   0  0  0  0  0  0  0  0  0  0  0  0
  150.5134  144.8003  160.3334 C   0  0  0  0  0  0  0  0  0  0  0  0
  151.8646  145.4140  160.0476 C   0  0  0  0  0  0  0  0  0  0  0  0
  151.5907  142.3893  159.1346 N   0  0  0  0  0  0  0  0  0  0  0  0
  151.9458  141.2080  158.5141 N   0  0  0  0  0  0  0  0  0  0  0  0
  151.1249  140.8842  157.3402 C   0  0  0  0  0  0  0  0  0  0  0  0
  150.0529  141.9592  157.0555 C   0  0  1  0  0  0  0  0  0  0  0  0
  150.6919  143.1222  156.5656 O   0  0  0  0  0  0  0  0  0  0  0  0
  149.0108  141.4404  156.0757 C   0  0  0  0  0  0  0  0  0  0  0  0
  147.6532  141.3317  156.4520 C   0  0  0  0  0  0  0  0  0  0  0  0
  146.6974  140.8566  155.5332 C   0  0  0  0  0  0  0  0  0  0  0  0
  147.0917  140.4910  154.2318 C   0  0  0  0  0  0  0  0  0  0  0  0
  148.4420  140.6032  153.8490 C   0  0  0  0  0  0  0  0  0  0  0  0
  149.3984  141.0778  154.7677 C   0  0  0  0  0  0  0  0  0  0  0  0
  153.8178  142.3674  161.6026 H   0  0  0  0  0  0  0  0  0  0  0  0
  151.9903  144.1224  161.8577 H   0  0  0  0  0  0  0  0  0  0  0  0
  149.9698  144.3749  159.4919 H   0  0  0  0  0  0  0  0  0  0  0  0
  149.8971  145.2726  161.0956 H   0  0  0  0  0  0  0  0  0  0  0  0
  152.1460  146.2961  160.6191 H   0  0  0  0  0  0  0  0  0  0  0  0
  152.2067  145.4006  159.0145 H   0  0  0  0  0  0  0  0  0  0  0  0
  151.7447  140.7208  156.4561 H   0  0  0  0  0  0  0  0  0  0  0  0
  150.6377  139.9242  157.5221 H   0  0  0  0  0  0  0  0  0  0  0  0
  149.5399  142.2348  157.9777 H   0  0  0  0  0  0  0  0  0  0  0  0
  150.0306  143.7024  156.2203 H   0  0  0  0  0  0  0  0  0  0  0  0
  147.3394  141.6136  157.4466 H   0  0  0  0  0  0  0  0  0  0  0  0
  145.6614  140.7729  155.8269 H   0  0  0  0  0  0  0  0  0  0  0  0
  146.3589  140.1263  153.5271 H   0  0  0  0  0  0  0  0  0  0  0  0
  148.7452  140.3260  152.8501 H   0  0  0  0  0  0  0  0  0  0  0  0
  150.4314  141.1641  154.4632 H   0  0  0  0  0  0  0  0  0  0  0  0
  1  2  2  0  0  0  0
  2 14  1  0  0  0  0
  2  3  1  0  0  0  0
  3  4  1  0  0  0  0
  3  8  2  0  0  0  0
  4  5  1  0  0  0  0
  4  6  1  0  0  0  0
  4  7  1  0  0  0  0
  8  9  1  0  0  0  0
  8 24  1  0  0  0  0
  9 10  1  0  0  0  0
  9 13  2  0  0  0  0
 10 12  1  0  0  0  0
 10 11  1  0  0  0  0
 10 25  1  0  0  0  0
 11 12  1  0  0  0  0
 11 26  1  0  0  0  0
 11 27  1  0  0  0  0
 12 28  1  0  0  0  0
 12 29  1  0  0  0  0
 13 14  1  0  0  0  0
 14 15  1  0  0  0  0
 15 16  1  0  0  0  0
 15 30  1  0  0  0  0
 15 31  1  0  0  0  0
 16 17  1  0  0  0  0
 16 18  1  0  0  0  0
 16 32  1  0  0  0  0
 17 33  1  0  0  0  0
 18 23  1  0  0  0  0
 18 19  2  0  0  0  0
 19 20  1  0  0  0  0
 19 34  1  0  0  0  0
 20 21  2  0  0  0  0
 20 35  1  0  0  0  0
 21 22  1  0  0  0  0
 21 36  1  0  0  0  0
 22 23  2  0  0  0  0
 22 37  1  0  0  0  0
 23 38  1  0  0  0  0
M  END
> <s_m_source_file>
AV-unprocessed.smi

> <i_m_source_file_index>
2574

> <i_lp_mmshare_version>
43012

> <i_f3d_flags>
0

> <s_epik_input>
Tz1jMWMoQyhGKShGKUYpW2NIXWMoW0NIXTJbQ0gyXVtDSDJdMilubjFbQ0gyXVtDQEhdKFtPSF0pYzNbY0hdW2NIXVtjSF1bY0hdW2NIXTM=

> <s_epik_cmdline>
J2VwaWtfcHl0aG9uJywgJy1waCcsICc3LjAnLCAnLXRuJywgJzgnLCAnLW1hJywgJzIwMCcsICctbWV0YWxfYmluZGluZycsICctaW1hZScsICc8aW5maWxlLm1hZT4nLCAnLW9tYWUnLCAnPG91dGZpbGUubWFlPic=

> <r_lp_tautomer_probability>
1

> <r_epik_Ionization_Penalty>
7.26807e-08

> <r_epik_Ionization_Penalty_Charging>
9.677e-10

> <r_epik_Ionization_Penalty_Neutral>
7.1713e-08

> <r_epik_State_Penalty>
-0

> <r_epik_Charging_Adjusted_Penalty>
9.677e-10

> <i_epik_Tot_Q>
0

> <i_epik_Tot_abs_Q>
0

> <r_epik_Metal_State_Penalty>
-0

> <b_epik_Metal_Only>
0

> <s_lp_Force_Field>
OPLS_2005

> <r_lp_Energy>
33.5512

> <b_lp_Chiralities_Consistent>
1

> <s_lp_Variant>
AV-unprocessed.smi:2574-2

> <Gold.Version>
5.8.1

> <Gold.Id.Protein>
6NUR|6NUR_protein|mol2

> <Gold.PLP.Fitness>
52.9863

> <Gold.PLP.PLP>
-47.4310

> <Gold.PLP.part.hbond>
-2.0000

> <Gold.PLP.part.metal>
0.0000

> <Gold.PLP.part.buried>
-2.6265

> <Gold.PLP.part.nonpolar>
-42.7268

> <Gold.PLP.part.repulsive>
0.0000

> <Gold.PLP.ligand.clash>
0.0500

> <Gold.PLP.ligand.torsion>
0.5236

> <Gold.PLP.Chemscore.Hbond>
2.0000

> <Gold.PLP.Chemscore.CHOScore>
0.0000

> <Gold.PLP.Chemscore.Metal>
0.0000

> <Gold.Chemscore.Hbonds>
donor molecule, donor type, donor heavy atom, donor atom, acceptor molecule, acceptor atom, score
      L1  H    17    33       P1  8028  1.00
      P1  H  7997  8010       L1     1  1.00

> <Gold.PLP.Chemscore.Internal.Correction>
0.6525

> <Gold.Rescore>
     Score         DG    S(hbond)    S(metal)    S(lipo)     H(rot)  DE(clash)    DE(int)     intcor
     17.49     -19.56       1.84        0.00     113.50       2.09       0.09       1.97       ----

> <Gold.Chemscore.Fitness>
17.4931

> <Gold.Chemscore.DG>
-19.5571

> <Gold.Chemscore.ZeroCoef>
-5.4800

> <Gold.Chemscore.Hbond>
1.8410

> <Gold.Chemscore.Metal>
0.0000

> <Gold.Chemscore.Lipo>
113.5047

> <Gold.Chemscore.Internal_Hbond>
0.0000

> <Gold.Chemscore.DEClash>
0.0897

> <Gold.Chemscore.DEInternal>
1.9742

> <Gold.Chemscore.Rot>
2.0906

> <Gold.Chemscore.Internal.Correction>
   9.000000E+99

> <Gold.Chemscore.Hbonds>
donor molecule, donor type, donor heavy atom, donor atom, acceptor molecule, acceptor atom, score
      L1  H    17    33       P1  8028  0.99
      P1  H  7997  8010       L1     1  0.25

> <Gold.Chemscore.Hbond.Weighted>
-6.1490

> <Gold.Chemscore.Metal.Weighted>
-0.0000

> <Gold.Chemscore.Lipo.Weighted>
-13.2800

> <Gold.Chemscore.Internal_Hbond.Weighted>
0.0000

> <Gold.Chemscore.DEClash.Weighted>
0.0897

> <Gold.Chemscore.DEInternal.Weighted>
1.9742

> <Gold.Chemscore.Rot.Weighted>
5.3520

> <Gold.Chemscore.Internal.Correction.Weighted>
   9.000000E+99

> <Gold.Protein.RotatedTorsions>
[ 6907 6896 6895 6894 ] final  -17.72 input  -60.11 | X-H torsion
[ 7974 7965 7964 7962 ] final   46.59 input  175.53 | X-H torsion
[ 8008 7997 7996 7995 ] final   28.24 input   59.86 | X-H torsion
[ 10167 10162 10161 10158 ] final   64.07 input  -65.29 | X-H torsion
[ 10718 10713 10712 10709 ] final   59.37 input   66.30 | X-H torsion
[ 10763 10752 10751 10750 ] final   53.85 input  -60.55 | X-H torsion
[ 11005 11000 10999 10996 ] final -172.42 input  -57.11 | X-H torsion

> <Gold.Protein.ActiveResidues>
 VAL166  LYS551  ARG553  GLY616  TRP617  ASP618  TYR619  PRO620  LYS621  CYS622 
 ASP623  PHE694  ASN695  SER759  ASP760  ASP761  ALA762  ILE779  LEU786  VAL792 
 PHE793  MET794  SER795  GLU796  ALA797  LYS798  CYS799  TRP800  GLU811  SER814 

> <Gold.Protein.RotatedAtoms>
  151.2890  135.0736  159.9197 H   0  0  0  0  0  0  0  0  0  0  0  0  # atno 6907 bound_to 6896
  152.5320  133.9951  159.7879 H   0  0  0  0  0  0  0  0  0  0  0  0  # atno 6908 bound_to 6896
  151.0218  133.5819  159.2701 H   0  0  0  0  0  0  0  0  0  0  0  0  # atno 6909 bound_to 6896
  146.0375  139.4839  142.9799 H   0  0  0  0  0  0  0  0  0  0  0  0  # atno 7974 bound_to 7965
  155.0556  140.3184  155.4677 H   0  0  0  0  0  0  0  0  0  0  0  0  # atno 8008 bound_to 7997
  156.2825  140.2138  156.5626 H   0  0  0  0  0  0  0  0  0  0  0  0  # atno 8009 bound_to 7997
  154.7174  140.0492  157.0595 H   0  0  0  0  0  0  0  0  0  0  0  0  # atno 8010 bound_to 7997
  140.1262  144.4686  150.6891 H   0  0  0  0  0  0  0  0  0  0  0  0  # atno 10167 bound_to 10162
  157.5670  130.8879  149.9204 H   0  0  0  0  0  0  0  0  0  0  0  0  # atno 10718 bound_to 10713
  152.9799  135.5765  154.4808 H   0  0  0  0  0  0  0  0  0  0  0  0  # atno 10763 bound_to 10752
  154.4357  135.2774  155.1884 H   0  0  0  0  0  0  0  0  0  0  0  0  # atno 10764 bound_to 10752
  154.3574  135.6196  153.5727 H   0  0  0  0  0  0  0  0  0  0  0  0  # atno 10765 bound_to 10752
  140.4972  134.5928  157.4975 H   0  0  0  0  0  0  0  0  0  0  0  0  # atno 11005 bound_to 11000
  145.6939  141.0156  143.1540 LP  0  0  0  0  0  0  0  0  0  0  0  0  # atno 17320 bound_to 7965
  144.7059  139.8565  143.7430 LP  0  0  0  0  0  0  0  0  0  0  0  0  # atno 17321 bound_to 7965
  140.6844  143.2342  151.5300 LP  0  0  0  0  0  0  0  0  0  0  0  0  # atno 17342 bound_to 10162
  139.5543  144.2315  152.1585 LP  0  0  0  0  0  0  0  0  0  0  0  0  # atno 17343 bound_to 10162
  156.0718  130.3684  150.0760 LP  0  0  0  0  0  0  0  0  0  0  0  0  # atno 17370 bound_to 10713
  156.8918  130.9591  151.3587 LP  0  0  0  0  0  0  0  0  0  0  0  0  # atno 17371 bound_to 10713
  139.9734  134.7255  155.9996 LP  0  0  0  0  0  0  0  0  0  0  0  0  # atno 17394 bound_to 11000
  141.1454  133.6557  156.3852 LP  0  0  0  0  0  0  0  0  0  0  0  0  # atno 17395 bound_to 11000

$$$$
