#       Name:                AV-unprocessed.smi:2068
#       Creating user name   scv26
#       Creation time:       Fri Mar 27 11:12:18 2020


#       File generated by GOLD software.
#

@<TRIPOS>MOLECULE
AV-unprocessed.smi:2068
    38    39     1
SMALL
NO_CHARGES


@<TRIPOS>ATOM
      1 ****        -4.0979   3.0962   1.4682 N.am           1 S1                 0.0000
      2 ****        -4.9704   2.1064   1.2583 C.2            1 S1                 0.0000
      3 ****        -6.0385   2.0325   1.8626 O.2            1 S1                 0.0000
      4 ****        -4.5935   1.0504   0.2174 C.3            1 S1                 0.0000
      5 ****        -3.5840   0.0947   0.7841 C.2            1 S1                 0.0000
      6 ****        -3.8386  -1.0116   1.5586 C.2            1 S1                 0.0000
      7 ****        -2.3765  -1.8489   2.0060 S.3            1 S1                 0.0000
      8 ****        -1.4609  -0.6490   1.1077 C.2            1 S1                 0.0000
      9 ****        -0.0454  -0.6981   1.0155 N.am           1 S1                 0.0000
     10 ****         0.7798   0.1567   0.3824 C.2            1 S1                 0.0000
     11 ****         0.4130   1.1675  -0.2177 O.2            1 S1                 0.0000
     12 ****         2.2729  -0.1863   0.4492 C.3            1 S1                 0.0000
     13 ****         3.0042  -0.0564  -0.9054 C.3            1 S1                 0.0000
     14 ****         2.4646  -0.9726  -1.9777 C.2            1 S1                 0.0000
     15 ****         3.4106  -1.7236  -2.5366 C.2            1 S1                 0.0000
     16 ****         4.7714  -1.4643  -1.9528 C.3            1 S1                 0.0000
     17 ****         4.5043  -0.4404  -0.8269 C.3            1 S1                 0.0000
     18 ****        -2.2218   0.2874   0.5301 N.2            1 S1                 0.0000
     19 ****        -4.3032   3.8089   2.1533 H              1 S1                 0.0000
     20 ****        -3.2325   3.1231   0.9482 H              1 S1                 0.0000
     21 ****        -5.4920   0.5159  -0.0939 H              1 S1                 0.0000
     22 ****        -4.2069   1.5448  -0.6749 H              1 S1                 0.0000
     23 ****        -4.7966  -1.3806   1.8944 H              1 S1                 0.0000
     24 ****         0.3927  -1.4793   1.4812 H              1 S1                 0.0000
     25 ****         2.7368   0.4782   1.1789 H              1 S1                 0.0000
     26 ****         2.3969  -1.1998   0.8348 H              1 S1                 0.0000
     27 ****         2.9156   0.9662  -1.2756 H              1 S1                 0.0000
     28 ****         1.4209  -0.9853  -2.2562 H              1 S1                 0.0000
     29 ****         3.2509  -2.4376  -3.3310 H              1 S1                 0.0000
     30 ****         5.2066  -2.3869  -1.5680 H              1 S1                 0.0000
     31 ****         5.4327  -1.0584  -2.7188 H              1 S1                 0.0000
     32 ****         5.1412   0.4383  -0.9341 H              1 S1                 0.0000
     33 ****         4.7430  -0.8882   0.1386 H              1 S1                 0.0000
     34 ****        -6.2797   2.7287   2.5387 LP             1 S1                 0.0000
     35 ****        -6.6661   1.2762   1.6780 LP             1 S1                 0.0000
     36 ****        -0.5587   1.4003  -0.2577 LP             1 S1                 0.0000
     37 ****         1.0869   1.7556  -0.6650 LP             1 S1                 0.0000
     38 ****        -1.8585   1.0391  -0.0203 LP             1 S1                 0.0000
@<TRIPOS>BOND
    1    1    2 am    
    2    1   19 1     
    3    1   20 1     
    4    2    3 2     
    5    2    4 1     
    6    4    5 1     
    7    4   21 1     
    8    4   22 1     
    9    5   18 1     
   10    5    6 2     
   11    6    7 1     
   12    6   23 1     
   13    7    8 1     
   14    8    9 1     
   15    8   18 2     
   16    9   10 am    
   17    9   24 1     
   18   10   11 2     
   19   10   12 1     
   20   12   13 1     
   21   12   25 1     
   22   12   26 1     
   23   13   17 1     
   24   13   14 1     
   25   13   27 1     
   26   14   15 2     
   27   14   28 1     
   28   15   16 1     
   29   15   29 1     
   30   16   17 1     
   31   16   30 1     
   32   16   31 1     
   33   17   32 1     
   34   17   33 1     
   35    3   34 1     
   36    3   35 1     
   37   11   36 1     
   38   11   37 1     
   39   18   38 1     
@<TRIPOS>SUBSTRUCTURE
      1 S1             1
@<TRIPOS>SET
LONE_PAIRS      STATIC     ATOMS    <user>   **** ""
5 34 35 36 37 38
DONOR_HYDROGENS      STATIC     ATOMS    <user>   **** ""
3 19 20 24
ATOM$BLUE        STATIC     ATOMS    COLORGROUP SYSTEM
5 34 35 36 37 38
ATOM$RED        STATIC     ATOMS    COLORGROUP SYSTEM
3 19 20 24
