AV-unprocessed.smi:1903|AV-procd|sdf|7722|dock4
  -GOLD-   22720 9463D 1   1.00000     0.00000
 Structure written by MMmdl.
 47 48  0  0  0  0  0  0  0  0  2 V2000
  152.9219  138.1654  155.4489 C   0  0  0  0  0  0  0  0  0  0  0  0
  151.9289  139.2416  155.7838 C   0  0  0  0  0  0  0  0  0  0  0  0
  152.2580  140.1815  156.6542 N   0  0  0  0  0  0  0  0  0  0  0  0
  151.1716  140.9756  156.7307 N   0  0  0  0  0  0  0  0  0  0  0  0
  151.1937  142.1286  157.6098 C   0  0  0  0  0  0  0  0  0  0  0  0
  150.1536  140.5369  155.9066 C   0  0  0  0  0  0  0  0  0  0  0  0
  148.8453  141.2538  155.8118 C   0  0  0  0  0  0  0  0  0  0  0  0
  150.6085  139.4108  155.2729 C   0  0  0  0  0  0  0  0  0  0  0  0
  149.9005  138.5382  154.2674 C   0  0  0  0  0  0  0  0  0  0  0  0
  148.7186  137.8346  154.9348 C   0  0  0  0  0  0  0  0  0  0  0  0
  148.2259  138.2973  155.9634 O   0  0  0  0  0  0  0  0  0  0  0  0
  148.2724  136.7163  154.3417 N   0  0  0  0  0  0  0  0  0  0  0  0
  147.1802  135.8862  154.8344 C   0  0  0  0  0  0  0  0  0  0  0  0
  147.2459  134.4597  154.2549 C   0  0  0  0  0  0  0  0  0  0  0  0
  146.8767  134.4134  152.8174 N   0  3  0  0  0  0  0  0  0  0  0  0
  146.8281  133.0220  152.2957 C   0  0  0  0  0  0  0  0  0  0  0  0
  146.5783  133.0020  150.7782 C   0  0  0  0  0  0  0  0  0  0  0  0
  145.2933  133.7600  150.4223 C   0  0  0  0  0  0  0  0  0  0  0  0
  145.3518  135.1817  150.9945 C   0  0  0  0  0  0  0  0  0  0  0  0
  145.6256  135.1569  152.5078 C   0  0  0  0  0  0  0  0  0  0  0  0
  153.0534  138.0787  154.3704 H   0  0  0  0  0  0  0  0  0  0  0  0
  152.5856  137.1977  155.8210 H   0  0  0  0  0  0  0  0  0  0  0  0
  153.9011  138.3667  155.8850 H   0  0  0  0  0  0  0  0  0  0  0  0
  150.3443  142.0872  158.2921 H   0  0  0  0  0  0  0  0  0  0  0  0
  151.1318  143.0414  157.0170 H   0  0  0  0  0  0  0  0  0  0  0  0
  152.1137  142.1492  158.1957 H   0  0  0  0  0  0  0  0  0  0  0  0
  148.1741  140.7659  155.1054 H   0  0  0  0  0  0  0  0  0  0  0  0
  148.9910  142.2811  155.4774 H   0  0  0  0  0  0  0  0  0  0  0  0
  148.3473  141.2806  156.7812 H   0  0  0  0  0  0  0  0  0  0  0  0
  149.5325  139.1257  153.4254 H   0  0  0  0  0  0  0  0  0  0  0  0
  150.5696  137.7911  153.8393 H   0  0  0  0  0  0  0  0  0  0  0  0
  148.7409  136.4074  153.5019 H   0  0  0  0  0  0  0  0  0  0  0  0
  147.2565  135.8698  155.9209 H   0  0  0  0  0  0  0  0  0  0  0  0
  146.2223  136.3527  154.5974 H   0  0  0  0  0  0  0  0  0  0  0  0
  148.2666  134.0917  154.3685 H   0  0  0  0  0  0  0  0  0  0  0  0
  146.6098  133.7791  154.8231 H   0  0  0  0  0  0  0  0  0  0  0  0
  147.7714  132.5159  152.5061 H   0  0  0  0  0  0  0  0  0  0  0  0
  146.0463  132.4645  152.8143 H   0  0  0  0  0  0  0  0  0  0  0  0
  147.4256  133.4543  150.2612 H   0  0  0  0  0  0  0  0  0  0  0  0
  146.5135  131.9726  150.4240 H   0  0  0  0  0  0  0  0  0  0  0  0
  145.1607  133.7927  149.3406 H   0  0  0  0  0  0  0  0  0  0  0  0
  144.4285  133.2335  150.8283 H   0  0  0  0  0  0  0  0  0  0  0  0
  146.1349  135.7485  150.4896 H   0  0  0  0  0  0  0  0  0  0  0  0
  144.4155  135.7029  150.7939 H   0  0  0  0  0  0  0  0  0  0  0  0
  144.7877  134.6947  153.0319 H   0  0  0  0  0  0  0  0  0  0  0  0
  145.6934  136.1830  152.8668 H   0  0  0  0  0  0  0  0  0  0  0  0
  147.6244  134.8725  152.3167 H   0  0  0  0  0  0  0  0  0  0  0  0
  1  2  1  0  0  0  0
  1 21  1  0  0  0  0
  1 22  1  0  0  0  0
  1 23  1  0  0  0  0
  2  8  1  0  0  0  0
  2  3  2  0  0  0  0
  3  4  1  0  0  0  0
  4  5  1  0  0  0  0
  4  6  1  0  0  0  0
  5 24  1  0  0  0  0
  5 25  1  0  0  0  0
  5 26  1  0  0  0  0
  6  7  1  0  0  0  0
  6  8  2  0  0  0  0
  7 27  1  0  0  0  0
  7 28  1  0  0  0  0
  7 29  1  0  0  0  0
  8  9  1  0  0  0  0
  9 10  1  0  0  0  0
  9 30  1  0  0  0  0
  9 31  1  0  0  0  0
 10 11  2  0  0  0  0
 10 12  1  0  0  0  0
 12 13  1  0  0  0  0
 12 32  1  0  0  0  0
 13 14  1  0  0  0  0
 13 33  1  0  0  0  0
 13 34  1  0  0  0  0
 14 15  1  0  0  0  0
 14 35  1  0  0  0  0
 14 36  1  0  0  0  0
 15 20  1  0  0  0  0
 15 16  1  0  0  0  0
 15 47  1  0  0  0  0
 16 17  1  0  0  0  0
 16 37  1  0  0  0  0
 16 38  1  0  0  0  0
 17 18  1  0  0  0  0
 17 39  1  0  0  0  0
 17 40  1  0  0  0  0
 18 19  1  0  0  0  0
 18 41  1  0  0  0  0
 18 42  1  0  0  0  0
 19 20  1  0  0  0  0
 19 43  1  0  0  0  0
 19 44  1  0  0  0  0
 20 45  1  0  0  0  0
 20 46  1  0  0  0  0
M  CHG  1  15   1
M  END
> <s_m_source_file>
AV-unprocessed.smi

> <i_m_source_file_index>
1903

> <i_lp_mmshare_version>
43012

> <i_f3d_flags>
0

> <s_epik_input>
W0NIM11jMW5uKFtDSDNdKWMoW0NIM10pYzFbQ0gyXUMoPU8pW05IXVtDSDJdW0NIMl1OMltDSDJdW0NIMl1bQ0gyXVtDSDJdW0NIMl0y

> <s_epik_cmdline>
J2VwaWtfcHl0aG9uJywgJy1waCcsICc3LjAnLCAnLXRuJywgJzgnLCAnLW1hJywgJzIwMCcsICctbWV0YWxfYmluZGluZycsICctaW1hZScsICc8aW5maWxlLm1hZT4nLCAnLW9tYWUnLCAnPG91dGZpbGUubWFlPic=

> <r_lp_tautomer_probability>
1

> <r_epik_Ionization_Penalty>
0.00456445

> <r_epik_Ionization_Penalty_Charging>
0.00240401

> <r_epik_Ionization_Penalty_Neutral>
0.00216044

> <r_epik_State_Penalty>
-0

> <r_epik_Charging_Adjusted_Penalty>
0.00240401

> <i_epik_Tot_Q>
1

> <i_epik_Tot_abs_Q>
1

> <r_epik_Metal_State_Penalty>
-0

> <b_epik_Metal_Only>
0

> <s_lp_Force_Field>
OPLS_2005

> <r_lp_Energy>
10.8117

> <b_lp_Chiralities_Consistent>
1

> <s_lp_Variant>
AV-unprocessed.smi:1903-1

> <Gold.Version>
5.8.1

> <Gold.Id.Protein>
6NUR|6NUR_protein|mol2

> <Gold.PLP.Fitness>
45.1040

> <Gold.PLP.PLP>
-34.1680

> <Gold.PLP.part.hbond>
-2.9809

> <Gold.PLP.part.metal>
0.0000

> <Gold.PLP.part.buried>
-0.3739

> <Gold.PLP.part.nonpolar>
-30.6537

> <Gold.PLP.part.repulsive>
0.0193

> <Gold.PLP.ligand.clash>
0.0000

> <Gold.PLP.ligand.torsion>
0.5764

> <Gold.PLP.Chemscore.Hbond>
4.0000

> <Gold.PLP.Chemscore.CHOScore>
0.0000

> <Gold.PLP.Chemscore.Metal>
0.0000

> <Gold.Chemscore.Hbonds>
donor molecule, donor type, donor heavy atom, donor atom, acceptor molecule, acceptor atom, score
      L1  H    12    32       P1  7948  1.00
      L1  H    15    47       P1  7948  2.00
      P1  H  7997  8008       L1     3  0.76

> <Gold.PLP.Chemscore.Internal.Correction>
0.0889

> <Gold.Rescore>
     Score         DG    S(hbond)    S(metal)    S(lipo)     H(rot)  DE(clash)    DE(int)     intcor
     17.29     -20.64       2.91        0.00      82.49       1.65       0.28       3.07       ----

> <Gold.Chemscore.Fitness>
17.2903

> <Gold.Chemscore.DG>
-20.6412

> <Gold.Chemscore.ZeroCoef>
-5.4800

> <Gold.Chemscore.Hbond>
2.9118

> <Gold.Chemscore.Metal>
0.0000

> <Gold.Chemscore.Lipo>
82.4906

> <Gold.Chemscore.Internal_Hbond>
0.0000

> <Gold.Chemscore.DEClash>
0.2795

> <Gold.Chemscore.DEInternal>
3.0714

> <Gold.Chemscore.Rot>
1.6467

> <Gold.Chemscore.Internal.Correction>
   9.000000E+99

> <Gold.Chemscore.Hbonds>
donor molecule, donor type, donor heavy atom, donor atom, acceptor molecule, acceptor atom, score
      L1  H    12    32       P1  7948  0.99
      L1  H    15    47       P1  7948  0.90
      P1  H  7997  8008       L1     3  0.14

> <Gold.Chemscore.Hbond.Weighted>
-9.7253

> <Gold.Chemscore.Metal.Weighted>
-0.0000

> <Gold.Chemscore.Lipo.Weighted>
-9.6514

> <Gold.Chemscore.Internal_Hbond.Weighted>
0.0000

> <Gold.Chemscore.DEClash.Weighted>
0.2795

> <Gold.Chemscore.DEInternal.Weighted>
3.0714

> <Gold.Chemscore.Rot.Weighted>
4.2155

> <Gold.Chemscore.Internal.Correction.Weighted>
   9.000000E+99

> <Gold.Protein.RotatedTorsions>
[ 6907 6896 6895 6894 ] final   80.77 input  -60.11 | X-H torsion
[ 7974 7965 7964 7962 ] final  -11.51 input  175.53 | X-H torsion
[ 8008 7997 7996 7995 ] final  -43.12 input   59.86 | X-H torsion
[ 10167 10162 10161 10158 ] final  130.95 input  -65.29 | X-H torsion
[ 10718 10713 10712 10709 ] final -160.51 input   66.30 | X-H torsion
[ 10763 10752 10751 10750 ] final -143.54 input  -60.55 | X-H torsion
[ 11005 11000 10999 10996 ] final  141.05 input  -57.11 | X-H torsion

> <Gold.Protein.ActiveResidues>
 VAL166  LYS551  ARG553  GLY616  TRP617  ASP618  TYR619  PRO620  LYS621  CYS622 
 ASP623  PHE694  ASN695  SER759  ASP760  ASP761  ALA762  ILE779  LEU786  VAL792 
 PHE793  MET794  SER795  GLU796  ALA797  LYS798  CYS799  TRP800  GLU811  SER814 

> <Gold.Protein.RotatedAtoms>
  152.5246  134.3307  159.9181 H   0  0  0  0  0  0  0  0  0  0  0  0  # atno 6907 bound_to 6896
  151.3256  133.4015  159.2666 H   0  0  0  0  0  0  0  0  0  0  0  0  # atno 6908 bound_to 6896
  150.9923  134.9272  159.7964 H   0  0  0  0  0  0  0  0  0  0  0  0  # atno 6909 bound_to 6896
  146.2185  140.2922  142.8369 H   0  0  0  0  0  0  0  0  0  0  0  0  # atno 7974 bound_to 7965
  154.3997  140.1456  156.3467 H   0  0  0  0  0  0  0  0  0  0  0  0  # atno 8008 bound_to 7997
  155.8306  140.3466  155.5549 H   0  0  0  0  0  0  0  0  0  0  0  0  # atno 8009 bound_to 7997
  155.8192  140.0895  157.1849 H   0  0  0  0  0  0  0  0  0  0  0  0  # atno 8010 bound_to 7997
  139.5406  144.6726  151.4638 H   0  0  0  0  0  0  0  0  0  0  0  0  # atno 10167 bound_to 10162
  156.5832  130.8738  151.2870 H   0  0  0  0  0  0  0  0  0  0  0  0  # atno 10718 bound_to 10713
  154.8465  135.3465  154.6204 H   0  0  0  0  0  0  0  0  0  0  0  0  # atno 10763 bound_to 10752
  153.6813  135.6980  153.5122 H   0  0  0  0  0  0  0  0  0  0  0  0  # atno 10764 bound_to 10752
  153.2666  135.4306  155.0903 H   0  0  0  0  0  0  0  0  0  0  0  0  # atno 10765 bound_to 10752
  140.0372  134.9323  157.0775 H   0  0  0  0  0  0  0  0  0  0  0  0  # atno 11005 bound_to 11000
  144.9118  140.7766  143.5802 LP  0  0  0  0  0  0  0  0  0  0  0  0  # atno 17320 bound_to 7965
  145.2853  139.1903  143.4769 LP  0  0  0  0  0  0  0  0  0  0  0  0  # atno 17321 bound_to 7965
  140.6634  143.8450  150.6914 LP  0  0  0  0  0  0  0  0  0  0  0  0  # atno 17342 bound_to 10162
  140.1852  143.4082  152.1904 LP  0  0  0  0  0  0  0  0  0  0  0  0  # atno 17343 bound_to 10162
  157.7322  130.9711  150.1915 LP  0  0  0  0  0  0  0  0  0  0  0  0  # atno 17370 bound_to 10713
  156.2614  130.3711  149.8127 LP  0  0  0  0  0  0  0  0  0  0  0  0  # atno 17371 bound_to 10713
  140.4128  134.1963  155.7163 LP  0  0  0  0  0  0  0  0  0  0  0  0  # atno 17394 bound_to 11000
  141.1864  133.8304  157.1071 LP  0  0  0  0  0  0  0  0  0  0  0  0  # atno 17395 bound_to 11000

$$$$
