#       Name:                AV-unprocessed.smi:38
#       Creating user name   scv26
#       Creation time:       Thu Mar 26 16:18:03 2020


#       File generated by GOLD software.
#

@<TRIPOS>MOLECULE
AV-unprocessed.smi:38
    38    39     1
SMALL
NO_CHARGES


@<TRIPOS>ATOM
      1 ****        -2.4049   4.5001   1.0679 O.2            1 S1                 0.0000
      2 ****        -2.0156   3.3910   0.7073 C.2            1 S1                 0.0000
      3 ****        -2.8699   2.5433  -0.0041 N.am           1 S1                 0.0000
      4 ****        -2.5479   1.2650  -0.4648 C.2            1 S1                 0.0000
      5 ****        -3.3901   0.6045  -1.0711 O.2            1 S1                 0.0000
      6 ****        -1.2445   0.7918  -0.1912 N.am           1 S1                 0.0000
      7 ****        -0.8195  -0.5782  -0.6682 C.3            1 S1                 0.0000
      8 ****        -0.7744  -1.5747   0.4948 C.3            1 S1                 0.0000
      9 ****         0.7164  -1.7595   0.7104 C.3            1 S1                 0.0000
     10 ****         0.9965  -3.0567   1.1955 O.3            1 S1                 0.0000
     11 ****         1.2854  -1.5241  -0.6916 C.3            1 S1                 0.0000
     12 ****         2.7555  -1.0779  -0.6909 C.3            1 S1                 0.0000
     13 ****         3.3208  -1.2716  -1.9695 O.3            1 S1                 0.0000
     14 ****         0.4655  -0.4777  -1.2027 O.3            1 S1                 0.0000
     15 ****        -0.3627   1.5997   0.5140 C.2            1 S1                 0.0000
     16 ****        -0.6884   2.8366   0.9574 C.2            1 S1                 0.0000
     17 ****         0.2205   3.5595   1.6336 F              1 S1                 0.0000
     18 ****        -3.7999   2.8839  -0.1999 H              1 S1                 0.0000
     19 ****        -1.5002  -0.8861  -1.4627 H              1 S1                 0.0000
     20 ****         1.0904  -1.0116   1.4105 H              1 S1                 0.0000
     21 ****         1.1397  -2.4184  -1.3011 H              1 S1                 0.0000
     22 ****        -1.3036  -1.2097   1.3761 H              1 S1                 0.0000
     23 ****        -1.2436  -2.5026   0.1640 H              1 S1                 0.0000
     24 ****         1.9331  -3.1533   1.2773 H              1 S1                 0.0000
     25 ****         2.8540  -0.0361  -0.3842 H              1 S1                 0.0000
     26 ****         3.3308  -1.6788   0.0141 H              1 S1                 0.0000
     27 ****         4.2240  -0.9947  -1.9448 H              1 S1                 0.0000
     28 ****         0.6326   1.2367   0.7231 H              1 S1                 0.0000
     29 ****        -1.7919   5.1038   1.5776 LP             1 S1                 0.0000
     30 ****        -3.3345   4.7984   0.8515 LP             1 S1                 0.0000
     31 ****        -4.3014   0.9834  -1.2324 LP             1 S1                 0.0000
     32 ****        -3.1635  -0.3113  -1.4026 LP             1 S1                 0.0000
     33 ****         0.6423  -3.7390   0.5560 LP             1 S1                 0.0000
     34 ****         0.5658  -3.1822   2.0892 LP             1 S1                 0.0000
     35 ****         2.8206  -0.7295  -2.6447 LP             1 S1                 0.0000
     36 ****         3.2717  -2.2394  -2.2165 LP             1 S1                 0.0000
     37 ****         0.8608   0.4060  -0.9521 LP             1 S1                 0.0000
     38 ****         0.4171  -0.5507  -2.1988 LP             1 S1                 0.0000
@<TRIPOS>BOND
    1    1    2 2     
    2    2   16 1     
    3    2    3 1     
    4    3   18 1     
    5    3    4 1     
    6    4    5 2     
    7    4    6 1     
    8    6    7 1     
    9    6   15 1     
   10    7   19 1     
   11    7   14 1     
   12    7    8 1     
   13    8    9 1     
   14    8   22 1     
   15    8   23 1     
   16    9   20 1     
   17    9   10 1     
   18    9   11 1     
   19   10   24 1     
   20   11   21 1     
   21   11   12 1     
   22   11   14 1     
   23   12   13 1     
   24   12   25 1     
   25   12   26 1     
   26   13   27 1     
   27   15   16 2     
   28   15   28 1     
   29   16   17 1     
   30    1   29 1     
   31    1   30 1     
   32    5   31 1     
   33    5   32 1     
   34   10   33 1     
   35   10   34 1     
   36   13   35 1     
   37   13   36 1     
   38   14   37 1     
   39   14   38 1     
@<TRIPOS>SUBSTRUCTURE
      1 S1             1
@<TRIPOS>SET
LONE_PAIRS      STATIC     ATOMS    <user>   **** ""
10 29 30 31 32 33 34 35 36 37 38
DONOR_HYDROGENS      STATIC     ATOMS    <user>   **** ""
3 18 24 27
ATOM$BLUE        STATIC     ATOMS    COLORGROUP SYSTEM
10 29 30 31 32 33 34 35 36 37 38
ATOM$RED        STATIC     ATOMS    COLORGROUP SYSTEM
3 18 24 27
