AV-unprocessed.smi:1622|AV-procd|sdf|6500|dock4
  -GOLD-   22720 7163D 1   1.00000     0.00000
 Structure written by MMmdl.
 40 41  0  0  0  0  0  0  0  0  3 V2000
  146.1612  132.5469  155.0257 C   0  0  0  0  0  0  0  0  0  0  0  0
  146.1659  134.0833  154.9932 C   0  0  0  0  0  0  0  0  0  0  0  0
  147.3151  134.7119  154.1584 C   0  0  1  0  0  0  0  0  0  0  0  0
  148.6968  134.1028  154.5034 C   0  0  0  0  0  0  0  0  0  0  0  0
  149.7550  135.1052  154.4751 N   0  0  0  0  0  0  0  0  0  0  0  0
  150.4323  135.5489  155.5417 C   0  0  0  0  0  0  0  0  0  0  0  0
  150.1831  135.0941  156.6604 O   0  0  0  0  0  0  0  0  0  0  0  0
  151.3529  136.4928  155.2439 N   0  5  0  0  0  0  0  0  0  0  0  0
  150.9608  137.7399  154.9347 C   0  0  0  0  0  0  0  0  0  0  0  0
  151.8208  138.7656  154.8572 N   0  0  0  0  0  0  0  0  0  0  0  0
  151.2089  139.9641  154.5198 N   0  0  0  0  0  0  0  0  0  0  0  0
  149.8936  139.8241  154.3381 C   0  0  0  0  0  0  0  0  0  0  0  0
  149.0069  140.9629  153.9674 C   0  0  0  0  0  0  0  0  0  0  0  0
  149.2955  138.1895  154.5675 S   0  0  0  0  0  0  0  0  0  0  0  0
  147.0383  134.6392  152.6927 N   0  3  0  0  0  0  0  0  0  0  0  0
  146.9731  133.2731  152.1262 C   0  0  0  0  0  0  0  0  0  0  0  0
  146.1808  133.3780  150.8185 C   0  0  0  0  0  0  0  0  0  0  0  0
  145.5042  134.7502  150.8545 C   0  0  0  0  0  0  0  0  0  0  0  0
  145.7952  135.3050  152.2487 C   0  0  0  0  0  0  0  0  0  0  0  0
  145.3097  132.1789  155.5980 H   0  0  0  0  0  0  0  0  0  0  0  0
  147.0622  132.1534  155.4964 H   0  0  0  0  0  0  0  0  0  0  0  0
  146.0910  132.1238  154.0237 H   0  0  0  0  0  0  0  0  0  0  0  0
  145.2001  134.4333  154.6294 H   0  0  0  0  0  0  0  0  0  0  0  0
  146.2155  134.4498  156.0188 H   0  0  0  0  0  0  0  0  0  0  0  0
  147.3557  135.7705  154.4210 H   0  0  0  0  0  0  0  0  0  0  0  0
  148.6603  133.6229  155.4829 H   0  0  0  0  0  0  0  0  0  0  0  0
  148.9727  133.3303  153.7858 H   0  0  0  0  0  0  0  0  0  0  0  0
  149.9930  135.5011  153.5775 H   0  0  0  0  0  0  0  0  0  0  0  0
  149.2688  141.3328  152.9760 H   0  0  0  0  0  0  0  0  0  0  0  0
  149.1178  141.7742  154.6871 H   0  0  0  0  0  0  0  0  0  0  0  0
  147.9643  140.6450  153.9581 H   0  0  0  0  0  0  0  0  0  0  0  0
  147.9677  132.8572  151.9622 H   0  0  0  0  0  0  0  0  0  0  0  0
  146.4427  132.6159  152.8173 H   0  0  0  0  0  0  0  0  0  0  0  0
  146.8441  133.3080  149.9554 H   0  0  0  0  0  0  0  0  0  0  0  0
  145.4522  132.5706  150.7377 H   0  0  0  0  0  0  0  0  0  0  0  0
  145.9482  135.3976  150.0972 H   0  0  0  0  0  0  0  0  0  0  0  0
  144.4339  134.6934  150.6532 H   0  0  0  0  0  0  0  0  0  0  0  0
  144.9799  135.0441  152.9255 H   0  0  0  0  0  0  0  0  0  0  0  0
  145.8916  136.3911  152.2353 H   0  0  0  0  0  0  0  0  0  0  0  0
  147.7968  135.1096  152.2198 H   0  0  0  0  0  0  0  0  0  0  0  0
  1  2  1  0  0  0  0
  1 20  1  0  0  0  0
  1 21  1  0  0  0  0
  1 22  1  0  0  0  0
  2  3  1  0  0  0  0
  2 23  1  0  0  0  0
  2 24  1  0  0  0  0
  3  4  1  0  0  0  0
  3 15  1  0  0  0  0
  3 25  1  0  0  0  0
  4  5  1  0  0  0  0
  4 26  1  0  0  0  0
  4 27  1  0  0  0  0
  5  6  1  0  0  0  0
  5 28  1  0  0  0  0
  6  7  2  0  0  0  0
  6  8  1  0  0  0  0
  8  9  1  0  0  0  0
  9 14  1  0  0  0  0
  9 10  2  0  0  0  0
 10 11  1  0  0  0  0
 11 12  2  0  0  0  0
 12 13  1  0  0  0  0
 12 14  1  0  0  0  0
 13 29  1  0  0  0  0
 13 30  1  0  0  0  0
 13 31  1  0  0  0  0
 15 19  1  0  0  0  0
 15 16  1  0  0  0  0
 15 40  1  0  0  0  0
 16 17  1  0  0  0  0
 16 32  1  0  0  0  0
 16 33  1  0  0  0  0
 17 18  1  0  0  0  0
 17 34  1  0  0  0  0
 17 35  1  0  0  0  0
 18 19  1  0  0  0  0
 18 36  1  0  0  0  0
 18 37  1  0  0  0  0
 19 38  1  0  0  0  0
 19 39  1  0  0  0  0
M  CHG  1   8  -1
M  CHG  1  15   1
M  END
> <s_m_source_file>
AV-unprocessed.smi

> <i_m_source_file_index>
1622

> <i_lp_mmshare_version>
43012

> <i_f3d_flags>
0

> <s_epik_input>
W0NIMl0xW0NIMl1bQ0gyXVtDSDJdTjFbQ0BIXShbQ0gyXVtDSDNdKVtDSDJdW05IXUMoPU8pW05IXWMybm5jKHMyKVtDSDNd

> <s_epik_cmdline>
J2VwaWtfcHl0aG9uJywgJy1waCcsICc3LjAnLCAnLXRuJywgJzgnLCAnLW1hJywgJzIwMCcsICctbWV0YWxfYmluZGluZycsICctaW1hZScsICc8aW5maWxlLm1hZT4nLCAnLW9tYWUnLCAnPG91dGZpbGUubWFlPic=

> <r_lp_tautomer_probability>
1

> <r_epik_Ionization_Penalty>
4.34497

> <r_epik_Ionization_Penalty_Charging>
4.23453

> <r_epik_Ionization_Penalty_Neutral>
0.110433

> <r_epik_State_Penalty>
4.23293

> <r_epik_Charging_Adjusted_Penalty>
8.46746

> <i_epik_Tot_Q>
0

> <i_epik_Tot_abs_Q>
2

> <r_epik_Metal_State_Penalty>
0.701092

> <b_epik_Metal_Only>
1

> <s_lp_Force_Field>
OPLS_2005

> <r_lp_Energy>
26.9801

> <b_lp_Chiralities_Consistent>
1

> <s_lp_Variant>
AV-unprocessed.smi:1622-4

> <Gold.Version>
5.8.1

> <Gold.Id.Protein>
6NUR|6NUR_protein|mol2

> <Gold.PLP.Fitness>
42.9643

> <Gold.PLP.PLP>
-29.7501

> <Gold.PLP.part.hbond>
-4.0607

> <Gold.PLP.part.metal>
0.0000

> <Gold.PLP.part.buried>
-5.5571

> <Gold.PLP.part.nonpolar>
-21.3451

> <Gold.PLP.part.repulsive>
0.2971

> <Gold.PLP.ligand.clash>
0.0000

> <Gold.PLP.ligand.torsion>
1.3277

> <Gold.PLP.Chemscore.Hbond>
5.2379

> <Gold.PLP.Chemscore.CHOScore>
0.0000

> <Gold.PLP.Chemscore.Metal>
0.0000

> <Gold.Chemscore.Hbonds>
donor molecule, donor type, donor heavy atom, donor atom, acceptor molecule, acceptor atom, score
      L1  H     5    28       P1  7948  0.23
      L1  H    15    40       P1  7948  2.00
      P1  H  7989  7998       L1    11  0.75
      P1  H 10752 10765       L1     8  2.00

> <Gold.PLP.Chemscore.Internal.Correction>
0.1559

> <Gold.Rescore>
     Score         DG    S(hbond)    S(metal)    S(lipo)     H(rot)  DE(clash)    DE(int)     intcor
     14.87     -16.32       2.88        0.00      48.26       1.73       0.02       1.43       ----

> <Gold.Chemscore.Fitness>
14.8707

> <Gold.Chemscore.DG>
-16.3210

> <Gold.Chemscore.ZeroCoef>
-5.4800

> <Gold.Chemscore.Hbond>
2.8848

> <Gold.Chemscore.Metal>
0.0000

> <Gold.Chemscore.Lipo>
48.2633

> <Gold.Chemscore.Internal_Hbond>
0.0000

> <Gold.Chemscore.DEClash>
0.0170

> <Gold.Chemscore.DEInternal>
1.4333

> <Gold.Chemscore.Rot>
1.7348

> <Gold.Chemscore.Internal.Correction>
   9.000000E+99

> <Gold.Chemscore.Hbonds>
donor molecule, donor type, donor heavy atom, donor atom, acceptor molecule, acceptor atom, score
      L1  H    15    40       P1  7948  0.92
      P1  H  7989  7998       L1    11  0.40
      P1  H 10752 10765       L1     8  0.65

> <Gold.Chemscore.Hbond.Weighted>
-9.6353

> <Gold.Chemscore.Metal.Weighted>
-0.0000

> <Gold.Chemscore.Lipo.Weighted>
-5.6468

> <Gold.Chemscore.Internal_Hbond.Weighted>
0.0000

> <Gold.Chemscore.DEClash.Weighted>
0.0170

> <Gold.Chemscore.DEInternal.Weighted>
1.4333

> <Gold.Chemscore.Rot.Weighted>
4.4411

> <Gold.Chemscore.Internal.Correction.Weighted>
   9.000000E+99

> <Gold.Protein.RotatedTorsions>
[ 6907 6896 6895 6894 ] final  135.68 input  -60.11 | X-H torsion
[ 7974 7965 7964 7962 ] final   14.46 input  175.53 | X-H torsion
[ 8008 7997 7996 7995 ] final  -70.06 input   59.86 | X-H torsion
[ 10167 10162 10161 10158 ] final  151.71 input  -65.29 | X-H torsion
[ 10718 10713 10712 10709 ] final   76.04 input   66.30 | X-H torsion
[ 10763 10752 10751 10750 ] final -176.11 input  -60.55 | X-H torsion
[ 11005 11000 10999 10996 ] final   61.52 input  -57.11 | X-H torsion

> <Gold.Protein.ActiveResidues>
 VAL166  LYS551  ARG553  GLY616  TRP617  ASP618  TYR619  PRO620  LYS621  CYS622 
 ASP623  PHE694  ASN695  SER759  ASP760  ASP761  ALA762  ILE779  LEU786  VAL792 
 PHE793  MET794  SER795  GLU796  ALA797  LYS798  CYS799  TRP800  GLU811  SER814 

> <Gold.Protein.RotatedAtoms>
  152.2978  133.5624  159.5598 H   0  0  0  0  0  0  0  0  0  0  0  0  # atno 6907 bound_to 6896
  150.7263  134.0336  159.3750 H   0  0  0  0  0  0  0  0  0  0  0  0  # atno 6908 bound_to 6896
  151.8238  135.0643  160.0479 H   0  0  0  0  0  0  0  0  0  0  0  0  # atno 6909 bound_to 6896
  146.2304  139.9038  142.8535 H   0  0  0  0  0  0  0  0  0  0  0  0  # atno 7974 bound_to 7965
  154.4984  140.0841  156.7746 H   0  0  0  0  0  0  0  0  0  0  0  0  # atno 8008 bound_to 7997
  155.4061  140.3439  155.4242 H   0  0  0  0  0  0  0  0  0  0  0  0  # atno 8009 bound_to 7997
  156.1425  140.1533  156.8887 H   0  0  0  0  0  0  0  0  0  0  0  0  # atno 8010 bound_to 7997
  139.4838  144.5418  151.7551 H   0  0  0  0  0  0  0  0  0  0  0  0  # atno 10167 bound_to 10162
  157.6658  130.9755  150.1439 H   0  0  0  0  0  0  0  0  0  0  0  0  # atno 10718 bound_to 10713
  154.5763  135.2832  155.0778 H   0  0  0  0  0  0  0  0  0  0  0  0  # atno 10763 bound_to 10752
  154.2131  135.6404  153.5125 H   0  0  0  0  0  0  0  0  0  0  0  0  # atno 10764 bound_to 10752
  153.0073  135.5496  154.6402 H   0  0  0  0  0  0  0  0  0  0  0  0  # atno 10765 bound_to 10752
  140.0155  134.6231  155.9716 H   0  0  0  0  0  0  0  0  0  0  0  0  # atno 11005 bound_to 11000
  145.2296  140.9968  143.3998 LP  0  0  0  0  0  0  0  0  0  0  0  0  # atno 17320 bound_to 7965
  144.9541  139.4050  143.6388 LP  0  0  0  0  0  0  0  0  0  0  0  0  # atno 17321 bound_to 7965
  140.4959  144.1241  150.5960 LP  0  0  0  0  0  0  0  0  0  0  0  0  # atno 17342 bound_to 10162
  140.4118  143.2653  151.9823 LP  0  0  0  0  0  0  0  0  0  0  0  0  # atno 17343 bound_to 10162
  156.2255  130.3677  149.8506 LP  0  0  0  0  0  0  0  0  0  0  0  0  # atno 17370 bound_to 10713
  156.6347  130.8680  151.3502 LP  0  0  0  0  0  0  0  0  0  0  0  0  # atno 17371 bound_to 10713
  141.1740  133.6539  156.4758 LP  0  0  0  0  0  0  0  0  0  0  0  0  # atno 17394 bound_to 11000
  140.4478  134.6956  157.5024 LP  0  0  0  0  0  0  0  0  0  0  0  0  # atno 17395 bound_to 11000

$$$$
