AV-unprocessed.smi:2083|AV-procd|sdf|8497|dock10
  -GOLD-   2272011203D 1   1.00000     0.00000
 Structure written by MMmdl.
 45 46  0  0  0  0  0  0  0  0  2 V2000
  152.8643  143.8208  159.6191 C   0  0  0  0  0  0  0  0  0  0  0  0
  152.1196  143.0330  158.5966 C   0  0  0  0  0  0  0  0  0  0  0  0
  151.2232  143.3813  157.6257 C   0  0  0  0  0  0  0  0  0  0  0  0
  150.9087  142.1364  157.0193 C   0  0  0  0  0  0  0  0  0  0  0  0
  149.9884  142.0641  155.9428 N   0  0  0  0  0  0  0  0  0  0  0  0
  149.6344  140.9749  155.2398 C   0  0  0  0  0  0  0  0  0  0  0  0
  150.0684  139.8379  155.4256 O   0  0  0  0  0  0  0  0  0  0  0  0
  148.7367  141.2783  154.2903 N   0  0  0  0  0  0  0  0  0  0  0  0
  148.1118  140.3244  153.3764 C   0  0  0  0  0  0  0  0  0  0  0  0
  147.4291  139.1385  154.1131 C   0  0  1  0  0  0  0  0  0  0  0  0
  146.2082  139.6274  154.9241 C   0  0  0  0  0  0  0  0  0  0  0  0
  147.0131  138.0095  153.2154 N   0  3  2  0  0  0  0  0  0  0  0  0
  146.4213  138.5038  151.9390 C   0  0  0  0  0  0  0  0  0  0  0  0
  146.1933  137.3606  150.9398 C   0  0  0  0  0  0  0  0  0  0  0  0
  145.2837  136.2883  151.5451 C   0  0  0  0  0  0  0  0  0  0  0  0
  145.8778  135.7869  152.8691 C   0  0  2  0  0  0  0  0  0  0  0  0
  144.9794  134.7234  153.5167 C   0  0  0  0  0  0  0  0  0  0  0  0
  146.1395  136.9658  153.8305 C   0  0  0  0  0  0  0  0  0  0  0  0
  151.5563  141.1199  157.5678 N   0  0  0  0  0  0  0  0  0  0  0  0
  152.3354  141.6895  158.5821 O   0  0  0  0  0  0  0  0  0  0  0  0
  152.8088  144.8882  159.4045 H   0  0  0  0  0  0  0  0  0  0  0  0
  153.9161  143.5348  159.6389 H   0  0  0  0  0  0  0  0  0  0  0  0
  152.4486  143.6535  160.6127 H   0  0  0  0  0  0  0  0  0  0  0  0
  150.8530  144.3685  157.3921 H   0  0  0  0  0  0  0  0  0  0  0  0
  149.5487  142.9352  155.6855 H   0  0  0  0  0  0  0  0  0  0  0  0
  148.4427  142.2409  154.2102 H   0  0  0  0  0  0  0  0  0  0  0  0
  147.3992  140.8273  152.7200 H   0  0  0  0  0  0  0  0  0  0  0  0
  148.9215  139.9656  152.7413 H   0  0  0  0  0  0  0  0  0  0  0  0
  148.1675  138.7444  154.8136 H   0  0  0  0  0  0  0  0  0  0  0  0
  146.4899  140.3680  155.6720 H   0  0  0  0  0  0  0  0  0  0  0  0
  145.7153  138.8235  155.4680 H   0  0  0  0  0  0  0  0  0  0  0  0
  145.4634  140.0849  154.2718 H   0  0  0  0  0  0  0  0  0  0  0  0
  145.4753  139.0053  152.1491 H   0  0  0  0  0  0  0  0  0  0  0  0
  147.0654  139.2465  151.4710 H   0  0  0  0  0  0  0  0  0  0  0  0
  145.7488  137.7499  150.0233 H   0  0  0  0  0  0  0  0  0  0  0  0
  147.1503  136.9199  150.6576 H   0  0  0  0  0  0  0  0  0  0  0  0
  144.2879  136.7013  151.7136 H   0  0  0  0  0  0  0  0  0  0  0  0
  145.1655  135.4614  150.8438 H   0  0  0  0  0  0  0  0  0  0  0  0
  146.8368  135.3148  152.6495 H   0  0  0  0  0  0  0  0  0  0  0  0
  143.9969  135.1286  153.7614 H   0  0  0  0  0  0  0  0  0  0  0  0
  145.4209  134.3424  154.4379 H   0  0  0  0  0  0  0  0  0  0  0  0
  144.8314  133.8745  152.8485 H   0  0  0  0  0  0  0  0  0  0  0  0
  146.6125  136.5483  154.7186 H   0  0  0  0  0  0  0  0  0  0  0  0
  145.1973  137.4183  154.1442 H   0  0  0  0  0  0  0  0  0  0  0  0
  147.8673  137.5287  152.9717 H   0  0  0  0  0  0  0  0  0  0  0  0
  1  2  1  0  0  0  0
  1 21  1  0  0  0  0
  1 22  1  0  0  0  0
  1 23  1  0  0  0  0
  2 20  1  0  0  0  0
  2  3  2  0  0  0  0
  3  4  1  0  0  0  0
  3 24  1  0  0  0  0
  4  5  1  0  0  0  0
  4 19  2  0  0  0  0
  5  6  1  0  0  0  0
  5 25  1  0  0  0  0
  6  7  2  0  0  0  0
  6  8  1  0  0  0  0
  8  9  1  0  0  0  0
  8 26  1  0  0  0  0
  9 10  1  0  0  0  0
  9 27  1  0  0  0  0
  9 28  1  0  0  0  0
 10 11  1  0  0  0  0
 10 12  1  0  0  0  0
 10 29  1  0  0  0  0
 11 30  1  0  0  0  0
 11 31  1  0  0  0  0
 11 32  1  0  0  0  0
 12 18  1  0  0  0  0
 12 13  1  0  0  0  0
 12 45  1  0  0  0  0
 13 14  1  0  0  0  0
 13 33  1  0  0  0  0
 13 34  1  0  0  0  0
 14 15  1  0  0  0  0
 14 35  1  0  0  0  0
 14 36  1  0  0  0  0
 15 16  1  0  0  0  0
 15 37  1  0  0  0  0
 15 38  1  0  0  0  0
 16 17  1  0  0  0  0
 16 18  1  0  0  0  0
 16 39  1  0  0  0  0
 17 40  1  0  0  0  0
 17 41  1  0  0  0  0
 17 42  1  0  0  0  0
 18 43  1  0  0  0  0
 18 44  1  0  0  0  0
 19 20  1  0  0  0  0
M  CHG  1  12   1
M  END
> <s_m_source_file>
AV-unprocessed.smi

> <i_m_source_file_index>
2083

> <i_lp_mmshare_version>
43012

> <i_f3d_flags>
0

> <s_epik_input>
W0NIM11jMVtjSF1jKG5vMSlbTkhdQyg9TylbTkhdW0NIMl1bQ0BIXShbQ0gzXSlOMltDSDJdW0NIMl1bQ0gyXVtDQEBIXShbQ0gzXSlbQ0gyXTI=

> <s_epik_cmdline>
J2VwaWtfcHl0aG9uJywgJy1waCcsICc3LjAnLCAnLXRuJywgJzgnLCAnLW1hJywgJzIwMCcsICctbWV0YWxfYmluZGluZycsICctaW1hZScsICc8aW5maWxlLm1hZT4nLCAnLW9tYWUnLCAnPG91dGZpbGUubWFlPic=

> <r_epik_Ionization_Penalty>
0.00216453

> <r_epik_Ionization_Penalty_Charging>
0.00212879

> <r_epik_Ionization_Penalty_Neutral>
3.57418e-05

> <r_epik_State_Penalty>
0.00146033

> <r_epik_Charging_Adjusted_Penalty>
0.00358912

> <i_epik_Tot_Q>
1

> <i_epik_Tot_abs_Q>
1

> <r_epik_Metal_State_Penalty>
0.0215827

> <b_epik_Metal_Only>
0

> <s_lp_Force_Field>
OPLS_2005

> <r_lp_Energy>
20.5585

> <b_lp_Chiralities_Consistent>
1

> <s_lp_Variant>
AV-unprocessed.smi:2083-8

> <Gold.Version>
5.8.1

> <Gold.Id.Protein>
6NUR|6NUR_protein|mol2

> <Gold.PLP.Fitness>
37.0533

> <Gold.PLP.PLP>
-28.7239

> <Gold.PLP.part.hbond>
-2.0000

> <Gold.PLP.part.metal>
0.0000

> <Gold.PLP.part.buried>
3.0181

> <Gold.PLP.part.nonpolar>
-30.6036

> <Gold.PLP.part.repulsive>
0.3818

> <Gold.PLP.ligand.clash>
0.0000

> <Gold.PLP.ligand.torsion>
0.3635

> <Gold.PLP.Chemscore.Hbond>
3.0000

> <Gold.PLP.Chemscore.CHOScore>
0.0000

> <Gold.PLP.Chemscore.Metal>
0.0000

> <Gold.Chemscore.Hbonds>
donor molecule, donor type, donor heavy atom, donor atom, acceptor molecule, acceptor atom, score
      L1  H     5    25       P1  8028  1.00
      L1  H    12    45       P1  7948  2.00

> <Gold.PLP.Chemscore.Internal.Correction>
0.0563

> <Gold.Rescore>
     Score         DG    S(hbond)    S(metal)    S(lipo)     H(rot)  DE(clash)    DE(int)     intcor
     13.56     -18.03       1.97        0.00      84.89       1.55       2.85       1.62       ----

> <Gold.Chemscore.Fitness>
13.5628

> <Gold.Chemscore.DG>
-18.0289

> <Gold.Chemscore.ZeroCoef>
-5.4800

> <Gold.Chemscore.Hbond>
1.9694

> <Gold.Chemscore.Metal>
0.0000

> <Gold.Chemscore.Lipo>
84.8907

> <Gold.Chemscore.Internal_Hbond>
0.0000

> <Gold.Chemscore.DEClash>
2.8481

> <Gold.Chemscore.DEInternal>
1.6180

> <Gold.Chemscore.Rot>
1.5474

> <Gold.Chemscore.Internal.Correction>
   9.000000E+99

> <Gold.Chemscore.Hbonds>
donor molecule, donor type, donor heavy atom, donor atom, acceptor molecule, acceptor atom, score
      L1  H     5    25       P1  8028  1.00
      L1  H    12    45       P1  7948  0.92

> <Gold.Chemscore.Hbond.Weighted>
-6.5779

> <Gold.Chemscore.Metal.Weighted>
-0.0000

> <Gold.Chemscore.Lipo.Weighted>
-9.9322

> <Gold.Chemscore.Internal_Hbond.Weighted>
0.0000

> <Gold.Chemscore.DEClash.Weighted>
2.8481

> <Gold.Chemscore.DEInternal.Weighted>
1.6180

> <Gold.Chemscore.Rot.Weighted>
3.9612

> <Gold.Chemscore.Internal.Correction.Weighted>
   9.000000E+99

> <Gold.Protein.RotatedTorsions>
[ 6907 6896 6895 6894 ] final   32.55 input  -60.11 | X-H torsion
[ 7974 7965 7964 7962 ] final  165.66 input  175.53 | X-H torsion
[ 8008 7997 7996 7995 ] final   10.79 input   59.86 | X-H torsion
[ 10167 10162 10161 10158 ] final  167.56 input  -65.29 | X-H torsion
[ 10718 10713 10712 10709 ] final   14.81 input   66.30 | X-H torsion
[ 10763 10752 10751 10750 ] final  -70.64 input  -60.55 | X-H torsion
[ 11005 11000 10999 10996 ] final   60.22 input  -57.11 | X-H torsion

> <Gold.Protein.ActiveResidues>
 VAL166  LYS551  ARG553  GLY616  TRP617  ASP618  TYR619  PRO620  LYS621  CYS622 
 ASP623  PHE694  ASN695  SER759  ASP760  ASP761  ALA762  ILE779  LEU786  VAL792 
 PHE793  MET794  SER795  GLU796  ALA797  LYS798  CYS799  TRP800  GLU811  SER814 

> <Gold.Protein.RotatedAtoms>
  152.0761  134.9502  160.0573 H   0  0  0  0  0  0  0  0  0  0  0  0  # atno 6907 bound_to 6896
  152.0809  133.4147  159.4509 H   0  0  0  0  0  0  0  0  0  0  0  0  # atno 6908 bound_to 6896
  150.6836  134.2903  159.4707 H   0  0  0  0  0  0  0  0  0  0  0  0  # atno 6909 bound_to 6896
  144.7493  139.8503  143.6371 H   0  0  0  0  0  0  0  0  0  0  0  0  # atno 7974 bound_to 7965
  154.7981  140.2847  155.5942 H   0  0  0  0  0  0  0  0  0  0  0  0  # atno 8008 bound_to 7997
  156.2973  140.2592  156.2772 H   0  0  0  0  0  0  0  0  0  0  0  0  # atno 8009 bound_to 7997
  154.9591  140.0378  157.2170 H   0  0  0  0  0  0  0  0  0  0  0  0  # atno 8010 bound_to 7997
  139.4948  144.3908  151.9519 H   0  0  0  0  0  0  0  0  0  0  0  0  # atno 10167 bound_to 10162
  157.0444  130.6244  149.5756 H   0  0  0  0  0  0  0  0  0  0  0  0  # atno 10718 bound_to 10713
  154.4205  135.5987  153.6007 H   0  0  0  0  0  0  0  0  0  0  0  0  # atno 10763 bound_to 10752
  152.9794  135.5951  154.3960 H   0  0  0  0  0  0  0  0  0  0  0  0  # atno 10764 bound_to 10752
  154.3785  135.2841  155.2204 H   0  0  0  0  0  0  0  0  0  0  0  0  # atno 10765 bound_to 10752
  140.0247  134.6100  155.9589 H   0  0  0  0  0  0  0  0  0  0  0  0  # atno 11005 bound_to 11000
  146.1421  139.4480  143.0102 LP  0  0  0  0  0  0  0  0  0  0  0  0  # atno 17320 bound_to 7965
  145.7002  141.0138  143.1508 LP  0  0  0  0  0  0  0  0  0  0  0  0  # atno 17321 bound_to 7965
  140.3346  144.3276  150.5980 LP  0  0  0  0  0  0  0  0  0  0  0  0  # atno 17342 bound_to 10162
  140.5617  143.2191  151.7754 LP  0  0  0  0  0  0  0  0  0  0  0  0  # atno 17343 bound_to 10162
  156.0027  130.5109  150.7723 LP  0  0  0  0  0  0  0  0  0  0  0  0  # atno 17370 bound_to 10713
  157.5079  131.0923  151.0234 LP  0  0  0  0  0  0  0  0  0  0  0  0  # atno 17371 bound_to 10713
  141.1795  133.6544  156.4964 LP  0  0  0  0  0  0  0  0  0  0  0  0  # atno 17394 bound_to 11000
  140.4326  134.7087  157.4950 LP  0  0  0  0  0  0  0  0  0  0  0  0  # atno 17395 bound_to 11000

$$$$
