AV-unprocessed.smi:109|AV-procd|sdf|1045|dock10
  -GOLD-   2262018 83D 1   1.00000     0.00000
 Structure written by MMmdl.
 58 61  0  0  0  0  0  0  0  0  1 V2000
  153.1938  139.0163  155.7397 O   0  0  0  0  0  0  0  0  0  0  0  0
  152.2012  139.5081  156.6140 C   0  0  0  0  0  0  0  0  0  0  0  0
  151.5759  140.7863  156.0292 C   0  0  0  0  0  0  0  0  0  0  0  0
  150.3359  141.2994  156.8024 C   0  0  2  0  0  0  0  0  0  0  0  0
  149.4541  142.0258  155.8852 N   0  0  0  0  0  0  0  0  0  0  0  0
  148.4897  141.4087  155.1661 C   0  0  0  0  0  0  0  0  0  0  0  0
  147.8941  142.0145  154.1058 N   0  0  0  0  0  0  0  0  0  0  0  0
  146.9391  141.3791  153.4199 C   0  0  0  0  0  0  0  0  0  0  0  0
  146.4396  140.1572  153.6201 N   0  0  0  0  0  0  0  0  0  0  0  0
  147.0380  139.5450  154.6823 C   0  0  0  0  0  0  0  0  0  0  0  0
  148.0611  140.0984  155.5006 C   0  0  0  0  0  0  0  0  0  0  0  0
  148.4200  139.1868  156.4858 N   0  0  0  0  0  0  0  0  0  0  0  0
  147.6512  138.1555  156.2572 C   0  0  0  0  0  0  0  0  0  0  0  0
  146.7896  138.2897  155.1898 N   0  0  0  0  0  0  0  0  0  0  0  0
  145.7837  137.3158  154.6674 C   0  0  1  0  0  0  0  0  0  0  0  0
  145.8783  136.1565  155.4258 O   0  0  0  0  0  0  0  0  0  0  0  0
  144.6370  135.4776  155.3348 C   0  0  1  0  0  0  0  0  0  0  0  0
  144.5214  134.4429  156.4642 C   0  0  0  0  0  0  0  0  0  0  0  0
  143.4308  133.5815  156.2192 O   0  0  0  0  0  0  0  0  0  0  0  0
  143.6200  136.6221  155.4437 C   0  0  2  0  0  0  0  0  0  0  0  0
  142.4423  136.2929  154.7341 O   0  0  0  0  0  0  0  0  0  0  0  0
  144.3277  137.8129  154.7944 C   0  0  1  0  0  0  0  0  0  0  0  0
  144.1788  138.9815  155.5821 O   0  0  0  0  0  0  0  0  0  0  0  0
  150.6890  142.2158  158.0092 C   0  0  0  0  0  0  0  0  0  0  0  0
  151.3242  143.5658  157.5905 C   0  0  0  0  0  0  0  0  0  0  0  0
  151.7040  144.4373  158.7993 C   0  0  0  0  0  0  0  0  0  0  0  0
  152.6419  143.6927  159.7566 C   0  0  0  0  0  0  0  0  0  0  0  0
  152.0140  142.3675  160.2037 C   0  0  0  0  0  0  0  0  0  0  0  0
  151.6436  141.4938  158.9952 C   0  0  0  0  0  0  0  0  0  0  0  0
  146.0788  137.1123  153.6369 H   0  0  0  0  0  0  0  0  0  0  0  0
  144.5640  135.0024  154.3537 H   0  0  0  0  0  0  0  0  0  0  0  0
  143.3890  136.8274  156.4905 H   0  0  0  0  0  0  0  0  0  0  0  0
  143.9548  138.0139  153.7889 H   0  0  0  0  0  0  0  0  0  0  0  0
  153.0390  138.0953  155.5963 H   0  0  0  0  0  0  0  0  0  0  0  0
  151.4516  138.7298  156.7570 H   0  0  0  0  0  0  0  0  0  0  0  0
  152.6540  139.7111  157.5849 H   0  0  0  0  0  0  0  0  0  0  0  0
  152.3557  141.5457  156.0375 H   0  0  0  0  0  0  0  0  0  0  0  0
  151.3155  140.6232  154.9825 H   0  0  0  0  0  0  0  0  0  0  0  0
  149.8259  140.4300  157.2168 H   0  0  0  0  0  0  0  0  0  0  0  0
  149.6163  143.0211  155.8292 H   0  0  0  0  0  0  0  0  0  0  0  0
  146.5148  141.9286  152.5926 H   0  0  0  0  0  0  0  0  0  0  0  0
  147.6894  137.2648  156.8676 H   0  0  0  0  0  0  0  0  0  0  0  0
  145.4428  133.8702  156.5748 H   0  0  0  0  0  0  0  0  0  0  0  0
  144.3341  134.9437  157.4144 H   0  0  0  0  0  0  0  0  0  0  0  0
  143.6241  133.0596  155.4555 H   0  0  0  0  0  0  0  0  0  0  0  0
  142.3525  136.8883  154.0056 H   0  0  0  0  0  0  0  0  0  0  0  0
  143.8908  139.6854  155.0215 H   0  0  0  0  0  0  0  0  0  0  0  0
  149.7634  142.4402  158.5422 H   0  0  0  0  0  0  0  0  0  0  0  0
  152.2094  143.3833  156.9797 H   0  0  0  0  0  0  0  0  0  0  0  0
  150.6359  144.1452  156.9774 H   0  0  0  0  0  0  0  0  0  0  0  0
  152.1777  145.3580  158.4581 H   0  0  0  0  0  0  0  0  0  0  0  0
  150.8001  144.7350  159.3322 H   0  0  0  0  0  0  0  0  0  0  0  0
  153.5952  143.5010  159.2626 H   0  0  0  0  0  0  0  0  0  0  0  0
  152.8604  144.3146  160.6253 H   0  0  0  0  0  0  0  0  0  0  0  0
  152.7064  141.8295  160.8520 H   0  0  0  0  0  0  0  0  0  0  0  0
  151.1222  142.5651  160.7999 H   0  0  0  0  0  0  0  0  0  0  0  0
  151.1937  140.5726  159.3653 H   0  0  0  0  0  0  0  0  0  0  0  0
  152.5536  141.1976  158.4713 H   0  0  0  0  0  0  0  0  0  0  0  0
  1  2  1  0  0  0  0
  1 34  1  0  0  0  0
  2  3  1  0  0  0  0
  2 35  1  0  0  0  0
  2 36  1  0  0  0  0
  3  4  1  0  0  0  0
  3 37  1  0  0  0  0
  3 38  1  0  0  0  0
  4  5  1  0  0  0  0
  4 24  1  0  0  0  0
  4 39  1  0  0  0  0
  5  6  1  0  0  0  0
  5 40  1  0  0  0  0
  6 11  1  0  0  0  0
  6  7  2  0  0  0  0
  7  8  1  0  0  0  0
  8  9  2  0  0  0  0
  8 41  1  0  0  0  0
  9 10  1  0  0  0  0
 10 14  1  0  0  0  0
 10 11  2  0  0  0  0
 11 12  1  0  0  0  0
 12 13  2  0  0  0  0
 13 14  1  0  0  0  0
 13 42  1  0  0  0  0
 14 15  1  0  0  0  0
 15 30  1  0  0  0  0
 15 22  1  0  0  0  0
 15 16  1  0  0  0  0
 16 17  1  0  0  0  0
 17 31  1  0  0  0  0
 17 18  1  0  0  0  0
 17 20  1  0  0  0  0
 18 19  1  0  0  0  0
 18 43  1  0  0  0  0
 18 44  1  0  0  0  0
 19 45  1  0  0  0  0
 20 32  1  0  0  0  0
 20 21  1  0  0  0  0
 20 22  1  0  0  0  0
 21 46  1  0  0  0  0
 22 33  1  0  0  0  0
 22 23  1  0  0  0  0
 23 47  1  0  0  0  0
 24 29  1  0  0  0  0
 24 25  1  0  0  0  0
 24 48  1  0  0  0  0
 25 26  1  0  0  0  0
 25 49  1  0  0  0  0
 25 50  1  0  0  0  0
 26 27  1  0  0  0  0
 26 51  1  0  0  0  0
 26 52  1  0  0  0  0
 27 28  1  0  0  0  0
 27 53  1  0  0  0  0
 27 54  1  0  0  0  0
 28 29  1  0  0  0  0
 28 55  1  0  0  0  0
 28 56  1  0  0  0  0
 29 57  1  0  0  0  0
 29 58  1  0  0  0  0
M  END
> <s_m_source_file>
AV-unprocessed.smi

> <i_m_source_file_index>
109

> <i_lp_mmshare_version>
43012

> <i_f3d_flags>
0

> <s_epik_input>
W0NIMl0xW0NIMl1bQ0gyXVtDSDJdW0NIMl1bQ0hdMVtDQEhdKFtDSDJdW0NIMl1bT0hdKVtOSF1jKG5bY0hdbjIpYyhjMjMpbltjSF1uM1tDQEBIXTRPW0NASF0oW0NIMl1bT0hdKVtDQEBIXShbT0hdKVtDQEhdNFtPSF0=

> <s_epik_cmdline>
J2VwaWtfcHl0aG9uJywgJy1waCcsICc3LjAnLCAnLXRuJywgJzgnLCAnLW1hJywgJzIwMCcsICctbWV0YWxfYmluZGluZycsICctaW1hZScsICc8aW5maWxlLm1hZT4nLCAnLW9tYWUnLCAnPG91dGZpbGUubWFlPic=

> <r_lp_tautomer_probability>
1

> <r_epik_Ionization_Penalty>
0.000793976

> <r_epik_Ionization_Penalty_Charging>
0

> <r_epik_Ionization_Penalty_Neutral>
0.000793976

> <r_epik_State_Penalty>
-0

> <r_epik_Charging_Adjusted_Penalty>
0

> <i_epik_Tot_Q>
0

> <i_epik_Tot_abs_Q>
0

> <r_epik_Metal_State_Penalty>
-0

> <b_epik_Metal_Only>
0

> <s_epik_Chemistry_Notes>
This compound contains an acetal/aminal-like group ( X-CH(R)-Y where X, Y are N, S, or O) that may be acid/base labile, releasing an aldehyde.

> <s_lp_Force_Field>
OPLS_2005

> <r_lp_Energy>
53.6553

> <b_lp_Chiralities_Consistent>
1

> <s_lp_Variant>
AV-unprocessed.smi:109-15

> <Gold.Version>
5.8.1

> <Gold.Id.Protein>
6NUR|6NUR_protein|mol2

> <Gold.PLP.Fitness>
46.4721

> <Gold.PLP.PLP>
-36.9313

> <Gold.PLP.part.hbond>
-4.1698

> <Gold.PLP.part.metal>
0.0000

> <Gold.PLP.part.buried>
-7.3024

> <Gold.PLP.part.nonpolar>
-27.2763

> <Gold.PLP.part.repulsive>
1.2700

> <Gold.PLP.ligand.clash>
0.0000

> <Gold.PLP.ligand.torsion>
0.9131

> <Gold.PLP.Chemscore.Hbond>
3.7328

> <Gold.PLP.Chemscore.CHOScore>
0.0000

> <Gold.PLP.Chemscore.Metal>
0.0000

> <Gold.Chemscore.Hbonds>
donor molecule, donor type, donor heavy atom, donor atom, acceptor molecule, acceptor atom, score
      L1  H     5    40       P1  8028  0.96
      L1  H    19    45       P1 10957  0.53
      P1  H  7997  8009       L1     1  1.00
      P1  H 11000 11005       L1    19  0.26

> <Gold.PLP.Chemscore.Internal.Correction>
0.1687

> <Gold.Rescore>
     Score         DG    S(hbond)    S(metal)    S(lipo)     H(rot)  DE(clash)    DE(int)     intcor
      8.29     -11.45       3.13        0.00      81.24       5.47       0.09       3.07       ----

> <Gold.Chemscore.Fitness>
8.2892

> <Gold.Chemscore.DG>
-11.4522

> <Gold.Chemscore.ZeroCoef>
-5.4800

> <Gold.Chemscore.Hbond>
3.1320

> <Gold.Chemscore.Metal>
0.0000

> <Gold.Chemscore.Lipo>
81.2388

> <Gold.Chemscore.Internal_Hbond>
0.0000

> <Gold.Chemscore.DEClash>
0.0918

> <Gold.Chemscore.DEInternal>
3.0713

> <Gold.Chemscore.Rot>
5.4662

> <Gold.Chemscore.Internal.Correction>
   9.000000E+99

> <Gold.Chemscore.Hbonds>
donor molecule, donor type, donor heavy atom, donor atom, acceptor molecule, acceptor atom, score
      L1  H     5    40       P1  8028  0.92
      L1  H    19    45       P1 10957  0.54
      P1  H  7997  8009       L1     1  0.33
      P1  H 11000 11005       L1    19  0.26

> <Gold.Chemscore.Hbond.Weighted>
-10.4608

> <Gold.Chemscore.Metal.Weighted>
-0.0000

> <Gold.Chemscore.Lipo.Weighted>
-9.5049

> <Gold.Chemscore.Internal_Hbond.Weighted>
0.0000

> <Gold.Chemscore.DEClash.Weighted>
0.0918

> <Gold.Chemscore.DEInternal.Weighted>
3.0713

> <Gold.Chemscore.Rot.Weighted>
13.9935

> <Gold.Chemscore.Internal.Correction.Weighted>
   9.000000E+99

> <Gold.Protein.RotatedTorsions>
[ 6907 6896 6895 6894 ] final -136.50 input  -60.11 | X-H torsion
[ 7974 7965 7964 7962 ] final -140.33 input  175.53 | X-H torsion
[ 8008 7997 7996 7995 ] final -138.31 input   59.86 | X-H torsion
[ 10167 10162 10161 10158 ] final  124.49 input  -65.29 | X-H torsion
[ 10718 10713 10712 10709 ] final  -70.01 input   66.30 | X-H torsion
[ 10763 10752 10751 10750 ] final  -19.75 input  -60.55 | X-H torsion
[ 11005 11000 10999 10996 ] final  -86.81 input  -57.11 | X-H torsion

> <Gold.Protein.ActiveResidues>
 VAL166  LYS551  ARG553  GLY616  TRP617  ASP618  TYR619  PRO620  LYS621  CYS622 
 ASP623  PHE694  ASN695  SER759  ASP760  ASP761  ALA762  ILE779  LEU786  VAL792 
 PHE793  MET794  SER795  GLU796  ALA797  LYS798  CYS799  TRP800  GLU811  SER814 

> <Gold.Protein.RotatedAtoms>
  151.0109  133.5966  159.2682 H   0  0  0  0  0  0  0  0  0  0  0  0  # atno 6907 bound_to 6896
  151.3118  135.0795  159.9285 H   0  0  0  0  0  0  0  0  0  0  0  0  # atno 6908 bound_to 6896
  152.5299  133.9772  159.7844 H   0  0  0  0  0  0  0  0  0  0  0  0  # atno 6909 bound_to 6896
  144.8605  140.6212  143.5331 H   0  0  0  0  0  0  0  0  0  0  0  0  # atno 7974 bound_to 7965
  155.4262  140.0522  157.3022 H   0  0  0  0  0  0  0  0  0  0  0  0  # atno 8008 bound_to 7997
  154.4880  140.2108  155.9570 H   0  0  0  0  0  0  0  0  0  0  0  0  # atno 8009 bound_to 7997
  156.1302  140.3173  155.8343 H   0  0  0  0  0  0  0  0  0  0  0  0  # atno 8010 bound_to 7997
  139.5739  144.6953  151.3705 H   0  0  0  0  0  0  0  0  0  0  0  0  # atno 10167 bound_to 10162
  156.0428  130.4323  150.2232 H   0  0  0  0  0  0  0  0  0  0  0  0  # atno 10718 bound_to 10713
  153.6096  135.6996  153.5352 H   0  0  0  0  0  0  0  0  0  0  0  0  # atno 10763 bound_to 10752
  153.3028  135.4124  155.1267 H   0  0  0  0  0  0  0  0  0  0  0  0  # atno 10764 bound_to 10752
  154.8566  135.3653  154.5634 H   0  0  0  0  0  0  0  0  0  0  0  0  # atno 10765 bound_to 10752
  141.1625  133.7475  156.9216 H   0  0  0  0  0  0  0  0  0  0  0  0  # atno 11005 bound_to 11000
  145.4321  139.1547  143.4016 LP  0  0  0  0  0  0  0  0  0  0  0  0  # atno 17320 bound_to 7965
  146.2857  140.4438  142.8759 LP  0  0  0  0  0  0  0  0  0  0  0  0  # atno 17321 bound_to 7965
  140.7022  143.7602  150.7422 LP  0  0  0  0  0  0  0  0  0  0  0  0  # atno 17342 bound_to 10162
  140.1117  143.4693  152.2366 LP  0  0  0  0  0  0  0  0  0  0  0  0  # atno 17343 bound_to 10162
  157.0326  131.0012  151.3308 LP  0  0  0  0  0  0  0  0  0  0  0  0  # atno 17370 bound_to 10713
  157.5267  130.8032  149.7870 LP  0  0  0  0  0  0  0  0  0  0  0  0  # atno 17371 bound_to 10713
  140.1448  134.9270  157.2514 LP  0  0  0  0  0  0  0  0  0  0  0  0  # atno 17394 bound_to 11000
  140.2793  134.3368  155.7348 LP  0  0  0  0  0  0  0  0  0  0  0  0  # atno 17395 bound_to 11000

$$$$
