AV-unprocessed.smi:1546|AV-procd|sdf|6219|dock9
  -GOLD-   22720 6393D 1   1.00000     0.00000
 Structure written by MMmdl.
 29 30  0  0  0  0  0  0  0  0  2 V2000
  153.1281  139.9085  158.0676 O   0  0  0  0  0  0  0  0  0  0  0  0
  152.4581  140.8151  158.5631 C   0  0  0  0  0  0  0  0  0  0  0  0
  152.8521  141.4124  159.9150 C   0  0  0  0  0  0  0  0  0  0  0  0
  151.8919  142.3800  160.3119 O   0  0  0  0  0  0  0  0  0  0  0  0
  152.4814  143.5056  160.9379 C   0  0  0  0  0  0  0  0  0  0  0  0
  151.8944  144.7669  160.3417 C   0  0  0  0  0  0  0  0  0  0  0  0
  150.7361  144.6887  159.3731 C   0  0  0  0  0  0  0  0  0  0  0  0
  152.1015  145.0975  158.8810 C   0  0  0  0  0  0  0  0  0  0  0  0
  151.3507  141.3414  158.0102 N   0  0  0  0  0  0  0  0  0  0  0  0
  150.7217  141.0135  156.7762 C   0  0  0  0  0  0  0  0  0  0  0  0
  151.3513  140.2680  155.7475 C   0  0  0  0  0  0  0  0  0  0  0  0
  150.7609  139.9743  154.5689 N   0  0  0  0  0  0  0  0  0  0  0  0
  149.5053  140.4226  154.3625 C   0  0  0  0  0  0  0  0  0  0  0  0
  148.7910  141.1847  155.3063 C   0  0  0  0  0  0  0  0  0  0  0  0
  149.4115  141.4902  156.5333 C   0  0  0  0  0  0  0  0  0  0  0  0
  148.7378  142.2356  157.4613 O   0  5  0  0  0  0  0  0  0  0  0  0
  152.9130  140.6137  160.6561 H   0  0  0  0  0  0  0  0  0  0  0  0
  153.8388  141.8708  159.8310 H   0  0  0  0  0  0  0  0  0  0  0  0
  152.2967  143.4847  162.0132 H   0  0  0  0  0  0  0  0  0  0  0  0
  153.5609  143.5076  160.7809 H   0  0  0  0  0  0  0  0  0  0  0  0
  151.8861  145.6133  161.0261 H   0  0  0  0  0  0  0  0  0  0  0  0
  150.3761  143.7016  159.0890 H   0  0  0  0  0  0  0  0  0  0  0  0
  149.9726  145.4611  159.4409 H   0  0  0  0  0  0  0  0  0  0  0  0
  152.2516  146.1435  158.6212 H   0  0  0  0  0  0  0  0  0  0  0  0
  152.6512  144.3826  158.2718 H   0  0  0  0  0  0  0  0  0  0  0  0
  150.8511  142.0162  158.5717 H   0  0  0  0  0  0  0  0  0  0  0  0
  152.3629  139.9063  155.8419 H   0  0  0  0  0  0  0  0  0  0  0  0
  149.0579  140.1713  153.4122 H   0  0  0  0  0  0  0  0  0  0  0  0
  147.7897  141.5272  155.0900 H   0  0  0  0  0  0  0  0  0  0  0  0
  1  2  2  0  0  0  0
  2  3  1  0  0  0  0
  2  9  1  0  0  0  0
  3  4  1  0  0  0  0
  3 17  1  0  0  0  0
  3 18  1  0  0  0  0
  4  5  1  0  0  0  0
  5  6  1  0  0  0  0
  5 19  1  0  0  0  0
  5 20  1  0  0  0  0
  6  8  1  0  0  0  0
  6  7  1  0  0  0  0
  6 21  1  0  0  0  0
  7  8  1  0  0  0  0
  7 22  1  0  0  0  0
  7 23  1  0  0  0  0
  8 24  1  0  0  0  0
  8 25  1  0  0  0  0
  9 26  1  0  0  0  0
  9 10  1  0  0  0  0
 10 15  1  0  0  0  0
 10 11  2  0  0  0  0
 11 27  1  0  0  0  0
 11 12  1  0  0  0  0
 12 13  2  0  0  0  0
 13 28  1  0  0  0  0
 13 14  1  0  0  0  0
 14 15  2  0  0  0  0
 14 29  1  0  0  0  0
 15 16  1  0  0  0  0
M  CHG  1  16  -1
M  END
> <s_m_source_file>
AV-unprocessed.smi

> <i_m_source_file_index>
1546

> <i_lp_mmshare_version>
43012

> <i_f3d_flags>
0

> <s_epik_input>
W0NIMl0xW0NIMl1bQ0hdMVtDSDJdT1tDSDJdQyg9TylbTkhdYzJbY0hdbltjSF1bY0hdYzJbT0hd

> <s_epik_cmdline>
J2VwaWtfcHl0aG9uJywgJy1waCcsICc3LjAnLCAnLXRuJywgJzgnLCAnLW1hJywgJzIwMCcsICctbWV0YWxfYmluZGluZycsICctaW1hZScsICc8aW5maWxlLm1hZT4nLCAnLW9tYWUnLCAnPG91dGZpbGUubWFlPic=

> <r_lp_tautomer_probability>
1

> <r_epik_Ionization_Penalty>
6.21828

> <r_epik_Ionization_Penalty_Charging>
1.1523

> <r_epik_Ionization_Penalty_Neutral>
5.06598

> <r_epik_State_Penalty>
5.06586

> <r_epik_Charging_Adjusted_Penalty>
6.21817

> <i_epik_Tot_Q>
-1

> <i_epik_Tot_abs_Q>
1

> <r_epik_Metal_State_Penalty>
1.16681

> <b_epik_Metal_Only>
1

> <s_lp_Force_Field>
OPLS_2005

> <r_lp_Energy>
16.9925

> <b_lp_Chiralities_Consistent>
1

> <s_lp_Variant>
AV-unprocessed.smi:1546-2

> <Gold.Version>
5.8.1

> <Gold.Id.Protein>
6NUR|6NUR_protein|mol2

> <Gold.PLP.Fitness>
44.5106

> <Gold.PLP.PLP>
-37.0022

> <Gold.PLP.part.hbond>
-2.5618

> <Gold.PLP.part.metal>
0.0000

> <Gold.PLP.part.buried>
-4.7545

> <Gold.PLP.part.nonpolar>
-29.5395

> <Gold.PLP.part.repulsive>
0.8855

> <Gold.PLP.ligand.clash>
0.0000

> <Gold.PLP.ligand.torsion>
1.0257

> <Gold.PLP.Chemscore.Hbond>
2.0000

> <Gold.PLP.Chemscore.CHOScore>
1.0000

> <Gold.PLP.Chemscore.Metal>
0.0000

> <Gold.Chemscore.Hbonds>
donor molecule, donor type, donor heavy atom, donor atom, acceptor molecule, acceptor atom, score
      P1  H  7989  7998       L1    12  1.00
      P1  H  7997  8009       L1     1  1.00
      L1  C    13    28       P1  7957  1.00

> <Gold.PLP.Chemscore.Internal.Correction>
0.5598

> <Gold.Rescore>
     Score         DG    S(hbond)    S(metal)    S(lipo)     H(rot)  DE(clash)    DE(int)     intcor
     14.65     -16.87       1.60        0.00      87.07       1.62       0.01       2.21       ----

> <Gold.Chemscore.Fitness>
14.6534

> <Gold.Chemscore.DG>
-16.8732

> <Gold.Chemscore.ZeroCoef>
-5.4800

> <Gold.Chemscore.Hbond>
1.6030

> <Gold.Chemscore.Metal>
0.0000

> <Gold.Chemscore.Lipo>
87.0662

> <Gold.Chemscore.Internal_Hbond>
0.0000

> <Gold.Chemscore.DEClash>
0.0139

> <Gold.Chemscore.DEInternal>
2.2059

> <Gold.Chemscore.Rot>
1.6202

> <Gold.Chemscore.Internal.Correction>
   9.000000E+99

> <Gold.Chemscore.Hbonds>
donor molecule, donor type, donor heavy atom, donor atom, acceptor molecule, acceptor atom, score
      P1  H  7989  7998       L1    12  0.14
      P1  H  7997  8009       L1     1  0.98

> <Gold.Chemscore.Hbond.Weighted>
-5.3540

> <Gold.Chemscore.Metal.Weighted>
-0.0000

> <Gold.Chemscore.Lipo.Weighted>
-10.1867

> <Gold.Chemscore.Internal_Hbond.Weighted>
0.0000

> <Gold.Chemscore.DEClash.Weighted>
0.0139

> <Gold.Chemscore.DEInternal.Weighted>
2.2059

> <Gold.Chemscore.Rot.Weighted>
4.1476

> <Gold.Chemscore.Internal.Correction.Weighted>
   9.000000E+99

> <Gold.Protein.RotatedTorsions>
[ 6907 6896 6895 6894 ] final -143.45 input  -60.11 | X-H torsion
[ 7974 7965 7964 7962 ] final -141.03 input  175.53 | X-H torsion
[ 8008 7997 7996 7995 ] final  149.34 input   59.86 | X-H torsion
[ 10167 10162 10161 10158 ] final   60.29 input  -65.29 | X-H torsion
[ 10718 10713 10712 10709 ] final -144.67 input   66.30 | X-H torsion
[ 10763 10752 10751 10750 ] final -103.57 input  -60.55 | X-H torsion
[ 11005 11000 10999 10996 ] final -133.51 input  -57.11 | X-H torsion

> <Gold.Protein.ActiveResidues>
 VAL166  LYS551  ARG553  GLY616  TRP617  ASP618  TYR619  PRO620  LYS621  CYS622 
 ASP623  PHE694  ASN695  SER759  ASP760  ASP761  ALA762  ILE779  LEU786  VAL792 
 PHE793  MET794  SER795  GLU796  ALA797  LYS798  CYS799  TRP800  GLU811  SER814 

> <Gold.Protein.RotatedAtoms>
  151.1006  133.5246  159.2609 H   0  0  0  0  0  0  0  0  0  0  0  0  # atno 6907 bound_to 6896
  151.2079  135.0469  159.8909 H   0  0  0  0  0  0  0  0  0  0  0  0  # atno 6908 bound_to 6896
  152.5442  134.0825  159.8295 H   0  0  0  0  0  0  0  0  0  0  0  0  # atno 6909 bound_to 6896
  144.8551  140.6129  143.5365 H   0  0  0  0  0  0  0  0  0  0  0  0  # atno 7974 bound_to 7965
  156.2758  140.2104  156.5842 H   0  0  0  0  0  0  0  0  0  0  0  0  # atno 8008 bound_to 7997
  154.7034  140.0519  157.0503 H   0  0  0  0  0  0  0  0  0  0  0  0  # atno 8009 bound_to 7997
  155.0704  140.3176  155.4635 H   0  0  0  0  0  0  0  0  0  0  0  0  # atno 8010 bound_to 7997
  140.1672  144.4312  150.6679 H   0  0  0  0  0  0  0  0  0  0  0  0  # atno 10167 bound_to 10162
  156.3730  130.7798  151.1981 H   0  0  0  0  0  0  0  0  0  0  0  0  # atno 10718 bound_to 10713
  154.7816  135.4818  153.9857 H   0  0  0  0  0  0  0  0  0  0  0  0  # atno 10763 bound_to 10752
  153.1502  135.6789  153.8901 H   0  0  0  0  0  0  0  0  0  0  0  0  # atno 10764 bound_to 10752
  153.8547  135.3163  155.3413 H   0  0  0  0  0  0  0  0  0  0  0  0  # atno 10765 bound_to 10752
  140.9074  134.1612  157.4415 H   0  0  0  0  0  0  0  0  0  0  0  0  # atno 11005 bound_to 11000
  145.4423  139.1534  143.3964 LP  0  0  0  0  0  0  0  0  0  0  0  0  # atno 17320 bound_to 7965
  146.2816  140.4545  142.8774 LP  0  0  0  0  0  0  0  0  0  0  0  0  # atno 17321 bound_to 7965
  140.6605  143.2251  151.5867 LP  0  0  0  0  0  0  0  0  0  0  0  0  # atno 17342 bound_to 10162
  139.5354  144.2796  152.1240 LP  0  0  0  0  0  0  0  0  0  0  0  0  # atno 17343 bound_to 10162
  157.7485  131.0366  150.4419 LP  0  0  0  0  0  0  0  0  0  0  0  0  # atno 17370 bound_to 10713
  156.4649  130.4040  149.6553 LP  0  0  0  0  0  0  0  0  0  0  0  0  # atno 17371 bound_to 10713
  139.8752  134.9922  156.5586 LP  0  0  0  0  0  0  0  0  0  0  0  0  # atno 17394 bound_to 11000
  140.8153  133.8396  155.8847 LP  0  0  0  0  0  0  0  0  0  0  0  0  # atno 17395 bound_to 11000

$$$$
