AV-unprocessed.smi:2837|AV-procd|sdf|10920|dock10
  -GOLD-   2272015373D 1   1.00000     0.00000
 Structure written by MMmdl.
 32 34  0  0  0  0  0  0  0  0  1 V2000
  153.7140  142.5011  163.0031 F   0  0  0  0  0  0  0  0  0  0  0  0
  152.8214  142.7746  162.0201 C   0  0  0  0  0  0  0  0  0  0  0  0
  152.4844  144.0824  162.1272 F   0  0  0  0  0  0  0  0  0  0  0  0
  153.3725  142.5410  160.7993 O   0  0  0  0  0  0  0  0  0  0  0  0
  152.5676  142.5510  159.6825 C   0  0  0  0  0  0  0  0  0  0  0  0
  152.5941  143.5704  158.7016 C   0  0  0  0  0  0  0  0  0  0  0  0
  151.7143  143.4883  157.6054 C   0  0  0  0  0  0  0  0  0  0  0  0
  150.8270  142.3956  157.5241 C   0  0  0  0  0  0  0  0  0  0  0  0
  149.9522  142.3225  156.4307 N   0  0  0  0  0  0  0  0  0  0  0  0
  149.3188  141.0677  156.0399 C   0  0  2  0  0  0  0  0  0  0  0  0
  150.2006  139.8386  156.2956 C   0  0  0  0  0  0  0  0  0  0  0  0
  150.2617  139.1972  154.9037 C   0  0  1  0  0  0  0  0  0  0  0  0
  148.9104  138.6113  154.4708 C   0  0  0  0  0  0  0  0  0  0  0  0
  148.1056  139.8740  154.1650 C   0  0  0  0  0  0  0  0  0  0  0  0
  149.1083  140.9806  154.5186 C   0  0  2  0  0  0  0  0  0  0  0  0
  150.3133  140.3610  154.0983 O   0  0  0  0  0  0  0  0  0  0  0  0
  150.7882  141.4230  158.4649 N   0  0  0  0  0  0  0  0  0  0  0  0
  151.6361  141.5070  159.5120 C   0  0  0  0  0  0  0  0  0  0  0  0
  151.9177  142.1845  162.1740 H   0  0  0  0  0  0  0  0  0  0  0  0
  153.2686  144.4101  158.7788 H   0  0  0  0  0  0  0  0  0  0  0  0
  151.7210  144.2556  156.8450 H   0  0  0  0  0  0  0  0  0  0  0  0
  149.7615  143.1503  155.8845 H   0  0  0  0  0  0  0  0  0  0  0  0
  148.3581  140.9816  156.5499 H   0  0  0  0  0  0  0  0  0  0  0  0
  151.2021  140.1227  156.6224 H   0  0  0  0  0  0  0  0  0  0  0  0
  149.7789  139.1688  157.0452 H   0  0  0  0  0  0  0  0  0  0  0  0
  151.1039  138.5185  154.7668 H   0  0  0  0  0  0  0  0  0  0  0  0
  149.0191  138.0017  153.5730 H   0  0  0  0  0  0  0  0  0  0  0  0
  148.4572  137.9971  155.2497 H   0  0  0  0  0  0  0  0  0  0  0  0
  147.8448  139.9139  153.1067 H   0  0  0  0  0  0  0  0  0  0  0  0
  147.1853  139.9424  154.7458 H   0  0  0  0  0  0  0  0  0  0  0  0
  148.8933  141.9343  154.0347 H   0  0  0  0  0  0  0  0  0  0  0  0
  151.5714  140.7110  160.2390 H   0  0  0  0  0  0  0  0  0  0  0  0
  1  2  1  0  0  0  0
  2  3  1  0  0  0  0
  2  4  1  0  0  0  0
  2 19  1  0  0  0  0
  4  5  1  0  0  0  0
  5 18  1  0  0  0  0
  5  6  2  0  0  0  0
  6  7  1  0  0  0  0
  6 20  1  0  0  0  0
  7  8  2  0  0  0  0
  7 21  1  0  0  0  0
  8  9  1  0  0  0  0
  8 17  1  0  0  0  0
  9 10  1  0  0  0  0
  9 22  1  0  0  0  0
 10 15  1  0  0  0  0
 10 11  1  0  0  0  0
 10 23  1  0  0  0  0
 11 12  1  0  0  0  0
 11 24  1  0  0  0  0
 11 25  1  0  0  0  0
 12 16  1  0  0  0  0
 12 13  1  0  0  0  0
 12 26  1  0  0  0  0
 13 14  1  0  0  0  0
 13 27  1  0  0  0  0
 13 28  1  0  0  0  0
 14 15  1  0  0  0  0
 14 29  1  0  0  0  0
 14 30  1  0  0  0  0
 15 16  1  0  0  0  0
 15 31  1  0  0  0  0
 17 18  2  0  0  0  0
 18 32  1  0  0  0  0
M  END
> <s_m_source_file>
AV-unprocessed.smi

> <i_m_source_file_index>
2837

> <i_lp_mmshare_version>
43012

> <i_f3d_flags>
0

> <s_epik_input>
RltDSF0oRilPYzFbY0hdW2NIXWMobltjSF0xKVtOSF1bQ0BIXShbQ0gyXVtDQEBIXTIzKVtDQEBIXShPMylbQ0gyXVtDSDJdMg==

> <s_epik_cmdline>
J2VwaWtfcHl0aG9uJywgJy1waCcsICc3LjAnLCAnLXRuJywgJzgnLCAnLW1hJywgJzIwMCcsICctbWV0YWxfYmluZGluZycsICctaW1hZScsICc8aW5maWxlLm1hZT4nLCAnLW9tYWUnLCAnPG91dGZpbGUubWFlPic=

> <r_lp_tautomer_probability>
1

> <r_epik_Ionization_Penalty>
0.0124072

> <r_epik_Ionization_Penalty_Charging>
0

> <r_epik_Ionization_Penalty_Neutral>
0.0124072

> <r_epik_State_Penalty>
0.00959565

> <r_epik_Charging_Adjusted_Penalty>
0.00959565

> <i_epik_Tot_Q>
0

> <i_epik_Tot_abs_Q>
0

> <r_epik_Metal_State_Penalty>
9.67369e-06

> <b_epik_Metal_Only>
0

> <s_lp_Force_Field>
OPLS_2005

> <r_lp_Energy>
39.7079

> <b_lp_Chiralities_Consistent>
1

> <s_lp_Variant>
AV-unprocessed.smi:2837-1

> <Gold.Version>
5.8.1

> <Gold.Id.Protein>
6NUR|6NUR_protein|mol2

> <Gold.PLP.Fitness>
43.7485

> <Gold.PLP.PLP>
-39.2426

> <Gold.PLP.part.hbond>
-1.6450

> <Gold.PLP.part.metal>
0.0000

> <Gold.PLP.part.buried>
-5.7840

> <Gold.PLP.part.nonpolar>
-33.9697

> <Gold.PLP.part.repulsive>
0.8550

> <Gold.PLP.ligand.clash>
0.0063

> <Gold.PLP.ligand.torsion>
0.6119

> <Gold.PLP.Chemscore.Hbond>
1.9040

> <Gold.PLP.Chemscore.CHOScore>
0.0000

> <Gold.PLP.Chemscore.Metal>
0.0000

> <Gold.Chemscore.Hbonds>
donor molecule, donor type, donor heavy atom, donor atom, acceptor molecule, acceptor atom, score
      L1  H     9    22       P1  8028  1.00
      P1  H  7989  7998       L1    16  0.90

> <Gold.PLP.Chemscore.Internal.Correction>
0.0240

> <Gold.Rescore>
     Score         DG    S(hbond)    S(metal)    S(lipo)     H(rot)  DE(clash)    DE(int)     intcor
     16.48     -18.70       1.88        0.00      88.09       1.32       0.06       2.15       ----

> <Gold.Chemscore.Fitness>
16.4849

> <Gold.Chemscore.DG>
-18.6958

> <Gold.Chemscore.ZeroCoef>
-5.4800

> <Gold.Chemscore.Hbond>
1.8836

> <Gold.Chemscore.Metal>
0.0000

> <Gold.Chemscore.Lipo>
88.0944

> <Gold.Chemscore.Internal_Hbond>
0.0000

> <Gold.Chemscore.DEClash>
0.0627

> <Gold.Chemscore.DEInternal>
2.1482

> <Gold.Chemscore.Rot>
1.3213

> <Gold.Chemscore.Internal.Correction>
   9.000000E+99

> <Gold.Chemscore.Hbonds>
donor molecule, donor type, donor heavy atom, donor atom, acceptor molecule, acceptor atom, score
      L1  H     9    22       P1  8028  0.95
      P1  H  7989  7998       L1    16  0.82

> <Gold.Chemscore.Hbond.Weighted>
-6.2912

> <Gold.Chemscore.Metal.Weighted>
-0.0000

> <Gold.Chemscore.Lipo.Weighted>
-10.3070

> <Gold.Chemscore.Internal_Hbond.Weighted>
0.0000

> <Gold.Chemscore.DEClash.Weighted>
0.0627

> <Gold.Chemscore.DEInternal.Weighted>
2.1482

> <Gold.Chemscore.Rot.Weighted>
3.3825

> <Gold.Chemscore.Internal.Correction.Weighted>
   9.000000E+99

> <Gold.Protein.RotatedTorsions>
[ 6907 6896 6895 6894 ] final   34.18 input  -60.11 | X-H torsion
[ 7974 7965 7964 7962 ] final -110.66 input  175.53 | X-H torsion
[ 8008 7997 7996 7995 ] final   68.67 input   59.86 | X-H torsion
[ 10167 10162 10161 10158 ] final -165.30 input  -65.29 | X-H torsion
[ 10718 10713 10712 10709 ] final   26.37 input   66.30 | X-H torsion
[ 10763 10752 10751 10750 ] final  125.53 input  -60.55 | X-H torsion
[ 11005 11000 10999 10996 ] final  -73.19 input  -57.11 | X-H torsion

> <Gold.Protein.ActiveResidues>
 VAL166  LYS551  ARG553  GLY616  TRP617  ASP618  TYR619  PRO620  LYS621  CYS622 
 ASP623  PHE694  ASN695  SER759  ASP760  ASP761  ALA762  ILE779  LEU786  VAL792 
 PHE793  MET794  SER795  GLU796  ALA797  LYS798  CYS799  TRP800  GLU811  SER814 

> <Gold.Protein.RotatedAtoms>
  152.0988  134.9356  160.0569 H   0  0  0  0  0  0  0  0  0  0  0  0  # atno 6907 bound_to 6896
  152.0579  133.4043  159.4413 H   0  0  0  0  0  0  0  0  0  0  0  0  # atno 6908 bound_to 6896
  150.6839  134.3154  159.4807 H   0  0  0  0  0  0  0  0  0  0  0  0  # atno 6909 bound_to 6896
  145.1655  140.8900  143.3566 H   0  0  0  0  0  0  0  0  0  0  0  0  # atno 7974 bound_to 7965
  155.7119  140.3494  155.4977 H   0  0  0  0  0  0  0  0  0  0  0  0  # atno 8008 bound_to 7997
  155.9348  140.1091  157.1125 H   0  0  0  0  0  0  0  0  0  0  0  0  # atno 8009 bound_to 7997
  154.4092  140.1224  156.4836 H   0  0  0  0  0  0  0  0  0  0  0  0  # atno 8010 bound_to 7997
  139.6191  144.0659  152.1916 H   0  0  0  0  0  0  0  0  0  0  0  0  # atno 10167 bound_to 10162
  157.2058  130.6911  149.6207 H   0  0  0  0  0  0  0  0  0  0  0  0  # atno 10718 bound_to 10713
  153.6787  135.3318  155.3172 H   0  0  0  0  0  0  0  0  0  0  0  0  # atno 10763 bound_to 10752
  154.8471  135.4404  154.1628 H   0  0  0  0  0  0  0  0  0  0  0  0  # atno 10764 bound_to 10752
  153.2639  135.6994  153.7626 H   0  0  0  0  0  0  0  0  0  0  0  0  # atno 10765 bound_to 10752
  141.1619  133.6870  156.7174 H   0  0  0  0  0  0  0  0  0  0  0  0  # atno 11005 bound_to 11000
  145.0286  139.3360  143.6036 LP  0  0  0  0  0  0  0  0  0  0  0  0  # atno 17320 bound_to 7965
  146.3476  139.9615  142.8717 LP  0  0  0  0  0  0  0  0  0  0  0  0  # atno 17321 bound_to 7965
  140.0297  144.6090  150.7498 LP  0  0  0  0  0  0  0  0  0  0  0  0  # atno 17342 bound_to 10162
  140.7371  143.2761  151.3739 LP  0  0  0  0  0  0  0  0  0  0  0  0  # atno 17343 bound_to 10162
  155.9695  130.4567  150.5936 LP  0  0  0  0  0  0  0  0  0  0  0  0  # atno 17370 bound_to 10713
  157.3721  131.0767  151.1549 LP  0  0  0  0  0  0  0  0  0  0  0  0  # atno 17371 bound_to 10713
  140.2842  134.8293  157.3960 LP  0  0  0  0  0  0  0  0  0  0  0  0  # atno 17394 bound_to 11000
  140.1406  134.4977  155.8035 LP  0  0  0  0  0  0  0  0  0  0  0  0  # atno 17395 bound_to 11000

$$$$
