#       Name:                AV-unprocessed.smi:2215
#       Creating user name   scv26
#       Creation time:       Fri Mar 27 12:18:11 2020


#       File generated by GOLD software.
#

@<TRIPOS>MOLECULE
AV-unprocessed.smi:2215
    45    46     1
SMALL
NO_CHARGES


@<TRIPOS>ATOM
      1 ****        -6.0345   3.7584  -1.1369 C.3            1 S1                 0.0000
      2 ****        -4.8909   2.7663  -1.1109 C.ar           1 S1                 0.0000
      3 ****        -5.1315   1.3797  -1.1361 C.ar           1 S1                 0.0000
      4 ****        -4.0324   0.4999  -1.1181 C.ar           1 S1                 0.0000
      5 ****        -2.7210   1.0248  -1.0778 C.ar           1 S1                 0.0000
      6 ****        -1.6848   0.0534  -1.0744 N.am           1 S1                 0.0000
      7 ****        -0.3555   0.2550  -1.0520 C.2            1 S1                 0.0000
      8 ****         0.1988   1.3523  -0.9818 O.2            1 S1                 0.0000
      9 ****         0.3115  -0.9064  -1.1140 N.am           1 S1                 0.0000
     10 ****         1.7652  -1.0393  -1.1124 C.3            1 S1                 0.0000
     11 ****         2.3720  -0.9601   0.3094 C.3            1 S1                 0.0000
     12 ****         1.7990  -2.0653   1.2280 C.3            1 S1                 0.0000
     13 ****         2.4179  -2.0331   2.6337 C.3            1 S1                 0.0000
     14 ****         3.9469  -2.1405   2.5670 C.3            1 S1                 0.0000
     15 ****         4.5301  -1.0268   1.6875 C.3            1 S1                 0.0000
     16 ****         3.9185  -1.0461   0.2742 C.3            1 S1                 0.0000
     17 ****         4.4563   0.0493  -0.4396 O.3            1 S1                 0.0000
     18 ****        -2.4995   2.3629  -1.0526 N.ar           1 S1                 0.0000
     19 ****        -3.5535   3.2056  -1.0691 C.ar           1 S1                 0.0000
     20 ****        -6.9529   3.3058  -0.7615 H              1 S1                 0.0000
     21 ****        -6.2112   4.1004  -2.1567 H              1 S1                 0.0000
     22 ****        -5.8062   4.6259  -0.5170 H              1 S1                 0.0000
     23 ****        -6.1396   0.9932  -1.1710 H              1 S1                 0.0000
     24 ****        -4.1997  -0.5671  -1.1389 H              1 S1                 0.0000
     25 ****        -1.9915  -0.9072  -1.1155 H              1 S1                 0.0000
     26 ****        -0.2231  -1.7609  -1.1680 H              1 S1                 0.0000
     27 ****         2.0146  -1.9975  -1.5690 H              1 S1                 0.0000
     28 ****         2.1933  -0.2743  -1.7619 H              1 S1                 0.0000
     29 ****         2.1019   0.0045   0.7431 H              1 S1                 0.0000
     30 ****         0.7173  -1.9629   1.3188 H              1 S1                 0.0000
     31 ****         1.9780  -3.0430   0.7788 H              1 S1                 0.0000
     32 ****         2.1362  -1.1072   3.1372 H              1 S1                 0.0000
     33 ****         2.0145  -2.8478   3.2356 H              1 S1                 0.0000
     34 ****         4.3695  -2.0828   3.5705 H              1 S1                 0.0000
     35 ****         4.2311  -3.1141   2.1654 H              1 S1                 0.0000
     36 ****         4.3412  -0.0613   2.1595 H              1 S1                 0.0000
     37 ****         5.6138  -1.1349   1.6286 H              1 S1                 0.0000
     38 ****         4.2203  -1.9628  -0.2342 H              1 S1                 0.0000
     39 ****         4.1005   0.0425  -1.3151 H              1 S1                 0.0000
     40 ****        -3.3206   4.2602  -1.0516 H              1 S1                 0.0000
     41 ****        -0.3494   2.1874  -0.9359 LP             1 S1                 0.0000
     42 ****         1.1972   1.4084  -0.9707 LP             1 S1                 0.0000
     43 ****         5.4522  -0.0312  -0.4801 LP             1 S1                 0.0000
     44 ****         4.2092   0.9036   0.0178 LP             1 S1                 0.0000
     45 ****        -1.5662   2.7207  -1.0222 LP             1 S1                 0.0000
@<TRIPOS>BOND
    1    1    2 1     
    2    1   20 1     
    3    1   21 1     
    4    1   22 1     
    5    2   19 ar    
    6    2    3 ar    
    7    3    4 ar    
    8    3   23 1     
    9    4    5 ar    
   10    4   24 1     
   11    5    6 1     
   12    5   18 ar    
   13    6    7 am    
   14    6   25 1     
   15    7    8 2     
   16    7    9 am    
   17    9   10 1     
   18    9   26 1     
   19   10   11 1     
   20   10   27 1     
   21   10   28 1     
   22   11   16 1     
   23   11   12 1     
   24   11   29 1     
   25   12   13 1     
   26   12   30 1     
   27   12   31 1     
   28   13   14 1     
   29   13   32 1     
   30   13   33 1     
   31   14   15 1     
   32   14   34 1     
   33   14   35 1     
   34   15   16 1     
   35   15   36 1     
   36   15   37 1     
   37   16   17 1     
   38   16   38 1     
   39   17   39 1     
   40   18   19 ar    
   41   19   40 1     
   42    8   41 1     
   43    8   42 1     
   44   17   43 1     
   45   17   44 1     
   46   18   45 1     
@<TRIPOS>SUBSTRUCTURE
      1 S1             1
@<TRIPOS>SET
LONE_PAIRS      STATIC     ATOMS    <user>   **** ""
5 41 42 43 44 45
DONOR_HYDROGENS      STATIC     ATOMS    <user>   **** ""
3 25 26 39
ATOM$BLUE        STATIC     ATOMS    COLORGROUP SYSTEM
5 41 42 43 44 45
ATOM$RED        STATIC     ATOMS    COLORGROUP SYSTEM
3 25 26 39
