#       Name:                AV-unprocessed.smi:2364
#       Creating user name   scv26
#       Creation time:       Fri Mar 27 13:05:28 2020


#       File generated by GOLD software.
#

@<TRIPOS>MOLECULE
AV-unprocessed.smi:2364
    52    53     1
SMALL
NO_CHARGES


@<TRIPOS>ATOM
      1 ****        -2.7949   1.4358  -3.5868 C.3            1 S1                 0.0000
      2 ****        -3.5431   0.5624  -2.5646 C.3            1 S1                 0.0000
      3 ****        -3.0673  -0.9172  -2.4621 C.3            1 S1                 0.0000
      4 ****        -3.8238  -1.6390  -1.3224 C.3            1 S1                 0.0000
      5 ****        -3.3086  -1.6781  -3.7908 C.3            1 S1                 0.0000
      6 ****        -4.6636  -1.6569  -4.1936 O.3            1 S1                 0.0000
      7 ****        -1.6203  -0.9943  -2.2118 N.am           1 S1                 0.0000
      8 ****        -0.9135  -0.4768  -1.1917 C.2            1 S1                 0.0000
      9 ****        -1.4079   0.1681  -0.2669 O.2            1 S1                 0.0000
     10 ****         0.3942  -0.7639  -1.3194 N.am           1 S1                 0.0000
     11 ****         1.4702  -0.3314  -0.5009 C.2            1 S1                 0.0000
     12 ****         2.7293  -0.7851  -0.7596 N.2            1 S1                 0.0000
     13 ****         3.3864  -0.1331   0.1907 C.2            1 S1                 0.0000
     14 ****         2.6127   0.6215   0.9818 N.pl3          1 S1                 0.0000
     15 ****         2.9704   1.5495   2.0595 C.3            1 S1                 0.0000
     16 ****         4.1680   1.0374   2.8935 C.3            1 S1                 0.0000
     17 ****         3.8021  -0.2104   3.7186 C.3            1 S1                 0.0000
     18 ****         2.6077   0.0719   4.6453 C.3            1 S1                 0.0000
     19 ****         1.4025   0.6199   3.8632 C.3            1 S1                 0.0000
     20 ****         1.7968   1.8516   3.0255 C.3            1 S1                 0.0000
     21 ****         1.3451   0.5359   0.5047 N.2            1 S1                 0.0000
     22 ****        -3.1868   2.4529  -3.5762 H              1 S1                 0.0000
     23 ****        -2.9087   1.0564  -4.6018 H              1 S1                 0.0000
     24 ****        -1.7294   1.4969  -3.3655 H              1 S1                 0.0000
     25 ****        -3.4670   1.0422  -1.5888 H              1 S1                 0.0000
     26 ****        -4.6074   0.5885  -2.8006 H              1 S1                 0.0000
     27 ****        -4.8978  -1.6624  -1.5093 H              1 S1                 0.0000
     28 ****        -3.6843  -1.1464  -0.3602 H              1 S1                 0.0000
     29 ****        -3.4885  -2.6710  -1.2137 H              1 S1                 0.0000
     30 ****        -2.7071  -1.2576  -4.5971 H              1 S1                 0.0000
     31 ****        -3.0015  -2.7203  -3.6934 H              1 S1                 0.0000
     32 ****        -4.7429  -2.1323  -5.0064 H              1 S1                 0.0000
     33 ****        -1.0944  -1.5047  -2.9058 H              1 S1                 0.0000
     34 ****         0.6541  -1.3424  -2.1044 H              1 S1                 0.0000
     35 ****         4.4577  -0.2069   0.3028 H              1 S1                 0.0000
     36 ****         3.2632   2.4821   1.5757 H              1 S1                 0.0000
     37 ****         5.0275   0.8291   2.2564 H              1 S1                 0.0000
     38 ****         4.4941   1.8271   3.5715 H              1 S1                 0.0000
     39 ****         3.5634  -1.0418   3.0542 H              1 S1                 0.0000
     40 ****         4.6611  -0.5275   4.3103 H              1 S1                 0.0000
     41 ****         2.3248  -0.8373   5.1765 H              1 S1                 0.0000
     42 ****         2.9036   0.7945   5.4068 H              1 S1                 0.0000
     43 ****         1.0003  -0.1605   3.2166 H              1 S1                 0.0000
     44 ****         0.6025   0.8841   4.5553 H              1 S1                 0.0000
     45 ****         2.0913   2.6566   3.7000 H              1 S1                 0.0000
     46 ****         0.9300   2.2319   2.4835 H              1 S1                 0.0000
     47 ****        -4.9614  -0.7114  -4.3255 LP             1 S1                 0.0000
     48 ****        -5.2305  -2.0901  -3.4929 LP             1 S1                 0.0000
     49 ****        -2.3937   0.3346  -0.2444 LP             1 S1                 0.0000
     50 ****        -0.8237   0.5255   0.4618 LP             1 S1                 0.0000
     51 ****         3.0594  -1.4203  -1.4578 LP             1 S1                 0.0000
     52 ****         0.5230   1.0056   0.8266 LP             1 S1                 0.0000
@<TRIPOS>BOND
    1    1    2 1     
    2    1   22 1     
    3    1   23 1     
    4    1   24 1     
    5    2    3 1     
    6    2   25 1     
    7    2   26 1     
    8    3    4 1     
    9    3    5 1     
   10    3    7 1     
   11    4   27 1     
   12    4   28 1     
   13    4   29 1     
   14    5    6 1     
   15    5   30 1     
   16    5   31 1     
   17    6   32 1     
   18    7    8 am    
   19    7   33 1     
   20    8    9 2     
   21    8   10 am    
   22   10   11 1     
   23   10   34 1     
   24   11   21 2     
   25   11   12 1     
   26   12   13 2     
   27   13   14 1     
   28   13   35 1     
   29   14   15 1     
   30   14   21 1     
   31   15   20 1     
   32   15   16 1     
   33   15   36 1     
   34   16   17 1     
   35   16   37 1     
   36   16   38 1     
   37   17   18 1     
   38   17   39 1     
   39   17   40 1     
   40   18   19 1     
   41   18   41 1     
   42   18   42 1     
   43   19   20 1     
   44   19   43 1     
   45   19   44 1     
   46   20   45 1     
   47   20   46 1     
   48    6   47 1     
   49    6   48 1     
   50    9   49 1     
   51    9   50 1     
   52   12   51 1     
   53   21   52 1     
@<TRIPOS>SUBSTRUCTURE
      1 S1             1
@<TRIPOS>SET
LONE_PAIRS      STATIC     ATOMS    <user>   **** ""
6 47 48 49 50 51 52
DONOR_HYDROGENS      STATIC     ATOMS    <user>   **** ""
3 32 33 34
ATOM$BLUE        STATIC     ATOMS    COLORGROUP SYSTEM
6 47 48 49 50 51 52
ATOM$RED        STATIC     ATOMS    COLORGROUP SYSTEM
3 32 33 34
