AV-unprocessed.smi:1436|AV-procd|sdf|5861|dock1
  -GOLD-   22720 5533D 1   1.00000     0.00000
 Structure written by MMmdl.
 44 45  0  0  0  0  0  0  0  0  2 V2000
  147.3349  141.9217  154.0518 C   0  0  0  0  0  0  0  0  0  0  0  0
  148.5770  141.0946  154.2206 C   0  0  0  0  0  0  0  0  0  0  0  0
  149.6968  141.6777  154.6113 N   0  0  0  0  0  0  0  0  0  0  0  0
  150.6513  140.6595  154.6914 O   0  0  0  0  0  0  0  0  0  0  0  0
  150.0600  139.4873  154.3491 C   0  0  0  0  0  0  0  0  0  0  0  0
  150.9213  138.2708  154.3966 C   0  0  0  0  0  0  0  0  0  0  0  0
  148.7431  139.6909  154.0380 C   0  0  0  0  0  0  0  0  0  0  0  0
  147.7048  138.6771  153.6269 C   0  0  0  0  0  0  0  0  0  0  0  0
  147.6739  137.5685  154.6749 C   0  0  0  0  0  0  0  0  0  0  0  0
  147.2681  137.8070  155.8116 O   0  0  0  0  0  0  0  0  0  0  0  0
  148.0407  136.3473  154.2544 N   0  0  0  0  0  0  0  0  0  0  0  0
  147.8887  135.1007  155.0030 C   0  0  2  0  0  0  0  0  0  0  0  0
  148.9227  135.0581  156.1359 C   0  0  0  0  0  0  0  0  0  0  0  0
  148.0289  133.8842  154.0585 C   0  0  0  0  0  0  0  0  0  0  0  0
  147.1353  133.9639  152.8738 N   0  3  0  0  0  0  0  0  0  0  0  0
  147.0867  132.7066  152.0921 C   0  0  0  0  0  0  0  0  0  0  0  0
  146.2051  132.8883  150.8440 C   0  0  0  0  0  0  0  0  0  0  0  0
  144.9058  133.3196  151.2297 O   0  0  0  0  0  0  0  0  0  0  0  0
  144.9388  134.5694  151.9076 C   0  0  0  0  0  0  0  0  0  0  0  0
  145.7654  134.4301  153.1960 C   0  0  0  0  0  0  0  0  0  0  0  0
  146.7083  141.8670  154.9424 H   0  0  0  0  0  0  0  0  0  0  0  0
  146.7421  141.5736  153.2059 H   0  0  0  0  0  0  0  0  0  0  0  0
  147.5719  142.9716  153.8759 H   0  0  0  0  0  0  0  0  0  0  0  0
  151.1472  137.9997  155.4279 H   0  0  0  0  0  0  0  0  0  0  0  0
  151.8638  138.4429  153.8765 H   0  0  0  0  0  0  0  0  0  0  0  0
  150.4281  137.4207  153.9258 H   0  0  0  0  0  0  0  0  0  0  0  0
  146.7147  139.1255  153.5374 H   0  0  0  0  0  0  0  0  0  0  0  0
  147.9297  138.2427  152.6522 H   0  0  0  0  0  0  0  0  0  0  0  0
  148.3767  136.2636  153.3056 H   0  0  0  0  0  0  0  0  0  0  0  0
  146.9038  135.0733  155.4717 H   0  0  0  0  0  0  0  0  0  0  0  0
  148.8189  134.1472  156.7265 H   0  0  0  0  0  0  0  0  0  0  0  0
  148.7986  135.9038  156.8132 H   0  0  0  0  0  0  0  0  0  0  0  0
  149.9417  135.0886  155.7481 H   0  0  0  0  0  0  0  0  0  0  0  0
  149.0634  133.8443  153.7133 H   0  0  0  0  0  0  0  0  0  0  0  0
  147.8527  132.9515  154.5962 H   0  0  0  0  0  0  0  0  0  0  0  0
  148.0939  132.4199  151.7871 H   0  0  0  0  0  0  0  0  0  0  0  0
  146.6952  131.9015  152.7159 H   0  0  0  0  0  0  0  0  0  0  0  0
  146.6460  133.6105  150.1567 H   0  0  0  0  0  0  0  0  0  0  0  0
  146.1202  131.9461  150.3024 H   0  0  0  0  0  0  0  0  0  0  0  0
  145.3565  135.3412  151.2585 H   0  0  0  0  0  0  0  0  0  0  0  0
  143.9184  134.8704  152.1457 H   0  0  0  0  0  0  0  0  0  0  0  0
  145.2852  133.7227  153.8738 H   0  0  0  0  0  0  0  0  0  0  0  0
  145.8009  135.3901  153.7100 H   0  0  0  0  0  0  0  0  0  0  0  0
  147.5419  134.6566  152.2609 H   0  0  0  0  0  0  0  0  0  0  0  0
  1  2  1  0  0  0  0
  1 21  1  0  0  0  0
  1 22  1  0  0  0  0
  1 23  1  0  0  0  0
  2  7  1  0  0  0  0
  2  3  2  0  0  0  0
  3  4  1  0  0  0  0
  4  5  1  0  0  0  0
  5  6  1  0  0  0  0
  5  7  2  0  0  0  0
  6 24  1  0  0  0  0
  6 25  1  0  0  0  0
  6 26  1  0  0  0  0
  7  8  1  0  0  0  0
  8  9  1  0  0  0  0
  8 27  1  0  0  0  0
  8 28  1  0  0  0  0
  9 10  2  0  0  0  0
  9 11  1  0  0  0  0
 11 12  1  0  0  0  0
 11 29  1  0  0  0  0
 12 13  1  0  0  0  0
 12 14  1  0  0  0  0
 12 30  1  0  0  0  0
 13 31  1  0  0  0  0
 13 32  1  0  0  0  0
 13 33  1  0  0  0  0
 14 15  1  0  0  0  0
 14 34  1  0  0  0  0
 14 35  1  0  0  0  0
 15 20  1  0  0  0  0
 15 16  1  0  0  0  0
 15 44  1  0  0  0  0
 16 17  1  0  0  0  0
 16 36  1  0  0  0  0
 16 37  1  0  0  0  0
 17 18  1  0  0  0  0
 17 38  1  0  0  0  0
 17 39  1  0  0  0  0
 18 19  1  0  0  0  0
 19 20  1  0  0  0  0
 19 40  1  0  0  0  0
 19 41  1  0  0  0  0
 20 42  1  0  0  0  0
 20 43  1  0  0  0  0
M  CHG  1  15   1
M  END
> <s_m_source_file>
AV-unprocessed.smi

> <i_m_source_file_index>
1436

> <i_lp_mmshare_version>
43012

> <i_f3d_flags>
0

> <s_epik_input>
W0NIM11jMW5vYyhbQ0gzXSljMVtDSDJdQyg9TylbTkhdW0NASF0oW0NIM10pW0NIMl1OMltDSDJdW0NIMl1PW0NIMl1bQ0gyXTI=

> <s_epik_cmdline>
J2VwaWtfcHl0aG9uJywgJy1waCcsICc3LjAnLCAnLXRuJywgJzgnLCAnLW1hJywgJzIwMCcsICctbWV0YWxfYmluZGluZycsICctaW1hZScsICc8aW5maWxlLm1hZT4nLCAnLW9tYWUnLCAnPG91dGZpbGUubWFlPic=

> <r_epik_Ionization_Penalty>
0.663207

> <r_epik_Ionization_Penalty_Charging>
0.663207

> <r_epik_Ionization_Penalty_Neutral>
1.07515e-07

> <r_epik_State_Penalty>
0.682743

> <r_epik_Charging_Adjusted_Penalty>
1.34595

> <i_epik_Tot_Q>
1

> <i_epik_Tot_abs_Q>
1

> <r_epik_Metal_State_Penalty>
0.682743

> <b_epik_Metal_Only>
0

> <s_lp_Force_Field>
OPLS_2005

> <r_lp_Energy>
13.3689

> <b_lp_Chiralities_Consistent>
1

> <s_lp_Variant>
AV-unprocessed.smi:1436-3

> <Gold.Version>
5.8.1

> <Gold.Id.Protein>
6NUR|6NUR_protein|mol2

> <Gold.PLP.Fitness>
40.4638

> <Gold.PLP.PLP>
-29.5263

> <Gold.PLP.part.hbond>
-4.2947

> <Gold.PLP.part.metal>
0.0000

> <Gold.PLP.part.buried>
-1.2076

> <Gold.PLP.part.nonpolar>
-24.8396

> <Gold.PLP.part.repulsive>
0.3776

> <Gold.PLP.ligand.clash>
0.0000

> <Gold.PLP.ligand.torsion>
0.3811

> <Gold.PLP.Chemscore.Hbond>
3.8784

> <Gold.PLP.Chemscore.CHOScore>
0.0000

> <Gold.PLP.Chemscore.Metal>
0.0000

> <Gold.Chemscore.Hbonds>
donor molecule, donor type, donor heavy atom, donor atom, acceptor molecule, acceptor atom, score
      L1  H    11    29       P1  7948  1.00
      L1  H    15    44       P1  7948  1.59
      P1  H  7989  7998       L1     4  0.94
      P1  H  8011  8017       L1     3  0.01

> <Gold.PLP.Chemscore.Internal.Correction>
0.0645

> <Gold.Rescore>
     Score         DG    S(hbond)    S(metal)    S(lipo)     H(rot)  DE(clash)    DE(int)     intcor
     15.15     -15.78       1.90        0.00      72.96       1.79       0.37       0.25       ----

> <Gold.Chemscore.Fitness>
15.1482

> <Gold.Chemscore.DG>
-15.7758

> <Gold.Chemscore.ZeroCoef>
-5.4800

> <Gold.Chemscore.Hbond>
1.9015

> <Gold.Chemscore.Metal>
0.0000

> <Gold.Chemscore.Lipo>
72.9611

> <Gold.Chemscore.Internal_Hbond>
0.0000

> <Gold.Chemscore.DEClash>
0.3745

> <Gold.Chemscore.DEInternal>
0.2531

> <Gold.Chemscore.Rot>
1.7936

> <Gold.Chemscore.Internal.Correction>
   9.000000E+99

> <Gold.Chemscore.Hbonds>
donor molecule, donor type, donor heavy atom, donor atom, acceptor molecule, acceptor atom, score
      L1  H    11    29       P1  7948  0.95
      L1  H    15    44       P1  7948  0.59
      P1  H  7989  7998       L1     4  0.17

> <Gold.Chemscore.Hbond.Weighted>
-6.3509

> <Gold.Chemscore.Metal.Weighted>
-0.0000

> <Gold.Chemscore.Lipo.Weighted>
-8.5365

> <Gold.Chemscore.Internal_Hbond.Weighted>
0.0000

> <Gold.Chemscore.DEClash.Weighted>
0.3745

> <Gold.Chemscore.DEInternal.Weighted>
0.2531

> <Gold.Chemscore.Rot.Weighted>
4.5916

> <Gold.Chemscore.Internal.Correction.Weighted>
   9.000000E+99

> <Gold.Protein.RotatedTorsions>
[ 6907 6896 6895 6894 ] final  175.65 input  -60.11 | X-H torsion
[ 7974 7965 7964 7962 ] final -139.31 input  175.53 | X-H torsion
[ 8008 7997 7996 7995 ] final  167.26 input   59.86 | X-H torsion
[ 10167 10162 10161 10158 ] final   35.99 input  -65.29 | X-H torsion
[ 10718 10713 10712 10709 ] final  -52.04 input   66.30 | X-H torsion
[ 10763 10752 10751 10750 ] final   52.14 input  -60.55 | X-H torsion
[ 11005 11000 10999 10996 ] final -134.34 input  -57.11 | X-H torsion

> <Gold.Protein.ActiveResidues>
 VAL166  LYS551  ARG553  GLY616  TRP617  ASP618  TYR619  PRO620  LYS621  CYS622 
 ASP623  PHE694  ASN695  SER759  ASP760  ASP761  ALA762  ILE779  LEU786  VAL792 
 PHE793  MET794  SER795  GLU796  ALA797  LYS798  CYS799  TRP800  GLU811  SER814 

> <Gold.Protein.RotatedAtoms>
  151.7328  133.3318  159.3344 H   0  0  0  0  0  0  0  0  0  0  0  0  # atno 6907 bound_to 6896
  150.7605  134.6348  159.6215 H   0  0  0  0  0  0  0  0  0  0  0  0  # atno 6908 bound_to 6896
  152.3581  134.6914  160.0267 H   0  0  0  0  0  0  0  0  0  0  0  0  # atno 6909 bound_to 6896
  144.8688  140.6334  143.5281 H   0  0  0  0  0  0  0  0  0  0  0  0  # atno 7974 bound_to 7965
  156.1649  140.1622  156.8548 H   0  0  0  0  0  0  0  0  0  0  0  0  # atno 8008 bound_to 7997
  154.5198  140.0781  156.8185 H   0  0  0  0  0  0  0  0  0  0  0  0  # atno 8009 bound_to 7997
  155.3631  140.3396  155.4243 H   0  0  0  0  0  0  0  0  0  0  0  0  # atno 8010 bound_to 7997
  140.4170  144.1513  150.6144 H   0  0  0  0  0  0  0  0  0  0  0  0  # atno 10167 bound_to 10162
  156.1656  130.4149  149.9725 H   0  0  0  0  0  0  0  0  0  0  0  0  # atno 10718 bound_to 10713
  152.9787  135.5822  154.4530 H   0  0  0  0  0  0  0  0  0  0  0  0  # atno 10763 bound_to 10752
  154.4116  135.2770  155.2035 H   0  0  0  0  0  0  0  0  0  0  0  0  # atno 10764 bound_to 10752
  154.3822  135.6144  153.5851 H   0  0  0  0  0  0  0  0  0  0  0  0  # atno 10765 bound_to 10752
  140.8998  134.1704  157.4468 H   0  0  0  0  0  0  0  0  0  0  0  0  # atno 11005 bound_to 11000
  145.4171  139.1570  143.4094 LP  0  0  0  0  0  0  0  0  0  0  0  0  # atno 17320 bound_to 7965
  146.2915  140.4279  142.8738 LP  0  0  0  0  0  0  0  0  0  0  0  0  # atno 17321 bound_to 7965
  140.4576  143.2461  151.9264 LP  0  0  0  0  0  0  0  0  0  0  0  0  # atno 17342 bound_to 10162
  139.4782  144.5500  151.8400 LP  0  0  0  0  0  0  0  0  0  0  0  0  # atno 17343 bound_to 10162
  156.7541  130.9126  151.3638 LP  0  0  0  0  0  0  0  0  0  0  0  0  # atno 17370 bound_to 10713
  157.6765  130.9100  150.0164 LP  0  0  0  0  0  0  0  0  0  0  0  0  # atno 17371 bound_to 10713
  139.8740  134.9893  156.5453 LP  0  0  0  0  0  0  0  0  0  0  0  0  # atno 17394 bound_to 11000
  140.8243  133.8329  155.8925 LP  0  0  0  0  0  0  0  0  0  0  0  0  # atno 17395 bound_to 11000

$$$$
