AV-unprocessed.smi:3|AV-procd|sdf|31|dock7
  -GOLD-   2262015143D 1   1.00000     0.00000
 Structure written by MMmdl.
 33 35  0  0  0  0  0  0  0  0  1 V2000
  149.7491  141.4755  156.1340 C   0  0  0  0  0  0  0  0  0  0  0  0
  150.7438  141.2914  157.1807 N   0  0  0  0  0  0  0  0  0  0  0  0
  151.7499  140.2440  157.0217 C   0  0  0  0  0  0  0  0  0  0  0  0
  151.8398  139.7515  155.5791 C   0  0  1  0  0  0  0  0  0  0  0  0
  152.8070  138.6138  155.2172 C   0  0  0  0  0  0  0  0  0  0  0  0
  151.7735  138.1024  154.2090 C   0  0  1  0  0  0  0  0  0  0  0  0
  151.6156  136.7057  154.0991 O   0  0  0  0  0  0  0  0  0  0  0  0
  150.7191  138.8653  155.0183 C   0  0  0  0  0  0  0  0  0  0  0  0
  150.9907  142.3143  158.1222 C   0  0  0  0  0  0  0  0  0  0  0  0
  150.2552  143.4493  158.0075 N   0  0  0  0  0  0  0  0  0  0  0  0
  150.4773  144.4446  158.9020 C   0  0  0  0  0  0  0  0  0  0  0  0
  151.3587  144.4579  159.9308 N   0  0  0  0  0  0  0  0  0  0  0  0
  152.1035  143.3228  160.0752 C   0  0  0  0  0  0  0  0  0  0  0  0
  153.0178  143.0667  161.0049 N   0  0  0  0  0  0  0  0  0  0  0  0
  153.4625  141.8232  160.7625 C   0  0  0  0  0  0  0  0  0  0  0  0
  152.8274  141.2007  159.6212 C   0  0  0  0  0  0  0  0  0  0  0  0
  151.9402  142.2339  159.1822 C   0  0  0  0  0  0  0  0  0  0  0  0
  151.9950  140.5828  154.8882 H   0  0  0  0  0  0  0  0  0  0  0  0
  151.9184  138.5407  153.2200 H   0  0  0  0  0  0  0  0  0  0  0  0
  148.9237  142.1006  156.4754 H   0  0  0  0  0  0  0  0  0  0  0  0
  149.3305  140.5122  155.8418 H   0  0  0  0  0  0  0  0  0  0  0  0
  150.1979  141.9267  155.2492 H   0  0  0  0  0  0  0  0  0  0  0  0
  152.7246  140.5826  157.3734 H   0  0  0  0  0  0  0  0  0  0  0  0
  151.4817  139.4146  157.6767 H   0  0  0  0  0  0  0  0  0  0  0  0
  153.7477  138.9479  154.7784 H   0  0  0  0  0  0  0  0  0  0  0  0
  152.9768  137.9195  156.0424 H   0  0  0  0  0  0  0  0  0  0  0  0
  151.1585  136.5417  153.2882 H   0  0  0  0  0  0  0  0  0  0  0  0
  150.2410  138.2485  155.7816 H   0  0  0  0  0  0  0  0  0  0  0  0
  149.9817  139.3986  154.4177 H   0  0  0  0  0  0  0  0  0  0  0  0
  149.8770  145.3340  158.7798 H   0  0  0  0  0  0  0  0  0  0  0  0
  154.2183  141.3656  161.3887 H   0  0  0  0  0  0  0  0  0  0  0  0
  152.9933  140.2084  159.2239 H   0  0  0  0  0  0  0  0  0  0  0  0
  151.4163  145.2718  160.5261 H   0  0  0  0  0  0  0  0  0  0  0  0
  1  2  1  0  0  0  0
  1 20  1  0  0  0  0
  1 21  1  0  0  0  0
  1 22  1  0  0  0  0
  2  3  1  0  0  0  0
  2  9  1  0  0  0  0
  3  4  1  0  0  0  0
  3 23  1  0  0  0  0
  3 24  1  0  0  0  0
  4 18  1  0  0  0  0
  4  8  1  0  0  0  0
  4  5  1  0  0  0  0
  5  6  1  0  0  0  0
  5 25  1  0  0  0  0
  5 26  1  0  0  0  0
  6 19  1  0  0  0  0
  6  7  1  0  0  0  0
  6  8  1  0  0  0  0
  7 27  1  0  0  0  0
  8 28  1  0  0  0  0
  8 29  1  0  0  0  0
  9 17  2  0  0  0  0
  9 10  1  0  0  0  0
 10 11  2  0  0  0  0
 11 12  1  0  0  0  0
 11 30  1  0  0  0  0
 12 13  1  0  0  0  0
 12 33  1  0  0  0  0
 13 17  1  0  0  0  0
 13 14  2  0  0  0  0
 14 15  1  0  0  0  0
 15 16  2  0  0  0  0
 15 31  1  0  0  0  0
 16 17  1  0  0  0  0
 16 32  1  0  0  0  0
M  END
> <s_m_source_file>
AV-unprocessed.smi

> <i_m_source_file_index>
3

> <i_lp_mmshare_version>
43012

> <i_f3d_flags>
0

> <s_epik_input>
W25IXTFbY0hdW2NIXWMoYzEyKWMobltjSF1uMilOKFtDSDNdKVtDSDJdW0NASF0zW0NIMl1bQ0BASF0oW09IXSlbQ0gyXTM=

> <s_epik_cmdline>
J2VwaWtfcHl0aG9uJywgJy1waCcsICc3LjAnLCAnLXRuJywgJzgnLCAnLW1hJywgJzIwMCcsICctbWV0YWxfYmluZGluZycsICctaW1hZScsICc8aW5maWxlLm1hZT4nLCAnLW9tYWUnLCAnPG91dGZpbGUubWFlPic=

> <r_lp_tautomer_probability>
1.75997e-05

> <r_epik_Ionization_Penalty>
5.52529

> <r_epik_Ionization_Penalty_Charging>
0

> <r_epik_Ionization_Penalty_Neutral>
5.52529

> <r_epik_State_Penalty>
8.99615

> <r_epik_Charging_Adjusted_Penalty>
8.99615

> <i_epik_Tot_Q>
0

> <i_epik_Tot_abs_Q>
0

> <r_epik_Metal_State_Penalty>
6.01519

> <b_epik_Metal_Only>
1

> <s_lp_Force_Field>
OPLS_2005

> <r_lp_Energy>
25.1021

> <b_lp_Chiralities_Consistent>
1

> <s_lp_Variant>
AV-unprocessed.smi:3-5

> <Gold.Version>
5.8.1

> <Gold.Id.Protein>
6NUR|6NUR_protein|mol2

> <Gold.PLP.Fitness>
45.4017

> <Gold.PLP.PLP>
-37.0009

> <Gold.PLP.part.hbond>
-2.0000

> <Gold.PLP.part.metal>
0.0000

> <Gold.PLP.part.buried>
-6.1418

> <Gold.PLP.part.nonpolar>
-31.0316

> <Gold.PLP.part.repulsive>
1.2530

> <Gold.PLP.ligand.clash>
0.9275

> <Gold.PLP.ligand.torsion>
0.4009

> <Gold.PLP.Chemscore.Hbond>
2.0000

> <Gold.PLP.Chemscore.CHOScore>
0.9510

> <Gold.PLP.Chemscore.Metal>
0.0000

> <Gold.Chemscore.Hbonds>
donor molecule, donor type, donor heavy atom, donor atom, acceptor molecule, acceptor atom, score
      L1  H     7    27       P1  7949  1.00
      P1  H 10752 10764       L1     7  1.00
      L1  C    11    30       P1  8029  0.95

> <Gold.PLP.Chemscore.Internal.Correction>
1.2770

> <Gold.Rescore>
     Score         DG    S(hbond)    S(metal)    S(lipo)     H(rot)  DE(clash)    DE(int)     intcor
     10.78     -13.98       1.45        0.00      71.41       1.84       0.64       2.56       ----

> <Gold.Chemscore.Fitness>
10.7778

> <Gold.Chemscore.DG>
-13.9793

> <Gold.Chemscore.ZeroCoef>
-5.4800

> <Gold.Chemscore.Hbond>
1.4531

> <Gold.Chemscore.Metal>
0.0000

> <Gold.Chemscore.Lipo>
71.4141

> <Gold.Chemscore.Internal_Hbond>
0.0000

> <Gold.Chemscore.DEClash>
0.6372

> <Gold.Chemscore.DEInternal>
2.5643

> <Gold.Chemscore.Rot>
1.8396

> <Gold.Chemscore.Internal.Correction>
   9.000000E+99

> <Gold.Chemscore.Hbonds>
donor molecule, donor type, donor heavy atom, donor atom, acceptor molecule, acceptor atom, score
      L1  H     7    27       P1  7949  0.42
      P1  H 10752 10764       L1     7  0.43

> <Gold.Chemscore.Hbond.Weighted>
-4.8533

> <Gold.Chemscore.Metal.Weighted>
-0.0000

> <Gold.Chemscore.Lipo.Weighted>
-8.3555

> <Gold.Chemscore.Internal_Hbond.Weighted>
0.0000

> <Gold.Chemscore.DEClash.Weighted>
0.6372

> <Gold.Chemscore.DEInternal.Weighted>
2.5643

> <Gold.Chemscore.Rot.Weighted>
4.7095

> <Gold.Chemscore.Internal.Correction.Weighted>
   9.000000E+99

> <Gold.Protein.RotatedTorsions>
[ 6907 6896 6895 6894 ] final -168.50 input  -60.11 | X-H torsion
[ 7974 7965 7964 7962 ] final   47.42 input  175.53 | X-H torsion
[ 8008 7997 7996 7995 ] final   24.08 input   59.86 | X-H torsion
[ 10167 10162 10161 10158 ] final  130.10 input  -65.29 | X-H torsion
[ 10718 10713 10712 10709 ] final -140.52 input   66.30 | X-H torsion
[ 10763 10752 10751 10750 ] final  -96.16 input  -60.55 | X-H torsion
[ 11005 11000 10999 10996 ] final   26.10 input  -57.11 | X-H torsion

> <Gold.Protein.ActiveResidues>
 VAL166  LYS551  ARG553  GLY616  TRP617  ASP618  TYR619  PRO620  LYS621  CYS622 
 ASP623  PHE694  ASN695  SER759  ASP760  ASP761  ALA762  ILE779  LEU786  VAL792 
 PHE793  MET794  SER795  GLU796  ALA797  LYS798  CYS799  TRP800  GLU811  SER814 

> <Gold.Protein.RotatedAtoms>
  151.4765  133.3556  159.2831 H   0  0  0  0  0  0  0  0  0  0  0  0  # atno 6907 bound_to 6896
  150.8925  134.8332  159.7314 H   0  0  0  0  0  0  0  0  0  0  0  0  # atno 6908 bound_to 6896
  152.4832  134.4677  159.9677 H   0  0  0  0  0  0  0  0  0  0  0  0  # atno 6909 bound_to 6896
  146.0299  139.4751  142.9844 H   0  0  0  0  0  0  0  0  0  0  0  0  # atno 7974 bound_to 7965
  154.9908  140.3113  155.4907 H   0  0  0  0  0  0  0  0  0  0  0  0  # atno 8008 bound_to 7997
  156.2940  140.2249  156.4953 H   0  0  0  0  0  0  0  0  0  0  0  0  # atno 8009 bound_to 7997
  154.7705  140.0452  157.1035 H   0  0  0  0  0  0  0  0  0  0  0  0  # atno 8010 bound_to 7997
  139.5446  144.6762  151.4514 H   0  0  0  0  0  0  0  0  0  0  0  0  # atno 10167 bound_to 10162
  156.3233  130.7546  151.1649 H   0  0  0  0  0  0  0  0  0  0  0  0  # atno 10718 bound_to 10713
  154.7214  135.5094  153.8818 H   0  0  0  0  0  0  0  0  0  0  0  0  # atno 10763 bound_to 10752
  153.0866  135.6647  153.9946 H   0  0  0  0  0  0  0  0  0  0  0  0  # atno 10764 bound_to 10752
  153.9767  135.3033  155.3403 H   0  0  0  0  0  0  0  0  0  0  0  0  # atno 10765 bound_to 10752
  140.3407  134.2336  155.7690 H   0  0  0  0  0  0  0  0  0  0  0  0  # atno 11005 bound_to 11000
  145.7057  141.0122  143.1480 LP  0  0  0  0  0  0  0  0  0  0  0  0  # atno 17320 bound_to 7965
  144.7026  139.8697  143.7439 LP  0  0  0  0  0  0  0  0  0  0  0  0  # atno 17321 bound_to 7965
  140.6689  143.8337  150.6975 LP  0  0  0  0  0  0  0  0  0  0  0  0  # atno 17342 bound_to 10162
  140.1755  143.4159  152.1971 LP  0  0  0  0  0  0  0  0  0  0  0  0  # atno 17343 bound_to 10162
  157.7416  131.0501  150.5084 LP  0  0  0  0  0  0  0  0  0  0  0  0  # atno 17370 bound_to 10713
  156.5239  130.4168  149.6236 LP  0  0  0  0  0  0  0  0  0  0  0  0  # atno 17371 bound_to 10713
  141.2039  133.7900  157.0314 LP  0  0  0  0  0  0  0  0  0  0  0  0  # atno 17394 bound_to 11000
  140.0783  134.9663  157.1583 LP  0  0  0  0  0  0  0  0  0  0  0  0  # atno 17395 bound_to 11000

$$$$
