AV-unprocessed.smi:3147|AV-procd|sdf|11987|dock7
  -GOLD-   2272017393D 1   1.00000     0.00000
 Structure written by MMmdl.
 37 38  0  0  0  0  0  0  0  0  2 V2000
  151.5625  145.2613  159.3065 C   0  0  0  0  0  0  0  0  0  0  0  0
  151.4874  143.9212  158.6555 C   0  0  0  0  0  0  0  0  0  0  0  0
  150.7545  143.6989  157.5194 N   0  3  0  0  0  0  0  0  0  0  0  0
  150.8572  142.4253  157.1367 C   0  0  0  0  0  0  0  0  0  0  0  0
  151.6560  141.8190  158.0219 N   0  0  0  0  0  0  0  0  0  0  0  0
  151.9993  140.3928  157.9078 C   0  0  0  0  0  0  0  0  0  0  0  0
  151.7489  139.8364  156.5018 C   0  0  0  0  0  0  0  0  0  0  0  0
  152.6708  139.7329  155.6916 O   0  0  0  0  0  0  0  0  0  0  0  0
  150.4853  139.4771  156.2314 N   0  0  0  0  0  0  0  0  0  0  0  0
  150.0282  138.8809  154.9795 C   0  0  0  0  0  0  0  0  0  0  0  0
  148.9281  139.7139  154.2950 C   0  0  2  0  0  0  0  0  0  0  0  0
  149.0830  141.2318  154.3927 C   0  0  0  0  0  0  0  0  0  0  0  0
  147.6757  141.6885  154.0804 C   0  0  0  0  0  0  0  0  0  0  0  0
  146.8254  140.6140  154.7578 C   0  0  0  0  0  0  0  0  0  0  0  0
  147.6429  139.4481  154.8477 O   0  0  0  0  0  0  0  0  0  0  0  0
  152.0692  142.7177  158.9807 C   0  0  0  0  0  0  0  0  0  0  0  0
  152.9824  142.3496  160.1044 C   0  0  0  0  0  0  0  0  0  0  0  0
  151.4894  145.1594  160.3896 H   0  0  0  0  0  0  0  0  0  0  0  0
  150.7501  145.9034  158.9646 H   0  0  0  0  0  0  0  0  0  0  0  0
  152.5111  145.7413  159.0651 H   0  0  0  0  0  0  0  0  0  0  0  0
  150.3894  141.9768  156.2783 H   0  0  0  0  0  0  0  0  0  0  0  0
  153.0482  140.2746  158.1827 H   0  0  0  0  0  0  0  0  0  0  0  0
  151.4096  139.8291  158.6320 H   0  0  0  0  0  0  0  0  0  0  0  0
  149.7909  139.6009  156.9540 H   0  0  0  0  0  0  0  0  0  0  0  0
  150.8890  138.8049  154.3149 H   0  0  0  0  0  0  0  0  0  0  0  0
  149.6803  137.8594  155.1408 H   0  0  0  0  0  0  0  0  0  0  0  0
  148.8841  139.4373  153.2403 H   0  0  0  0  0  0  0  0  0  0  0  0
  149.3544  141.5428  155.4019 H   0  0  0  0  0  0  0  0  0  0  0  0
  149.8249  141.6293  153.6997 H   0  0  0  0  0  0  0  0  0  0  0  0
  147.4596  142.6943  154.4415 H   0  0  0  0  0  0  0  0  0  0  0  0
  147.5110  141.6713  153.0020 H   0  0  0  0  0  0  0  0  0  0  0  0
  146.5490  140.9231  155.7659 H   0  0  0  0  0  0  0  0  0  0  0  0
  145.9084  140.4107  154.2042 H   0  0  0  0  0  0  0  0  0  0  0  0
  153.0920  143.1839  160.7971 H   0  0  0  0  0  0  0  0  0  0  0  0
  153.9680  142.0934  159.7164 H   0  0  0  0  0  0  0  0  0  0  0  0
  152.5878  141.4955  160.6549 H   0  0  0  0  0  0  0  0  0  0  0  0
  150.2123  144.4018  157.0331 H   0  0  0  0  0  0  0  0  0  0  0  0
  1  2  1  0  0  0  0
  1 18  1  0  0  0  0
  1 19  1  0  0  0  0
  1 20  1  0  0  0  0
  2 16  2  0  0  0  0
  2  3  1  0  0  0  0
  3  4  2  0  0  0  0
  3 37  1  0  0  0  0
  4  5  1  0  0  0  0
  4 21  1  0  0  0  0
  5  6  1  0  0  0  0
  5 16  1  0  0  0  0
  6  7  1  0  0  0  0
  6 22  1  0  0  0  0
  6 23  1  0  0  0  0
  7  8  2  0  0  0  0
  7  9  1  0  0  0  0
  9 10  1  0  0  0  0
  9 24  1  0  0  0  0
 10 11  1  0  0  0  0
 10 25  1  0  0  0  0
 10 26  1  0  0  0  0
 11 15  1  0  0  0  0
 11 12  1  0  0  0  0
 11 27  1  0  0  0  0
 12 13  1  0  0  0  0
 12 28  1  0  0  0  0
 12 29  1  0  0  0  0
 13 14  1  0  0  0  0
 13 30  1  0  0  0  0
 13 31  1  0  0  0  0
 14 15  1  0  0  0  0
 14 32  1  0  0  0  0
 14 33  1  0  0  0  0
 16 17  1  0  0  0  0
 17 34  1  0  0  0  0
 17 35  1  0  0  0  0
 17 36  1  0  0  0  0
M  CHG  1   3   1
M  END
> <s_m_source_file>
AV-unprocessed.smi

> <i_m_source_file_index>
3147

> <i_lp_mmshare_version>
43012

> <i_f3d_flags>
0

> <s_epik_input>
W0NIM11jMW5bY0hdbihjMVtDSDNdKVtDSDJdQyg9TylbTkhdW0NIMl1bQ0BASF0yW0NIMl1bQ0gyXVtDSDJdTzI=

> <s_epik_cmdline>
J2VwaWtfcHl0aG9uJywgJy1waCcsICc3LjAnLCAnLXRuJywgJzgnLCAnLW1hJywgJzIwMCcsICctbWV0YWxfYmluZGluZycsICctaW1hZScsICc8aW5maWxlLm1hZT4nLCAnLW9tYWUnLCAnPG91dGZpbGUubWFlPic=

> <r_lp_tautomer_probability>
1

> <r_epik_Ionization_Penalty>
0.131257

> <r_epik_Ionization_Penalty_Charging>
0

> <r_epik_Ionization_Penalty_Neutral>
0.131257

> <r_epik_State_Penalty>
0.12065

> <r_epik_Charging_Adjusted_Penalty>
0.12065

> <i_epik_Tot_Q>
1

> <i_epik_Tot_abs_Q>
1

> <r_epik_Metal_State_Penalty>
0.448684

> <b_epik_Metal_Only>
0

> <s_lp_Force_Field>
OPLS_2005

> <r_lp_Energy>
20.508

> <b_lp_Chiralities_Consistent>
1

> <s_lp_Variant>
AV-unprocessed.smi:3147-1

> <Gold.Version>
5.8.1

> <Gold.Id.Protein>
6NUR|6NUR_protein|mol2

> <Gold.PLP.Fitness>
45.4136

> <Gold.PLP.PLP>
-38.9369

> <Gold.PLP.part.hbond>
-2.0000

> <Gold.PLP.part.metal>
0.0000

> <Gold.PLP.part.buried>
-4.1931

> <Gold.PLP.part.nonpolar>
-33.4982

> <Gold.PLP.part.repulsive>
0.1090

> <Gold.PLP.ligand.clash>
0.0000

> <Gold.PLP.ligand.torsion>
0.8081

> <Gold.PLP.Chemscore.Hbond>
2.6960

> <Gold.PLP.Chemscore.CHOScore>
0.0000

> <Gold.PLP.Chemscore.Metal>
0.0000

> <Gold.Chemscore.Hbonds>
donor molecule, donor type, donor heavy atom, donor atom, acceptor molecule, acceptor atom, score
      L1  H     3    37       P1  8028  1.89
      P1  H  7997  8009       L1     8  1.00

> <Gold.PLP.Chemscore.Internal.Correction>
0.0049

> <Gold.Rescore>
     Score         DG    S(hbond)    S(metal)    S(lipo)     H(rot)  DE(clash)    DE(int)     intcor
     16.68     -17.46       1.89        0.00      86.90       1.76       0.02       0.76       ----

> <Gold.Chemscore.Fitness>
16.6807

> <Gold.Chemscore.DG>
-17.4608

> <Gold.Chemscore.ZeroCoef>
-5.4800

> <Gold.Chemscore.Hbond>
1.8903

> <Gold.Chemscore.Metal>
0.0000

> <Gold.Chemscore.Lipo>
86.8970

> <Gold.Chemscore.Internal_Hbond>
0.0000

> <Gold.Chemscore.DEClash>
0.0212

> <Gold.Chemscore.DEInternal>
0.7589

> <Gold.Chemscore.Rot>
1.7577

> <Gold.Chemscore.Internal.Correction>
   9.000000E+99

> <Gold.Chemscore.Hbonds>
donor molecule, donor type, donor heavy atom, donor atom, acceptor molecule, acceptor atom, score
      L1  H     3    37       P1  8028  0.71
      P1  H  7997  8009       L1     8  1.00

> <Gold.Chemscore.Hbond.Weighted>
-6.3137

> <Gold.Chemscore.Metal.Weighted>
-0.0000

> <Gold.Chemscore.Lipo.Weighted>
-10.1670

> <Gold.Chemscore.Internal_Hbond.Weighted>
0.0000

> <Gold.Chemscore.DEClash.Weighted>
0.0212

> <Gold.Chemscore.DEInternal.Weighted>
0.7589

> <Gold.Chemscore.Rot.Weighted>
4.4998

> <Gold.Chemscore.Internal.Correction.Weighted>
   9.000000E+99

> <Gold.Protein.RotatedTorsions>
[ 6907 6896 6895 6894 ] final   98.72 input  -60.11 | X-H torsion
[ 7974 7965 7964 7962 ] final  116.76 input  175.53 | X-H torsion
[ 8008 7997 7996 7995 ] final -143.37 input   59.86 | X-H torsion
[ 10167 10162 10161 10158 ] final  159.83 input  -65.29 | X-H torsion
[ 10718 10713 10712 10709 ] final  102.15 input   66.30 | X-H torsion
[ 10763 10752 10751 10750 ] final -115.74 input  -60.55 | X-H torsion
[ 11005 11000 10999 10996 ] final -115.16 input  -57.11 | X-H torsion

> <Gold.Protein.ActiveResidues>
 VAL166  LYS551  ARG553  GLY616  TRP617  ASP618  TYR619  PRO620  LYS621  CYS622 
 ASP623  PHE694  ASN695  SER759  ASP760  ASP761  ALA762  ILE779  LEU786  VAL792 
 PHE793  MET794  SER795  GLU796  ALA797  LYS798  CYS799  TRP800  GLU811  SER814 

> <Gold.Protein.RotatedAtoms>
  152.5404  134.0537  159.8120 H   0  0  0  0  0  0  0  0  0  0  0  0  # atno 6907 bound_to 6896
  151.0675  133.5486  159.2637 H   0  0  0  0  0  0  0  0  0  0  0  0  # atno 6908 bound_to 6896
  151.2362  135.0580  159.9061 H   0  0  0  0  0  0  0  0  0  0  0  0  # atno 6909 bound_to 6896
  145.1756  139.3077  143.4445 H   0  0  0  0  0  0  0  0  0  0  0  0  # atno 7974 bound_to 7965
  155.5094  140.0582  157.2926 H   0  0  0  0  0  0  0  0  0  0  0  0  # atno 8008 bound_to 7997
  154.4557  140.1971  156.0335 H   0  0  0  0  0  0  0  0  0  0  0  0  # atno 8009 bound_to 7997
  156.0794  140.3249  155.7679 H   0  0  0  0  0  0  0  0  0  0  0  0  # atno 8010 bound_to 7997
  139.4835  144.4693  151.8599 H   0  0  0  0  0  0  0  0  0  0  0  0  # atno 10167 bound_to 10162
  157.6810  131.0745  150.5360 H   0  0  0  0  0  0  0  0  0  0  0  0  # atno 10718 bound_to 10713
  154.8493  135.4371  154.1711 H   0  0  0  0  0  0  0  0  0  0  0  0  # atno 10763 bound_to 10752
  153.2824  135.6954  153.7378 H   0  0  0  0  0  0  0  0  0  0  0  0  # atno 10764 bound_to 10752
  153.6577  135.3440  155.3093 H   0  0  0  0  0  0  0  0  0  0  0  0  # atno 10765 bound_to 10752
  141.0505  133.9694  157.2843 H   0  0  0  0  0  0  0  0  0  0  0  0  # atno 11005 bound_to 11000
  146.3461  140.1917  142.8589 LP  0  0  0  0  0  0  0  0  0  0  0  0  # atno 17320 bound_to 7965
  145.0188  140.8776  143.5179 LP  0  0  0  0  0  0  0  0  0  0  0  0  # atno 17321 bound_to 7965
  140.4160  144.2306  150.5888 LP  0  0  0  0  0  0  0  0  0  0  0  0  # atno 17342 bound_to 10162
  140.4920  143.2344  151.8805 LP  0  0  0  0  0  0  0  0  0  0  0  0  # atno 17343 bound_to 10162
  156.5668  130.4269  149.6037 LP  0  0  0  0  0  0  0  0  0  0  0  0  # atno 17370 bound_to 10713
  156.2774  130.7051  151.1866 LP  0  0  0  0  0  0  0  0  0  0  0  0  # atno 17371 bound_to 10713
  139.9347  135.0197  156.8516 LP  0  0  0  0  0  0  0  0  0  0  0  0  # atno 17394 bound_to 11000
  140.6063  134.0124  155.7558 LP  0  0  0  0  0  0  0  0  0  0  0  0  # atno 17395 bound_to 11000

$$$$
