AV-unprocessed.smi:1683|AV-procd|sdf|6747|dock7
  -GOLD-   22720 7503D 1   1.00000     0.00000
 Structure written by MMmdl.
 36 37  0  0  0  0  0  0  0  0  1 V2000
  144.5674  136.7098  151.2113 O   0  0  0  0  0  0  0  0  0  0  0  0
  145.7563  136.4268  151.3619 C   0  0  0  0  0  0  0  0  0  0  0  0
  146.6995  137.3252  151.6804 N   0  0  0  0  0  0  0  0  0  0  0  0
  146.4720  138.7497  151.9044 C   0  0  0  0  0  0  0  0  0  0  0  0
  146.8115  139.1657  153.3480 C   0  0  2  0  0  0  0  0  0  0  0  0
  146.8779  140.6801  153.5518 C   0  0  0  0  0  0  0  0  0  0  0  0
  148.1599  140.9160  154.3559 C   0  0  0  0  0  0  0  0  0  0  0  0
  148.4766  139.6124  154.9277 N   0  0  0  0  0  0  0  0  0  0  0  0
  149.8679  139.4859  155.3576 C   0  0  0  0  0  0  0  0  0  0  0  0
  150.1546  140.1897  156.6986 C   0  0  0  0  0  0  0  0  0  0  0  0
  150.1905  141.5051  156.4889 F   0  0  0  0  0  0  0  0  0  0  0  0
  149.2030  139.9388  157.5976 F   0  0  0  0  0  0  0  0  0  0  0  0
  151.3351  139.8063  157.1856 F   0  0  0  0  0  0  0  0  0  0  0  0
  148.1753  138.6831  153.8486 C   0  0  0  0  0  0  0  0  0  0  0  0
  146.2798  135.1973  151.2271 N   0  0  0  0  0  0  0  0  0  0  0  0
  145.5899  133.9962  150.9229 C   0  0  0  0  0  0  0  0  0  0  0  0
  146.1570  132.6952  151.0013 C   0  0  0  0  0  0  0  0  0  0  0  0
  145.2776  131.7627  150.6636 N   0  0  0  0  0  0  0  0  0  0  0  0
  144.1542  132.4562  150.3712 N   0  0  0  0  0  0  0  0  0  0  0  0
  144.2974  133.8187  150.5154 C   0  0  0  0  0  0  0  0  0  0  0  0
  143.3067  131.9905  150.0791 H   0  0  0  0  0  0  0  0  0  0  0  0
  147.6498  136.9987  151.7788 H   0  0  0  0  0  0  0  0  0  0  0  0
  147.0343  139.3535  151.1899 H   0  0  0  0  0  0  0  0  0  0  0  0
  145.4186  138.9501  151.7071 H   0  0  0  0  0  0  0  0  0  0  0  0
  146.0460  138.7695  154.0178 H   0  0  0  0  0  0  0  0  0  0  0  0
  146.9151  141.2279  152.6095 H   0  0  0  0  0  0  0  0  0  0  0  0
  146.0014  141.0283  154.0997 H   0  0  0  0  0  0  0  0  0  0  0  0
  148.9608  141.2358  153.6869 H   0  0  0  0  0  0  0  0  0  0  0  0
  148.0280  141.6794  155.1229 H   0  0  0  0  0  0  0  0  0  0  0  0
  150.0822  138.4232  155.4795 H   0  0  0  0  0  0  0  0  0  0  0  0
  150.5422  139.8518  154.5818 H   0  0  0  0  0  0  0  0  0  0  0  0
  148.1520  137.6495  154.1958 H   0  0  0  0  0  0  0  0  0  0  0  0
  148.9250  138.7658  153.0595 H   0  0  0  0  0  0  0  0  0  0  0  0
  147.2761  135.1086  151.3643 H   0  0  0  0  0  0  0  0  0  0  0  0
  147.1566  132.4020  151.2866 H   0  0  0  0  0  0  0  0  0  0  0  0
  143.4898  134.5090  150.3213 H   0  0  0  0  0  0  0  0  0  0  0  0
  1  2  2  0  0  0  0
  2  3  1  0  0  0  0
  2 15  1  0  0  0  0
  3  4  1  0  0  0  0
  3 22  1  0  0  0  0
  4  5  1  0  0  0  0
  4 23  1  0  0  0  0
  4 24  1  0  0  0  0
  5 14  1  0  0  0  0
  5  6  1  0  0  0  0
  5 25  1  0  0  0  0
  6  7  1  0  0  0  0
  6 26  1  0  0  0  0
  6 27  1  0  0  0  0
  7  8  1  0  0  0  0
  7 28  1  0  0  0  0
  7 29  1  0  0  0  0
  8  9  1  0  0  0  0
  8 14  1  0  0  0  0
  9 10  1  0  0  0  0
  9 30  1  0  0  0  0
  9 31  1  0  0  0  0
 10 11  1  0  0  0  0
 10 12  1  0  0  0  0
 10 13  1  0  0  0  0
 14 32  1  0  0  0  0
 14 33  1  0  0  0  0
 15 16  1  0  0  0  0
 15 34  1  0  0  0  0
 16 20  2  0  0  0  0
 16 17  1  0  0  0  0
 17 18  2  0  0  0  0
 17 35  1  0  0  0  0
 18 19  1  0  0  0  0
 19 21  1  0  0  0  0
 19 20  1  0  0  0  0
 20 36  1  0  0  0  0
M  END
> <s_m_source_file>
AV-unprocessed.smi

> <i_m_source_file_index>
1683

> <i_lp_mmshare_version>
43012

> <i_f3d_flags>
0

> <s_epik_input>
W2NIXTFbbkhdbltjSF1jMVtOSF1DKD1PKVtOSF1bQ0gyXVtDQEBIXTJbQ0gyXVtDSDJdTihbQ0gyXTIpW0NIMl1DKEYpKEYpRg==

> <s_epik_cmdline>
J2VwaWtfcHl0aG9uJywgJy1waCcsICc3LjAnLCAnLXRuJywgJzgnLCAnLW1hJywgJzIwMCcsICctbWV0YWxfYmluZGluZycsICctaW1hZScsICc8aW5maWxlLm1hZT4nLCAnLW9tYWUnLCAnPG91dGZpbGUubWFlPic=

> <r_lp_tautomer_probability>
0.5

> <r_epik_Ionization_Penalty>
0.244885

> <r_epik_Ionization_Penalty_Charging>
0

> <r_epik_Ionization_Penalty_Neutral>
0.244885

> <r_epik_State_Penalty>
0.235951

> <r_epik_Charging_Adjusted_Penalty>
0.235951

> <i_epik_Tot_Q>
0

> <i_epik_Tot_abs_Q>
0

> <r_epik_Metal_State_Penalty>
0.23595

> <b_epik_Metal_Only>
0

> <s_lp_Force_Field>
OPLS_2005

> <r_lp_Energy>
32.4259

> <b_lp_Chiralities_Consistent>
1

> <s_lp_Variant>
AV-unprocessed.smi:1683-1

> <Gold.Version>
5.8.1

> <Gold.Id.Protein>
6NUR|6NUR_protein|mol2

> <Gold.PLP.Fitness>
41.4171

> <Gold.PLP.PLP>
-31.4878

> <Gold.PLP.part.hbond>
-1.9308

> <Gold.PLP.part.metal>
0.0000

> <Gold.PLP.part.buried>
-3.5604

> <Gold.PLP.part.nonpolar>
-30.5174

> <Gold.PLP.part.repulsive>
3.4362

> <Gold.PLP.ligand.clash>
0.0000

> <Gold.PLP.ligand.torsion>
0.3706

> <Gold.PLP.Chemscore.Hbond>
1.8393

> <Gold.PLP.Chemscore.CHOScore>
1.5743

> <Gold.PLP.Chemscore.Metal>
0.0000

> <Gold.Chemscore.Hbonds>
donor molecule, donor type, donor heavy atom, donor atom, acceptor molecule, acceptor atom, score
      L1  H     3    22       P1  7948  0.89
      L1  H    15    34       P1  7948  0.85
      L1  C    17    35       P1 10747  0.85
      L1  C    20    36       P1 10186  0.84

> <Gold.PLP.Chemscore.Internal.Correction>
0.4300

> <Gold.Rescore>
     Score         DG    S(hbond)    S(metal)    S(lipo)     H(rot)  DE(clash)    DE(int)     intcor
     11.55     -14.75       1.90        0.00      64.01       1.78       1.60       1.60       ----

> <Gold.Chemscore.Fitness>
11.5504

> <Gold.Chemscore.DG>
-14.7503

> <Gold.Chemscore.ZeroCoef>
-5.4800

> <Gold.Chemscore.Hbond>
1.8972

> <Gold.Chemscore.Metal>
0.0000

> <Gold.Chemscore.Lipo>
64.0066

> <Gold.Chemscore.Internal_Hbond>
0.0000

> <Gold.Chemscore.DEClash>
1.6045

> <Gold.Chemscore.DEInternal>
1.5953

> <Gold.Chemscore.Rot>
1.7793

> <Gold.Chemscore.Internal.Correction>
   9.000000E+99

> <Gold.Chemscore.Hbonds>
donor molecule, donor type, donor heavy atom, donor atom, acceptor molecule, acceptor atom, score
      L1  H     3    22       P1  7948  0.87
      L1  H    15    34       P1  7948  0.54

> <Gold.Chemscore.Hbond.Weighted>
-6.3366

> <Gold.Chemscore.Metal.Weighted>
-0.0000

> <Gold.Chemscore.Lipo.Weighted>
-7.4888

> <Gold.Chemscore.Internal_Hbond.Weighted>
0.0000

> <Gold.Chemscore.DEClash.Weighted>
1.6045

> <Gold.Chemscore.DEInternal.Weighted>
1.5953

> <Gold.Chemscore.Rot.Weighted>
4.5551

> <Gold.Chemscore.Internal.Correction.Weighted>
   9.000000E+99

> <Gold.Protein.RotatedTorsions>
[ 6907 6896 6895 6894 ] final  126.53 input  -60.11 | X-H torsion
[ 7974 7965 7964 7962 ] final   -0.60 input  175.53 | X-H torsion
[ 8008 7997 7996 7995 ] final  -60.61 input   59.86 | X-H torsion
[ 10167 10162 10161 10158 ] final -168.08 input  -65.29 | X-H torsion
[ 10718 10713 10712 10709 ] final  100.52 input   66.30 | X-H torsion
[ 10763 10752 10751 10750 ] final  -77.40 input  -60.55 | X-H torsion
[ 11005 11000 10999 10996 ] final    9.61 input  -57.11 | X-H torsion

> <Gold.Protein.ActiveResidues>
 VAL166  LYS551  ARG553  GLY616  TRP617  ASP618  TYR619  PRO620  LYS621  CYS622 
 ASP623  PHE694  ASN695  SER759  ASP760  ASP761  ALA762  ILE779  LEU786  VAL792 
 PHE793  MET794  SER795  GLU796  ALA797  LYS798  CYS799  TRP800  GLU811  SER814 

> <Gold.Protein.RotatedAtoms>
  152.3895  133.6658  159.6225 H   0  0  0  0  0  0  0  0  0  0  0  0  # atno 6907 bound_to 6896
  150.7806  133.8978  159.3341 H   0  0  0  0  0  0  0  0  0  0  0  0  # atno 6908 bound_to 6896
  151.6768  135.0969  160.0260 H   0  0  0  0  0  0  0  0  0  0  0  0  # atno 6909 bound_to 6896
  146.2426  140.1294  142.8338 H   0  0  0  0  0  0  0  0  0  0  0  0  # atno 7974 bound_to 7965
  154.4407  140.1035  156.6301 H   0  0  0  0  0  0  0  0  0  0  0  0  # atno 8008 bound_to 7997
  155.5613  140.3487  155.4473 H   0  0  0  0  0  0  0  0  0  0  0  0  # atno 8009 bound_to 7997
  156.0457  140.1292  157.0095 H   0  0  0  0  0  0  0  0  0  0  0  0  # atno 8010 bound_to 7997
  139.6008  144.1014  152.1741 H   0  0  0  0  0  0  0  0  0  0  0  0  # atno 10167 bound_to 10162
  157.6852  131.0701  150.5113 H   0  0  0  0  0  0  0  0  0  0  0  0  # atno 10718 bound_to 10713
  154.5125  135.5765  153.6616 H   0  0  0  0  0  0  0  0  0  0  0  0  # atno 10763 bound_to 10752
  152.9900  135.6162  154.2860 H   0  0  0  0  0  0  0  0  0  0  0  0  # atno 10764 bound_to 10752
  154.2776  135.2851  155.2691 H   0  0  0  0  0  0  0  0  0  0  0  0  # atno 10765 bound_to 10752
  140.5238  134.0533  155.7852 H   0  0  0  0  0  0  0  0  0  0  0  0  # atno 11005 bound_to 11000
  145.0339  140.8892  143.5093 LP  0  0  0  0  0  0  0  0  0  0  0  0  # atno 17320 bound_to 7965
  145.1363  139.2600  143.5513 LP  0  0  0  0  0  0  0  0  0  0  0  0  # atno 17321 bound_to 7965
  140.0610  144.5856  150.7263 LP  0  0  0  0  0  0  0  0  0  0  0  0  # atno 17342 bound_to 10162
  140.7248  143.2625  151.4157 LP  0  0  0  0  0  0  0  0  0  0  0  0  # atno 17343 bound_to 10162
  156.5430  130.4213  149.6144 LP  0  0  0  0  0  0  0  0  0  0  0  0  # atno 17370 bound_to 10713
  156.2968  130.7155  151.2017 LP  0  0  0  0  0  0  0  0  0  0  0  0  # atno 17371 bound_to 10713
  141.1319  133.9287  157.2516 LP  0  0  0  0  0  0  0  0  0  0  0  0  # atno 17394 bound_to 11000
  139.9591  135.0158  156.9211 LP  0  0  0  0  0  0  0  0  0  0  0  0  # atno 17395 bound_to 11000

$$$$
