AV-unprocessed.smi:3255|AV-procd|sdf|12458|dock9
  -GOLD-   2272018353D 1   1.00000     0.00000
 Structure written by MMmdl.
 39 40  0  0  0  0  0  0  0  0  2 V2000
  148.1341  140.3957  154.1019 C   0  0  0  0  0  0  0  0  0  0  0  0
  148.7364  139.0050  154.3493 C   0  0  1  0  0  0  0  0  0  0  0  0
  148.0778  138.0339  153.4768 N   0  0  0  0  0  0  0  0  0  0  0  0
  146.7928  137.6624  153.5591 C   0  0  0  0  0  0  0  0  0  0  0  0
  145.9878  138.1233  154.3690 O   0  0  0  0  0  0  0  0  0  0  0  0
  146.4893  136.7130  152.6634 N   0  0  0  0  0  0  0  0  0  0  0  0
  145.1790  136.0863  152.5391 C   0  0  0  0  0  0  0  0  0  0  0  0
  144.8687  135.7188  151.0782 C   0  0  0  0  0  0  0  0  0  0  0  0
  145.2081  134.3255  150.7882 N   0  0  0  0  0  0  0  0  0  0  0  0
  144.3757  133.3446  150.3140 C   0  0  0  0  0  0  0  0  0  0  0  0
  145.1357  132.2083  150.2036 C   0  0  0  0  0  0  0  0  0  0  0  0
  146.3978  132.5439  150.6159 N   0  3  0  0  0  0  0  0  0  0  0  0
  146.4395  133.8320  150.9714 C   0  0  0  0  0  0  0  0  0  0  0  0
  150.2716  139.0008  154.1602 C   0  0  2  0  0  0  0  0  0  0  0  0
  151.0193  137.7684  154.6874 C   0  0  0  0  0  0  0  0  0  0  0  0
  152.3819  138.3429  155.0011 C   0  0  0  0  0  0  0  0  0  0  0  0
  152.0107  139.7142  155.5528 C   0  0  0  0  0  0  0  0  0  0  0  0
  150.8707  140.1243  154.8052 O   0  0  0  0  0  0  0  0  0  0  0  0
  148.5790  141.1384  154.7646 H   0  0  0  0  0  0  0  0  0  0  0  0
  147.0591  140.3961  154.2849 H   0  0  0  0  0  0  0  0  0  0  0  0
  148.2968  140.7255  153.0754 H   0  0  0  0  0  0  0  0  0  0  0  0
  148.5232  138.7478  155.3885 H   0  0  0  0  0  0  0  0  0  0  0  0
  148.6544  137.5941  152.7746 H   0  0  0  0  0  0  0  0  0  0  0  0
  147.2139  136.3953  152.0362 H   0  0  0  0  0  0  0  0  0  0  0  0
  145.1334  135.2012  153.1762 H   0  0  0  0  0  0  0  0  0  0  0  0
  144.4277  136.7797  152.9181 H   0  0  0  0  0  0  0  0  0  0  0  0
  143.8096  135.8622  150.8601 H   0  0  0  0  0  0  0  0  0  0  0  0
  145.4268  136.3503  150.3848 H   0  0  0  0  0  0  0  0  0  0  0  0
  143.3324  133.5230  150.0967 H   0  0  0  0  0  0  0  0  0  0  0  0
  144.8799  131.2125  149.8722 H   0  0  0  0  0  0  0  0  0  0  0  0
  147.2980  134.3682  151.3359 H   0  0  0  0  0  0  0  0  0  0  0  0
  150.4987  139.1121  153.0987 H   0  0  0  0  0  0  0  0  0  0  0  0
  150.5710  137.3833  155.6035 H   0  0  0  0  0  0  0  0  0  0  0  0
  151.0569  136.9550  153.9625 H   0  0  0  0  0  0  0  0  0  0  0  0
  152.9519  137.7389  155.7077 H   0  0  0  0  0  0  0  0  0  0  0  0
  152.9670  138.4484  154.0867 H   0  0  0  0  0  0  0  0  0  0  0  0
  151.7267  139.6373  156.6032 H   0  0  0  0  0  0  0  0  0  0  0  0
  152.8240  140.4356  155.4714 H   0  0  0  0  0  0  0  0  0  0  0  0
  147.1874  131.9109  150.6487 H   0  0  0  0  0  0  0  0  0  0  0  0
  1  2  1  0  0  0  0
  1 19  1  0  0  0  0
  1 20  1  0  0  0  0
  1 21  1  0  0  0  0
  2  3  1  0  0  0  0
  2 14  1  0  0  0  0
  2 22  1  0  0  0  0
  3  4  1  0  0  0  0
  3 23  1  0  0  0  0
  4  5  2  0  0  0  0
  4  6  1  0  0  0  0
  6  7  1  0  0  0  0
  6 24  1  0  0  0  0
  7  8  1  0  0  0  0
  7 25  1  0  0  0  0
  7 26  1  0  0  0  0
  8  9  1  0  0  0  0
  8 27  1  0  0  0  0
  8 28  1  0  0  0  0
  9 13  1  0  0  0  0
  9 10  1  0  0  0  0
 10 11  2  0  0  0  0
 10 29  1  0  0  0  0
 11 12  1  0  0  0  0
 11 30  1  0  0  0  0
 12 13  2  0  0  0  0
 12 39  1  0  0  0  0
 13 31  1  0  0  0  0
 14 18  1  0  0  0  0
 14 15  1  0  0  0  0
 14 32  1  0  0  0  0
 15 16  1  0  0  0  0
 15 33  1  0  0  0  0
 15 34  1  0  0  0  0
 16 17  1  0  0  0  0
 16 35  1  0  0  0  0
 16 36  1  0  0  0  0
 17 18  1  0  0  0  0
 17 37  1  0  0  0  0
 17 38  1  0  0  0  0
M  CHG  1  12   1
M  END
> <s_m_source_file>
AV-unprocessed.smi

> <i_m_source_file_index>
3255

> <i_lp_mmshare_version>
43012

> <i_f3d_flags>
0

> <s_epik_input>
TzFbQ0gyXVtDSDJdW0NIMl1bQ0BIXTFbQ0BIXShbQ0gzXSlbTkhdQyg9TylbTkhdW0NIMl1bQ0gyXW4yW2NIXVtjSF1uW2NIXTI=

> <s_epik_cmdline>
J2VwaWtfcHl0aG9uJywgJy1waCcsICc3LjAnLCAnLXRuJywgJzgnLCAnLW1hJywgJzIwMCcsICctbWV0YWxfYmluZGluZycsICctaW1hZScsICc8aW5maWxlLm1hZT4nLCAnLW9tYWUnLCAnPG91dGZpbGUubWFlPic=

> <r_lp_tautomer_probability>
1

> <r_epik_Ionization_Penalty>
0.256241

> <r_epik_Ionization_Penalty_Charging>
0

> <r_epik_Ionization_Penalty_Neutral>
0.256241

> <r_epik_State_Penalty>
0.247735

> <r_epik_Charging_Adjusted_Penalty>
0.247735

> <i_epik_Tot_Q>
1

> <i_epik_Tot_abs_Q>
1

> <r_epik_Metal_State_Penalty>
0.537184

> <b_epik_Metal_Only>
0

> <s_lp_Force_Field>
OPLS_2005

> <r_lp_Energy>
18.6285

> <b_lp_Chiralities_Consistent>
1

> <s_lp_Variant>
AV-unprocessed.smi:3255-2

> <Gold.Version>
5.8.1

> <Gold.Id.Protein>
6NUR|6NUR_protein|mol2

> <Gold.PLP.Fitness>
50.7145

> <Gold.PLP.PLP>
-35.3642

> <Gold.PLP.part.hbond>
-3.8968

> <Gold.PLP.part.metal>
0.0000

> <Gold.PLP.part.buried>
-5.2421

> <Gold.PLP.part.nonpolar>
-27.1696

> <Gold.PLP.part.repulsive>
0.2868

> <Gold.PLP.ligand.clash>
0.0000

> <Gold.PLP.ligand.torsion>
0.6692

> <Gold.PLP.Chemscore.Hbond>
3.7818

> <Gold.PLP.Chemscore.CHOScore>
1.7751

> <Gold.PLP.Chemscore.Metal>
0.0000

> <Gold.Chemscore.Hbonds>
donor molecule, donor type, donor heavy atom, donor atom, acceptor molecule, acceptor atom, score
      L1  H     3    23       P1  7948  0.98
      L1  H     6    24       P1  7948  0.90
      L1  H    12    39       P1 10747  0.81
      P1  H  7989  7998       L1    18  1.00
      L1  C    10    29       P1 10186  0.95
      L1  C    13    31       P1  7948  0.95

> <Gold.PLP.Chemscore.Internal.Correction>
0.0184

> <Gold.Rescore>
     Score         DG    S(hbond)    S(metal)    S(lipo)     H(rot)  DE(clash)    DE(int)     intcor
     17.00     -17.54       2.84        0.00      71.50       2.26       0.02       0.52       ----

> <Gold.Chemscore.Fitness>
16.9971

> <Gold.Chemscore.DG>
-17.5401

> <Gold.Chemscore.ZeroCoef>
-5.4800

> <Gold.Chemscore.Hbond>
2.8415

> <Gold.Chemscore.Metal>
0.0000

> <Gold.Chemscore.Lipo>
71.4985

> <Gold.Chemscore.Internal_Hbond>
0.0000

> <Gold.Chemscore.DEClash>
0.0207

> <Gold.Chemscore.DEInternal>
0.5223

> <Gold.Chemscore.Rot>
2.2640

> <Gold.Chemscore.Internal.Correction>
   9.000000E+99

> <Gold.Chemscore.Hbonds>
donor molecule, donor type, donor heavy atom, donor atom, acceptor molecule, acceptor atom, score
      L1  H     3    23       P1  7948  0.93
      L1  H     6    24       P1  7948  0.88
      L1  H    12    39       P1 10747  0.80
      P1  H  7989  7998       L1    18  0.08

> <Gold.Chemscore.Hbond.Weighted>
-9.4905

> <Gold.Chemscore.Metal.Weighted>
-0.0000

> <Gold.Chemscore.Lipo.Weighted>
-8.3653

> <Gold.Chemscore.Internal_Hbond.Weighted>
0.0000

> <Gold.Chemscore.DEClash.Weighted>
0.0207

> <Gold.Chemscore.DEInternal.Weighted>
0.5223

> <Gold.Chemscore.Rot.Weighted>
5.7958

> <Gold.Chemscore.Internal.Correction.Weighted>
   9.000000E+99

> <Gold.Protein.RotatedTorsions>
[ 6907 6896 6895 6894 ] final  -15.60 input  -60.11 | X-H torsion
[ 7974 7965 7964 7962 ] final  172.08 input  175.53 | X-H torsion
[ 8008 7997 7996 7995 ] final  -66.40 input   59.86 | X-H torsion
[ 10167 10162 10161 10158 ] final -148.08 input  -65.29 | X-H torsion
[ 10718 10713 10712 10709 ] final    0.33 input   66.30 | X-H torsion
[ 10763 10752 10751 10750 ] final  149.27 input  -60.55 | X-H torsion
[ 11005 11000 10999 10996 ] final -158.53 input  -57.11 | X-H torsion

> <Gold.Protein.ActiveResidues>
 VAL166  LYS551  ARG553  GLY616  TRP617  ASP618  TYR619  PRO620  LYS621  CYS622 
 ASP623  PHE694  ASN695  SER759  ASP760  ASP761  ALA762  ILE779  LEU786  VAL792 
 PHE793  MET794  SER795  GLU796  ALA797  LYS798  CYS799  TRP800  GLU811  SER814 

> <Gold.Protein.RotatedAtoms>
  151.3215  135.0819  159.9306 H   0  0  0  0  0  0  0  0  0  0  0  0  # atno 6907 bound_to 6896
  152.5255  133.9634  159.7738 H   0  0  0  0  0  0  0  0  0  0  0  0  # atno 6908 bound_to 6896
  150.9956  133.6054  159.2732 H   0  0  0  0  0  0  0  0  0  0  0  0  # atno 6909 bound_to 6896
  144.7277  139.9445  143.6430 H   0  0  0  0  0  0  0  0  0  0  0  0  # atno 7974 bound_to 7965
  154.4732  140.0913  156.7196 H   0  0  0  0  0  0  0  0  0  0  0  0  # atno 8008 bound_to 7997
  155.4668  140.3463  155.4302 H   0  0  0  0  0  0  0  0  0  0  0  0  # atno 8009 bound_to 7997
  156.1073  140.1438  156.9375 H   0  0  0  0  0  0  0  0  0  0  0  0  # atno 8010 bound_to 7997
  139.7564  143.8442  152.2598 H   0  0  0  0  0  0  0  0  0  0  0  0  # atno 10167 bound_to 10162
  156.8318  130.5491  149.5686 H   0  0  0  0  0  0  0  0  0  0  0  0  # atno 10718 bound_to 10713
  154.0684  135.2868  155.3312 H   0  0  0  0  0  0  0  0  0  0  0  0  # atno 10763 bound_to 10752
  154.6763  135.5280  153.8207 H   0  0  0  0  0  0  0  0  0  0  0  0  # atno 10764 bound_to 10752
  153.0495  135.6570  154.0867 H   0  0  0  0  0  0  0  0  0  0  0  0  # atno 10765 bound_to 10752
  140.6526  134.4434  157.5235 H   0  0  0  0  0  0  0  0  0  0  0  0  # atno 11005 bound_to 11000
  146.0759  139.3747  143.0494 LP  0  0  0  0  0  0  0  0  0  0  0  0  # atno 17320 bound_to 7965
  145.7906  140.9816  143.1051 LP  0  0  0  0  0  0  0  0  0  0  0  0  # atno 17321 bound_to 7965
  139.8435  144.7199  150.9302 LP  0  0  0  0  0  0  0  0  0  0  0  0  # atno 17342 bound_to 10162
  140.7803  143.3962  151.1225 LP  0  0  0  0  0  0  0  0  0  0  0  0  # atno 17343 bound_to 10162
  156.0930  130.5910  150.9765 LP  0  0  0  0  0  0  0  0  0  0  0  0  # atno 17370 bound_to 10713
  157.6403  131.0911  150.8265 LP  0  0  0  0  0  0  0  0  0  0  0  0  # atno 17371 bound_to 10713
  139.9040  134.8490  156.1779 LP  0  0  0  0  0  0  0  0  0  0  0  0  # atno 17394 bound_to 11000
  141.0525  133.6881  156.1798 LP  0  0  0  0  0  0  0  0  0  0  0  0  # atno 17395 bound_to 11000

$$$$
