#       Name:                AV-unprocessed.smi:2663
#       Creating user name   scv26
#       Creation time:       Fri Mar 27 14:33:53 2020


#       File generated by GOLD software.
#

@<TRIPOS>MOLECULE
AV-unprocessed.smi:2663
    45    46     1
SMALL
NO_CHARGES


@<TRIPOS>ATOM
      1 ****         0.1285  -1.6710   2.0364 C.3            1 S1                 0.0000
      2 ****         0.6425  -0.7724   0.8872 C.3            1 S1                 0.0000
      3 ****         2.1999  -0.7781   0.9066 C.3            1 S1                 0.0000
      4 ****         2.7388  -2.0593   0.6393 O.3            1 S1                 0.0000
      5 ****         0.1615  -1.3858  -0.3629 N.am           1 S1                 0.0000
      6 ****         0.4039  -1.0081  -1.6306 C.2            1 S1                 0.0000
      7 ****         1.0851  -0.0307  -1.9400 O.2            1 S1                 0.0000
      8 ****        -0.1980  -1.8371  -2.5012 N.am           1 S1                 0.0000
      9 ****        -0.1853  -1.7849  -3.9204 C.2            1 S1                 0.0000
     10 ****         0.4678  -0.8480  -4.6259 N.2            1 S1                 0.0000
     11 ****         0.3164  -1.0282  -5.9946 N.2            1 S1                 0.0000
     12 ****        -0.4442  -2.0921  -6.2674 C.2            1 S1                 0.0000
     13 ****        -1.0497  -2.9786  -4.8789 S.3            1 S1                 0.0000
     14 ****         0.0876   0.6926   1.0241 C.3            1 S1                 0.0000
     15 ****         0.4779   1.4052   2.3449 C.3            1 S1                 0.0000
     16 ****         0.0126   2.8707   2.3649 C.3            1 S1                 0.0000
     17 ****        -1.5010   2.9799   2.1367 C.3            1 S1                 0.0000
     18 ****        -1.9095   2.2823   0.8323 C.3            1 S1                 0.0000
     19 ****        -1.4459   0.8168   0.8144 C.3            1 S1                 0.0000
     20 ****         0.4991  -1.3426   3.0071 H              1 S1                 0.0000
     21 ****         0.4552  -2.7037   1.9098 H              1 S1                 0.0000
     22 ****        -0.9596  -1.6921   2.0866 H              1 S1                 0.0000
     23 ****         2.6094  -0.0741   0.1821 H              1 S1                 0.0000
     24 ****         2.5795  -0.4711   1.8803 H              1 S1                 0.0000
     25 ****         3.6814  -1.9936   0.6396 H              1 S1                 0.0000
     26 ****        -0.4125  -2.2067  -0.2407 H              1 S1                 0.0000
     27 ****        -0.7260  -2.5985  -2.1012 H              1 S1                 0.0000
     28 ****        -0.6497  -2.3569  -7.2939 H              1 S1                 0.0000
     29 ****         0.5501   1.2782   0.2290 H              1 S1                 0.0000
     30 ****         0.0400   0.8876   3.1983 H              1 S1                 0.0000
     31 ****         1.5564   1.3906   2.4930 H              1 S1                 0.0000
     32 ****         0.2774   3.3306   3.3174 H              1 S1                 0.0000
     33 ****         0.5409   3.4329   1.5939 H              1 S1                 0.0000
     34 ****        -2.0320   2.5288   2.9758 H              1 S1                 0.0000
     35 ****        -1.7993   4.0283   2.1078 H              1 S1                 0.0000
     36 ****        -2.9918   2.3308   0.7093 H              1 S1                 0.0000
     37 ****        -1.4785   2.8122  -0.0181 H              1 S1                 0.0000
     38 ****        -1.7510   0.3762  -0.1342 H              1 S1                 0.0000
     39 ****        -1.9790   0.2695   1.5917 H              1 S1                 0.0000
     40 ****         2.4231  -2.3785  -0.2542 LP             1 S1                 0.0000
     41 ****         2.4452  -2.7030   1.3460 LP             1 S1                 0.0000
     42 ****         1.4972   0.5373  -1.2275 LP             1 S1                 0.0000
     43 ****         1.2265   0.1954  -2.9038 LP             1 S1                 0.0000
     44 ****         1.0002  -0.1081  -4.2147 LP             1 S1                 0.0000
     45 ****         0.7254  -0.4359  -6.6888 LP             1 S1                 0.0000
@<TRIPOS>BOND
    1    1    2 1     
    2    1   20 1     
    3    1   21 1     
    4    1   22 1     
    5    2    3 1     
    6    2    5 1     
    7    2   14 1     
    8    3    4 1     
    9    3   23 1     
   10    3   24 1     
   11    4   25 1     
   12    5    6 am    
   13    5   26 1     
   14    6    7 2     
   15    6    8 am    
   16    8    9 1     
   17    8   27 1     
   18    9   13 1     
   19    9   10 2     
   20   10   11 1     
   21   11   12 2     
   22   12   13 1     
   23   12   28 1     
   24   14   19 1     
   25   14   15 1     
   26   14   29 1     
   27   15   16 1     
   28   15   30 1     
   29   15   31 1     
   30   16   17 1     
   31   16   32 1     
   32   16   33 1     
   33   17   18 1     
   34   17   34 1     
   35   17   35 1     
   36   18   19 1     
   37   18   36 1     
   38   18   37 1     
   39   19   38 1     
   40   19   39 1     
   41    4   40 1     
   42    4   41 1     
   43    7   42 1     
   44    7   43 1     
   45   10   44 1     
   46   11   45 1     
@<TRIPOS>SUBSTRUCTURE
      1 S1             1
@<TRIPOS>SET
LONE_PAIRS      STATIC     ATOMS    <user>   **** ""
6 40 41 42 43 44 45
DONOR_HYDROGENS      STATIC     ATOMS    <user>   **** ""
3 25 26 27
ATOM$BLUE        STATIC     ATOMS    COLORGROUP SYSTEM
6 40 41 42 43 44 45
ATOM$RED        STATIC     ATOMS    COLORGROUP SYSTEM
3 25 26 27
