AV-unprocessed.smi:2893|AV-procd|sdf|11123|dock5
  -GOLD-   2272015593D 1   1.00000     0.00000
 Structure written by MMmdl.
 37 39  0  0  0  0  0  0  0  0  1 V2000
  154.0969  134.7422  164.1655 C   0  0  0  0  0  0  0  0  0  0  0  0
  154.8719  135.1077  162.8927 C   0  0  0  0  0  0  0  0  0  0  0  0
  154.5795  136.4687  162.4594 N   0  0  0  0  0  0  0  0  0  0  0  0
  154.1515  136.8186  161.2341 C   0  0  0  0  0  0  0  0  0  0  0  0
  153.9730  136.0076  160.3244 O   0  0  0  0  0  0  0  0  0  0  0  0
  153.9382  138.2916  161.0092 C   0  0  0  0  0  0  0  0  0  0  0  0
  154.4251  139.2295  161.9454 C   0  0  0  0  0  0  0  0  0  0  0  0
  154.2115  140.5931  161.6805 C   0  0  0  0  0  0  0  0  0  0  0  0
  153.5318  140.9314  160.4952 C   0  0  0  0  0  0  0  0  0  0  0  0
  153.3054  142.2845  160.2068 N   0  0  0  0  0  0  0  0  0  0  0  0
  152.8413  142.6993  158.8863 C   0  0  1  0  0  0  0  0  0  0  0  0
  151.3749  142.3460  158.6266 C   0  0  0  0  0  0  0  0  0  0  0  0
  150.7922  143.7035  158.2076 C   0  0  1  0  0  0  0  0  0  0  0  0
  150.6139  144.6357  159.4128 C   0  0  0  0  0  0  0  0  0  0  0  0
  152.0600  145.0099  159.7316 C   0  0  0  0  0  0  0  0  0  0  0  0
  152.8366  144.2248  158.6601 C   0  0  2  0  0  0  0  0  0  0  0  0
  151.9168  144.3013  157.5840 O   0  0  0  0  0  0  0  0  0  0  0  0
  153.0892  139.9851  159.6317 N   0  0  0  0  0  0  0  0  0  0  0  0
  153.2928  138.6877  159.8828 N   0  0  0  0  0  0  0  0  0  0  0  0
  154.3508  133.7352  164.4970 H   0  0  0  0  0  0  0  0  0  0  0  0
  153.0199  134.7728  163.9979 H   0  0  0  0  0  0  0  0  0  0  0  0
  154.3298  135.4289  164.9797 H   0  0  0  0  0  0  0  0  0  0  0  0
  155.9430  135.0336  163.0812 H   0  0  0  0  0  0  0  0  0  0  0  0
  154.6472  134.3988  162.0941 H   0  0  0  0  0  0  0  0  0  0  0  0
  154.7089  137.2046  163.1392 H   0  0  0  0  0  0  0  0  0  0  0  0
  154.9451  138.9215  162.8408 H   0  0  0  0  0  0  0  0  0  0  0  0
  154.5621  141.3515  162.3650 H   0  0  0  0  0  0  0  0  0  0  0  0
  153.7189  142.9844  160.8057 H   0  0  0  0  0  0  0  0  0  0  0  0
  153.4525  142.2191  158.1207 H   0  0  0  0  0  0  0  0  0  0  0  0
  151.2996  141.6222  157.8144 H   0  0  0  0  0  0  0  0  0  0  0  0
  150.8602  141.9322  159.4953 H   0  0  0  0  0  0  0  0  0  0  0  0
  149.9100  143.6298  157.5712 H   0  0  0  0  0  0  0  0  0  0  0  0
  150.0413  145.5224  159.1384 H   0  0  0  0  0  0  0  0  0  0  0  0
  150.1087  144.1463  160.2461 H   0  0  0  0  0  0  0  0  0  0  0  0
  152.2095  146.0824  159.6033 H   0  0  0  0  0  0  0  0  0  0  0  0
  152.3526  144.7509  160.7493 H   0  0  0  0  0  0  0  0  0  0  0  0
  153.8181  144.6426  158.4343 H   0  0  0  0  0  0  0  0  0  0  0  0
  1  2  1  0  0  0  0
  1 20  1  0  0  0  0
  1 21  1  0  0  0  0
  1 22  1  0  0  0  0
  2  3  1  0  0  0  0
  2 23  1  0  0  0  0
  2 24  1  0  0  0  0
  3  4  1  0  0  0  0
  3 25  1  0  0  0  0
  4  5  2  0  0  0  0
  4  6  1  0  0  0  0
  6 19  1  0  0  0  0
  6  7  2  0  0  0  0
  7  8  1  0  0  0  0
  7 26  1  0  0  0  0
  8  9  2  0  0  0  0
  8 27  1  0  0  0  0
  9 10  1  0  0  0  0
  9 18  1  0  0  0  0
 10 11  1  0  0  0  0
 10 28  1  0  0  0  0
 11 16  1  0  0  0  0
 11 12  1  0  0  0  0
 11 29  1  0  0  0  0
 12 13  1  0  0  0  0
 12 30  1  0  0  0  0
 12 31  1  0  0  0  0
 13 17  1  0  0  0  0
 13 14  1  0  0  0  0
 13 32  1  0  0  0  0
 14 15  1  0  0  0  0
 14 33  1  0  0  0  0
 14 34  1  0  0  0  0
 15 16  1  0  0  0  0
 15 35  1  0  0  0  0
 15 36  1  0  0  0  0
 16 17  1  0  0  0  0
 16 37  1  0  0  0  0
 18 19  2  0  0  0  0
M  END
> <s_m_source_file>
AV-unprocessed.smi

> <i_m_source_file_index>
2893

> <i_lp_mmshare_version>
43012

> <i_f3d_flags>
0

> <s_epik_input>
W0NIM11bQ0gyXVtOSF1DKD1PKWMxW2NIXVtjSF1jKG5uMSlbTkhdW0NASF0oW0NIMl1bQ0BASF0yMylbQ0BASF0oTzMpW0NIMl1bQ0gyXTI=

> <s_epik_cmdline>
J2VwaWtfcHl0aG9uJywgJy1waCcsICc3LjAnLCAnLXRuJywgJzgnLCAnLW1hJywgJzIwMCcsICctbWV0YWxfYmluZGluZycsICctaW1hZScsICc8aW5maWxlLm1hZT4nLCAnLW9tYWUnLCAnPG91dGZpbGUubWFlPic=

> <r_lp_tautomer_probability>
1

> <r_epik_Ionization_Penalty>
0.00432031

> <r_epik_Ionization_Penalty_Charging>
0

> <r_epik_Ionization_Penalty_Neutral>
0.00432031

> <r_epik_State_Penalty>
-0

> <r_epik_Charging_Adjusted_Penalty>
0

> <i_epik_Tot_Q>
0

> <i_epik_Tot_abs_Q>
0

> <r_epik_Metal_State_Penalty>
-0

> <b_epik_Metal_Only>
0

> <s_lp_Force_Field>
OPLS_2005

> <r_lp_Energy>
51.8171

> <b_lp_Chiralities_Consistent>
1

> <s_lp_Variant>
AV-unprocessed.smi:2893-2

> <Gold.Version>
5.8.1

> <Gold.Id.Protein>
6NUR|6NUR_protein|mol2

> <Gold.PLP.Fitness>
41.3540

> <Gold.PLP.PLP>
-38.7955

> <Gold.PLP.part.hbond>
-1.0000

> <Gold.PLP.part.metal>
0.0000

> <Gold.PLP.part.buried>
-7.3046

> <Gold.PLP.part.nonpolar>
-30.7150

> <Gold.PLP.part.repulsive>
0.1797

> <Gold.PLP.ligand.clash>
0.0000

> <Gold.PLP.ligand.torsion>
0.2295

> <Gold.PLP.Chemscore.Hbond>
1.0000

> <Gold.PLP.Chemscore.CHOScore>
0.0000

> <Gold.PLP.Chemscore.Metal>
0.0000

> <Gold.Chemscore.Hbonds>
donor molecule, donor type, donor heavy atom, donor atom, acceptor molecule, acceptor atom, score
      P1  H  6896  6908       L1     5  0.94

> <Gold.PLP.Chemscore.Internal.Correction>
0.0174

> <Gold.Rescore>
     Score         DG    S(hbond)    S(metal)    S(lipo)     H(rot)  DE(clash)    DE(int)     intcor
     17.34     -18.17       1.00        0.00     106.30       1.21       0.53       0.29       ----

> <Gold.Chemscore.Fitness>
17.3438

> <Gold.Chemscore.DG>
-18.1661

> <Gold.Chemscore.ZeroCoef>
-5.4800

> <Gold.Chemscore.Hbond>
0.9991

> <Gold.Chemscore.Metal>
0.0000

> <Gold.Chemscore.Lipo>
106.2968

> <Gold.Chemscore.Internal_Hbond>
0.0000

> <Gold.Chemscore.DEClash>
0.5303

> <Gold.Chemscore.DEInternal>
0.2920

> <Gold.Chemscore.Rot>
1.2061

> <Gold.Chemscore.Internal.Correction>
   9.000000E+99

> <Gold.Chemscore.Hbonds>
donor molecule, donor type, donor heavy atom, donor atom, acceptor molecule, acceptor atom, score
      P1  H  6896  6908       L1     5  0.90

> <Gold.Chemscore.Hbond.Weighted>
-3.3369

> <Gold.Chemscore.Metal.Weighted>
-0.0000

> <Gold.Chemscore.Lipo.Weighted>
-12.4367

> <Gold.Chemscore.Internal_Hbond.Weighted>
0.0000

> <Gold.Chemscore.DEClash.Weighted>
0.5303

> <Gold.Chemscore.DEInternal.Weighted>
0.2920

> <Gold.Chemscore.Rot.Weighted>
3.0876

> <Gold.Chemscore.Internal.Correction.Weighted>
   9.000000E+99

> <Gold.Protein.RotatedTorsions>
[ 6907 6896 6895 6894 ] final  -57.88 input  -60.11 | X-H torsion
[ 7974 7965 7964 7962 ] final   95.02 input  175.53 | X-H torsion
[ 8008 7997 7996 7995 ] final   41.08 input   59.86 | X-H torsion
[ 10167 10162 10161 10158 ] final -169.32 input  -65.29 | X-H torsion
[ 10718 10713 10712 10709 ] final   88.26 input   66.30 | X-H torsion
[ 10763 10752 10751 10750 ] final -170.20 input  -60.55 | X-H torsion
[ 11005 11000 10999 10996 ] final  116.13 input  -57.11 | X-H torsion

> <Gold.Protein.ActiveResidues>
 VAL166  LYS551  ARG553  GLY616  TRP617  ASP618  TYR619  PRO620  LYS621  CYS622 
 ASP623  PHE694  ASN695  SER759  ASP760  ASP761  ALA762  ILE779  LEU786  VAL792 
 PHE793  MET794  SER795  GLU796  ALA797  LYS798  CYS799  TRP800  GLU811  SER814 

> <Gold.Protein.RotatedAtoms>
  150.8051  134.7170  159.6635 H   0  0  0  0  0  0  0  0  0  0  0  0  # atno 6907 bound_to 6896
  152.4170  134.6021  160.0012 H   0  0  0  0  0  0  0  0  0  0  0  0  # atno 6908 bound_to 6896
  151.6247  133.3299  159.3132 H   0  0  0  0  0  0  0  0  0  0  0  0  # atno 6909 bound_to 6896
  145.4578  139.2289  143.3004 H   0  0  0  0  0  0  0  0  0  0  0  0  # atno 7974 bound_to 7965
  155.2637  140.3361  155.4271 H   0  0  0  0  0  0  0  0  0  0  0  0  # atno 8008 bound_to 7997
  156.2163  140.1790  156.7623 H   0  0  0  0  0  0  0  0  0  0  0  0  # atno 8009 bound_to 7997
  154.5758  140.0662  156.9017 H   0  0  0  0  0  0  0  0  0  0  0  0  # atno 8010 bound_to 7997
  139.5930  144.1173  152.1656 H   0  0  0  0  0  0  0  0  0  0  0  0  # atno 10167 bound_to 10162
  157.6947  131.0288  150.3247 H   0  0  0  0  0  0  0  0  0  0  0  0  # atno 10718 bound_to 10713
  154.6440  135.2902  155.0068 H   0  0  0  0  0  0  0  0  0  0  0  0  # atno 10763 bound_to 10752
  154.1185  135.6552  153.4902 H   0  0  0  0  0  0  0  0  0  0  0  0  # atno 10764 bound_to 10752
  153.0341  135.5282  154.7319 H   0  0  0  0  0  0  0  0  0  0  0  0  # atno 10765 bound_to 10752
  139.9031  134.9594  156.7150 H   0  0  0  0  0  0  0  0  0  0  0  0  # atno 11005 bound_to 11000
  146.2468  140.5343  142.8910 LP  0  0  0  0  0  0  0  0  0  0  0  0  # atno 17320 bound_to 7965
  144.8022  140.6233  143.6471 LP  0  0  0  0  0  0  0  0  0  0  0  0  # atno 17321 bound_to 7965
  140.0752  144.5746  150.7162 LP  0  0  0  0  0  0  0  0  0  0  0  0  # atno 17342 bound_to 10162
  140.7188  143.2569  151.4345 LP  0  0  0  0  0  0  0  0  0  0  0  0  # atno 17343 bound_to 10162
  156.3729  130.3867  149.7161 LP  0  0  0  0  0  0  0  0  0  0  0  0  # atno 17370 bound_to 10713
  156.4569  130.7933  151.2954 LP  0  0  0  0  0  0  0  0  0  0  0  0  # atno 17371 bound_to 10713
  140.7045  133.9277  155.8045 LP  0  0  0  0  0  0  0  0  0  0  0  0  # atno 17394 bound_to 11000
  141.0347  134.0707  157.3974 LP  0  0  0  0  0  0  0  0  0  0  0  0  # atno 17395 bound_to 11000

$$$$
