AV-unprocessed.smi:220|AV-procd|sdf|1685|dock10
  -GOLD-   2262020123D 1   1.00000     0.00000
 Structure written by MMmdl.
 51 55  0  0  0  0  0  0  0  0  1 V2000
  142.1629  134.2048  154.4602 N   0  0  0  0  0  0  0  0  0  0  0  0
  142.9898  135.0386  153.8250 C   0  0  0  0  0  0  0  0  0  0  0  0
  142.9298  136.2583  153.9723 O   0  0  0  0  0  0  0  0  0  0  0  0
  144.0204  134.4032  152.8760 C   0  0  1  0  0  0  0  0  0  0  0  0
  143.3729  133.9855  151.5361 C   0  0  2  0  0  0  0  0  0  0  0  0
  143.0621  132.4842  151.4242 C   0  0  0  0  0  0  0  0  0  0  0  0
  144.2672  131.8818  150.7008 C   0  0  0  0  0  0  0  0  0  0  0  0
  144.6975  132.9723  149.7197 C   0  0  0  0  0  0  0  0  0  0  0  0
  144.4164  134.2929  150.4510 C   0  0  2  0  0  0  0  0  0  0  0  0
  145.6161  134.8681  151.2090 C   0  0  0  0  0  0  0  0  0  0  0  0
  145.0878  135.3260  152.4836 N   0  0  0  0  0  0  0  0  0  0  0  0
  146.0288  135.7232  153.3813 C   0  0  0  0  0  0  0  0  0  0  0  0
  146.8751  134.8147  153.9370 N   0  0  0  0  0  0  0  0  0  0  0  0
  147.8102  135.2047  154.8074 C   0  0  0  0  0  0  0  0  0  0  0  0
  148.0733  136.4340  155.2529 N   0  0  0  0  0  0  0  0  0  0  0  0
  147.2274  137.3511  154.7031 C   0  0  0  0  0  0  0  0  0  0  0  0
  146.1853  137.0834  153.7706 C   0  0  0  0  0  0  0  0  0  0  0  0
  145.5265  138.2639  153.4485 N   0  0  0  0  0  0  0  0  0  0  0  0
  146.1495  139.1774  154.1411 C   0  0  0  0  0  0  0  0  0  0  0  0
  147.1944  138.7195  154.9119 N   0  0  0  0  0  0  0  0  0  0  0  0
  148.0595  139.5148  155.7700 C   0  0  0  0  0  0  0  0  0  0  0  0
  149.1411  140.3003  155.0009 C   0  0  0  0  0  0  0  0  0  0  0  0
  148.4985  141.4119  154.1527 C   0  0  0  0  0  0  0  0  0  0  0  0
  147.7926  142.3323  154.9598 O   0  0  0  0  0  0  0  0  0  0  0  0
  150.3533  140.7555  155.8263 C   0  0  0  0  0  0  0  0  0  0  0  0
  151.2832  140.1807  154.8845 O   0  0  0  0  0  0  0  0  0  0  0  0
  150.1955  139.4563  154.2716 C   0  0  0  0  0  0  0  0  0  0  0  0
  141.4722  134.5740  155.0971 H   0  0  0  0  0  0  0  0  0  0  0  0
  142.2339  133.2097  154.3054 H   0  0  0  0  0  0  0  0  0  0  0  0
  144.4687  133.5274  153.3504 H   0  0  0  0  0  0  0  0  0  0  0  0
  142.4686  134.5661  151.3427 H   0  0  0  0  0  0  0  0  0  0  0  0
  142.8707  132.0115  152.3881 H   0  0  0  0  0  0  0  0  0  0  0  0
  142.1700  132.3451  150.8121 H   0  0  0  0  0  0  0  0  0  0  0  0
  145.0690  131.6929  151.4160 H   0  0  0  0  0  0  0  0  0  0  0  0
  144.0327  130.9391  150.2056 H   0  0  0  0  0  0  0  0  0  0  0  0
  145.7358  132.8688  149.4025 H   0  0  0  0  0  0  0  0  0  0  0  0
  144.0760  132.9156  148.8252 H   0  0  0  0  0  0  0  0  0  0  0  0
  144.0303  135.0430  149.7591 H   0  0  0  0  0  0  0  0  0  0  0  0
  146.3766  134.1052  151.3871 H   0  0  0  0  0  0  0  0  0  0  0  0
  146.0780  135.6741  150.6394 H   0  0  0  0  0  0  0  0  0  0  0  0
  148.4392  134.4197  155.2009 H   0  0  0  0  0  0  0  0  0  0  0  0
  145.8613  140.2173  154.1044 H   0  0  0  0  0  0  0  0  0  0  0  0
  147.4234  140.1966  156.3359 H   0  0  0  0  0  0  0  0  0  0  0  0
  148.5121  138.8579  156.5134 H   0  0  0  0  0  0  0  0  0  0  0  0
  149.2400  141.9500  153.5622 H   0  0  0  0  0  0  0  0  0  0  0  0
  147.7930  140.9895  153.4365 H   0  0  0  0  0  0  0  0  0  0  0  0
  148.2154  143.1751  154.8965 H   0  0  0  0  0  0  0  0  0  0  0  0
  150.4532  141.8383  155.9105 H   0  0  0  0  0  0  0  0  0  0  0  0
  150.4332  140.2805  156.8048 H   0  0  0  0  0  0  0  0  0  0  0  0
  150.1976  138.4035  154.5588 H   0  0  0  0  0  0  0  0  0  0  0  0
  150.1803  139.5623  153.1862 H   0  0  0  0  0  0  0  0  0  0  0  0
  1  2  1  0  0  0  0
  1 28  1  0  0  0  0
  1 29  1  0  0  0  0
  2  3  2  0  0  0  0
  2  4  1  0  0  0  0
  4 11  1  0  0  0  0
  4  5  1  0  0  0  0
  4 30  1  0  0  0  0
  5  9  1  0  0  0  0
  5  6  1  0  0  0  0
  5 31  1  0  0  0  0
  6  7  1  0  0  0  0
  6 32  1  0  0  0  0
  6 33  1  0  0  0  0
  7  8  1  0  0  0  0
  7 34  1  0  0  0  0
  7 35  1  0  0  0  0
  8  9  1  0  0  0  0
  8 36  1  0  0  0  0
  8 37  1  0  0  0  0
  9 10  1  0  0  0  0
  9 38  1  0  0  0  0
 10 11  1  0  0  0  0
 10 39  1  0  0  0  0
 10 40  1  0  0  0  0
 11 12  1  0  0  0  0
 12 17  1  0  0  0  0
 12 13  2  0  0  0  0
 13 14  1  0  0  0  0
 14 15  2  0  0  0  0
 14 41  1  0  0  0  0
 15 16  1  0  0  0  0
 16 20  1  0  0  0  0
 16 17  2  0  0  0  0
 17 18  1  0  0  0  0
 18 19  2  0  0  0  0
 19 20  1  0  0  0  0
 19 42  1  0  0  0  0
 20 21  1  0  0  0  0
 21 22  1  0  0  0  0
 21 43  1  0  0  0  0
 21 44  1  0  0  0  0
 22 27  1  0  0  0  0
 22 23  1  0  0  0  0
 22 25  1  0  0  0  0
 23 24  1  0  0  0  0
 23 45  1  0  0  0  0
 23 46  1  0  0  0  0
 24 47  1  0  0  0  0
 25 26  1  0  0  0  0
 25 48  1  0  0  0  0
 25 49  1  0  0  0  0
 26 27  1  0  0  0  0
 27 50  1  0  0  0  0
 27 51  1  0  0  0  0
M  END
> <s_m_source_file>
AV-unprocessed.smi

> <i_m_source_file_index>
220

> <i_lp_mmshare_version>
43012

> <i_f3d_flags>
0

> <s_epik_input>
W0NIMl0xW0NIMl1bQ0gyXVtDQEhdKFtDQEhdMTIpW0NIMl1OKFtDQEBIXTJDKD1PKVtOSDJdKWMobltjSF1uMyljKGMzNCluW2NIXW40W0NIMl1DNShbQ0gyXVtPSF0pW0NIMl1PW0NIMl01

> <s_epik_cmdline>
J2VwaWtfcHl0aG9uJywgJy1waCcsICc3LjAnLCAnLXRuJywgJzgnLCAnLW1hJywgJzIwMCcsICctbWV0YWxfYmluZGluZycsICctaW1hZScsICc8aW5maWxlLm1hZT4nLCAnLW9tYWUnLCAnPG91dGZpbGUubWFlPic=

> <r_lp_tautomer_probability>
1

> <r_epik_Ionization_Penalty>
0.00118987

> <r_epik_Ionization_Penalty_Charging>
0

> <r_epik_Ionization_Penalty_Neutral>
0.00118987

> <r_epik_State_Penalty>
0.000654261

> <r_epik_Charging_Adjusted_Penalty>
0.000654261

> <i_epik_Tot_Q>
0

> <i_epik_Tot_abs_Q>
0

> <r_epik_Metal_State_Penalty>
-0

> <b_epik_Metal_Only>
0

> <s_lp_Force_Field>
OPLS_2005

> <r_lp_Energy>
59.1601

> <b_lp_Chiralities_Consistent>
1

> <s_lp_Variant>
AV-unprocessed.smi:220-4

> <Gold.Version>
5.8.1

> <Gold.Id.Protein>
6NUR|6NUR_protein|mol2

> <Gold.PLP.Fitness>
43.2213

> <Gold.PLP.PLP>
-34.2143

> <Gold.PLP.part.hbond>
-4.0000

> <Gold.PLP.part.metal>
0.0000

> <Gold.PLP.part.buried>
-4.8077

> <Gold.PLP.part.nonpolar>
-28.4263

> <Gold.PLP.part.repulsive>
0.8802

> <Gold.PLP.ligand.clash>
0.0000

> <Gold.PLP.ligand.torsion>
0.9409

> <Gold.PLP.Chemscore.Hbond>
3.2840

> <Gold.PLP.Chemscore.CHOScore>
0.1768

> <Gold.PLP.Chemscore.Metal>
0.0000

> <Gold.Chemscore.Hbonds>
donor molecule, donor type, donor heavy atom, donor atom, acceptor molecule, acceptor atom, score
      L1  H     1    28       P1 11000  0.86
      L1  H     1    29       P1 10957  1.00
      L1  H    24    47       P1  8028  1.00
      P1  H  7989  7998       L1    26  0.55
      L1  C    19    42       P1 10175  0.29

> <Gold.PLP.Chemscore.Internal.Correction>
0.5064

> <Gold.Rescore>
     Score         DG    S(hbond)    S(metal)    S(lipo)     H(rot)  DE(clash)    DE(int)     intcor
     14.34     -15.28       2.63        0.00      80.22       3.27       0.14       0.80       ----

> <Gold.Chemscore.Fitness>
14.3384

> <Gold.Chemscore.DG>
-15.2756

> <Gold.Chemscore.ZeroCoef>
-5.4800

> <Gold.Chemscore.Hbond>
2.6292

> <Gold.Chemscore.Metal>
0.0000

> <Gold.Chemscore.Lipo>
80.2233

> <Gold.Chemscore.Internal_Hbond>
0.0000

> <Gold.Chemscore.DEClash>
0.1409

> <Gold.Chemscore.DEInternal>
0.7963

> <Gold.Chemscore.Rot>
3.2703

> <Gold.Chemscore.Internal.Correction>
   9.000000E+99

> <Gold.Chemscore.Hbonds>
donor molecule, donor type, donor heavy atom, donor atom, acceptor molecule, acceptor atom, score
      L1  H     1    28       P1 11000  0.76
      L1  H     1    29       P1 10957  0.92
      L1  H    24    47       P1  8028  0.94
      P1  H  7989  7998       L1    26  0.03

> <Gold.Chemscore.Hbond.Weighted>
-8.7815

> <Gold.Chemscore.Metal.Weighted>
-0.0000

> <Gold.Chemscore.Lipo.Weighted>
-9.3861

> <Gold.Chemscore.Internal_Hbond.Weighted>
0.0000

> <Gold.Chemscore.DEClash.Weighted>
0.1409

> <Gold.Chemscore.DEInternal.Weighted>
0.7963

> <Gold.Chemscore.Rot.Weighted>
8.3721

> <Gold.Chemscore.Internal.Correction.Weighted>
   9.000000E+99

> <Gold.Protein.RotatedTorsions>
[ 6907 6896 6895 6894 ] final  120.34 input  -60.11 | X-H torsion
[ 7974 7965 7964 7962 ] final  154.20 input  175.53 | X-H torsion
[ 8008 7997 7996 7995 ] final   21.18 input   59.86 | X-H torsion
[ 10167 10162 10161 10158 ] final   22.75 input  -65.29 | X-H torsion
[ 10718 10713 10712 10709 ] final    7.94 input   66.30 | X-H torsion
[ 10763 10752 10751 10750 ] final   63.50 input  -60.55 | X-H torsion
[ 11005 11000 10999 10996 ] final  173.83 input  -57.11 | X-H torsion

> <Gold.Protein.ActiveResidues>
 VAL166  LYS551  ARG553  GLY616  TRP617  ASP618  TYR619  PRO620  LYS621  CYS622 
 ASP623  PHE694  ASN695  SER759  ASP760  ASP761  ALA762  ILE779  LEU786  VAL792 
 PHE793  MET794  SER795  GLU796  ALA797  LYS798  CYS799  TRP800  GLU811  SER814 

> <Gold.Protein.RotatedAtoms>
  152.4405  133.7440  159.6656 H   0  0  0  0  0  0  0  0  0  0  0  0  # atno 6907 bound_to 6896
  150.8295  133.8104  159.3110 H   0  0  0  0  0  0  0  0  0  0  0  0  # atno 6908 bound_to 6896
  151.5762  135.1063  160.0058 H   0  0  0  0  0  0  0  0  0  0  0  0  # atno 6909 bound_to 6896
  144.8104  139.6901  143.6144 H   0  0  0  0  0  0  0  0  0  0  0  0  # atno 7974 bound_to 7965
  154.9467  140.3060  155.5094 H   0  0  0  0  0  0  0  0  0  0  0  0  # atno 8008 bound_to 7997
  156.2991  140.2326  156.4479 H   0  0  0  0  0  0  0  0  0  0  0  0  # atno 8009 bound_to 7997
  154.8093  140.0429  157.1319 H   0  0  0  0  0  0  0  0  0  0  0  0  # atno 8010 bound_to 7997
  140.5323  143.9820  150.6472 H   0  0  0  0  0  0  0  0  0  0  0  0  # atno 10167 bound_to 10162
  156.9443  130.5873  149.5654 H   0  0  0  0  0  0  0  0  0  0  0  0  # atno 10718 bound_to 10713
  153.0020  135.5427  154.6362 H   0  0  0  0  0  0  0  0  0  0  0  0  # atno 10763 bound_to 10752
  154.5628  135.2835  155.0905 H   0  0  0  0  0  0  0  0  0  0  0  0  # atno 10764 bound_to 10752
  154.2101  135.6469  153.5165 H   0  0  0  0  0  0  0  0  0  0  0  0  # atno 10765 bound_to 10752
  140.3448  134.7246  157.4227 H   0  0  0  0  0  0  0  0  0  0  0  0  # atno 11005 bound_to 11000
  146.2402  139.5986  142.9496 LP  0  0  0  0  0  0  0  0  0  0  0  0  # atno 17320 bound_to 7965
  145.5337  141.0425  143.2369 LP  0  0  0  0  0  0  0  0  0  0  0  0  # atno 17321 bound_to 7965
  140.3198  143.3144  152.0796 LP  0  0  0  0  0  0  0  0  0  0  0  0  # atno 17342 bound_to 10162
  139.4959  144.6581  151.6526 LP  0  0  0  0  0  0  0  0  0  0  0  0  # atno 17343 bound_to 10162
  156.0391  130.5475  150.8726 LP  0  0  0  0  0  0  0  0  0  0  0  0  # atno 17370 bound_to 10713
  157.5764  131.0946  150.9339 LP  0  0  0  0  0  0  0  0  0  0  0  0  # atno 17371 bound_to 10713
  140.0751  134.5808  155.8599 LP  0  0  0  0  0  0  0  0  0  0  0  0  # atno 17394 bound_to 11000
  141.2028  133.6628  156.6030 LP  0  0  0  0  0  0  0  0  0  0  0  0  # atno 17395 bound_to 11000

$$$$
