AV-unprocessed.smi:83|AV-procd|sdf|804|dock1
  -GOLD-   2262017193D 1   1.00000     0.00000
 Structure written by MMmdl.
 56 59  0  0  0  0  0  0  0  0  1 V2000
  151.5748  145.1305  159.6214 C   0  0  0  0  0  0  0  0  0  0  0  0
  151.7938  144.2334  160.8410 C   0  0  0  0  0  0  0  0  0  0  0  0
  151.3261  144.5782  161.9258 O   0  0  0  0  0  0  0  0  0  0  0  0
  152.4964  143.0931  160.6848 N   0  0  0  0  0  0  0  0  0  0  0  0
  152.7812  142.1575  161.7696 C   0  0  0  0  0  0  0  0  0  0  0  0
  153.6493  141.0605  161.1450 C   0  0  0  0  0  0  0  0  0  0  0  0
  153.2795  141.0815  159.6621 C   0  0  1  0  0  0  0  0  0  0  0  0
  152.0473  140.1776  159.4097 C   0  0  0  0  0  0  0  0  0  0  0  0
  152.2449  139.1632  158.3727 N   0  0  0  0  0  0  0  0  0  0  0  0
  153.3651  138.2412  158.5506 C   0  0  0  0  0  0  0  0  0  0  0  0
  151.7132  139.3179  157.1232 C   0  0  0  0  0  0  0  0  0  0  0  0
  152.1886  138.5276  156.1218 N   0  0  0  0  0  0  0  0  0  0  0  0
  151.7478  138.6608  154.8690 C   0  0  0  0  0  0  0  0  0  0  0  0
  150.8431  139.5141  154.3917 N   0  0  0  0  0  0  0  0  0  0  0  0
  150.3431  140.3039  155.3828 C   0  0  0  0  0  0  0  0  0  0  0  0
  150.7069  140.2699  156.7621 C   0  0  0  0  0  0  0  0  0  0  0  0
  149.9596  141.2216  157.4506 N   0  0  0  0  0  0  0  0  0  0  0  0
  149.2254  141.7946  156.5390 C   0  0  0  0  0  0  0  0  0  0  0  0
  149.3951  141.3051  155.2671 N   0  0  0  0  0  0  0  0  0  0  0  0
  148.7130  141.7591  154.0685 C   0  0  0  0  0  0  0  0  0  0  0  0
  147.2130  141.4057  154.0755 C   0  0  2  0  0  0  0  0  0  0  0  0
  146.7854  141.1609  152.7491 O   0  0  0  0  0  0  0  0  0  0  0  0
  146.3529  142.5315  154.6785 C   0  0  1  0  0  0  0  0  0  0  0  0
  145.9352  143.6121  153.6813 C   0  0  0  0  0  0  0  0  0  0  0  0
  144.7289  144.2103  154.3679 C   0  0  0  0  0  0  0  0  0  0  0  0
  144.0797  142.9850  155.0080 C   0  0  0  0  0  0  0  0  0  0  0  0
  145.1128  142.0128  155.1510 O   0  0  0  0  0  0  0  0  0  0  0  0
  153.0350  142.5809  159.4276 C   0  0  0  0  0  0  0  0  0  0  0  0
  152.5247  145.3818  159.1497 H   0  0  0  0  0  0  0  0  0  0  0  0
  151.0872  146.0614  159.9114 H   0  0  0  0  0  0  0  0  0  0  0  0
  150.9396  144.6356  158.8873 H   0  0  0  0  0  0  0  0  0  0  0  0
  153.2891  142.6442  162.6033 H   0  0  0  0  0  0  0  0  0  0  0  0
  151.8428  141.7413  162.1389 H   0  0  0  0  0  0  0  0  0  0  0  0
  154.7019  141.3237  161.2590 H   0  0  0  0  0  0  0  0  0  0  0  0
  153.5037  140.0878  161.6160 H   0  0  0  0  0  0  0  0  0  0  0  0
  154.1124  140.7282  159.0532 H   0  0  0  0  0  0  0  0  0  0  0  0
  151.8263  139.6425  160.3337 H   0  0  0  0  0  0  0  0  0  0  0  0
  151.1586  140.7757  159.2404 H   0  0  0  0  0  0  0  0  0  0  0  0
  153.1246  137.2549  158.1519 H   0  0  0  0  0  0  0  0  0  0  0  0
  153.6060  138.1181  159.6068 H   0  0  0  0  0  0  0  0  0  0  0  0
  154.2564  138.6147  158.0450 H   0  0  0  0  0  0  0  0  0  0  0  0
  152.1890  137.9922  154.1445 H   0  0  0  0  0  0  0  0  0  0  0  0
  148.5370  142.5944  156.7704 H   0  0  0  0  0  0  0  0  0  0  0  0
  148.8477  142.8388  153.9952 H   0  0  0  0  0  0  0  0  0  0  0  0
  149.2055  141.3265  153.1967 H   0  0  0  0  0  0  0  0  0  0  0  0
  147.0619  140.4910  154.6503 H   0  0  0  0  0  0  0  0  0  0  0  0
  145.8434  141.0840  152.7471 H   0  0  0  0  0  0  0  0  0  0  0  0
  146.8676  142.9959  155.5217 H   0  0  0  0  0  0  0  0  0  0  0  0
  146.7215  144.3428  153.4895 H   0  0  0  0  0  0  0  0  0  0  0  0
  145.6414  143.1664  152.7299 H   0  0  0  0  0  0  0  0  0  0  0  0
  145.0508  144.9104  155.1396 H   0  0  0  0  0  0  0  0  0  0  0  0
  144.0632  144.7380  153.6845 H   0  0  0  0  0  0  0  0  0  0  0  0
  143.6258  143.2212  155.9706 H   0  0  0  0  0  0  0  0  0  0  0  0
  143.3047  142.5742  154.3603 H   0  0  0  0  0  0  0  0  0  0  0  0
  152.3985  142.7815  158.5696 H   0  0  0  0  0  0  0  0  0  0  0  0
  153.9835  143.0855  159.2387 H   0  0  0  0  0  0  0  0  0  0  0  0
  1  2  1  0  0  0  0
  1 29  1  0  0  0  0
  1 30  1  0  0  0  0
  1 31  1  0  0  0  0
  2  3  2  0  0  0  0
  2  4  1  0  0  0  0
  4 28  1  0  0  0  0
  4  5  1  0  0  0  0
  5  6  1  0  0  0  0
  5 32  1  0  0  0  0
  5 33  1  0  0  0  0
  6  7  1  0  0  0  0
  6 34  1  0  0  0  0
  6 35  1  0  0  0  0
  7  8  1  0  0  0  0
  7 28  1  0  0  0  0
  7 36  1  0  0  0  0
  8  9  1  0  0  0  0
  8 37  1  0  0  0  0
  8 38  1  0  0  0  0
  9 10  1  0  0  0  0
  9 11  1  0  0  0  0
 10 39  1  0  0  0  0
 10 40  1  0  0  0  0
 10 41  1  0  0  0  0
 11 16  1  0  0  0  0
 11 12  2  0  0  0  0
 12 13  1  0  0  0  0
 13 14  2  0  0  0  0
 13 42  1  0  0  0  0
 14 15  1  0  0  0  0
 15 19  1  0  0  0  0
 15 16  2  0  0  0  0
 16 17  1  0  0  0  0
 17 18  2  0  0  0  0
 18 19  1  0  0  0  0
 18 43  1  0  0  0  0
 19 20  1  0  0  0  0
 20 21  1  0  0  0  0
 20 44  1  0  0  0  0
 20 45  1  0  0  0  0
 21 22  1  0  0  0  0
 21 23  1  0  0  0  0
 21 46  1  0  0  0  0
 22 47  1  0  0  0  0
 23 27  1  0  0  0  0
 23 24  1  0  0  0  0
 23 48  1  0  0  0  0
 24 25  1  0  0  0  0
 24 49  1  0  0  0  0
 24 50  1  0  0  0  0
 25 26  1  0  0  0  0
 25 51  1  0  0  0  0
 25 52  1  0  0  0  0
 26 27  1  0  0  0  0
 26 53  1  0  0  0  0
 26 54  1  0  0  0  0
 28 55  1  0  0  0  0
 28 56  1  0  0  0  0
M  END
> <s_m_source_file>
AV-unprocessed.smi

> <i_m_source_file_index>
83

> <i_lp_mmshare_version>
43012

> <i_f3d_flags>
0

> <s_epik_input>
W0NIM11DKD1PKU4xW0NIMl1bQ0gyXVtDQEhdKFtDSDJdMSlbQ0gyXU4oW0NIM10pYyhuW2NIXW4yKWMoYzIzKW5bY0hdbjNbQ0gyXVtDQEhdKFtPSF0pW0NAQEhdNFtDSDJdW0NIMl1bQ0gyXU80

> <s_epik_cmdline>
J2VwaWtfcHl0aG9uJywgJy1waCcsICc3LjAnLCAnLXRuJywgJzgnLCAnLW1hJywgJzIwMCcsICctbWV0YWxfYmluZGluZycsICctaW1hZScsICc8aW5maWxlLm1hZT4nLCAnLW9tYWUnLCAnPG91dGZpbGUubWFlPic=

> <r_lp_tautomer_probability>
1

> <r_epik_Ionization_Penalty>
0.00109752

> <r_epik_Ionization_Penalty_Charging>
0

> <r_epik_Ionization_Penalty_Neutral>
0.00109752

> <r_epik_State_Penalty>
0.000634803

> <r_epik_Charging_Adjusted_Penalty>
0.000634803

> <i_epik_Tot_Q>
0

> <i_epik_Tot_abs_Q>
0

> <r_epik_Metal_State_Penalty>
-0

> <b_epik_Metal_Only>
0

> <s_lp_Force_Field>
OPLS_2005

> <r_lp_Energy>
53.0153

> <b_lp_Chiralities_Consistent>
1

> <s_lp_Variant>
AV-unprocessed.smi:83-5

> <Gold.Version>
5.8.1

> <Gold.Id.Protein>
6NUR|6NUR_protein|mol2

> <Gold.PLP.Fitness>
59.6256

> <Gold.PLP.PLP>
-55.9908

> <Gold.PLP.part.hbond>
-2.0000

> <Gold.PLP.part.metal>
0.0000

> <Gold.PLP.part.buried>
-7.8502

> <Gold.PLP.part.nonpolar>
-50.0896

> <Gold.PLP.part.repulsive>
3.1046

> <Gold.PLP.ligand.clash>
0.0000

> <Gold.PLP.ligand.torsion>
1.9195

> <Gold.PLP.Chemscore.Hbond>
1.4913

> <Gold.PLP.Chemscore.CHOScore>
0.8314

> <Gold.PLP.Chemscore.Metal>
0.0000

> <Gold.Chemscore.Hbonds>
donor molecule, donor type, donor heavy atom, donor atom, acceptor molecule, acceptor atom, score
      L1  H    22    47       P1 10175  0.38
      P1  H  7989  7998       L1    14  0.80
      L1  C    18    43       P1  8028  0.76

> <Gold.PLP.Chemscore.Internal.Correction>
0.5058

> <Gold.Rescore>
     Score         DG    S(hbond)    S(metal)    S(lipo)     H(rot)  DE(clash)    DE(int)     intcor
     11.35     -13.80       0.94        0.00     101.50       2.62       0.04       2.41       ----

> <Gold.Chemscore.Fitness>
11.3476

> <Gold.Chemscore.DG>
-13.7956

> <Gold.Chemscore.ZeroCoef>
-5.4800

> <Gold.Chemscore.Hbond>
0.9387

> <Gold.Chemscore.Metal>
0.0000

> <Gold.Chemscore.Lipo>
101.4971

> <Gold.Chemscore.Internal_Hbond>
0.0000

> <Gold.Chemscore.DEClash>
0.0415

> <Gold.Chemscore.DEInternal>
2.4066

> <Gold.Chemscore.Rot>
2.6152

> <Gold.Chemscore.Internal.Correction>
   9.000000E+99

> <Gold.Chemscore.Hbonds>
donor molecule, donor type, donor heavy atom, donor atom, acceptor molecule, acceptor atom, score
      L1  H    22    47       P1 10175  0.05
      P1  H  7989  7998       L1    14  0.09

> <Gold.Chemscore.Hbond.Weighted>
-3.1353

> <Gold.Chemscore.Metal.Weighted>
-0.0000

> <Gold.Chemscore.Lipo.Weighted>
-11.8752

> <Gold.Chemscore.Internal_Hbond.Weighted>
0.0000

> <Gold.Chemscore.DEClash.Weighted>
0.0415

> <Gold.Chemscore.DEInternal.Weighted>
2.4066

> <Gold.Chemscore.Rot.Weighted>
6.6949

> <Gold.Chemscore.Internal.Correction.Weighted>
   9.000000E+99

> <Gold.Protein.RotatedTorsions>
[ 6907 6896 6895 6894 ] final  -80.44 input  -60.11 | X-H torsion
[ 7974 7965 7964 7962 ] final -171.25 input  175.53 | X-H torsion
[ 8008 7997 7996 7995 ] final -158.45 input   59.86 | X-H torsion
[ 10167 10162 10161 10158 ] final   32.81 input  -65.29 | X-H torsion
[ 10718 10713 10712 10709 ] final -179.66 input   66.30 | X-H torsion
[ 10763 10752 10751 10750 ] final  -56.43 input  -60.55 | X-H torsion
[ 11005 11000 10999 10996 ] final -159.57 input  -57.11 | X-H torsion

> <Gold.Protein.ActiveResidues>
 VAL166  LYS551  ARG553  GLY616  TRP617  ASP618  TYR619  PRO620  LYS621  CYS622 
 ASP623  PHE694  ASN695  SER759  ASP760  ASP761  ALA762  ILE779  LEU786  VAL792 
 PHE793  MET794  SER795  GLU796  ALA797  LYS798  CYS799  TRP800  GLU811  SER814 

> <Gold.Protein.RotatedAtoms>
  150.6929  134.3969  159.5101 H   0  0  0  0  0  0  0  0  0  0  0  0  # atno 6907 bound_to 6896
  152.1749  134.8800  160.0540 H   0  0  0  0  0  0  0  0  0  0  0  0  # atno 6908 bound_to 6896
  151.9813  133.3724  159.4145 H   0  0  0  0  0  0  0  0  0  0  0  0  # atno 6909 bound_to 6896
  144.7159  140.1950  143.6344 H   0  0  0  0  0  0  0  0  0  0  0  0  # atno 7974 bound_to 7965
  155.7477  140.0822  157.2216 H   0  0  0  0  0  0  0  0  0  0  0  0  # atno 8008 bound_to 7997
  154.4015  140.1566  156.2744 H   0  0  0  0  0  0  0  0  0  0  0  0  # atno 8009 bound_to 7997
  155.8960  140.3412  155.5994 H   0  0  0  0  0  0  0  0  0  0  0  0  # atno 8010 bound_to 7997
  140.4465  144.1112  150.6183 H   0  0  0  0  0  0  0  0  0  0  0  0  # atno 10167 bound_to 10162
  156.8623  130.9756  151.3082 H   0  0  0  0  0  0  0  0  0  0  0  0  # atno 10718 bound_to 10713
  154.2066  135.6402  153.5102 H   0  0  0  0  0  0  0  0  0  0  0  0  # atno 10763 bound_to 10752
  152.9999  135.5464  154.6260 H   0  0  0  0  0  0  0  0  0  0  0  0  # atno 10764 bound_to 10752
  154.5686  135.2915  155.0823 H   0  0  0  0  0  0  0  0  0  0  0  0  # atno 10765 bound_to 10752
  140.6411  134.4550  157.5233 H   0  0  0  0  0  0  0  0  0  0  0  0  # atno 11005 bound_to 11000
  145.8733  139.2283  143.1648 LP  0  0  0  0  0  0  0  0  0  0  0  0  # atno 17320 bound_to 7965
  146.0064  140.8474  142.9993 LP  0  0  0  0  0  0  0  0  0  0  0  0  # atno 17321 bound_to 7965
  140.4258  143.2590  151.9658 LP  0  0  0  0  0  0  0  0  0  0  0  0  # atno 17342 bound_to 10162
  139.4793  144.5789  151.7965 LP  0  0  0  0  0  0  0  0  0  0  0  0  # atno 17343 bound_to 10162
  157.6243  130.8679  149.9162 LP  0  0  0  0  0  0  0  0  0  0  0  0  # atno 17370 bound_to 10713
  156.0770  130.3677  150.0658 LP  0  0  0  0  0  0  0  0  0  0  0  0  # atno 17371 bound_to 10713
  139.9080  134.8407  156.1633 LP  0  0  0  0  0  0  0  0  0  0  0  0  # atno 17394 bound_to 11000
  141.0606  133.6843  156.1945 LP  0  0  0  0  0  0  0  0  0  0  0  0  # atno 17395 bound_to 11000

$$$$
