#       Name:                AV-unprocessed.smi:3150
#       Creating user name   scv26
#       Creation time:       Fri Mar 27 17:41:53 2020


#       File generated by GOLD software.
#

@<TRIPOS>MOLECULE
AV-unprocessed.smi:3150
    37    38     1
SMALL
NO_CHARGES


@<TRIPOS>ATOM
      1 ****        -0.6153  -2.5581   2.2243 C.3            1 S1                 0.0000
      2 ****        -0.1893  -1.8090   0.9531 C.3            1 S1                 0.0000
      3 ****         1.2353  -1.8072   0.9147 O.3            1 S1                 0.0000
      4 ****         1.8123  -1.4027  -0.3207 C.3            1 S1                 0.0000
      5 ****         3.3133  -1.5748  -0.2345 C.3            1 S1                 0.0000
      6 ****         4.1933  -0.4490   0.2600 C.3            1 S1                 0.0000
      7 ****         4.2220  -0.8419  -1.1951 C.3            1 S1                 0.0000
      8 ****        -0.7279  -0.3694   0.9494 C.2            1 S1                 0.0000
      9 ****        -0.4542   0.3870   1.8826 O.2            1 S1                 0.0000
     10 ****        -1.4723  -0.0284  -0.1188 N.am           1 S1                 0.0000
     11 ****        -2.1043   1.2133  -0.4052 C.ar           1 S1                 0.0000
     12 ****        -1.9956   2.2863   0.4180 N.pl3          1 S1                 1.0000
     13 ****        -2.5842   3.4772   0.1751 C.ar           1 S1                 0.0000
     14 ****        -3.3607   3.6504  -0.9866 C.ar           1 S1                 0.0000
     15 ****        -3.5059   2.5686  -1.8774 C.ar           1 S1                 0.0000
     16 ****        -2.8739   1.3407  -1.5871 C.ar           1 S1                 0.0000
     17 ****        -3.0156   0.2915  -2.4519 O.co2          1 S1                -1.0000
     18 ****        -1.7011  -2.5903   2.3209 H              1 S1                 0.0000
     19 ****        -0.2121  -2.0887   3.1225 H              1 S1                 0.0000
     20 ****        -0.2570  -3.5874   2.2035 H              1 S1                 0.0000
     21 ****        -0.5731  -2.3543   0.0885 H              1 S1                 0.0000
     22 ****         1.4349  -2.0217  -1.1356 H              1 S1                 0.0000
     23 ****         1.5774  -0.3631  -0.5522 H              1 S1                 0.0000
     24 ****         3.6251  -2.5829   0.0326 H              1 S1                 0.0000
     25 ****         3.7152   0.4944   0.5163 H              1 S1                 0.0000
     26 ****         5.0532  -0.7164   0.8708 H              1 S1                 0.0000
     27 ****         5.1014  -1.3713  -1.5564 H              1 S1                 0.0000
     28 ****         3.7636  -0.1592  -1.9078 H              1 S1                 0.0000
     29 ****        -1.6162  -0.7471  -0.8140 H              1 S1                 0.0000
     30 ****        -2.4162   4.2487   0.9123 H              1 S1                 0.0000
     31 ****        -3.8373   4.5972  -1.1928 H              1 S1                 0.0000
     32 ****        -4.0973   2.6816  -2.7745 H              1 S1                 0.0000
     33 ****        -1.4385   2.1856   1.2671 H              1 S1                 0.0000
     34 ****         1.5504  -2.7353   1.1130 LP             1 S1                 0.0000
     35 ****         1.5622  -1.1851   1.6261 LP             1 S1                 0.0000
     36 ****         0.1159   0.0634   2.6377 LP             1 S1                 0.0000
     37 ****        -0.8021   1.3245   1.8848 LP             1 S1                 0.0000
@<TRIPOS>BOND
    1    1    2 1     
    2    1   18 1     
    3    1   19 1     
    4    1   20 1     
    5    2    3 1     
    6    2    8 1     
    7    2   21 1     
    8    3    4 1     
    9    4    5 1     
   10    4   22 1     
   11    4   23 1     
   12    5    7 1     
   13    5    6 1     
   14    5   24 1     
   15    6    7 1     
   16    6   25 1     
   17    6   26 1     
   18    7   27 1     
   19    7   28 1     
   20    8    9 2     
   21    8   10 am    
   22   10   29 1     
   23   10   11 1     
   24   11   16 ar    
   25   11   12 ar    
   26   12   33 1     
   27   12   13 ar    
   28   13   30 1     
   29   13   14 ar    
   30   14   31 1     
   31   14   15 ar    
   32   15   16 ar    
   33   15   32 1     
   34   16   17 ar    
   35    3   34 1     
   36    3   35 1     
   37    9   36 1     
   38    9   37 1     
@<TRIPOS>SUBSTRUCTURE
      1 S1             1
@<TRIPOS>SET
LONE_PAIRS      STATIC     ATOMS    <user>   **** ""
5 34 35 36 37 17
DONOR_HYDROGENS      STATIC     ATOMS    <user>   **** ""
2 29 33
ATOM$BLUE        STATIC     ATOMS    COLORGROUP SYSTEM
5 34 35 36 37 17
ATOM$RED        STATIC     ATOMS    COLORGROUP SYSTEM
2 29 33
