AV-unprocessed.smi:3250|AV-procd|sdf|12434|dock5
  -GOLD-   2272018323D 1   1.00000     0.00000
 Structure written by MMmdl.
 40 41  0  0  0  0  0  0  0  0  3 V2000
  144.1361  133.0668  149.4706 C   0  0  0  0  0  0  0  0  0  0  0  0
  145.0232  132.9223  150.7151 C   0  0  0  0  0  0  0  0  0  0  0  0
  144.8011  134.0067  151.7040 N   0  3  2  0  0  0  0  0  0  0  0  0
  143.3620  134.2177  151.9882 C   0  0  0  0  0  0  0  0  0  0  0  0
  143.1768  135.3194  153.0430 C   0  0  0  0  0  0  0  0  0  0  0  0
  143.7978  136.5157  152.5904 O   0  0  0  0  0  0  0  0  0  0  0  0
  145.2028  136.3621  152.4165 C   0  0  2  0  0  0  0  0  0  0  0  0
  145.7862  137.7230  152.0096 C   0  0  0  0  0  0  0  0  0  0  0  0
  147.1065  137.9383  152.5834 N   0  0  0  0  0  0  0  0  0  0  0  0
  147.4488  139.0593  153.3166 C   0  0  0  0  0  0  0  0  0  0  0  0
  146.5038  139.9934  153.4999 N   0  3  0  0  0  0  0  0  0  0  0  0
  146.7926  141.1143  154.2059 C   0  0  0  0  0  0  0  0  0  0  0  0
  148.0765  141.3007  154.7489 C   0  0  0  0  0  0  0  0  0  0  0  0
  149.0172  140.2822  154.5237 C   0  0  0  0  0  0  0  0  0  0  0  0
  150.2911  140.4084  155.0378 O   0  0  0  0  0  0  0  0  0  0  0  0
  150.5497  141.4707  155.9493 C   0  0  0  0  0  0  0  0  0  0  0  0
  148.6899  139.1783  153.8103 N   0  0  0  0  0  0  0  0  0  0  0  0
  145.4496  135.2905  151.3348 C   0  0  0  0  0  0  0  0  0  0  0  0
  144.3942  132.3118  148.7276 H   0  0  0  0  0  0  0  0  0  0  0  0
  144.2649  134.0443  149.0051 H   0  0  0  0  0  0  0  0  0  0  0  0
  143.0796  132.9394  149.7045 H   0  0  0  0  0  0  0  0  0  0  0  0
  144.8717  131.9493  151.1848 H   0  0  0  0  0  0  0  0  0  0  0  0
  146.0636  132.9486  150.3880 H   0  0  0  0  0  0  0  0  0  0  0  0
  142.8429  134.4906  151.0680 H   0  0  0  0  0  0  0  0  0  0  0  0
  142.9141  133.2901  152.3468 H   0  0  0  0  0  0  0  0  0  0  0  0
  142.1158  135.5109  153.2044 H   0  0  0  0  0  0  0  0  0  0  0  0
  143.5957  135.0159  154.0039 H   0  0  0  0  0  0  0  0  0  0  0  0
  145.6579  136.0425  153.3562 H   0  0  0  0  0  0  0  0  0  0  0  0
  145.8712  137.7772  150.9235 H   0  0  0  0  0  0  0  0  0  0  0  0
  145.1188  138.5280  152.3198 H   0  0  0  0  0  0  0  0  0  0  0  0
  147.7628  137.1711  152.5728 H   0  0  0  0  0  0  0  0  0  0  0  0
  145.9862  141.8250  154.3132 H   0  0  0  0  0  0  0  0  0  0  0  0
  148.3274  142.1858  155.3151 H   0  0  0  0  0  0  0  0  0  0  0  0
  151.5945  141.4344  156.2578 H   0  0  0  0  0  0  0  0  0  0  0  0
  149.9363  141.3857  156.8474 H   0  0  0  0  0  0  0  0  0  0  0  0
  150.3755  142.4435  155.4873 H   0  0  0  0  0  0  0  0  0  0  0  0
  146.5227  135.1474  151.2112 H   0  0  0  0  0  0  0  0  0  0  0  0
  145.0598  135.6304  150.3736 H   0  0  0  0  0  0  0  0  0  0  0  0
  145.2194  133.6980  152.5700 H   0  0  0  0  0  0  0  0  0  0  0  0
  145.5674  139.8754  153.1128 H   0  0  0  0  0  0  0  0  0  0  0  0
  1  2  1  0  0  0  0
  1 19  1  0  0  0  0
  1 20  1  0  0  0  0
  1 21  1  0  0  0  0
  2  3  1  0  0  0  0
  2 22  1  0  0  0  0
  2 23  1  0  0  0  0
  3 18  1  0  0  0  0
  3  4  1  0  0  0  0
  3 39  1  0  0  0  0
  4  5  1  0  0  0  0
  4 24  1  0  0  0  0
  4 25  1  0  0  0  0
  5  6  1  0  0  0  0
  5 26  1  0  0  0  0
  5 27  1  0  0  0  0
  6  7  1  0  0  0  0
  7  8  1  0  0  0  0
  7 18  1  0  0  0  0
  7 28  1  0  0  0  0
  8  9  1  0  0  0  0
  8 29  1  0  0  0  0
  8 30  1  0  0  0  0
  9 10  1  0  0  0  0
  9 31  1  0  0  0  0
 10 17  1  0  0  0  0
 10 11  2  0  0  0  0
 11 12  1  0  0  0  0
 11 40  1  0  0  0  0
 12 13  2  0  0  0  0
 12 32  1  0  0  0  0
 13 14  1  0  0  0  0
 13 33  1  0  0  0  0
 14 15  1  0  0  0  0
 14 17  2  0  0  0  0
 15 16  1  0  0  0  0
 16 34  1  0  0  0  0
 16 35  1  0  0  0  0
 16 36  1  0  0  0  0
 18 37  1  0  0  0  0
 18 38  1  0  0  0  0
M  CHG  1   3   1
M  CHG  1  11   1
M  END
> <s_m_source_file>
AV-unprocessed.smi

> <i_m_source_file_index>
3250

> <i_lp_mmshare_version>
43012

> <i_f3d_flags>
0

> <s_epik_input>
W0NIM11bQ0gyXU4xW0NIMl1bQ0gyXU9bQ0BIXShbQ0gyXTEpW0NIMl1bTkhdYzJuW2NIXVtjSF1jKG4yKU9bQ0gzXQ==

> <s_epik_cmdline>
J2VwaWtfcHl0aG9uJywgJy1waCcsICc3LjAnLCAnLXRuJywgJzgnLCAnLW1hJywgJzIwMCcsICctbWV0YWxfYmluZGluZycsICctaW1hZScsICc8aW5maWxlLm1hZT4nLCAnLW9tYWUnLCAnPG91dGZpbGUubWFlPic=

> <r_lp_tautomer_probability>
0.999985

> <r_epik_Ionization_Penalty>
2.24691

> <r_epik_Ionization_Penalty_Charging>
2.24686

> <r_epik_Ionization_Penalty_Neutral>
4.52111e-05

> <r_epik_State_Penalty>
2.24709

> <r_epik_Charging_Adjusted_Penalty>
4.49395

> <i_epik_Tot_Q>
2

> <i_epik_Tot_abs_Q>
2

> <r_epik_Metal_State_Penalty>
2.26327

> <b_epik_Metal_Only>
0

> <s_lp_Force_Field>
OPLS_2005

> <r_lp_Energy>
18.1158

> <b_lp_Chiralities_Consistent>
1

> <s_lp_Variant>
AV-unprocessed.smi:3250-10

> <Gold.Version>
5.8.1

> <Gold.Id.Protein>
6NUR|6NUR_protein|mol2

> <Gold.PLP.Fitness>
45.1563

> <Gold.PLP.PLP>
-31.7232

> <Gold.PLP.part.hbond>
-3.0000

> <Gold.PLP.part.metal>
0.0000

> <Gold.PLP.part.buried>
-5.2152

> <Gold.PLP.part.nonpolar>
-26.1214

> <Gold.PLP.part.repulsive>
2.2591

> <Gold.PLP.ligand.clash>
0.0000

> <Gold.PLP.ligand.torsion>
0.7065

> <Gold.PLP.Chemscore.Hbond>
4.9440

> <Gold.PLP.Chemscore.CHOScore>
0.0000

> <Gold.PLP.Chemscore.Metal>
0.0000

> <Gold.Chemscore.Hbonds>
donor molecule, donor type, donor heavy atom, donor atom, acceptor molecule, acceptor atom, score
      L1  H     9    31       P1  7948  2.00
      L1  H    11    40       P1 10175  1.76
      P1  H  7989  7998       L1    15  0.84

> <Gold.PLP.Chemscore.Internal.Correction>
0.0141

> <Gold.Rescore>
     Score         DG    S(hbond)    S(metal)    S(lipo)     H(rot)  DE(clash)    DE(int)     intcor
     14.89     -17.03       2.67        0.00      60.94       1.75       1.26       0.89       ----

> <Gold.Chemscore.Fitness>
14.8926

> <Gold.Chemscore.DG>
-17.0330

> <Gold.Chemscore.ZeroCoef>
-5.4800

> <Gold.Chemscore.Hbond>
2.6679

> <Gold.Chemscore.Metal>
0.0000

> <Gold.Chemscore.Lipo>
60.9386

> <Gold.Chemscore.Internal_Hbond>
0.0000

> <Gold.Chemscore.DEClash>
1.2551

> <Gold.Chemscore.DEInternal>
0.8852

> <Gold.Chemscore.Rot>
1.7530

> <Gold.Chemscore.Internal.Correction>
   9.000000E+99

> <Gold.Chemscore.Hbonds>
donor molecule, donor type, donor heavy atom, donor atom, acceptor molecule, acceptor atom, score
      L1  H     9    31       P1  7948  0.96
      L1  H    11    40       P1 10175  0.84
      P1  H  7989  7998       L1    15  0.17

> <Gold.Chemscore.Hbond.Weighted>
-8.9108

> <Gold.Chemscore.Metal.Weighted>
-0.0000

> <Gold.Chemscore.Lipo.Weighted>
-7.1298

> <Gold.Chemscore.Internal_Hbond.Weighted>
0.0000

> <Gold.Chemscore.DEClash.Weighted>
1.2551

> <Gold.Chemscore.DEInternal.Weighted>
0.8852

> <Gold.Chemscore.Rot.Weighted>
4.4876

> <Gold.Chemscore.Internal.Correction.Weighted>
   9.000000E+99

> <Gold.Protein.RotatedTorsions>
[ 6907 6896 6895 6894 ] final  -57.12 input  -60.11 | X-H torsion
[ 7974 7965 7964 7962 ] final  -49.63 input  175.53 | X-H torsion
[ 8008 7997 7996 7995 ] final  135.62 input   59.86 | X-H torsion
[ 10167 10162 10161 10158 ] final    3.17 input  -65.29 | X-H torsion
[ 10718 10713 10712 10709 ] final  -13.06 input   66.30 | X-H torsion
[ 10763 10752 10751 10750 ] final  115.01 input  -60.55 | X-H torsion
[ 11005 11000 10999 10996 ] final  177.46 input  -57.11 | X-H torsion

> <Gold.Protein.ActiveResidues>
 VAL166  LYS551  ARG553  GLY616  TRP617  ASP618  TYR619  PRO620  LYS621  CYS622 
 ASP623  PHE694  ASN695  SER759  ASP760  ASP761  ALA762  ILE779  LEU786  VAL792 
 PHE793  MET794  SER795  GLU796  ALA797  LYS798  CYS799  TRP800  GLU811  SER814 

> <Gold.Protein.RotatedAtoms>
  150.8112  134.7267  159.6688 H   0  0  0  0  0  0  0  0  0  0  0  0  # atno 6907 bound_to 6896
  152.4231  134.5914  159.9985 H   0  0  0  0  0  0  0  0  0  0  0  0  # atno 6908 bound_to 6896
  151.6124  133.3309  159.3106 H   0  0  0  0  0  0  0  0  0  0  0  0  # atno 6909 bound_to 6896
  145.9385  140.7684  142.9564 H   0  0  0  0  0  0  0  0  0  0  0  0  # atno 7974 bound_to 7965
  156.3003  140.2466  156.3611 H   0  0  0  0  0  0  0  0  0  0  0  0  # atno 8008 bound_to 7997
  154.8876  140.0410  157.1839 H   0  0  0  0  0  0  0  0  0  0  0  0  # atno 8009 bound_to 7997
  154.8631  140.2923  155.5531 H   0  0  0  0  0  0  0  0  0  0  0  0  # atno 8010 bound_to 7997
  140.6599  143.7331  150.7720 H   0  0  0  0  0  0  0  0  0  0  0  0  # atno 10167 bound_to 10162
  156.6357  130.4914  149.6113 H   0  0  0  0  0  0  0  0  0  0  0  0  # atno 10718 bound_to 10713
  153.5158  135.3608  155.2608 H   0  0  0  0  0  0  0  0  0  0  0  0  # atno 10763 bound_to 10752
  154.8739  135.4034  154.3316 H   0  0  0  0  0  0  0  0  0  0  0  0  # atno 10764 bound_to 10752
  153.3977  135.7074  153.6515 H   0  0  0  0  0  0  0  0  0  0  0  0  # atno 10765 bound_to 10752
  140.3843  134.6918  157.4470 H   0  0  0  0  0  0  0  0  0  0  0  0  # atno 11005 bound_to 11000
  144.6775  140.2241  143.7363 LP  0  0  0  0  0  0  0  0  0  0  0  0  # atno 17320 bound_to 7965
  145.8332  139.2095  143.1871 LP  0  0  0  0  0  0  0  0  0  0  0  0  # atno 17321 bound_to 7965
  140.0998  143.4799  152.2432 LP  0  0  0  0  0  0  0  0  0  0  0  0  # atno 17342 bound_to 10162
  139.5830  144.7519  151.3591 LP  0  0  0  0  0  0  0  0  0  0  0  0  # atno 17343 bound_to 10162
  156.2199  130.6730  151.1357 LP  0  0  0  0  0  0  0  0  0  0  0  0  # atno 17370 bound_to 10713
  157.7186  131.0695  150.6227 LP  0  0  0  0  0  0  0  0  0  0  0  0  # atno 17371 bound_to 10713
  140.0454  134.6206  155.8927 LP  0  0  0  0  0  0  0  0  0  0  0  0  # atno 17394 bound_to 11000
  141.1913  133.6571  156.5449 LP  0  0  0  0  0  0  0  0  0  0  0  0  # atno 17395 bound_to 11000

$$$$
