AV-unprocessed.smi:1593|AV-procd|sdf|6411|dock2
  -GOLD-   22720 7 43D 1   1.00000     0.00000
 Structure written by MMmdl.
 35 36  0  0  0  0  0  0  0  0  2 V2000
  146.3047  142.0570  154.2475 C   0  0  0  0  0  0  0  0  0  0  0  0
  147.6123  141.5114  154.7102 C   0  0  0  0  0  0  0  0  0  0  0  0
  148.8216  141.3538  154.0947 C   0  0  0  0  0  0  0  0  0  0  0  0
  149.6277  140.7658  155.1076 C   0  0  0  0  0  0  0  0  0  0  0  0
  150.9213  140.4281  154.9927 N   0  5  0  0  0  0  0  0  0  0  0  0
  151.6482  140.1262  156.0935 C   0  0  0  0  0  0  0  0  0  0  0  0
  152.3831  139.1466  156.2396 O   0  0  0  0  0  0  0  0  0  0  0  0
  151.5154  141.0132  157.0883 N   0  0  0  0  0  0  0  0  0  0  0  0
  152.1652  140.9221  158.3900 C   0  0  0  0  0  0  0  0  0  0  0  0
  152.4228  142.3212  158.9772 C   0  0  0  0  0  0  0  0  0  0  0  0
  152.3662  142.4115  160.4371 N   0  0  0  0  0  0  0  0  0  0  0  0
  153.5020  141.7626  161.0881 C   0  0  0  0  0  0  0  0  0  0  0  0
  153.4327  141.8882  162.6201 C   0  0  0  0  0  0  0  0  0  0  0  0
  153.3493  143.2619  162.9866 O   0  0  0  0  0  0  0  0  0  0  0  0
  152.2240  143.9151  162.4082 C   0  0  0  0  0  0  0  0  0  0  0  0
  152.2954  143.8007  160.8758 C   0  0  0  0  0  0  0  0  0  0  0  0
  148.9702  140.5982  156.2429 N   0  0  0  0  0  0  0  0  0  0  0  0
  147.6749  141.0677  155.9945 O   0  0  0  0  0  0  0  0  0  0  0  0
  146.4269  143.0640  153.8484 H   0  0  0  0  0  0  0  0  0  0  0  0
  145.5857  142.1032  155.0657 H   0  0  0  0  0  0  0  0  0  0  0  0
  145.8830  141.4299  153.4620 H   0  0  0  0  0  0  0  0  0  0  0  0
  149.0874  141.6126  153.0808 H   0  0  0  0  0  0  0  0  0  0  0  0
  150.8998  141.7989  156.9371 H   0  0  0  0  0  0  0  0  0  0  0  0
  151.5618  140.3194  159.0696 H   0  0  0  0  0  0  0  0  0  0  0  0
  153.1144  140.3979  158.2719 H   0  0  0  0  0  0  0  0  0  0  0  0
  153.3897  142.6840  158.6258 H   0  0  0  0  0  0  0  0  0  0  0  0
  151.6801  142.9983  158.5534 H   0  0  0  0  0  0  0  0  0  0  0  0
  153.5333  140.7046  160.8286 H   0  0  0  0  0  0  0  0  0  0  0  0
  154.4345  142.2019  160.7306 H   0  0  0  0  0  0  0  0  0  0  0  0
  152.5703  141.3470  163.0123 H   0  0  0  0  0  0  0  0  0  0  0  0
  154.3201  141.4501  163.0770 H   0  0  0  0  0  0  0  0  0  0  0  0
  151.3018  143.4710  162.7863 H   0  0  0  0  0  0  0  0  0  0  0  0
  152.2242  144.9621  162.7116 H   0  0  0  0  0  0  0  0  0  0  0  0
  153.1674  144.3474  160.5139 H   0  0  0  0  0  0  0  0  0  0  0  0
  151.4204  144.2827  160.4383 H   0  0  0  0  0  0  0  0  0  0  0  0
  1  2  1  0  0  0  0
  1 19  1  0  0  0  0
  1 20  1  0  0  0  0
  1 21  1  0  0  0  0
  2 18  1  0  0  0  0
  2  3  2  0  0  0  0
  3  4  1  0  0  0  0
  3 22  1  0  0  0  0
  4  5  1  0  0  0  0
  4 17  2  0  0  0  0
  5  6  1  0  0  0  0
  6  7  2  0  0  0  0
  6  8  1  0  0  0  0
  8  9  1  0  0  0  0
  8 23  1  0  0  0  0
  9 10  1  0  0  0  0
  9 24  1  0  0  0  0
  9 25  1  0  0  0  0
 10 11  1  0  0  0  0
 10 26  1  0  0  0  0
 10 27  1  0  0  0  0
 11 16  1  0  0  0  0
 11 12  1  0  0  0  0
 12 13  1  0  0  0  0
 12 28  1  0  0  0  0
 12 29  1  0  0  0  0
 13 14  1  0  0  0  0
 13 30  1  0  0  0  0
 13 31  1  0  0  0  0
 14 15  1  0  0  0  0
 15 16  1  0  0  0  0
 15 32  1  0  0  0  0
 15 33  1  0  0  0  0
 16 34  1  0  0  0  0
 16 35  1  0  0  0  0
 17 18  1  0  0  0  0
M  CHG  1   5  -1
M  END
> <s_m_source_file>
AV-unprocessed.smi

> <i_m_source_file_index>
1593

> <i_lp_mmshare_version>
43012

> <i_f3d_flags>
0

> <s_epik_input>
W0NIM11jMVtjSF1jKG5vMSlbTkhdQyg9TylbTkhdW0NIMl1bQ0gyXU4yW0NIMl1bQ0gyXU9bQ0gyXVtDSDJdMg==

> <s_epik_cmdline>
J2VwaWtfcHl0aG9uJywgJy1waCcsICc3LjAnLCAnLXRuJywgJzgnLCAnLW1hJywgJzIwMCcsICctbWV0YWxfYmluZGluZycsICctaW1hZScsICc8aW5maWxlLm1hZT4nLCAnLW9tYWUnLCAnPG91dGZpbGUubWFlPic=

> <r_epik_Ionization_Penalty>
6.88366

> <r_epik_Ionization_Penalty_Charging>
6.57198

> <r_epik_Ionization_Penalty_Neutral>
0.311678

> <r_epik_State_Penalty>
6.77619

> <r_epik_Charging_Adjusted_Penalty>
13.3482

> <i_epik_Tot_Q>
-1

> <i_epik_Tot_abs_Q>
1

> <r_epik_Metal_State_Penalty>
2.70533

> <b_epik_Metal_Only>
1

> <s_lp_Force_Field>
OPLS_2005

> <r_lp_Energy>
18.6523

> <b_lp_Chiralities_Consistent>
1

> <s_lp_Variant>
AV-unprocessed.smi:1593-3

> <Gold.Version>
5.8.1

> <Gold.Id.Protein>
6NUR|6NUR_protein|mol2

> <Gold.PLP.Fitness>
37.4349

> <Gold.PLP.PLP>
-33.2443

> <Gold.PLP.part.hbond>
-2.1342

> <Gold.PLP.part.metal>
0.0000

> <Gold.PLP.part.buried>
1.3749

> <Gold.PLP.part.nonpolar>
-31.2157

> <Gold.PLP.part.repulsive>
0.3742

> <Gold.PLP.ligand.clash>
0.0976

> <Gold.PLP.ligand.torsion>
0.9189

> <Gold.PLP.Chemscore.Hbond>
2.0000

> <Gold.PLP.Chemscore.CHOScore>
0.0000

> <Gold.PLP.Chemscore.Metal>
0.0000

> <Gold.Chemscore.Hbonds>
donor molecule, donor type, donor heavy atom, donor atom, acceptor molecule, acceptor atom, score
      P1  H  7989  7998       L1     5  1.00
      P1  H  7997  8009       L1     7  0.62

> <Gold.PLP.Chemscore.Internal.Correction>
0.1260

> <Gold.Rescore>
     Score         DG    S(hbond)    S(metal)    S(lipo)     H(rot)  DE(clash)    DE(int)     intcor
     12.48     -16.30       1.60        0.00      81.26       1.57       1.27       2.55       ----

> <Gold.Chemscore.Fitness>
12.4813

> <Gold.Chemscore.DG>
-16.3009

> <Gold.Chemscore.ZeroCoef>
-5.4800

> <Gold.Chemscore.Hbond>
1.5991

> <Gold.Chemscore.Metal>
0.0000

> <Gold.Chemscore.Lipo>
81.2551

> <Gold.Chemscore.Internal_Hbond>
0.0000

> <Gold.Chemscore.DEClash>
1.2714

> <Gold.Chemscore.DEInternal>
2.5482

> <Gold.Chemscore.Rot>
1.5731

> <Gold.Chemscore.Internal.Correction>
   9.000000E+99

> <Gold.Chemscore.Hbonds>
donor molecule, donor type, donor heavy atom, donor atom, acceptor molecule, acceptor atom, score
      P1  H  7989  7998       L1     5  0.85
      P1  H  7997  8009       L1     7  0.19

> <Gold.Chemscore.Hbond.Weighted>
-5.3412

> <Gold.Chemscore.Metal.Weighted>
-0.0000

> <Gold.Chemscore.Lipo.Weighted>
-9.5068

> <Gold.Chemscore.Internal_Hbond.Weighted>
0.0000

> <Gold.Chemscore.DEClash.Weighted>
1.2714

> <Gold.Chemscore.DEInternal.Weighted>
2.5482

> <Gold.Chemscore.Rot.Weighted>
4.0271

> <Gold.Chemscore.Internal.Correction.Weighted>
   9.000000E+99

> <Gold.Protein.RotatedTorsions>
[ 6907 6896 6895 6894 ] final   39.65 input  -60.11 | X-H torsion
[ 7974 7965 7964 7962 ] final   26.81 input  175.53 | X-H torsion
[ 8008 7997 7996 7995 ] final -164.46 input   59.86 | X-H torsion
[ 10167 10162 10161 10158 ] final -175.71 input  -65.29 | X-H torsion
[ 10718 10713 10712 10709 ] final  -95.77 input   66.30 | X-H torsion
[ 10763 10752 10751 10750 ] final   -5.54 input  -60.55 | X-H torsion
[ 11005 11000 10999 10996 ] final -153.37 input  -57.11 | X-H torsion

> <Gold.Protein.ActiveResidues>
 VAL166  LYS551  ARG553  GLY616  TRP617  ASP618  TYR619  PRO620  LYS621  CYS622 
 ASP623  PHE694  ASN695  SER759  ASP760  ASP761  ALA762  ILE779  LEU786  VAL792 
 PHE793  MET794  SER795  GLU796  ALA797  LYS798  CYS799  TRP800  GLU811  SER814 

> <Gold.Protein.RotatedAtoms>
  152.1723  134.8824  160.0533 H   0  0  0  0  0  0  0  0  0  0  0  0  # atno 6907 bound_to 6896
  151.9779  133.3743  159.4104 H   0  0  0  0  0  0  0  0  0  0  0  0  # atno 6908 bound_to 6896
  150.6904  134.3993  159.5155 H   0  0  0  0  0  0  0  0  0  0  0  0  # atno 6909 bound_to 6896
  146.1818  139.7277  142.8895 H   0  0  0  0  0  0  0  0  0  0  0  0  # atno 7974 bound_to 7965
  155.8360  140.0941  157.1764 H   0  0  0  0  0  0  0  0  0  0  0  0  # atno 8008 bound_to 7997
  154.3980  140.1410  156.3732 H   0  0  0  0  0  0  0  0  0  0  0  0  # atno 8009 bound_to 7997
  155.8116  140.3449  155.5463 H   0  0  0  0  0  0  0  0  0  0  0  0  # atno 8010 bound_to 7997
  139.5567  144.1972  152.1170 H   0  0  0  0  0  0  0  0  0  0  0  0  # atno 10167 bound_to 10162
  156.0049  130.5123  150.6127 H   0  0  0  0  0  0  0  0  0  0  0  0  # atno 10718 bound_to 10713
  153.4000  135.7004  153.6433 H   0  0  0  0  0  0  0  0  0  0  0  0  # atno 10763 bound_to 10752
  153.4971  135.3660  155.2521 H   0  0  0  0  0  0  0  0  0  0  0  0  # atno 10764 bound_to 10752
  154.8709  135.4103  154.3333 H   0  0  0  0  0  0  0  0  0  0  0  0  # atno 10765 bound_to 10752
  140.7089  134.3855  157.5200 H   0  0  0  0  0  0  0  0  0  0  0  0  # atno 11005 bound_to 11000
  145.4055  141.0390  143.3046 LP  0  0  0  0  0  0  0  0  0  0  0  0  # atno 17320 bound_to 7965
  144.8327  139.5601  143.6936 LP  0  0  0  0  0  0  0  0  0  0  0  0  # atno 17321 bound_to 7965
  140.1478  144.5143  150.6705 LP  0  0  0  0  0  0  0  0  0  0  0  0  # atno 17342 bound_to 10162
  140.6840  143.2341  151.5308 LP  0  0  0  0  0  0  0  0  0  0  0  0  # atno 17343 bound_to 10162
  157.3956  131.0802  151.1354 LP  0  0  0  0  0  0  0  0  0  0  0  0  # atno 17370 bound_to 10713
  157.2032  130.6404  149.5746 LP  0  0  0  0  0  0  0  0  0  0  0  0  # atno 17371 bound_to 10713
  139.8877  134.8876  156.2515 LP  0  0  0  0  0  0  0  0  0  0  0  0  # atno 17394 bound_to 11000
  141.0101  133.7100  156.1098 LP  0  0  0  0  0  0  0  0  0  0  0  0  # atno 17395 bound_to 11000

$$$$
