AV-unprocessed.smi:561|AV-procd|sdf|2938|dock8
  -GOLD-   2262023433D 1   1.00000     0.00000
 Structure written by MMmdl.
 36 37  0  0  0  0  0  0  0  0  1 V2000
  145.6732  134.1854  153.6221 C   0  0  0  0  0  0  0  0  0  0  0  0
  145.6029  135.3602  152.6375 C   0  0  2  0  0  0  0  0  0  0  0  0
  145.8688  134.8989  151.1896 C   0  0  0  0  0  0  0  0  0  0  0  0
  145.2464  133.6231  150.8857 N   0  0  0  0  0  0  0  0  0  0  0  0
  143.8889  133.3666  150.7412 C   0  0  0  0  0  0  0  0  0  0  0  0
  143.7700  132.0228  150.4682 C   0  0  0  0  0  0  0  0  0  0  0  0
  145.0337  131.4377  150.4340 N   0  0  0  0  0  0  0  0  0  0  0  0
  145.8568  132.4466  150.6886 C   0  0  0  0  0  0  0  0  0  0  0  0
  146.5734  136.3774  153.0396 N   0  0  0  0  0  0  0  0  0  0  0  0
  146.2806  137.6042  153.5109 C   0  0  0  0  0  0  0  0  0  0  0  0
  145.1282  137.9971  153.6947 O   0  0  0  0  0  0  0  0  0  0  0  0
  147.4435  138.4883  153.7867 C   0  0  0  0  0  0  0  0  0  0  0  0
  148.5546  137.9821  154.2226 N   0  0  0  0  0  0  0  0  0  0  0  0
  149.6657  138.7611  154.4730 N   0  0  0  0  0  0  0  0  0  0  0  0
  150.9032  138.0137  154.6880 C   0  0  0  0  0  0  0  0  0  0  0  0
  149.6570  140.1153  154.5484 C   0  0  0  0  0  0  0  0  0  0  0  0
  150.6618  140.7958  154.7556 O   0  0  0  0  0  0  0  0  0  0  0  0
  148.2955  140.7986  154.3918 C   0  0  0  0  0  0  0  0  0  0  0  0
  147.3270  139.9757  153.5194 C   0  0  0  0  0  0  0  0  0  0  0  0
  144.9456  133.4150  153.3654 H   0  0  0  0  0  0  0  0  0  0  0  0
  145.4593  134.5128  154.6401 H   0  0  0  0  0  0  0  0  0  0  0  0
  146.6612  133.7235  153.6206 H   0  0  0  0  0  0  0  0  0  0  0  0
  144.5911  135.7658  152.6929 H   0  0  0  0  0  0  0  0  0  0  0  0
  145.5087  135.6429  150.4777 H   0  0  0  0  0  0  0  0  0  0  0  0
  146.9414  134.7972  151.0190 H   0  0  0  0  0  0  0  0  0  0  0  0
  143.1409  134.1383  150.8486 H   0  0  0  0  0  0  0  0  0  0  0  0
  142.8794  131.4370  150.2947 H   0  0  0  0  0  0  0  0  0  0  0  0
  146.9291  132.3260  150.7392 H   0  0  0  0  0  0  0  0  0  0  0  0
  147.5489  136.1436  152.9227 H   0  0  0  0  0  0  0  0  0  0  0  0
  151.3209  138.2336  155.6717 H   0  0  0  0  0  0  0  0  0  0  0  0
  151.6460  138.2797  153.9345 H   0  0  0  0  0  0  0  0  0  0  0  0
  150.7464  136.9352  154.6304 H   0  0  0  0  0  0  0  0  0  0  0  0
  147.8747  140.9223  155.3904 H   0  0  0  0  0  0  0  0  0  0  0  0
  148.4220  141.7994  153.9778 H   0  0  0  0  0  0  0  0  0  0  0  0
  147.5230  140.1670  152.4637 H   0  0  0  0  0  0  0  0  0  0  0  0
  146.3109  140.3230  153.7112 H   0  0  0  0  0  0  0  0  0  0  0  0
  1  2  1  0  0  0  0
  1 20  1  0  0  0  0
  1 21  1  0  0  0  0
  1 22  1  0  0  0  0
  2  3  1  0  0  0  0
  2  9  1  0  0  0  0
  2 23  1  0  0  0  0
  3  4  1  0  0  0  0
  3 24  1  0  0  0  0
  3 25  1  0  0  0  0
  4  8  1  0  0  0  0
  4  5  1  0  0  0  0
  5  6  2  0  0  0  0
  5 26  1  0  0  0  0
  6  7  1  0  0  0  0
  6 27  1  0  0  0  0
  7  8  2  0  0  0  0
  8 28  1  0  0  0  0
  9 10  1  0  0  0  0
  9 29  1  0  0  0  0
 10 11  2  0  0  0  0
 10 12  1  0  0  0  0
 12 19  1  0  0  0  0
 12 13  2  0  0  0  0
 13 14  1  0  0  0  0
 14 15  1  0  0  0  0
 14 16  1  0  0  0  0
 15 30  1  0  0  0  0
 15 31  1  0  0  0  0
 15 32  1  0  0  0  0
 16 17  2  0  0  0  0
 16 18  1  0  0  0  0
 18 19  1  0  0  0  0
 18 33  1  0  0  0  0
 18 34  1  0  0  0  0
 19 35  1  0  0  0  0
 19 36  1  0  0  0  0
M  END
> <s_m_source_file>
AV-unprocessed.smi

> <i_m_source_file_index>
561

> <i_lp_mmshare_version>
43012

> <i_f3d_flags>
0

> <s_epik_input>
W2NIXTFuW2NIXVtjSF1uMVtDSDJdW0NAQEhdKFtDSDNdKVtOSF1DKD1PKUMyPU5OKFtDSDNdKUMoPU8pW0NIMl1bQ0gyXTI=

> <s_epik_cmdline>
J2VwaWtfcHl0aG9uJywgJy1waCcsICc3LjAnLCAnLXRuJywgJzgnLCAnLW1hJywgJzIwMCcsICctbWV0YWxfYmluZGluZycsICctaW1hZScsICc8aW5maWxlLm1hZT4nLCAnLW9tYWUnLCAnPG91dGZpbGUubWFlPic=

> <r_lp_tautomer_probability>
1

> <r_epik_Ionization_Penalty>
0.46798

> <r_epik_Ionization_Penalty_Charging>
0.467902

> <r_epik_Ionization_Penalty_Neutral>
7.78263e-05

> <r_epik_State_Penalty>
0.47192

> <r_epik_Charging_Adjusted_Penalty>
0.939822

> <i_epik_Tot_Q>
0

> <i_epik_Tot_abs_Q>
0

> <r_epik_Metal_State_Penalty>
0.280825

> <b_epik_Metal_Only>
0

> <s_epik_Chemistry_Notes>
This compound has an imine and may undergo hydrolysis.

> <s_lp_Force_Field>
OPLS_2005

> <r_lp_Energy>
18.1828

> <b_lp_Chiralities_Consistent>
1

> <s_lp_Variant>
AV-unprocessed.smi:561-3

> <Gold.Version>
5.8.1

> <Gold.Id.Protein>
6NUR|6NUR_protein|mol2

> <Gold.PLP.Fitness>
41.4110

> <Gold.PLP.PLP>
-28.7996

> <Gold.PLP.part.hbond>
-1.8158

> <Gold.PLP.part.metal>
0.0000

> <Gold.PLP.part.buried>
-4.5807

> <Gold.PLP.part.nonpolar>
-24.6963

> <Gold.PLP.part.repulsive>
1.6920

> <Gold.PLP.ligand.clash>
0.0000

> <Gold.PLP.ligand.torsion>
0.8046

> <Gold.PLP.Chemscore.Hbond>
1.7440

> <Gold.PLP.Chemscore.CHOScore>
2.9923

> <Gold.PLP.Chemscore.Metal>
0.0000

> <Gold.Chemscore.Hbonds>
donor molecule, donor type, donor heavy atom, donor atom, acceptor molecule, acceptor atom, score
      L1  H     9    29       P1  7948  0.91
      P1  H  7989  7998       L1    17  0.85
      L1  C     5    26       P1 10186  0.98
      L1  C     6    27       P1 10952  1.00
      L1  C     8    28       P1 10747  0.93

> <Gold.PLP.Chemscore.Internal.Correction>
0.0117

> <Gold.Rescore>
     Score         DG    S(hbond)    S(metal)    S(lipo)     H(rot)  DE(clash)    DE(int)     intcor
     11.61     -12.87       1.74        0.00      51.04       1.71       0.55       0.72       ----

> <Gold.Chemscore.Fitness>
11.6078

> <Gold.Chemscore.DG>
-12.8749

> <Gold.Chemscore.ZeroCoef>
-5.4800

> <Gold.Chemscore.Hbond>
1.7358

> <Gold.Chemscore.Metal>
0.0000

> <Gold.Chemscore.Lipo>
51.0368

> <Gold.Chemscore.Internal_Hbond>
0.0000

> <Gold.Chemscore.DEClash>
0.5480

> <Gold.Chemscore.DEInternal>
0.7191

> <Gold.Chemscore.Rot>
1.7086

> <Gold.Chemscore.Internal.Correction>
   9.000000E+99

> <Gold.Chemscore.Hbonds>
donor molecule, donor type, donor heavy atom, donor atom, acceptor molecule, acceptor atom, score
      L1  H     9    29       P1  7948  0.90
      P1  H  7989  7998       L1    17  0.69

> <Gold.Chemscore.Hbond.Weighted>
-5.7975

> <Gold.Chemscore.Metal.Weighted>
-0.0000

> <Gold.Chemscore.Lipo.Weighted>
-5.9713

> <Gold.Chemscore.Internal_Hbond.Weighted>
0.0000

> <Gold.Chemscore.DEClash.Weighted>
0.5480

> <Gold.Chemscore.DEInternal.Weighted>
0.7191

> <Gold.Chemscore.Rot.Weighted>
4.3739

> <Gold.Chemscore.Internal.Correction.Weighted>
   9.000000E+99

> <Gold.Protein.RotatedTorsions>
[ 6907 6896 6895 6894 ] final  -89.81 input  -60.11 | X-H torsion
[ 7974 7965 7964 7962 ] final -163.96 input  175.53 | X-H torsion
[ 8008 7997 7996 7995 ] final  -34.40 input   59.86 | X-H torsion
[ 10167 10162 10161 10158 ] final  -85.44 input  -65.29 | X-H torsion
[ 10718 10713 10712 10709 ] final -171.39 input   66.30 | X-H torsion
[ 10763 10752 10751 10750 ] final  149.42 input  -60.55 | X-H torsion
[ 11005 11000 10999 10996 ] final  168.50 input  -57.11 | X-H torsion

> <Gold.Protein.ActiveResidues>
 VAL166  LYS551  ARG553  GLY616  TRP617  ASP618  TYR619  PRO620  LYS621  CYS622 
 ASP623  PHE694  ASN695  SER759  ASP760  ASP761  ALA762  ILE779  LEU786  VAL792 
 PHE793  MET794  SER795  GLU796  ALA797  LYS798  CYS799  TRP800  GLU811  SER814 

> <Gold.Protein.RotatedAtoms>
  150.6876  134.2529  159.4517 H   0  0  0  0  0  0  0  0  0  0  0  0  # atno 6907 bound_to 6896
  152.0465  134.9677  160.0583 H   0  0  0  0  0  0  0  0  0  0  0  0  # atno 6908 bound_to 6896
  152.1158  133.4291  159.4689 H   0  0  0  0  0  0  0  0  0  0  0  0  # atno 6909 bound_to 6896
  144.7310  140.3031  143.6201 H   0  0  0  0  0  0  0  0  0  0  0  0  # atno 7974 bound_to 7965
  154.4122  140.1685  156.2043 H   0  0  0  0  0  0  0  0  0  0  0  0  # atno 8008 bound_to 7997
  155.9497  140.3402  155.6374 H   0  0  0  0  0  0  0  0  0  0  0  0  # atno 8009 bound_to 7997
  155.6885  140.0731  157.2448 H   0  0  0  0  0  0  0  0  0  0  0  0  # atno 8010 bound_to 7997
  140.4037  143.2651  151.9109 H   0  0  0  0  0  0  0  0  0  0  0  0  # atno 10167 bound_to 10162
  156.7402  130.9339  151.3109 H   0  0  0  0  0  0  0  0  0  0  0  0  # atno 10718 bound_to 10713
  154.0708  135.2867  155.3308 H   0  0  0  0  0  0  0  0  0  0  0  0  # atno 10763 bound_to 10752
  154.6748  135.5286  153.8188 H   0  0  0  0  0  0  0  0  0  0  0  0  # atno 10764 bound_to 10752
  153.0486  135.6566  154.0890 H   0  0  0  0  0  0  0  0  0  0  0  0  # atno 10765 bound_to 10752
  140.2879  134.7697  157.3813 H   0  0  0  0  0  0  0  0  0  0  0  0  # atno 11005 bound_to 11000
  145.7741  139.1867  143.2196 LP  0  0  0  0  0  0  0  0  0  0  0  0  # atno 17320 bound_to 7965
  146.0887  140.7680  142.9606 LP  0  0  0  0  0  0  0  0  0  0  0  0  # atno 17321 bound_to 7965
  139.4784  144.5607  151.8243 LP  0  0  0  0  0  0  0  0  0  0  0  0  # atno 17342 bound_to 10162
  140.4712  144.1584  150.5918 LP  0  0  0  0  0  0  0  0  0  0  0  0  # atno 17343 bound_to 10162
  157.6822  130.9150  150.0295 LP  0  0  0  0  0  0  0  0  0  0  0  0  # atno 17370 bound_to 10713
  156.1470  130.3642  149.9496 LP  0  0  0  0  0  0  0  0  0  0  0  0  # atno 17371 bound_to 10713
  140.1223  134.5204  155.8173 LP  0  0  0  0  0  0  0  0  0  0  0  0  # atno 17394 bound_to 11000
  141.2151  133.6760  156.6888 LP  0  0  0  0  0  0  0  0  0  0  0  0  # atno 17395 bound_to 11000

$$$$
