AV-unprocessed.smi:1413|AV-procd|sdf|5750|dock3
  -GOLD-   22720 5383D 1   1.00000     0.00000
 Structure written by MMmdl.
 53 55  0  0  0  0  0  0  0  0  1 V2000
  154.0211  141.3372  159.5698 C   0  0  0  0  0  0  0  0  0  0  0  0
  152.5221  141.5742  159.8256 C   0  0  2  0  0  0  0  0  0  0  0  0
  151.6023  140.7150  158.9347 C   0  0  0  0  0  0  0  0  0  0  0  0
  151.5807  141.2269  157.5712 N   0  0  0  0  0  0  0  0  0  0  0  0
  150.8629  140.4130  156.6851 C   0  0  0  0  0  0  0  0  0  0  0  0
  151.4961  139.7483  155.6104 C   0  0  0  0  0  0  0  0  0  0  0  0
  150.7134  138.9491  154.7561 C   0  0  0  0  0  0  0  0  0  0  0  0
  149.3277  138.8441  154.9897 C   0  0  0  0  0  0  0  0  0  0  0  0
  148.5649  138.0186  154.1201 N   0  0  0  0  0  0  0  0  0  0  0  0
  147.2841  137.6306  154.2451 C   0  0  0  0  0  0  0  0  0  0  0  0
  146.5313  137.9519  155.1640 O   0  0  0  0  0  0  0  0  0  0  0  0
  146.9152  136.8533  153.2168 N   0  0  0  0  0  0  0  0  0  0  0  0
  145.5964  136.2532  153.0254 C   0  0  1  0  0  0  0  0  0  0  0  0
  144.5366  137.3654  153.0676 C   0  0  0  0  0  0  0  0  0  0  0  0
  145.5797  135.4693  151.6983 C   0  0  2  0  0  0  0  0  0  0  0  0
  144.2267  134.8504  151.3422 C   0  0  0  0  0  0  0  0  0  0  0  0
  144.6368  133.7071  150.4435 C   0  0  0  0  0  0  0  0  0  0  0  0
  145.9084  133.2176  151.1280 C   0  0  0  0  0  0  0  0  0  0  0  0
  146.4759  134.3603  151.7630 O   0  0  0  0  0  0  0  0  0  0  0  0
  148.7928  139.5401  156.1012 C   0  0  0  0  0  0  0  0  0  0  0  0
  149.5383  140.3071  156.9252 N   0  0  0  0  0  0  0  0  0  0  0  0
  151.2099  142.6331  157.5097 C   0  0  0  0  0  0  0  0  0  0  0  0
  152.1692  143.4674  158.3772 C   0  0  1  0  0  0  0  0  0  0  0  0
  151.7540  144.9414  158.4322 C   0  0  0  0  0  0  0  0  0  0  0  0
  152.1686  142.9558  159.7108 O   0  0  0  0  0  0  0  0  0  0  0  0
  154.2905  140.3036  159.7881 H   0  0  0  0  0  0  0  0  0  0  0  0
  154.6301  141.9782  160.2075 H   0  0  0  0  0  0  0  0  0  0  0  0
  154.3007  141.5315  158.5346 H   0  0  0  0  0  0  0  0  0  0  0  0
  152.3323  141.2964  160.8626 H   0  0  0  0  0  0  0  0  0  0  0  0
  151.9306  139.6745  158.9398 H   0  0  0  0  0  0  0  0  0  0  0  0
  150.5889  140.7312  159.3385 H   0  0  0  0  0  0  0  0  0  0  0  0
  152.5579  139.8470  155.4388 H   0  0  0  0  0  0  0  0  0  0  0  0
  151.1743  138.4294  153.9289 H   0  0  0  0  0  0  0  0  0  0  0  0
  149.0317  137.7377  153.2703 H   0  0  0  0  0  0  0  0  0  0  0  0
  147.6070  136.6483  152.5111 H   0  0  0  0  0  0  0  0  0  0  0  0
  145.3783  135.5540  153.8346 H   0  0  0  0  0  0  0  0  0  0  0  0
  143.5288  136.9590  152.9813 H   0  0  0  0  0  0  0  0  0  0  0  0
  144.6776  138.0812  152.2570 H   0  0  0  0  0  0  0  0  0  0  0  0
  144.5841  137.9150  154.0084 H   0  0  0  0  0  0  0  0  0  0  0  0
  145.9065  136.1085  150.8761 H   0  0  0  0  0  0  0  0  0  0  0  0
  143.7326  134.4625  152.2344 H   0  0  0  0  0  0  0  0  0  0  0  0
  143.5512  135.5533  150.8539 H   0  0  0  0  0  0  0  0  0  0  0  0
  143.8739  132.9332  150.3555 H   0  0  0  0  0  0  0  0  0  0  0  0
  144.8658  134.0795  149.4442 H   0  0  0  0  0  0  0  0  0  0  0  0
  145.6687  132.4805  151.8953 H   0  0  0  0  0  0  0  0  0  0  0  0
  146.6085  132.7621  150.4273 H   0  0  0  0  0  0  0  0  0  0  0  0
  147.7493  139.4786  156.3673 H   0  0  0  0  0  0  0  0  0  0  0  0
  151.2424  142.9769  156.4750 H   0  0  0  0  0  0  0  0  0  0  0  0
  150.1851  142.7604  157.8613 H   0  0  0  0  0  0  0  0  0  0  0  0
  153.1768  143.4152  157.9640 H   0  0  0  0  0  0  0  0  0  0  0  0
  151.7450  145.3837  157.4356 H   0  0  0  0  0  0  0  0  0  0  0  0
  152.4464  145.5184  159.0457 H   0  0  0  0  0  0  0  0  0  0  0  0
  150.7566  145.0545  158.8582 H   0  0  0  0  0  0  0  0  0  0  0  0
  1  2  1  0  0  0  0
  1 26  1  0  0  0  0
  1 27  1  0  0  0  0
  1 28  1  0  0  0  0
  2 25  1  0  0  0  0
  2  3  1  0  0  0  0
  2 29  1  0  0  0  0
  3  4  1  0  0  0  0
  3 30  1  0  0  0  0
  3 31  1  0  0  0  0
  4  5  1  0  0  0  0
  4 22  1  0  0  0  0
  5 21  1  0  0  0  0
  5  6  2  0  0  0  0
  6  7  1  0  0  0  0
  6 32  1  0  0  0  0
  7  8  2  0  0  0  0
  7 33  1  0  0  0  0
  8  9  1  0  0  0  0
  8 20  1  0  0  0  0
  9 10  1  0  0  0  0
  9 34  1  0  0  0  0
 10 11  2  0  0  0  0
 10 12  1  0  0  0  0
 12 13  1  0  0  0  0
 12 35  1  0  0  0  0
 13 14  1  0  0  0  0
 13 15  1  0  0  0  0
 13 36  1  0  0  0  0
 14 37  1  0  0  0  0
 14 38  1  0  0  0  0
 14 39  1  0  0  0  0
 15 19  1  0  0  0  0
 15 16  1  0  0  0  0
 15 40  1  0  0  0  0
 16 17  1  0  0  0  0
 16 41  1  0  0  0  0
 16 42  1  0  0  0  0
 17 18  1  0  0  0  0
 17 43  1  0  0  0  0
 17 44  1  0  0  0  0
 18 19  1  0  0  0  0
 18 45  1  0  0  0  0
 18 46  1  0  0  0  0
 20 21  2  0  0  0  0
 20 47  1  0  0  0  0
 22 23  1  0  0  0  0
 22 48  1  0  0  0  0
 22 49  1  0  0  0  0
 23 24  1  0  0  0  0
 23 25  1  0  0  0  0
 23 50  1  0  0  0  0
 24 51  1  0  0  0  0
 24 52  1  0  0  0  0
 24 53  1  0  0  0  0
M  END
> <s_m_source_file>
AV-unprocessed.smi

> <i_m_source_file_index>
1413

> <i_lp_mmshare_version>
43012

> <i_f3d_flags>
0

> <s_epik_input>
W0NIM11bQ0BASF0xW0NIMl1OKFtDSDJdW0NASF0oTzEpW0NIM10pYzJbY0hdW2NIXWMoW2NIXW4yKVtOSF1DKD1PKVtOSF1bQ0BIXShbQ0gzXSlbQ0BASF0zW0NIMl1bQ0gyXVtDSDJdTzM=

> <s_epik_cmdline>
J2VwaWtfcHl0aG9uJywgJy1waCcsICc3LjAnLCAnLXRuJywgJzgnLCAnLW1hJywgJzIwMCcsICctbWV0YWxfYmluZGluZycsICctaW1hZScsICc8aW5maWxlLm1hZT4nLCAnLW9tYWUnLCAnPG91dGZpbGUubWFlPic=

> <r_lp_tautomer_probability>
1

> <r_epik_Ionization_Penalty>
0.00271172

> <r_epik_Ionization_Penalty_Charging>
0

> <r_epik_Ionization_Penalty_Neutral>
0.00271172

> <r_epik_State_Penalty>
0.00186503

> <r_epik_Charging_Adjusted_Penalty>
0.00186503

> <i_epik_Tot_Q>
0

> <i_epik_Tot_abs_Q>
0

> <r_epik_Metal_State_Penalty>
-0

> <b_epik_Metal_Only>
0

> <s_lp_Force_Field>
OPLS_2005

> <r_lp_Energy>
38.8285

> <b_lp_Chiralities_Consistent>
1

> <s_lp_Variant>
AV-unprocessed.smi:1413-3

> <Gold.Version>
5.8.1

> <Gold.Id.Protein>
6NUR|6NUR_protein|mol2

> <Gold.PLP.Fitness>
46.4974

> <Gold.PLP.PLP>
-41.1478

> <Gold.PLP.part.hbond>
-1.9223

> <Gold.PLP.part.metal>
0.0000

> <Gold.PLP.part.buried>
-6.1677

> <Gold.PLP.part.nonpolar>
-33.7677

> <Gold.PLP.part.repulsive>
0.7391

> <Gold.PLP.ligand.clash>
0.0000

> <Gold.PLP.ligand.torsion>
0.1071

> <Gold.PLP.Chemscore.Hbond>
1.8160

> <Gold.PLP.Chemscore.CHOScore>
0.0000

> <Gold.PLP.Chemscore.Metal>
0.0000

> <Gold.Chemscore.Hbonds>
donor molecule, donor type, donor heavy atom, donor atom, acceptor molecule, acceptor atom, score
      L1  H     9    34       P1  7948  0.80
      L1  H    12    35       P1  7948  1.00

> <Gold.PLP.Chemscore.Internal.Correction>
0.1158

> <Gold.Rescore>
     Score         DG    S(hbond)    S(metal)    S(lipo)     H(rot)  DE(clash)    DE(int)     intcor
     19.61     -21.17       1.88        0.00     109.92       1.35       0.16       1.40       ----

> <Gold.Chemscore.Fitness>
19.6111

> <Gold.Chemscore.DG>
-21.1724

> <Gold.Chemscore.ZeroCoef>
-5.4800

> <Gold.Chemscore.Hbond>
1.8804

> <Gold.Chemscore.Metal>
0.0000

> <Gold.Chemscore.Lipo>
109.9165

> <Gold.Chemscore.Internal_Hbond>
0.0000

> <Gold.Chemscore.DEClash>
0.1584

> <Gold.Chemscore.DEInternal>
1.4029

> <Gold.Chemscore.Rot>
1.3471

> <Gold.Chemscore.Internal.Correction>
   9.000000E+99

> <Gold.Chemscore.Hbonds>
donor molecule, donor type, donor heavy atom, donor atom, acceptor molecule, acceptor atom, score
      L1  H     9    34       P1  7948  0.74
      L1  H    12    35       P1  7948  0.94

> <Gold.Chemscore.Hbond.Weighted>
-6.2807

> <Gold.Chemscore.Metal.Weighted>
-0.0000

> <Gold.Chemscore.Lipo.Weighted>
-12.8602

> <Gold.Chemscore.Internal_Hbond.Weighted>
0.0000

> <Gold.Chemscore.DEClash.Weighted>
0.1584

> <Gold.Chemscore.DEInternal.Weighted>
1.4029

> <Gold.Chemscore.Rot.Weighted>
3.4485

> <Gold.Chemscore.Internal.Correction.Weighted>
   9.000000E+99

> <Gold.Protein.RotatedTorsions>
[ 6907 6896 6895 6894 ] final  -92.63 input  -60.11 | X-H torsion
[ 7974 7965 7964 7962 ] final  130.73 input  175.53 | X-H torsion
[ 8008 7997 7996 7995 ] final   77.34 input   59.86 | X-H torsion
[ 10167 10162 10161 10158 ] final  165.11 input  -65.29 | X-H torsion
[ 10718 10713 10712 10709 ] final  149.64 input   66.30 | X-H torsion
[ 10763 10752 10751 10750 ] final   88.61 input  -60.55 | X-H torsion
[ 11005 11000 10999 10996 ] final   84.70 input  -57.11 | X-H torsion

> <Gold.Protein.ActiveResidues>
 VAL166  LYS551  ARG553  GLY616  TRP617  ASP618  TYR619  PRO620  LYS621  CYS622 
 ASP623  PHE694  ASN695  SER759  ASP760  ASP761  ALA762  ILE779  LEU786  VAL792 
 PHE793  MET794  SER795  GLU796  ALA797  LYS798  CYS799  TRP800  GLU811  SER814 

> <Gold.Protein.RotatedAtoms>
  150.6909  134.2092  159.4352 H   0  0  0  0  0  0  0  0  0  0  0  0  # atno 6907 bound_to 6896
  152.0055  134.9903  160.0576 H   0  0  0  0  0  0  0  0  0  0  0  0  # atno 6908 bound_to 6896
  152.1538  133.4504  159.4864 H   0  0  0  0  0  0  0  0  0  0  0  0  # atno 6909 bound_to 6896
  145.0148  139.4186  143.5227 H   0  0  0  0  0  0  0  0  0  0  0  0  # atno 7974 bound_to 7965
  155.8401  140.3462  155.5627 H   0  0  0  0  0  0  0  0  0  0  0  0  # atno 8008 bound_to 7997
  155.8149  140.0904  157.1902 H   0  0  0  0  0  0  0  0  0  0  0  0  # atno 8009 bound_to 7997
  154.4005  140.1441  156.3418 H   0  0  0  0  0  0  0  0  0  0  0  0  # atno 8010 bound_to 7997
  139.4900  144.4166  151.9237 H   0  0  0  0  0  0  0  0  0  0  0  0  # atno 10167 bound_to 10162
  157.2936  131.0858  151.1443 H   0  0  0  0  0  0  0  0  0  0  0  0  # atno 10718 bound_to 10713
  153.1786  135.4500  154.9998 H   0  0  0  0  0  0  0  0  0  0  0  0  # atno 10763 bound_to 10752
  154.8015  135.3257  154.7541 H   0  0  0  0  0  0  0  0  0  0  0  0  # atno 10764 bound_to 10752
  153.8008  135.6962  153.4911 H   0  0  0  0  0  0  0  0  0  0  0  0  # atno 10765 bound_to 10752
  139.8992  134.8235  156.2481 H   0  0  0  0  0  0  0  0  0  0  0  0  # atno 11005 bound_to 11000
  146.3476  139.9613  142.8717 LP  0  0  0  0  0  0  0  0  0  0  0  0  # atno 17320 bound_to 7965
  145.1974  140.9839  143.4175 LP  0  0  0  0  0  0  0  0  0  0  0  0  # atno 17321 bound_to 7965
  140.3608  144.2975  150.5934 LP  0  0  0  0  0  0  0  0  0  0  0  0  # atno 17342 bound_to 10162
  140.5404  143.2224  151.8094 LP  0  0  0  0  0  0  0  0  0  0  0  0  # atno 17343 bound_to 10162
  157.2830  130.6759  149.6075 LP  0  0  0  0  0  0  0  0  0  0  0  0  # atno 17370 bound_to 10713
  155.9668  130.4444  150.5459 LP  0  0  0  0  0  0  0  0  0  0  0  0  # atno 17371 bound_to 10713
  141.0241  133.7024  156.1319 LP  0  0  0  0  0  0  0  0  0  0  0  0  # atno 17394 bound_to 11000
  140.7191  134.4378  157.5576 LP  0  0  0  0  0  0  0  0  0  0  0  0  # atno 17395 bound_to 11000

$$$$
