AV-unprocessed.smi:21|AV-procd|sdf|146|dock10
  -GOLD-   2262015363D 1   1.00000     0.00000
 Structure written by MMmdl.
 62 65  0  0  0  0  0  0  0  0  2 V2000
  144.9594  135.4847  150.8592 C   0  0  0  0  0  0  0  0  0  0  0  0
  145.2954  135.6102  152.2318 O   0  0  0  0  0  0  0  0  0  0  0  0
  145.3772  134.3672  152.9172 C   0  0  2  0  0  0  0  0  0  0  0  0
  145.8160  134.6256  154.3519 C   0  0  0  0  0  0  0  0  0  0  0  0
  147.3399  134.7832  154.2562 C   0  0  1  0  0  0  0  0  0  0  0  0
  148.0888  134.4958  155.5819 C   0  0  0  0  0  0  0  0  0  0  0  0
  149.3525  135.2291  155.6852 N   0  0  0  0  0  0  0  0  0  0  0  0
  150.3881  134.9598  154.6955 C   0  0  0  0  0  0  0  0  0  0  0  0
  149.4082  136.3696  156.4280 C   0  0  0  0  0  0  0  0  0  0  0  0
  149.1588  136.2757  157.7613 N   0  0  0  0  0  0  0  0  0  0  0  0
  149.1862  137.3594  158.5407 C   0  0  0  0  0  0  0  0  0  0  0  0
  149.4350  138.6233  158.1998 N   0  0  0  0  0  0  0  0  0  0  0  0
  149.6883  138.7334  156.8653 C   0  0  0  0  0  0  0  0  0  0  0  0
  149.6945  137.6716  155.9139 C   0  0  0  0  0  0  0  0  0  0  0  0
  149.9693  138.1869  154.6509 N   0  0  0  0  0  0  0  0  0  0  0  0
  150.1265  139.4669  154.8454 C   0  0  0  0  0  0  0  0  0  0  0  0
  149.9920  139.8790  156.1506 N   0  0  0  0  0  0  0  0  0  0  0  0
  150.1026  141.2400  156.6454 C   0  0  0  0  0  0  0  0  0  0  0  0
  151.4356  141.5617  157.3712 C   0  0  2  0  0  0  0  0  0  0  0  0
  151.9457  140.2892  158.0868 C   0  0  0  0  0  0  0  0  0  0  0  0
  152.7799  139.5165  157.2477 O   0  0  0  0  0  0  0  0  0  0  0  0
  151.3712  142.7953  158.3192 C   0  0  1  0  0  0  0  0  0  0  0  0
  152.4904  142.8653  159.3465 C   0  0  0  0  0  0  0  0  0  0  0  0
  152.4356  144.3215  159.7836 C   0  0  0  0  0  0  0  0  0  0  0  0
  152.1415  145.0382  158.5942 O   0  0  0  0  0  0  0  0  0  0  0  0
  151.5307  144.1683  157.6456 C   0  0  0  0  0  0  0  0  0  0  0  0
  147.7535  133.9603  153.0817 N   0  3  1  0  0  0  0  0  0  0  0  0
  148.7220  132.8629  153.3150 C   0  0  0  0  0  0  0  0  0  0  0  0
  146.5287  133.5139  152.3765 C   0  0  0  0  0  0  0  0  0  0  0  0
  144.4190  133.8452  152.8900 H   0  0  0  0  0  0  0  0  0  0  0  0
  147.5477  135.8133  153.9634 H   0  0  0  0  0  0  0  0  0  0  0  0
  144.9205  136.4737  150.4029 H   0  0  0  0  0  0  0  0  0  0  0  0
  143.9796  135.0217  150.7360 H   0  0  0  0  0  0  0  0  0  0  0  0
  145.6950  134.8943  150.3130 H   0  0  0  0  0  0  0  0  0  0  0  0
  145.3247  135.4930  154.7947 H   0  0  0  0  0  0  0  0  0  0  0  0
  145.5692  133.7567  154.9635 H   0  0  0  0  0  0  0  0  0  0  0  0
  147.4447  134.6920  156.4387 H   0  0  0  0  0  0  0  0  0  0  0  0
  148.3354  133.4355  155.6383 H   0  0  0  0  0  0  0  0  0  0  0  0
  151.3799  135.1552  155.1048 H   0  0  0  0  0  0  0  0  0  0  0  0
  150.2445  135.5763  153.8079 H   0  0  0  0  0  0  0  0  0  0  0  0
  150.3617  133.9146  154.3857 H   0  0  0  0  0  0  0  0  0  0  0  0
  148.9788  137.1890  159.5869 H   0  0  0  0  0  0  0  0  0  0  0  0
  150.3545  140.1472  154.0375 H   0  0  0  0  0  0  0  0  0  0  0  0
  149.9584  141.9227  155.8071 H   0  0  0  0  0  0  0  0  0  0  0  0
  149.2625  141.4047  157.3211 H   0  0  0  0  0  0  0  0  0  0  0  0
  152.1798  141.7841  156.6060 H   0  0  0  0  0  0  0  0  0  0  0  0
  152.5066  140.5562  158.9828 H   0  0  0  0  0  0  0  0  0  0  0  0
  151.1165  139.6686  158.4258 H   0  0  0  0  0  0  0  0  0  0  0  0
  152.5500  138.6059  157.3507 H   0  0  0  0  0  0  0  0  0  0  0  0
  150.4225  142.7844  158.8585 H   0  0  0  0  0  0  0  0  0  0  0  0
  152.3527  142.1777  160.1814 H   0  0  0  0  0  0  0  0  0  0  0  0
  153.4535  142.6523  158.8801 H   0  0  0  0  0  0  0  0  0  0  0  0
  151.6267  144.4758  160.4990 H   0  0  0  0  0  0  0  0  0  0  0  0
  153.3657  144.6620  160.2391 H   0  0  0  0  0  0  0  0  0  0  0  0
  152.1853  144.1084  156.7754 H   0  0  0  0  0  0  0  0  0  0  0  0
  150.5765  144.5827  157.3229 H   0  0  0  0  0  0  0  0  0  0  0  0
  148.3294  132.1270  154.0179 H   0  0  0  0  0  0  0  0  0  0  0  0
  149.6691  133.2449  153.6958 H   0  0  0  0  0  0  0  0  0  0  0  0
  148.9365  132.3491  152.3772 H   0  0  0  0  0  0  0  0  0  0  0  0
  146.3302  132.4691  152.6217 H   0  0  0  0  0  0  0  0  0  0  0  0
  146.6484  133.5752  151.2951 H   0  0  0  0  0  0  0  0  0  0  0  0
  148.2136  134.6077  152.4574 H   0  0  0  0  0  0  0  0  0  0  0  0
  1  2  1  0  0  0  0
  1 32  1  0  0  0  0
  1 33  1  0  0  0  0
  1 34  1  0  0  0  0
  2  3  1  0  0  0  0
  3 30  1  0  0  0  0
  3 29  1  0  0  0  0
  3  4  1  0  0  0  0
  4  5  1  0  0  0  0
  4 35  1  0  0  0  0
  4 36  1  0  0  0  0
  5 31  1  0  0  0  0
  5  6  1  0  0  0  0
  5 27  1  0  0  0  0
  6  7  1  0  0  0  0
  6 37  1  0  0  0  0
  6 38  1  0  0  0  0
  7  8  1  0  0  0  0
  7  9  1  0  0  0  0
  8 39  1  0  0  0  0
  8 40  1  0  0  0  0
  8 41  1  0  0  0  0
  9 14  1  0  0  0  0
  9 10  2  0  0  0  0
 10 11  1  0  0  0  0
 11 12  2  0  0  0  0
 11 42  1  0  0  0  0
 12 13  1  0  0  0  0
 13 17  1  0  0  0  0
 13 14  2  0  0  0  0
 14 15  1  0  0  0  0
 15 16  2  0  0  0  0
 16 17  1  0  0  0  0
 16 43  1  0  0  0  0
 17 18  1  0  0  0  0
 18 19  1  0  0  0  0
 18 44  1  0  0  0  0
 18 45  1  0  0  0  0
 19 20  1  0  0  0  0
 19 22  1  0  0  0  0
 19 46  1  0  0  0  0
 20 21  1  0  0  0  0
 20 47  1  0  0  0  0
 20 48  1  0  0  0  0
 21 49  1  0  0  0  0
 22 26  1  0  0  0  0
 22 23  1  0  0  0  0
 22 50  1  0  0  0  0
 23 24  1  0  0  0  0
 23 51  1  0  0  0  0
 23 52  1  0  0  0  0
 24 25  1  0  0  0  0
 24 53  1  0  0  0  0
 24 54  1  0  0  0  0
 25 26  1  0  0  0  0
 26 55  1  0  0  0  0
 26 56  1  0  0  0  0
 27 28  1  0  0  0  0
 27 29  1  0  0  0  0
 27 62  1  0  0  0  0
 28 57  1  0  0  0  0
 28 58  1  0  0  0  0
 28 59  1  0  0  0  0
 29 60  1  0  0  0  0
 29 61  1  0  0  0  0
M  CHG  1  27   1
M  END
> <s_m_source_file>
AV-unprocessed.smi

> <i_m_source_file_index>
21

> <i_lp_mmshare_version>
43012

> <i_f3d_flags>
0

> <s_epik_input>
W0NIM11PW0NASF0xW0NIMl1bQ0BIXShOKFtDSDNdKVtDSDJdMSlbQ0gyXU4oW0NIM10pYyhuW2NIXW4yKWMoYzIzKW5bY0hdbjNbQ0gyXVtDQEhdKFtDSDJdW09IXSlbQ0BASF00W0NIMl1bQ0gyXU9bQ0gyXTQ=

> <s_epik_cmdline>
J2VwaWtfcHl0aG9uJywgJy1waCcsICc3LjAnLCAnLXRuJywgJzgnLCAnLW1hJywgJzIwMCcsICctbWV0YWxfYmluZGluZycsICctaW1hZScsICc8aW5maWxlLm1hZT4nLCAnLW9tYWUnLCAnPG91dGZpbGUubWFlPic=

> <r_lp_tautomer_probability>
1

> <r_epik_Ionization_Penalty>
0.0157465

> <r_epik_Ionization_Penalty_Charging>
0.015354

> <r_epik_Ionization_Penalty_Neutral>
0.000392529

> <r_epik_State_Penalty>
0.0120612

> <r_epik_Charging_Adjusted_Penalty>
0.0274152

> <i_epik_Tot_Q>
1

> <i_epik_Tot_abs_Q>
1

> <r_epik_Metal_State_Penalty>
0.0121253

> <b_epik_Metal_Only>
0

> <s_lp_Force_Field>
OPLS_2005

> <r_lp_Energy>
61.785

> <b_lp_Chiralities_Consistent>
1

> <s_lp_Variant>
AV-unprocessed.smi:21-26

> <Gold.Version>
5.8.1

> <Gold.Id.Protein>
6NUR|6NUR_protein|mol2

> <Gold.PLP.Fitness>
45.9892

> <Gold.PLP.PLP>
-41.9829

> <Gold.PLP.part.hbond>
-2.0000

> <Gold.PLP.part.metal>
0.0000

> <Gold.PLP.part.buried>
-7.6853

> <Gold.PLP.part.nonpolar>
-33.2211

> <Gold.PLP.part.repulsive>
0.3641

> <Gold.PLP.ligand.clash>
0.0000

> <Gold.PLP.ligand.torsion>
2.8498

> <Gold.PLP.Chemscore.Hbond>
3.0000

> <Gold.PLP.Chemscore.CHOScore>
0.0000

> <Gold.PLP.Chemscore.Metal>
0.0000

> <Gold.Chemscore.Hbonds>
donor molecule, donor type, donor heavy atom, donor atom, acceptor molecule, acceptor atom, score
      L1  H    27    62       P1  7948  2.00
      P1  H  7997  8008       L1    21  1.00

> <Gold.PLP.Chemscore.Internal.Correction>
0.7058

> <Gold.Rescore>
     Score         DG    S(hbond)    S(metal)    S(lipo)     H(rot)  DE(clash)    DE(int)     intcor
     12.19     -15.41       1.93        0.00      97.13       3.08       0.05       3.17       ----

> <Gold.Chemscore.Fitness>
12.1876

> <Gold.Chemscore.DG>
-15.4081

> <Gold.Chemscore.ZeroCoef>
-5.4800

> <Gold.Chemscore.Hbond>
1.9277

> <Gold.Chemscore.Metal>
0.0000

> <Gold.Chemscore.Lipo>
97.1266

> <Gold.Chemscore.Internal_Hbond>
0.0000

> <Gold.Chemscore.DEClash>
0.0459

> <Gold.Chemscore.DEInternal>
3.1747

> <Gold.Chemscore.Rot>
3.0758

> <Gold.Chemscore.Internal.Correction>
   9.000000E+99

> <Gold.Chemscore.Hbonds>
donor molecule, donor type, donor heavy atom, donor atom, acceptor molecule, acceptor atom, score
      L1  H    27    62       P1  7948  0.30
      P1  H  7997  8008       L1    21  0.99

> <Gold.Chemscore.Hbond.Weighted>
-6.4385

> <Gold.Chemscore.Metal.Weighted>
-0.0000

> <Gold.Chemscore.Lipo.Weighted>
-11.3638

> <Gold.Chemscore.Internal_Hbond.Weighted>
0.0000

> <Gold.Chemscore.DEClash.Weighted>
0.0459

> <Gold.Chemscore.DEInternal.Weighted>
3.1747

> <Gold.Chemscore.Rot.Weighted>
7.8741

> <Gold.Chemscore.Internal.Correction.Weighted>
   9.000000E+99

> <Gold.Protein.RotatedTorsions>
[ 6907 6896 6895 6894 ] final   13.37 input  -60.11 | X-H torsion
[ 7974 7965 7964 7962 ] final  -18.20 input  175.53 | X-H torsion
[ 8008 7997 7996 7995 ] final  -64.75 input   59.86 | X-H torsion
[ 10167 10162 10161 10158 ] final  -34.31 input  -65.29 | X-H torsion
[ 10718 10713 10712 10709 ] final -132.25 input   66.30 | X-H torsion
[ 10763 10752 10751 10750 ] final  157.77 input  -60.55 | X-H torsion
[ 11005 11000 10999 10996 ] final  -47.03 input  -57.11 | X-H torsion

> <Gold.Protein.ActiveResidues>
 VAL166  LYS551  ARG553  GLY616  TRP617  ASP618  TYR619  PRO620  LYS621  CYS622 
 ASP623  PHE694  ASN695  SER759  ASP760  ASP761  ALA762  ILE779  LEU786  VAL792 
 PHE793  MET794  SER795  GLU796  ALA797  LYS798  CYS799  TRP800  GLU811  SER814 

> <Gold.Protein.RotatedAtoms>
  151.7853  135.0750  160.0379 H   0  0  0  0  0  0  0  0  0  0  0  0  # atno 6907 bound_to 6896
  152.3195  133.5833  159.5743 H   0  0  0  0  0  0  0  0  0  0  0  0  # atno 6908 bound_to 6896
  150.7362  133.9949  159.3661 H   0  0  0  0  0  0  0  0  0  0  0  0  # atno 6909 bound_to 6896
  146.1904  140.3887  142.8460 H   0  0  0  0  0  0  0  0  0  0  0  0  # atno 7974 bound_to 7965
  154.4630  140.0947  156.6944 H   0  0  0  0  0  0  0  0  0  0  0  0  # atno 8008 bound_to 7997
  155.4939  140.3471  155.4341 H   0  0  0  0  0  0  0  0  0  0  0  0  # atno 8009 bound_to 7997
  156.0905  140.1396  156.9586 H   0  0  0  0  0  0  0  0  0  0  0  0  # atno 8010 bound_to 7997
  140.7188  143.3557  151.2064 H   0  0  0  0  0  0  0  0  0  0  0  0  # atno 10167 bound_to 10162
  156.2326  130.7047  151.0874 H   0  0  0  0  0  0  0  0  0  0  0  0  # atno 10718 bound_to 10713
  154.2055  135.2788  155.2976 H   0  0  0  0  0  0  0  0  0  0  0  0  # atno 10763 bound_to 10752
  154.5820  135.5586  153.7198 H   0  0  0  0  0  0  0  0  0  0  0  0  # atno 10764 bound_to 10752
  153.0077  135.6347  154.2193 H   0  0  0  0  0  0  0  0  0  0  0  0  # atno 10765 bound_to 10752
  141.0616  133.6707  156.3240 H   0  0  0  0  0  0  0  0  0  0  0  0  # atno 11005 bound_to 11000
  144.8475  140.6952  143.6189 LP  0  0  0  0  0  0  0  0  0  0  0  0  # atno 17320 bound_to 7965
  145.3811  139.1637  143.4280 LP  0  0  0  0  0  0  0  0  0  0  0  0  # atno 17321 bound_to 7965
  139.7098  143.9396  152.2942 LP  0  0  0  0  0  0  0  0  0  0  0  0  # atno 17342 bound_to 10162
  139.9117  144.6853  150.8555 LP  0  0  0  0  0  0  0  0  0  0  0  0  # atno 17343 bound_to 10162
  157.7140  131.0719  150.6396 LP  0  0  0  0  0  0  0  0  0  0  0  0  # atno 17370 bound_to 10713
  156.6465  130.4473  149.5734 LP  0  0  0  0  0  0  0  0  0  0  0  0  # atno 17371 bound_to 10713
  140.5858  134.5700  157.5489 LP  0  0  0  0  0  0  0  0  0  0  0  0  # atno 17394 bound_to 11000
  139.9437  134.7740  156.0613 LP  0  0  0  0  0  0  0  0  0  0  0  0  # atno 17395 bound_to 11000

$$$$
