AV-unprocessed.smi:759|AV-procd|sdf|3626|dock3
  -GOLD-   22720 1 23D 1   1.00000     0.00000
 Structure written by MMmdl.
 23 24  0  0  0  0  0  0  0  0  3 V2000
  153.2531  138.9996  158.6986 C   0  0  0  0  0  0  0  0  0  0  0  0
  153.0779  139.2546  157.3951 N   0  5  0  0  0  0  0  0  0  0  0  0
  152.4486  140.4092  157.2887 N   0  0  0  0  0  0  0  0  0  0  0  0
  152.2517  140.8423  158.5483 C   0  0  0  0  0  0  0  0  0  0  0  0
  151.5681  142.1462  158.9093 C   0  0  1  0  0  0  0  0  0  0  0  0
  152.5317  143.1411  159.5818 C   0  0  0  0  0  0  0  0  0  0  0  0
  151.8043  144.4547  159.9073 C   0  0  0  0  0  0  0  0  0  0  0  0
  151.1185  145.0283  158.6556 C   0  0  0  0  0  0  0  0  0  0  0  0
  150.1909  144.0380  158.0661 N   0  3  0  0  0  0  0  0  0  0  0  0
  150.8582  142.7717  157.6935 C   0  0  0  0  0  0  0  0  0  0  0  0
  152.7490  139.9728  159.4422 N   0  0  0  0  0  0  0  0  0  0  0  0
  153.7533  138.0981  159.0311 H   0  0  0  0  0  0  0  0  0  0  0  0
  150.7986  141.8960  159.6418 H   0  0  0  0  0  0  0  0  0  0  0  0
  152.9498  142.7078  160.4911 H   0  0  0  0  0  0  0  0  0  0  0  0
  153.3733  143.3472  158.9187 H   0  0  0  0  0  0  0  0  0  0  0  0
  151.0603  144.2782  160.6853 H   0  0  0  0  0  0  0  0  0  0  0  0
  152.5099  145.1806  160.3127 H   0  0  0  0  0  0  0  0  0  0  0  0
  150.5616  145.9305  158.9090 H   0  0  0  0  0  0  0  0  0  0  0  0
  151.8632  145.3115  157.9103 H   0  0  0  0  0  0  0  0  0  0  0  0
  149.4684  143.8319  158.7412 H   0  0  0  0  0  0  0  0  0  0  0  0
  151.5731  142.9699  156.8934 H   0  0  0  0  0  0  0  0  0  0  0  0
  150.1134  142.0837  157.2924 H   0  0  0  0  0  0  0  0  0  0  0  0
  149.7642  144.4363  157.2420 H   0  0  0  0  0  0  0  0  0  0  0  0
  1 11  2  0  0  0  0
  1 12  1  0  0  0  0
  1  2  1  0  0  0  0
  2  3  1  0  0  0  0
  3  4  2  0  0  0  0
  4 11  1  0  0  0  0
  4  5  1  0  0  0  0
  5 10  1  0  0  0  0
  5  6  1  0  0  0  0
  5 13  1  0  0  0  0
  6  7  1  0  0  0  0
  6 14  1  0  0  0  0
  6 15  1  0  0  0  0
  7  8  1  0  0  0  0
  7 16  1  0  0  0  0
  7 17  1  0  0  0  0
  8  9  1  0  0  0  0
  8 18  1  0  0  0  0
  8 19  1  0  0  0  0
  9 10  1  0  0  0  0
  9 20  1  0  0  0  0
  9 23  1  0  0  0  0
 10 21  1  0  0  0  0
 10 22  1  0  0  0  0
M  CHG  1   2  -1
M  CHG  1   9   1
M  END
> <s_m_source_file>
AV-unprocessed.smi

> <i_m_source_file_index>
759

> <i_lp_mmshare_version>
43012

> <i_f3d_flags>
0

> <s_epik_input>
W25IXTFbY0hdbm5jMVtDQEBIXTJbQ0gyXVtDSDJdW0NIMl1bTkhdW0NIMl0y

> <s_epik_cmdline>
J2VwaWtfcHl0aG9uJywgJy1waCcsICc3LjAnLCAnLXRuJywgJzgnLCAnLW1hJywgJzIwMCcsICctbWV0YWxfYmluZGluZycsICctaW1hZScsICc8aW5maWxlLm1hZT4nLCAnLW9tYWUnLCAnPG91dGZpbGUubWFlPic=

> <r_lp_tautomer_probability>
0.948284

> <r_epik_Ionization_Penalty>
7.12535

> <r_epik_Ionization_Penalty_Charging>
7.12535

> <r_epik_Ionization_Penalty_Neutral>
7.15677e-14

> <r_epik_State_Penalty>
3.13859

> <r_epik_Charging_Adjusted_Penalty>
10.2639

> <i_epik_Tot_Q>
0

> <i_epik_Tot_abs_Q>
2

> <r_epik_Metal_State_Penalty>
0.603007

> <b_epik_Metal_Only>
1

> <s_lp_Force_Field>
OPLS_2005

> <r_lp_Energy>
6.41651

> <b_lp_Chiralities_Consistent>
1

> <s_lp_Variant>
AV-unprocessed.smi:759-8

> <Gold.Version>
5.8.1

> <Gold.Id.Protein>
6NUR|6NUR_protein|mol2

> <Gold.PLP.Fitness>
31.9208

> <Gold.PLP.PLP>
-22.7868

> <Gold.PLP.part.hbond>
-3.8572

> <Gold.PLP.part.metal>
0.0000

> <Gold.PLP.part.buried>
-1.7162

> <Gold.PLP.part.nonpolar>
-16.8420

> <Gold.PLP.part.repulsive>
0.0514

> <Gold.PLP.ligand.clash>
0.0000

> <Gold.PLP.ligand.torsion>
0.1637

> <Gold.PLP.Chemscore.Hbond>
3.1400

> <Gold.PLP.Chemscore.CHOScore>
0.0000

> <Gold.PLP.Chemscore.Metal>
0.0000

> <Gold.Chemscore.Hbonds>
donor molecule, donor type, donor heavy atom, donor atom, acceptor molecule, acceptor atom, score
      L1  H     9    23       P1  8028  2.00
      P1  H  7997  8008       L1     2  1.14

> <Gold.PLP.Chemscore.Internal.Correction>
0.0414

> <Gold.Rescore>
     Score         DG    S(hbond)    S(metal)    S(lipo)     H(rot)  DE(clash)    DE(int)     intcor
     12.74     -12.77       0.93        0.00      57.62       1.00       0.00       0.03       ----

> <Gold.Chemscore.Fitness>
12.7364

> <Gold.Chemscore.DG>
-12.7713

> <Gold.Chemscore.ZeroCoef>
-5.4800

> <Gold.Chemscore.Hbond>
0.9312

> <Gold.Chemscore.Metal>
0.0000

> <Gold.Chemscore.Lipo>
57.6173

> <Gold.Chemscore.Internal_Hbond>
0.0000

> <Gold.Chemscore.DEClash>
0.0048

> <Gold.Chemscore.DEInternal>
0.0301

> <Gold.Chemscore.Rot>
1.0000

> <Gold.Chemscore.Internal.Correction>
   9.000000E+99

> <Gold.Chemscore.Hbonds>
donor molecule, donor type, donor heavy atom, donor atom, acceptor molecule, acceptor atom, score
      L1  H     9    23       P1  8028  0.26
      P1  H  7997  8008       L1     2  0.01

> <Gold.Chemscore.Hbond.Weighted>
-3.1101

> <Gold.Chemscore.Metal.Weighted>
-0.0000

> <Gold.Chemscore.Lipo.Weighted>
-6.7412

> <Gold.Chemscore.Internal_Hbond.Weighted>
0.0000

> <Gold.Chemscore.DEClash.Weighted>
0.0048

> <Gold.Chemscore.DEInternal.Weighted>
0.0301

> <Gold.Chemscore.Rot.Weighted>
2.5600

> <Gold.Chemscore.Internal.Correction.Weighted>
   9.000000E+99

> <Gold.Protein.RotatedTorsions>
[ 6907 6896 6895 6894 ] final  112.17 input  -60.11 | X-H torsion
[ 7974 7965 7964 7962 ] final   75.27 input  175.53 | X-H torsion
[ 8008 7997 7996 7995 ] final  -90.82 input   59.86 | X-H torsion
[ 10167 10162 10161 10158 ] final  131.21 input  -65.29 | X-H torsion
[ 10718 10713 10712 10709 ] final  -41.11 input   66.30 | X-H torsion
[ 10763 10752 10751 10750 ] final  -81.86 input  -60.55 | X-H torsion
[ 11005 11000 10999 10996 ] final   61.51 input  -57.11 | X-H torsion

> <Gold.Protein.ActiveResidues>
 VAL166  LYS551  ARG553  GLY616  TRP617  ASP618  TYR619  PRO620  LYS621  CYS622 
 ASP623  PHE694  ASN695  SER759  ASP760  ASP761  ALA762  ILE779  LEU786  VAL792 
 PHE793  MET794  SER795  GLU796  ALA797  LYS798  CYS799  TRP800  GLU811  SER814 

> <Gold.Protein.RotatedAtoms>
  152.4930  133.8553  159.7222 H   0  0  0  0  0  0  0  0  0  0  0  0  # atno 6907 bound_to 6896
  150.9079  133.7025  159.2869 H   0  0  0  0  0  0  0  0  0  0  0  0  # atno 6908 bound_to 6896
  151.4444  135.1028  159.9732 H   0  0  0  0  0  0  0  0  0  0  0  0  # atno 6909 bound_to 6896
  145.7178  139.2637  143.1614 H   0  0  0  0  0  0  0  0  0  0  0  0  # atno 7974 bound_to 7965
  154.7032  140.0526  157.0478 H   0  0  0  0  0  0  0  0  0  0  0  0  # atno 8008 bound_to 7997
  155.0656  140.3194  155.4628 H   0  0  0  0  0  0  0  0  0  0  0  0  # atno 8009 bound_to 7997
  156.2766  140.2091  156.5783 H   0  0  0  0  0  0  0  0  0  0  0  0  # atno 8010 bound_to 7997
  139.5394  144.6716  151.4674 H   0  0  0  0  0  0  0  0  0  0  0  0  # atno 10167 bound_to 10162
  156.2739  130.4209  149.8408 H   0  0  0  0  0  0  0  0  0  0  0  0  # atno 10718 bound_to 10713
  154.5687  135.5611  153.7075 H   0  0  0  0  0  0  0  0  0  0  0  0  # atno 10763 bound_to 10752
  153.0041  135.6292  154.2144 H   0  0  0  0  0  0  0  0  0  0  0  0  # atno 10764 bound_to 10752
  154.2083  135.2875  155.2947 H   0  0  0  0  0  0  0  0  0  0  0  0  # atno 10765 bound_to 10752
  140.0156  134.6229  155.9714 H   0  0  0  0  0  0  0  0  0  0  0  0  # atno 11005 bound_to 11000
  146.0654  140.7926  142.9714 LP  0  0  0  0  0  0  0  0  0  0  0  0  # atno 17320 bound_to 7965
  144.6925  140.3260  143.7224 LP  0  0  0  0  0  0  0  0  0  0  0  0  # atno 17321 bound_to 7965
  140.6617  143.8484  150.6895 LP  0  0  0  0  0  0  0  0  0  0  0  0  # atno 17342 bound_to 10162
  140.1880  143.4059  152.1884 LP  0  0  0  0  0  0  0  0  0  0  0  0  # atno 17343 bound_to 10162
  156.5880  130.8494  151.3400 LP  0  0  0  0  0  0  0  0  0  0  0  0  # atno 17370 bound_to 10713
  157.7293  130.9669  150.1780 LP  0  0  0  0  0  0  0  0  0  0  0  0  # atno 17371 bound_to 10713
  141.1741  133.6539  156.4760 LP  0  0  0  0  0  0  0  0  0  0  0  0  # atno 17394 bound_to 11000
  140.4476  134.6958  157.5023 LP  0  0  0  0  0  0  0  0  0  0  0  0  # atno 17395 bound_to 11000

$$$$
