AV-unprocessed.smi:2753|AV-procd|sdf|10610|dock8
  -GOLD-   2272015 63D 1   1.00000     0.00000
 Structure written by MMmdl.
 28 29  0  0  0  0  0  0  0  0  2 V2000
  145.6485  132.3762  156.4473 F   0  0  0  0  0  0  0  0  0  0  0  0
  145.6708  133.6884  156.2179 C   0  0  0  0  0  0  0  0  0  0  0  0
  144.4492  134.1618  156.4660 F   0  0  0  0  0  0  0  0  0  0  0  0
  146.5032  134.2394  157.1002 F   0  0  0  0  0  0  0  0  0  0  0  0
  146.1086  133.9805  154.8122 C   0  0  0  0  0  0  0  0  0  0  0  0
  147.2158  134.6824  154.3911 C   0  0  0  0  0  0  0  0  0  0  0  0
  147.1623  134.6663  153.0087 N   0  0  0  0  0  0  0  0  0  0  0  0
  146.0691  133.9833  152.6474 C   0  0  0  0  0  0  0  0  0  0  0  0
  145.6943  133.7619  151.2144 C   0  0  1  0  0  0  0  0  0  0  0  0
  145.7574  132.2724  150.8249 C   0  0  0  0  0  0  0  0  0  0  0  0
  145.3503  132.0810  149.3558 C   0  0  0  0  0  0  0  0  0  0  0  0
  143.9726  132.7063  149.0808 C   0  0  0  0  0  0  0  0  0  0  0  0
  143.9617  134.1353  149.4624 N   0  3  0  0  0  0  0  0  0  0  0  0
  144.3103  134.3575  150.8832 C   0  0  0  0  0  0  0  0  0  0  0  0
  145.3851  133.5413  153.6991 N   0  0  0  0  0  0  0  0  0  0  0  0
  147.8318  135.0938  152.3845 H   0  0  0  0  0  0  0  0  0  0  0  0
  148.0058  135.1717  154.9414 H   0  0  0  0  0  0  0  0  0  0  0  0
  146.4311  134.2889  150.6051 H   0  0  0  0  0  0  0  0  0  0  0  0
  146.7624  131.8810  150.9866 H   0  0  0  0  0  0  0  0  0  0  0  0
  145.0902  131.6916  151.4637 H   0  0  0  0  0  0  0  0  0  0  0  0
  146.0977  132.5386  148.7062 H   0  0  0  0  0  0  0  0  0  0  0  0
  145.3342  131.0190  149.1084 H   0  0  0  0  0  0  0  0  0  0  0  0
  143.7207  132.6182  148.0238 H   0  0  0  0  0  0  0  0  0  0  0  0
  143.1972  132.1793  149.6386 H   0  0  0  0  0  0  0  0  0  0  0  0
  144.6305  134.6266  148.8867 H   0  0  0  0  0  0  0  0  0  0  0  0
  143.5387  133.9093  151.5110 H   0  0  0  0  0  0  0  0  0  0  0  0
  144.3005  135.4294  151.0835 H   0  0  0  0  0  0  0  0  0  0  0  0
  143.0418  134.5145  149.2879 H   0  0  0  0  0  0  0  0  0  0  0  0
  1  2  1  0  0  0  0
  2  3  1  0  0  0  0
  2  4  1  0  0  0  0
  2  5  1  0  0  0  0
  5 15  1  0  0  0  0
  5  6  2  0  0  0  0
  6  7  1  0  0  0  0
  6 17  1  0  0  0  0
  7 16  1  0  0  0  0
  7  8  1  0  0  0  0
  8  9  1  0  0  0  0
  8 15  2  0  0  0  0
  9 14  1  0  0  0  0
  9 10  1  0  0  0  0
  9 18  1  0  0  0  0
 10 11  1  0  0  0  0
 10 19  1  0  0  0  0
 10 20  1  0  0  0  0
 11 12  1  0  0  0  0
 11 21  1  0  0  0  0
 11 22  1  0  0  0  0
 12 13  1  0  0  0  0
 12 23  1  0  0  0  0
 12 24  1  0  0  0  0
 13 14  1  0  0  0  0
 13 25  1  0  0  0  0
 13 28  1  0  0  0  0
 14 26  1  0  0  0  0
 14 27  1  0  0  0  0
M  CHG  1  13   1
M  END
> <s_m_source_file>
AV-unprocessed.smi

> <i_m_source_file_index>
2753

> <i_lp_mmshare_version>
43012

> <i_f3d_flags>
0

> <s_epik_input>
RkMoRikoRiljMVtjSF1bbkhdYyhuMSlbQ0BASF0yW0NIMl1bQ0gyXVtDSDJdW05IXVtDSDJdMg==

> <s_epik_cmdline>
J2VwaWtfcHl0aG9uJywgJy1waCcsICc3LjAnLCAnLXRuJywgJzgnLCAnLW1hJywgJzIwMCcsICctbWV0YWxfYmluZGluZycsICctaW1hZScsICc8aW5maWxlLm1hZT4nLCAnLW9tYWUnLCAnPG91dGZpbGUubWFlPic=

> <r_lp_tautomer_probability>
0.5

> <r_epik_Ionization_Penalty>
0.00052307

> <r_epik_Ionization_Penalty_Charging>
0.000431517

> <r_epik_Ionization_Penalty_Neutral>
9.15529e-05

> <r_epik_State_Penalty>
0.103148

> <r_epik_Charging_Adjusted_Penalty>
0.103579

> <i_epik_Tot_Q>
1

> <i_epik_Tot_abs_Q>
1

> <r_epik_Metal_State_Penalty>
0.166025

> <b_epik_Metal_Only>
0

> <s_lp_Force_Field>
OPLS_2005

> <r_lp_Energy>
16.8068

> <b_lp_Chiralities_Consistent>
1

> <s_lp_Variant>
AV-unprocessed.smi:2753-2

> <Gold.Version>
5.8.1

> <Gold.Id.Protein>
6NUR|6NUR_protein|mol2

> <Gold.PLP.Fitness>
34.2440

> <Gold.PLP.PLP>
-22.2893

> <Gold.PLP.part.hbond>
-3.0000

> <Gold.PLP.part.metal>
0.0000

> <Gold.PLP.part.buried>
-4.6695

> <Gold.PLP.part.nonpolar>
-15.6452

> <Gold.PLP.part.repulsive>
0.1978

> <Gold.PLP.ligand.clash>
0.0000

> <Gold.PLP.ligand.torsion>
0.0363

> <Gold.PLP.Chemscore.Hbond>
4.0000

> <Gold.PLP.Chemscore.CHOScore>
0.0000

> <Gold.PLP.Chemscore.Metal>
0.0000

> <Gold.Chemscore.Hbonds>
donor molecule, donor type, donor heavy atom, donor atom, acceptor molecule, acceptor atom, score
      L1  H     7    16       P1  7948  1.00
      L1  H    13    25       P1  7921  1.00
      L1  H    13    28       P1 10186  1.95

> <Gold.PLP.Chemscore.Internal.Correction>
0.0273

> <Gold.Rescore>
     Score         DG    S(hbond)    S(metal)    S(lipo)     H(rot)  DE(clash)    DE(int)     intcor
     18.72     -18.79       2.88        0.00      53.44       1.00       0.05       0.02       ----

> <Gold.Chemscore.Fitness>
18.7229

> <Gold.Chemscore.DG>
-18.7928

> <Gold.Chemscore.ZeroCoef>
-5.4800

> <Gold.Chemscore.Hbond>
2.8803

> <Gold.Chemscore.Metal>
0.0000

> <Gold.Chemscore.Lipo>
53.4419

> <Gold.Chemscore.Internal_Hbond>
0.0000

> <Gold.Chemscore.DEClash>
0.0528

> <Gold.Chemscore.DEInternal>
0.0172

> <Gold.Chemscore.Rot>
1.0000

> <Gold.Chemscore.Internal.Correction>
   9.000000E+99

> <Gold.Chemscore.Hbonds>
donor molecule, donor type, donor heavy atom, donor atom, acceptor molecule, acceptor atom, score
      L1  H     7    16       P1  7948  0.93
      L1  H    13    25       P1  7921  0.97
      L1  H    13    28       P1 10186  0.86

> <Gold.Chemscore.Hbond.Weighted>
-9.6201

> <Gold.Chemscore.Metal.Weighted>
-0.0000

> <Gold.Chemscore.Lipo.Weighted>
-6.2527

> <Gold.Chemscore.Internal_Hbond.Weighted>
0.0000

> <Gold.Chemscore.DEClash.Weighted>
0.0528

> <Gold.Chemscore.DEInternal.Weighted>
0.0172

> <Gold.Chemscore.Rot.Weighted>
2.5600

> <Gold.Chemscore.Internal.Correction.Weighted>
   9.000000E+99

> <Gold.Protein.RotatedTorsions>
[ 6907 6896 6895 6894 ] final    2.06 input  -60.11 | X-H torsion
[ 7974 7965 7964 7962 ] final  165.47 input  175.53 | X-H torsion
[ 8008 7997 7996 7995 ] final   44.16 input   59.86 | X-H torsion
[ 10167 10162 10161 10158 ] final   24.51 input  -65.29 | X-H torsion
[ 10718 10713 10712 10709 ] final  -38.41 input   66.30 | X-H torsion
[ 10763 10752 10751 10750 ] final   99.73 input  -60.55 | X-H torsion
[ 11005 11000 10999 10996 ] final  -16.75 input  -57.11 | X-H torsion

> <Gold.Protein.ActiveResidues>
 VAL166  LYS551  ARG553  GLY616  TRP617  ASP618  TYR619  PRO620  LYS621  CYS622 
 ASP623  PHE694  ASN695  SER759  ASP760  ASP761  ALA762  ILE779  LEU786  VAL792 
 PHE793  MET794  SER795  GLU796  ALA797  LYS798  CYS799  TRP800  GLU811  SER814 

> <Gold.Protein.RotatedAtoms>
  151.6028  135.1046  160.0063 H   0  0  0  0  0  0  0  0  0  0  0  0  # atno 6907 bound_to 6896
  152.4249  133.7174  159.6524 H   0  0  0  0  0  0  0  0  0  0  0  0  # atno 6908 bound_to 6896
  150.8137  133.8303  159.3192 H   0  0  0  0  0  0  0  0  0  0  0  0  # atno 6909 bound_to 6896
  144.7501  139.8475  143.6369 H   0  0  0  0  0  0  0  0  0  0  0  0  # atno 7974 bound_to 7965
  155.3148  140.3393  155.4243 H   0  0  0  0  0  0  0  0  0  0  0  0  # atno 8008 bound_to 7997
  156.1938  140.1707  156.8077 H   0  0  0  0  0  0  0  0  0  0  0  0  # atno 8009 bound_to 7997
  154.5474  140.0712  156.8595 H   0  0  0  0  0  0  0  0  0  0  0  0  # atno 8010 bound_to 7997
  140.5182  144.0046  150.6404 H   0  0  0  0  0  0  0  0  0  0  0  0  # atno 10167 bound_to 10162
  156.3041  130.4244  149.8114 H   0  0  0  0  0  0  0  0  0  0  0  0  # atno 10718 bound_to 10713
  153.3050  135.4103  155.1286 H   0  0  0  0  0  0  0  0  0  0  0  0  # atno 10763 bound_to 10752
  154.8560  135.3550  154.5800 H   0  0  0  0  0  0  0  0  0  0  0  0  # atno 10764 bound_to 10752
  153.6227  135.7064  153.5363 H   0  0  0  0  0  0  0  0  0  0  0  0  # atno 10765 bound_to 10752
  140.8099  133.8148  155.9553 H   0  0  0  0  0  0  0  0  0  0  0  0  # atno 11005 bound_to 11000
  146.1439  139.4503  143.0091 LP  0  0  0  0  0  0  0  0  0  0  0  0  # atno 17320 bound_to 7965
  145.6975  141.0146  143.1522 LP  0  0  0  0  0  0  0  0  0  0  0  0  # atno 17321 bound_to 7965
  140.3388  143.3032  152.0610 LP  0  0  0  0  0  0  0  0  0  0  0  0  # atno 17342 bound_to 10162
  139.4915  144.6457  151.6783 LP  0  0  0  0  0  0  0  0  0  0  0  0  # atno 17343 bound_to 10162
  156.5482  130.8330  151.3291 LP  0  0  0  0  0  0  0  0  0  0  0  0  # atno 17370 bound_to 10713
  157.7375  130.9797  150.2197 LP  0  0  0  0  0  0  0  0  0  0  0  0  # atno 17371 bound_to 10713
  140.9208  134.2144  157.4927 LP  0  0  0  0  0  0  0  0  0  0  0  0  # atno 17394 bound_to 11000
  139.8715  134.9791  156.5024 LP  0  0  0  0  0  0  0  0  0  0  0  0  # atno 17395 bound_to 11000

$$$$
