AV-unprocessed.smi:285|AV-procd|sdf|2169|dock1
  -GOLD-   2262021533D 1   1.00000     0.00000
 Structure written by MMmdl.
 31 33  0  0  0  0  0  0  0  0  1 V2000
  154.3293  140.7758  160.7822 N   0  0  0  0  0  0  0  0  0  0  0  0
  153.4116  141.4117  160.0413 C   0  0  0  0  0  0  0  0  0  0  0  0
  152.9757  142.6237  160.4577 N   0  0  0  0  0  0  0  0  0  0  0  0
  152.0616  143.2797  159.7354 C   0  0  0  0  0  0  0  0  0  0  0  0
  151.4720  142.9072  158.5963 N   0  0  0  0  0  0  0  0  0  0  0  0
  151.9109  141.6832  158.1777 C   0  0  0  0  0  0  0  0  0  0  0  0
  152.8784  140.8743  158.8428 C   0  0  0  0  0  0  0  0  0  0  0  0
  153.0881  139.6968  158.1356 N   0  0  0  0  0  0  0  0  0  0  0  0
  152.2825  139.8255  157.1185 C   0  0  0  0  0  0  0  0  0  0  0  0
  152.1826  138.4650  155.7894 Br  0  0  0  0  0  0  0  0  0  0  0  0
  151.5329  140.9781  157.0522 N   0  0  0  0  0  0  0  0  0  0  0  0
  150.5362  141.3976  156.0217 C   0  0  2  0  0  0  0  0  0  0  0  0
  149.1347  141.4688  156.6055 C   0  0  0  0  0  0  0  0  0  0  0  0
  148.2916  141.2795  155.3571 C   0  0  1  0  0  0  0  0  0  0  0  0
  147.9555  142.5363  154.8011 O   0  0  0  0  0  0  0  0  0  0  0  0
  149.2056  140.4903  154.3912 C   0  0  2  0  0  0  0  0  0  0  0  0
  148.7229  139.0502  154.1515 C   0  0  0  0  0  0  0  0  0  0  0  0
  149.7638  138.2746  153.5969 O   0  0  0  0  0  0  0  0  0  0  0  0
  150.4794  140.4268  155.0335 O   0  0  0  0  0  0  0  0  0  0  0  0
  154.6711  139.8707  160.4923 H   0  0  0  0  0  0  0  0  0  0  0  0
  154.6768  141.2019  161.6290 H   0  0  0  0  0  0  0  0  0  0  0  0
  151.7589  144.2402  160.1254 H   0  0  0  0  0  0  0  0  0  0  0  0
  150.8890  142.3431  155.6098 H   0  0  0  0  0  0  0  0  0  0  0  0
  148.9799  140.6361  157.2925 H   0  0  0  0  0  0  0  0  0  0  0  0
  148.9668  142.4068  157.1365 H   0  0  0  0  0  0  0  0  0  0  0  0
  147.3662  140.7510  155.5881 H   0  0  0  0  0  0  0  0  0  0  0  0
  148.3933  143.2126  155.2952 H   0  0  0  0  0  0  0  0  0  0  0  0
  149.3012  141.0215  153.4420 H   0  0  0  0  0  0  0  0  0  0  0  0
  148.3573  138.5952  155.0729 H   0  0  0  0  0  0  0  0  0  0  0  0
  147.8998  139.0403  153.4363 H   0  0  0  0  0  0  0  0  0  0  0  0
  149.3895  137.6719  152.9728 H   0  0  0  0  0  0  0  0  0  0  0  0
  1  2  1  0  0  0  0
  1 20  1  0  0  0  0
  1 21  1  0  0  0  0
  2  7  1  0  0  0  0
  2  3  2  0  0  0  0
  3  4  1  0  0  0  0
  4  5  2  0  0  0  0
  4 22  1  0  0  0  0
  5  6  1  0  0  0  0
  6 11  1  0  0  0  0
  6  7  2  0  0  0  0
  7  8  1  0  0  0  0
  8  9  2  0  0  0  0
  9 10  1  0  0  0  0
  9 11  1  0  0  0  0
 11 12  1  0  0  0  0
 12 19  1  0  0  0  0
 12 13  1  0  0  0  0
 12 23  1  0  0  0  0
 13 14  1  0  0  0  0
 13 24  1  0  0  0  0
 13 25  1  0  0  0  0
 14 15  1  0  0  0  0
 14 16  1  0  0  0  0
 14 26  1  0  0  0  0
 15 27  1  0  0  0  0
 16 17  1  0  0  0  0
 16 19  1  0  0  0  0
 16 28  1  0  0  0  0
 17 18  1  0  0  0  0
 17 29  1  0  0  0  0
 17 30  1  0  0  0  0
 18 31  1  0  0  0  0
M  END
> <s_m_source_file>
AV-unprocessed.smi

> <i_m_source_file_index>
285

> <i_lp_mmshare_version>
43012

> <i_f3d_flags>
0

> <s_epik_input>
bjFbY0hdbmMoW05IMl0pYyhjMTIpbmMoQnIpbjJbQ0BASF0zW0NIMl1bQ0BASF0oW09IXSlbQ0BIXShPMylbQ0gyXVtPSF0=

> <s_epik_cmdline>
J2VwaWtfcHl0aG9uJywgJy1waCcsICc3LjAnLCAnLXRuJywgJzgnLCAnLW1hJywgJzIwMCcsICctbWV0YWxfYmluZGluZycsICctaW1hZScsICc8aW5maWxlLm1hZT4nLCAnLW9tYWUnLCAnPG91dGZpbGUubWFlPic=

> <r_lp_tautomer_probability>
1

> <r_epik_Ionization_Penalty>
0.000103242

> <r_epik_Ionization_Penalty_Charging>
0

> <r_epik_Ionization_Penalty_Neutral>
0.000103242

> <r_epik_State_Penalty>
-0

> <r_epik_Charging_Adjusted_Penalty>
0

> <i_epik_Tot_Q>
0

> <i_epik_Tot_abs_Q>
0

> <r_epik_Metal_State_Penalty>
-0

> <b_epik_Metal_Only>
0

> <s_epik_Chemistry_Notes>
This compound contains an acetal/aminal-like group ( X-CH(R)-Y where X, Y are N, S, or O) that may be acid/base labile, releasing an aldehyde.

> <s_lp_Force_Field>
OPLS_2005

> <r_lp_Energy>
31.1056

> <b_lp_Chiralities_Consistent>
1

> <s_lp_Variant>
AV-unprocessed.smi:285-5

> <Gold.Version>
5.8.1

> <Gold.Id.Protein>
6NUR|6NUR_protein|mol2

> <Gold.PLP.Fitness>
46.0977

> <Gold.PLP.PLP>
-34.3760

> <Gold.PLP.part.hbond>
-4.7190

> <Gold.PLP.part.metal>
0.0000

> <Gold.PLP.part.buried>
-5.2591

> <Gold.PLP.part.nonpolar>
-24.4631

> <Gold.PLP.part.repulsive>
0.1455

> <Gold.PLP.ligand.clash>
0.0000

> <Gold.PLP.ligand.torsion>
0.1492

> <Gold.PLP.Chemscore.Hbond>
4.0000

> <Gold.PLP.Chemscore.CHOScore>
0.0000

> <Gold.PLP.Chemscore.Metal>
0.0000

> <Gold.Chemscore.Hbonds>
donor molecule, donor type, donor heavy atom, donor atom, acceptor molecule, acceptor atom, score
      L1  H    15    27       P1  8028  1.00
      L1  H    18    31       P1  7948  1.00
      P1  H  7989  7998       L1    19  0.95
      P1  H  7997  8010       L1     8  0.85

> <Gold.PLP.Chemscore.Internal.Correction>
0.0201

> <Gold.Rescore>
     Score         DG    S(hbond)    S(metal)    S(lipo)     H(rot)  DE(clash)    DE(int)     intcor
      9.41     -11.14       2.72        0.00      37.74       3.06       0.08       1.66       ----

> <Gold.Chemscore.Fitness>
9.4074

> <Gold.Chemscore.DG>
-11.1415

> <Gold.Chemscore.ZeroCoef>
-5.4800

> <Gold.Chemscore.Hbond>
2.7189

> <Gold.Chemscore.Metal>
0.0000

> <Gold.Chemscore.Lipo>
37.7399

> <Gold.Chemscore.Internal_Hbond>
0.0000

> <Gold.Chemscore.DEClash>
0.0763

> <Gold.Chemscore.DEInternal>
1.6577

> <Gold.Chemscore.Rot>
3.0607

> <Gold.Chemscore.Internal.Correction>
   9.000000E+99

> <Gold.Chemscore.Hbonds>
donor molecule, donor type, donor heavy atom, donor atom, acceptor molecule, acceptor atom, score
      L1  H    15    27       P1  8028  0.96
      L1  H    18    31       P1  7948  0.93
      P1  H  7989  7998       L1    19  0.17
      P1  H  7997  8010       L1     8  0.06

> <Gold.Chemscore.Hbond.Weighted>
-9.0813

> <Gold.Chemscore.Metal.Weighted>
-0.0000

> <Gold.Chemscore.Lipo.Weighted>
-4.4156

> <Gold.Chemscore.Internal_Hbond.Weighted>
0.0000

> <Gold.Chemscore.DEClash.Weighted>
0.0763

> <Gold.Chemscore.DEInternal.Weighted>
1.6577

> <Gold.Chemscore.Rot.Weighted>
7.8354

> <Gold.Chemscore.Internal.Correction.Weighted>
   9.000000E+99

> <Gold.Protein.RotatedTorsions>
[ 6907 6896 6895 6894 ] final  138.78 input  -60.11 | X-H torsion
[ 7974 7965 7964 7962 ] final   18.86 input  175.53 | X-H torsion
[ 8008 7997 7996 7995 ] final   21.40 input   59.86 | X-H torsion
[ 10167 10162 10161 10158 ] final -124.82 input  -65.29 | X-H torsion
[ 10718 10713 10712 10709 ] final  -55.66 input   66.30 | X-H torsion
[ 10763 10752 10751 10750 ] final  138.19 input  -60.55 | X-H torsion
[ 11005 11000 10999 10996 ] final  -29.13 input  -57.11 | X-H torsion

> <Gold.Protein.ActiveResidues>
 VAL166  LYS551  ARG553  GLY616  TRP617  ASP618  TYR619  PRO620  LYS621  CYS622 
 ASP623  PHE694  ASN695  SER759  ASP760  ASP761  ALA762  ILE779  LEU786  VAL792 
 PHE793  MET794  SER795  GLU796  ALA797  LYS798  CYS799  TRP800  GLU811  SER814 

> <Gold.Protein.RotatedAtoms>
  152.2626  133.5311  159.5390 H   0  0  0  0  0  0  0  0  0  0  0  0  # atno 6907 bound_to 6896
  150.7130  134.0808  159.3906 H   0  0  0  0  0  0  0  0  0  0  0  0  # atno 6908 bound_to 6896
  151.8725  135.0484  160.0531 H   0  0  0  0  0  0  0  0  0  0  0  0  # atno 6909 bound_to 6896
  146.2170  139.8397  142.8643 H   0  0  0  0  0  0  0  0  0  0  0  0  # atno 7974 bound_to 7965
  154.9501  140.3064  155.5079 H   0  0  0  0  0  0  0  0  0  0  0  0  # atno 8008 bound_to 7997
  156.2988  140.2320  156.4515 H   0  0  0  0  0  0  0  0  0  0  0  0  # atno 8009 bound_to 7997
  154.8063  140.0431  157.1298 H   0  0  0  0  0  0  0  0  0  0  0  0  # atno 8010 bound_to 7997
  139.9887  143.5664  152.2350 H   0  0  0  0  0  0  0  0  0  0  0  0  # atno 10167 bound_to 10162
  156.1351  130.4157  150.0200 H   0  0  0  0  0  0  0  0  0  0  0  0  # atno 10718 bound_to 10713
  153.8854  135.3039  155.3446 H   0  0  0  0  0  0  0  0  0  0  0  0  # atno 10763 bound_to 10752
  154.7742  135.4870  153.9712 H   0  0  0  0  0  0  0  0  0  0  0  0  # atno 10764 bound_to 10752
  153.1328  135.6807  153.9249 H   0  0  0  0  0  0  0  0  0  0  0  0  # atno 10765 bound_to 10752
  140.9270  133.7362  156.0881 H   0  0  0  0  0  0  0  0  0  0  0  0  # atno 11005 bound_to 11000
  145.2912  141.0168  143.3662 LP  0  0  0  0  0  0  0  0  0  0  0  0  # atno 17320 bound_to 7965
  144.9076  139.4569  143.6602 LP  0  0  0  0  0  0  0  0  0  0  0  0  # atno 17321 bound_to 7965
  139.6356  144.7649  151.2445 LP  0  0  0  0  0  0  0  0  0  0  0  0  # atno 17342 bound_to 10162
  140.7462  143.6405  150.8340 LP  0  0  0  0  0  0  0  0  0  0  0  0  # atno 17343 bound_to 10162
  156.8102  130.9322  151.3644 LP  0  0  0  0  0  0  0  0  0  0  0  0  # atno 17370 bound_to 10713
  157.6524  130.8896  149.9660 LP  0  0  0  0  0  0  0  0  0  0  0  0  # atno 17371 bound_to 10713
  140.7913  134.3614  157.5464 LP  0  0  0  0  0  0  0  0  0  0  0  0  # atno 17394 bound_to 11000
  139.8787  134.9142  156.3102 LP  0  0  0  0  0  0  0  0  0  0  0  0  # atno 17395 bound_to 11000

$$$$
