#       Name:                AV-unprocessed.smi:1976
#       Creating user name   scv26
#       Creation time:       Fri Mar 27 10:16:54 2020


#       File generated by GOLD software.
#

@<TRIPOS>MOLECULE
AV-unprocessed.smi:1976
    49    51     1
SMALL
NO_CHARGES


@<TRIPOS>ATOM
      1 ****        -0.2116   1.5894   1.1817 O.2            1 S1                 0.0000
      2 ****         0.4718   0.8927   0.4303 C.2            1 S1                 0.0000
      3 ****         1.9859   1.1137   0.3054 C.3            1 S1                 0.0000
      4 ****         2.4220   2.4441   0.7618 N.am           1 S1                 0.0000
      5 ****         2.9419   2.5364   2.0679 C.2            1 S1                 0.0000
      6 ****         3.3629   3.6956   2.6089 C.2            1 S1                 0.0000
      7 ****         3.9662   3.7545   4.0036 C.3            1 S1                 0.0000
      8 ****         4.8318   4.7628   4.1104 F              1 S1                 0.0000
      9 ****         3.0034   3.9362   4.9062 F              1 S1                 0.0000
     10 ****         4.6044   2.6217   4.3002 F              1 S1                 0.0000
     11 ****         3.2898   4.8680   1.7595 C.2            1 S1                 0.0000
     12 ****         2.7992   4.7965   0.5065 C.2            1 S1                 0.0000
     13 ****         2.3202   3.5328  -0.0582 C.2            1 S1                 0.0000
     14 ****         1.8575   3.4563  -1.1966 O.2            1 S1                 0.0000
     15 ****        -0.0373  -0.1046  -0.3075 N.am           1 S1                 0.0000
     16 ****        -1.4457  -0.4899  -0.3361 C.3            1 S1                 0.0000
     17 ****        -1.9174  -1.2299   0.9125 C.3            1 S1                 0.0000
     18 ****        -3.1919  -1.9333   0.4381 C.3            1 S1                 0.0000
     19 ****        -3.0471  -2.1449  -1.0228 N.4            1 S1                 1.0000
     20 ****        -3.1879  -3.5646  -1.4434 C.3            1 S1                 0.0000
     21 ****        -2.6593  -3.7685  -2.8707 C.3            1 S1                 0.0000
     22 ****        -1.1574  -3.4399  -2.9681 C.3            1 S1                 0.0000
     23 ****        -0.6912  -2.4739  -1.8616 C.3            1 S1                 0.0000
     24 ****        -1.7993  -1.4640  -1.4739 C.3            1 S1                 0.0000
     25 ****         2.4908   0.3292   0.8707 H              1 S1                 0.0000
     26 ****         2.2893   0.9564  -0.7315 H              1 S1                 0.0000
     27 ****         2.9731   1.6007   2.6070 H              1 S1                 0.0000
     28 ****         3.6293   5.8221   2.1347 H              1 S1                 0.0000
     29 ****         2.7570   5.6914  -0.0967 H              1 S1                 0.0000
     30 ****         0.5948  -0.6305  -0.8939 H              1 S1                 0.0000
     31 ****        -2.0547   0.4087  -0.4566 H              1 S1                 0.0000
     32 ****        -1.1762  -1.9709   1.2155 H              1 S1                 0.0000
     33 ****        -2.0952  -0.5667   1.7598 H              1 S1                 0.0000
     34 ****        -3.3706  -2.8561   0.9917 H              1 S1                 0.0000
     35 ****        -4.0557  -1.2872   0.5979 H              1 S1                 0.0000
     36 ****        -2.6388  -4.2160  -0.7612 H              1 S1                 0.0000
     37 ****        -4.2378  -3.8521  -1.3774 H              1 S1                 0.0000
     38 ****        -2.8398  -4.7910  -3.2038 H              1 S1                 0.0000
     39 ****        -3.2189  -3.1240  -3.5503 H              1 S1                 0.0000
     40 ****        -0.5688  -4.3562  -2.9081 H              1 S1                 0.0000
     41 ****        -0.9512  -3.0118  -3.9498 H              1 S1                 0.0000
     42 ****        -0.4034  -3.0477  -0.9794 H              1 S1                 0.0000
     43 ****         0.2107  -1.9609  -2.1968 H              1 S1                 0.0000
     44 ****        -2.0388  -0.8850  -2.3671 H              1 S1                 0.0000
     45 ****        -3.8071  -1.6405  -1.4568 H              1 S1                 0.0000
     46 ****         0.2187   2.3124   1.7222 LP             1 S1                 0.0000
     47 ****        -1.1967   1.4321   1.2511 LP             1 S1                 0.0000
     48 ****         1.5407   2.5759  -1.5495 LP             1 S1                 0.0000
     49 ****         1.7985   4.2746  -1.7684 LP             1 S1                 0.0000
@<TRIPOS>BOND
    1    1    2 2     
    2    2    3 1     
    3    2   15 am    
    4    3    4 1     
    5    3   25 1     
    6    3   26 1     
    7    4   13 am    
    8    4    5 1     
    9    5    6 2     
   10    5   27 1     
   11    6    7 1     
   12    6   11 1     
   13    7    8 1     
   14    7    9 1     
   15    7   10 1     
   16   11   12 2     
   17   11   28 1     
   18   12   13 1     
   19   12   29 1     
   20   13   14 2     
   21   15   16 1     
   22   15   30 1     
   23   16   24 1     
   24   16   17 1     
   25   16   31 1     
   26   17   18 1     
   27   17   32 1     
   28   17   33 1     
   29   18   19 1     
   30   18   34 1     
   31   18   35 1     
   32   19   24 1     
   33   19   20 1     
   34   19   45 1     
   35   20   21 1     
   36   20   36 1     
   37   20   37 1     
   38   21   22 1     
   39   21   38 1     
   40   21   39 1     
   41   22   23 1     
   42   22   40 1     
   43   22   41 1     
   44   23   24 1     
   45   23   42 1     
   46   23   43 1     
   47   24   44 1     
   48    1   46 1     
   49    1   47 1     
   50   14   48 1     
   51   14   49 1     
@<TRIPOS>SUBSTRUCTURE
      1 S1             1
@<TRIPOS>SET
LONE_PAIRS      STATIC     ATOMS    <user>   **** ""
4 46 47 48 49
DONOR_HYDROGENS      STATIC     ATOMS    <user>   **** ""
2 30 45
ATOM$BLUE        STATIC     ATOMS    COLORGROUP SYSTEM
4 46 47 48 49
ATOM$RED        STATIC     ATOMS    COLORGROUP SYSTEM
2 30 45
