AV-unprocessed.smi:1487|AV-procd|sdf|6008|dock10
  -GOLD-   22720 6103D 1   1.00000     0.00000
 Structure written by MMmdl.
 48 50  0  0  0  0  0  0  0  0  2 V2000
  151.8578  141.2992  157.1884 C   0  0  0  0  0  0  0  0  0  0  0  0
  150.7361  141.0122  156.2063 C   0  0  0  0  0  0  0  0  0  0  0  0
  149.4824  141.6363  156.3943 C   0  0  0  0  0  0  0  0  0  0  0  0
  148.4124  141.3943  155.5055 C   0  0  0  0  0  0  0  0  0  0  0  0
  147.1199  141.8905  155.4980 N   0  0  0  0  0  0  0  0  0  0  0  0
  146.6089  141.2928  154.4258 C   0  0  0  0  0  0  0  0  0  0  0  0
  147.4202  140.4704  153.7329 N   0  0  0  0  0  0  0  0  0  0  0  0
  147.0860  139.7145  152.5387 C   0  0  0  0  0  0  0  0  0  0  0  0
  146.5559  138.3035  152.8589 C   0  0  1  0  0  0  0  0  0  0  0  0
  145.4354  138.4055  153.7169 O   0  0  0  0  0  0  0  0  0  0  0  0
  146.1261  137.5552  151.5817 C   0  0  0  0  0  0  0  0  0  0  0  0
  146.3886  136.0951  151.6615 N   0  3  1  0  0  0  0  0  0  0  0  0
  146.1794  135.5563  153.0309 C   0  0  0  0  0  0  0  0  0  0  0  0
  146.5944  134.0777  153.1184 C   0  0  0  0  0  0  0  0  0  0  0  0
  145.8458  133.2319  152.0804 C   0  0  0  0  0  0  0  0  0  0  0  0
  146.0535  133.8249  150.6794 C   0  0  1  0  0  0  0  0  0  0  0  0
  145.2897  133.0964  149.7418 O   0  0  0  0  0  0  0  0  0  0  0  0
  145.6426  135.3083  150.6427 C   0  0  0  0  0  0  0  0  0  0  0  0
  148.6325  140.5037  154.4141 C   0  0  0  0  0  0  0  0  0  0  0  0
  149.8760  139.8776  154.2158 C   0  0  0  0  0  0  0  0  0  0  0  0
  150.9339  140.1297  155.1140 C   0  0  0  0  0  0  0  0  0  0  0  0
  152.2717  139.4461  154.8932 C   0  0  0  0  0  0  0  0  0  0  0  0
  151.5587  142.0424  157.9281 H   0  0  0  0  0  0  0  0  0  0  0  0
  152.7358  141.6826  156.6681 H   0  0  0  0  0  0  0  0  0  0  0  0
  152.1389  140.3901  157.7205 H   0  0  0  0  0  0  0  0  0  0  0  0
  149.3313  142.3076  157.2269 H   0  0  0  0  0  0  0  0  0  0  0  0
  145.5853  141.4633  154.1255 H   0  0  0  0  0  0  0  0  0  0  0  0
  146.3504  140.2787  151.9638 H   0  0  0  0  0  0  0  0  0  0  0  0
  147.9798  139.6484  151.9168 H   0  0  0  0  0  0  0  0  0  0  0  0
  147.3356  137.7510  153.3829 H   0  0  0  0  0  0  0  0  0  0  0  0
  144.8840  139.1094  153.4091 H   0  0  0  0  0  0  0  0  0  0  0  0
  145.0610  137.7331  151.4226 H   0  0  0  0  0  0  0  0  0  0  0  0
  146.6329  137.9646  150.7064 H   0  0  0  0  0  0  0  0  0  0  0  0
  146.7671  136.1321  153.7473 H   0  0  0  0  0  0  0  0  0  0  0  0
  145.1318  135.6720  153.3135 H   0  0  0  0  0  0  0  0  0  0  0  0
  147.6696  133.9889  152.9567 H   0  0  0  0  0  0  0  0  0  0  0  0
  146.4002  133.6942  154.1206 H   0  0  0  0  0  0  0  0  0  0  0  0
  146.1971  132.1997  152.1136 H   0  0  0  0  0  0  0  0  0  0  0  0
  144.7830  133.2096  152.3257 H   0  0  0  0  0  0  0  0  0  0  0  0
  147.1037  133.7340  150.3977 H   0  0  0  0  0  0  0  0  0  0  0  0
  145.2698  133.5745  148.9266 H   0  0  0  0  0  0  0  0  0  0  0  0
  144.5709  135.4083  150.8241 H   0  0  0  0  0  0  0  0  0  0  0  0
  145.8312  135.7068  149.6462 H   0  0  0  0  0  0  0  0  0  0  0  0
  150.0152  139.2083  153.3797 H   0  0  0  0  0  0  0  0  0  0  0  0
  152.2421  138.7819  154.0288 H   0  0  0  0  0  0  0  0  0  0  0  0
  152.5447  138.8492  155.7639 H   0  0  0  0  0  0  0  0  0  0  0  0
  153.0540  140.1855  154.7205 H   0  0  0  0  0  0  0  0  0  0  0  0
  147.3728  135.9784  151.4640 H   0  0  0  0  0  0  0  0  0  0  0  0
  1  2  1  0  0  0  0
  1 23  1  0  0  0  0
  1 24  1  0  0  0  0
  1 25  1  0  0  0  0
  2 21  1  0  0  0  0
  2  3  2  0  0  0  0
  3  4  1  0  0  0  0
  3 26  1  0  0  0  0
  4 19  2  0  0  0  0
  4  5  1  0  0  0  0
  5  6  2  0  0  0  0
  6  7  1  0  0  0  0
  6 27  1  0  0  0  0
  7  8  1  0  0  0  0
  7 19  1  0  0  0  0
  8  9  1  0  0  0  0
  8 28  1  0  0  0  0
  8 29  1  0  0  0  0
  9 10  1  0  0  0  0
  9 11  1  0  0  0  0
  9 30  1  0  0  0  0
 10 31  1  0  0  0  0
 11 12  1  0  0  0  0
 11 32  1  0  0  0  0
 11 33  1  0  0  0  0
 12 18  1  0  0  0  0
 12 13  1  0  0  0  0
 12 48  1  0  0  0  0
 13 14  1  0  0  0  0
 13 34  1  0  0  0  0
 13 35  1  0  0  0  0
 14 15  1  0  0  0  0
 14 36  1  0  0  0  0
 14 37  1  0  0  0  0
 15 16  1  0  0  0  0
 15 38  1  0  0  0  0
 15 39  1  0  0  0  0
 16 17  1  0  0  0  0
 16 18  1  0  0  0  0
 16 40  1  0  0  0  0
 17 41  1  0  0  0  0
 18 42  1  0  0  0  0
 18 43  1  0  0  0  0
 19 20  1  0  0  0  0
 20 21  2  0  0  0  0
 20 44  1  0  0  0  0
 21 22  1  0  0  0  0
 22 45  1  0  0  0  0
 22 46  1  0  0  0  0
 22 47  1  0  0  0  0
M  CHG  1  12   1
M  END
> <s_m_source_file>
AV-unprocessed.smi

> <i_m_source_file_index>
1487

> <i_lp_mmshare_version>
43012

> <i_f3d_flags>
0

> <s_epik_input>
W0NIM11jKFtjSF0xKWMoW0NIM10pW2NIXWMoYzEyKW4oW2NIXW4yKVtDSDJdW0NASF0oW09IXSlbQ0gyXU4zW0NIMl1bQ0gyXVtDSDJdW0NAQEhdKFtPSF0pW0NIMl0z

> <s_epik_cmdline>
J2VwaWtfcHl0aG9uJywgJy1waCcsICc3LjAnLCAnLXRuJywgJzgnLCAnLW1hJywgJzIwMCcsICctbWV0YWxfYmluZGluZycsICctaW1hZScsICc8aW5maWxlLm1hZT4nLCAnLW9tYWUnLCAnPG91dGZpbGUubWFlPic=

> <r_epik_Ionization_Penalty>
0.0940186

> <r_epik_Ionization_Penalty_Charging>
0.00679686

> <r_epik_Ionization_Penalty_Neutral>
0.0872218

> <r_epik_State_Penalty>
0.0799311

> <r_epik_Charging_Adjusted_Penalty>
0.086728

> <i_epik_Tot_Q>
1

> <i_epik_Tot_abs_Q>
1

> <r_epik_Metal_State_Penalty>
7.95545e-05

> <b_epik_Metal_Only>
0

> <s_lp_Force_Field>
OPLS_2005

> <r_lp_Energy>
21.5016

> <b_lp_Chiralities_Consistent>
1

> <s_lp_Variant>
AV-unprocessed.smi:1487-2

> <Gold.Version>
5.8.1

> <Gold.Id.Protein>
6NUR|6NUR_protein|mol2

> <Gold.PLP.Fitness>
50.7093

> <Gold.PLP.PLP>
-37.9487

> <Gold.PLP.part.hbond>
-3.0000

> <Gold.PLP.part.metal>
0.0000

> <Gold.PLP.part.buried>
3.7467

> <Gold.PLP.part.nonpolar>
-38.8930

> <Gold.PLP.part.repulsive>
0.2096

> <Gold.PLP.ligand.clash>
0.0000

> <Gold.PLP.ligand.torsion>
1.0353

> <Gold.PLP.Chemscore.Hbond>
4.0000

> <Gold.PLP.Chemscore.CHOScore>
0.9317

> <Gold.PLP.Chemscore.Metal>
0.0000

> <Gold.Chemscore.Hbonds>
donor molecule, donor type, donor heavy atom, donor atom, acceptor molecule, acceptor atom, score
      L1  H    10    31       P1 10175  0.98
      L1  H    12    48       P1  7948  2.00
      L1  H    17    41       P1  7921  1.00
      L1  C     6    27       P1 10175  0.61

> <Gold.PLP.Chemscore.Internal.Correction>
0.0362

> <Gold.Rescore>
     Score         DG    S(hbond)    S(metal)    S(lipo)     H(rot)  DE(clash)    DE(int)     intcor
     17.48     -19.14       2.78        0.00      95.99       2.67       0.55       1.11       ----

> <Gold.Chemscore.Fitness>
17.4799

> <Gold.Chemscore.DG>
-19.1428

> <Gold.Chemscore.ZeroCoef>
-5.4800

> <Gold.Chemscore.Hbond>
2.7757

> <Gold.Chemscore.Metal>
0.0000

> <Gold.Chemscore.Lipo>
95.9863

> <Gold.Chemscore.Internal_Hbond>
0.0000

> <Gold.Chemscore.DEClash>
0.5493

> <Gold.Chemscore.DEInternal>
1.1136

> <Gold.Chemscore.Rot>
2.6712

> <Gold.Chemscore.Internal.Correction>
   9.000000E+99

> <Gold.Chemscore.Hbonds>
donor molecule, donor type, donor heavy atom, donor atom, acceptor molecule, acceptor atom, score
      L1  H    10    31       P1 10175  0.91
      L1  H    12    48       P1  7948  0.95
      L1  H    17    41       P1  7921  0.56

> <Gold.Chemscore.Hbond.Weighted>
-9.2707

> <Gold.Chemscore.Metal.Weighted>
-0.0000

> <Gold.Chemscore.Lipo.Weighted>
-11.2304

> <Gold.Chemscore.Internal_Hbond.Weighted>
0.0000

> <Gold.Chemscore.DEClash.Weighted>
0.5493

> <Gold.Chemscore.DEInternal.Weighted>
1.1136

> <Gold.Chemscore.Rot.Weighted>
6.8383

> <Gold.Chemscore.Internal.Correction.Weighted>
   9.000000E+99

> <Gold.Protein.RotatedTorsions>
[ 6907 6896 6895 6894 ] final   94.98 input  -60.11 | X-H torsion
[ 7974 7965 7964 7962 ] final  -25.35 input  175.53 | X-H torsion
[ 8008 7997 7996 7995 ] final  -92.50 input   59.86 | X-H torsion
[ 10167 10162 10161 10158 ] final  109.77 input  -65.29 | X-H torsion
[ 10718 10713 10712 10709 ] final   29.14 input   66.30 | X-H torsion
[ 10763 10752 10751 10750 ] final  166.94 input  -60.55 | X-H torsion
[ 11005 11000 10999 10996 ] final  138.53 input  -57.11 | X-H torsion

> <Gold.Protein.ActiveResidues>
 VAL166  LYS551  ARG553  GLY616  TRP617  ASP618  TYR619  PRO620  LYS621  CYS622 
 ASP623  PHE694  ASN695  SER759  ASP760  ASP761  ALA762  ILE779  LEU786  VAL792 
 PHE793  MET794  SER795  GLU796  ALA797  LYS798  CYS799  TRP800  GLU811  SER814 

> <Gold.Protein.RotatedAtoms>
  152.5446  134.1110  159.8358 H   0  0  0  0  0  0  0  0  0  0  0  0  # atno 6907 bound_to 6896
  151.1177  133.5120  159.2610 H   0  0  0  0  0  0  0  0  0  0  0  0  # atno 6908 bound_to 6896
  151.1814  135.0372  159.8848 H   0  0  0  0  0  0  0  0  0  0  0  0  # atno 6909 bound_to 6896
  146.1497  140.4874  142.8617 H   0  0  0  0  0  0  0  0  0  0  0  0  # atno 7974 bound_to 7965
  154.7239  140.0508  157.0665 H   0  0  0  0  0  0  0  0  0  0  0  0  # atno 8008 bound_to 7997
  155.0390  140.3166  155.4712 H   0  0  0  0  0  0  0  0  0  0  0  0  # atno 8009 bound_to 7997
  156.2824  140.2136  156.5514 H   0  0  0  0  0  0  0  0  0  0  0  0  # atno 8010 bound_to 7997
  139.6740  144.7123  151.1635 H   0  0  0  0  0  0  0  0  0  0  0  0  # atno 10167 bound_to 10162
  157.2427  130.7077  149.6366 H   0  0  0  0  0  0  0  0  0  0  0  0  # atno 10718 bound_to 10713
  154.3464  135.2753  155.2395 H   0  0  0  0  0  0  0  0  0  0  0  0  # atno 10763 bound_to 10752
  154.4643  135.5899  153.6281 H   0  0  0  0  0  0  0  0  0  0  0  0  # atno 10764 bound_to 10752
  152.9853  135.6072  154.3670 H   0  0  0  0  0  0  0  0  0  0  0  0  # atno 10765 bound_to 10752
  140.0190  134.9405  157.0436 H   0  0  0  0  0  0  0  0  0  0  0  0  # atno 11005 bound_to 11000
  144.7888  140.5991  143.6555 LP  0  0  0  0  0  0  0  0  0  0  0  0  # atno 17320 bound_to 7965
  145.4854  139.1492  143.3739 LP  0  0  0  0  0  0  0  0  0  0  0  0  # atno 17321 bound_to 7965
  140.7629  143.5800  150.8905 LP  0  0  0  0  0  0  0  0  0  0  0  0  # atno 17342 bound_to 10162
  139.9467  143.6319  152.3040 LP  0  0  0  0  0  0  0  0  0  0  0  0  # atno 17343 bound_to 10162
  155.9669  130.4453  150.5495 LP  0  0  0  0  0  0  0  0  0  0  0  0  # atno 17370 bound_to 10713
  157.3362  131.0708  151.1823 LP  0  0  0  0  0  0  0  0  0  0  0  0  # atno 17371 bound_to 10713
  140.4420  134.1672  155.7174 LP  0  0  0  0  0  0  0  0  0  0  0  0  # atno 17394 bound_to 11000
  141.1762  133.8509  157.1414 LP  0  0  0  0  0  0  0  0  0  0  0  0  # atno 17395 bound_to 11000

$$$$
