AV-unprocessed.smi:1327|AV-procd|sdf|5478|dock5
  -GOLD-   22720 5 53D 1   1.00000     0.00000
 Structure written by MMmdl.
 39 40  0  0  0  0  0  0  0  0  2 V2000
  153.0043  136.6139  157.5604 O   0  0  0  0  0  0  0  0  0  0  0  0
  152.6382  137.9878  157.9408 S   0  0  0  0  0  0  0  0  0  0  0  0
  151.4164  138.1719  158.7422 O   0  0  0  0  0  0  0  0  0  0  0  0
  153.9080  138.8510  158.4669 N   0  5  0  0  0  0  0  0  0  0  0  0
  153.6825  140.0898  159.1938 C   0  0  0  0  0  0  0  0  0  0  0  0
  153.5439  141.2880  158.2224 C   0  0  0  0  0  0  0  0  0  0  0  0
  153.6139  142.6726  158.8627 C   0  0  0  0  0  0  0  0  0  0  0  0
  153.5159  143.8423  158.0743 C   0  0  0  0  0  0  0  0  0  0  0  0
  153.6042  145.0943  158.7123 C   0  0  0  0  0  0  0  0  0  0  0  0
  153.7762  145.1346  160.1091 C   0  0  0  0  0  0  0  0  0  0  0  0
  153.8498  143.9148  160.8094 C   0  0  0  0  0  0  0  0  0  0  0  0
  153.7644  142.7094  160.2090 N   0  0  0  0  0  0  0  0  0  0  0  0
  152.3878  138.8594  156.4543 N   0  0  0  0  0  0  0  0  0  0  0  0
  151.4062  139.9676  156.4789 C   0  0  0  0  0  0  0  0  0  0  0  0
  151.1340  140.6505  155.1239 C   0  0  0  0  0  0  0  0  0  0  0  0
  150.1494  139.8795  154.2307 C   0  0  0  0  0  0  0  0  0  0  0  0
  150.7733  138.6764  153.5160 C   0  0  0  0  0  0  0  0  0  0  0  0
  151.3988  137.6497  154.4682 C   0  0  0  0  0  0  0  0  0  0  0  0
  152.6640  138.1724  155.1730 C   0  0  0  0  0  0  0  0  0  0  0  0
  152.7990  140.0417  159.8318 H   0  0  0  0  0  0  0  0  0  0  0  0
  154.5133  140.2936  159.8696 H   0  0  0  0  0  0  0  0  0  0  0  0
  154.3324  141.2262  157.4718 H   0  0  0  0  0  0  0  0  0  0  0  0
  152.6070  141.2005  157.6697 H   0  0  0  0  0  0  0  0  0  0  0  0
  153.3921  143.7791  157.0032 H   0  0  0  0  0  0  0  0  0  0  0  0
  153.5442  146.0078  158.1397 H   0  0  0  0  0  0  0  0  0  0  0  0
  153.8512  146.0767  160.6311 H   0  0  0  0  0  0  0  0  0  0  0  0
  153.9819  143.9059  161.8811 H   0  0  0  0  0  0  0  0  0  0  0  0
  150.4690  139.6071  156.9048 H   0  0  0  0  0  0  0  0  0  0  0  0
  151.7789  140.7193  157.1748 H   0  0  0  0  0  0  0  0  0  0  0  0
  150.6819  141.6195  155.3376 H   0  0  0  0  0  0  0  0  0  0  0  0
  152.0606  140.8765  154.5953 H   0  0  0  0  0  0  0  0  0  0  0  0
  149.2877  139.5584  154.8174 H   0  0  0  0  0  0  0  0  0  0  0  0
  149.7574  140.5589  153.4731 H   0  0  0  0  0  0  0  0  0  0  0  0
  150.0014  138.1845  152.9235 H   0  0  0  0  0  0  0  0  0  0  0  0
  151.5236  139.0202  152.8032 H   0  0  0  0  0  0  0  0  0  0  0  0
  150.6635  137.2885  155.1871 H   0  0  0  0  0  0  0  0  0  0  0  0
  151.6801  136.7788  153.8757 H   0  0  0  0  0  0  0  0  0  0  0  0
  153.2291  138.8355  154.5182 H   0  0  0  0  0  0  0  0  0  0  0  0
  153.3282  137.3302  155.3587 H   0  0  0  0  0  0  0  0  0  0  0  0
  1  2  2  0  0  0  0
  2  3  2  0  0  0  0
  2  4  1  0  0  0  0
  2 13  1  0  0  0  0
  4  5  1  0  0  0  0
  5  6  1  0  0  0  0
  5 20  1  0  0  0  0
  5 21  1  0  0  0  0
  6  7  1  0  0  0  0
  6 22  1  0  0  0  0
  6 23  1  0  0  0  0
  7 12  1  0  0  0  0
  7  8  2  0  0  0  0
  8  9  1  0  0  0  0
  8 24  1  0  0  0  0
  9 10  2  0  0  0  0
  9 25  1  0  0  0  0
 10 11  1  0  0  0  0
 10 26  1  0  0  0  0
 11 12  2  0  0  0  0
 11 27  1  0  0  0  0
 13 19  1  0  0  0  0
 13 14  1  0  0  0  0
 14 15  1  0  0  0  0
 14 28  1  0  0  0  0
 14 29  1  0  0  0  0
 15 16  1  0  0  0  0
 15 30  1  0  0  0  0
 15 31  1  0  0  0  0
 16 17  1  0  0  0  0
 16 32  1  0  0  0  0
 16 33  1  0  0  0  0
 17 18  1  0  0  0  0
 17 34  1  0  0  0  0
 17 35  1  0  0  0  0
 18 19  1  0  0  0  0
 18 36  1  0  0  0  0
 18 37  1  0  0  0  0
 19 38  1  0  0  0  0
 19 39  1  0  0  0  0
M  CHG  1   4  -1
M  END
> <s_m_source_file>
AV-unprocessed.smi

> <i_m_source_file_index>
1327

> <i_lp_mmshare_version>
43012

> <i_f3d_flags>
0

> <s_epik_input>
W0NIMl0xW0NIMl1bQ0gyXVtDSDJdW0NIMl1bQ0gyXU4xUyg9TykoPU8pW05IXVtDSDJdW0NIMl1jMltjSF1bY0hdW2NIXVtjSF1uMg==

> <s_epik_cmdline>
J2VwaWtfcHl0aG9uJywgJy1waCcsICc3LjAnLCAnLXRuJywgJzgnLCAnLW1hJywgJzIwMCcsICctbWV0YWxfYmluZGluZycsICctaW1hZScsICc8aW5maWxlLm1hZT4nLCAnLW9tYWUnLCAnPG91dGZpbGUubWFlPic=

> <r_lp_tautomer_probability>
1

> <r_epik_Ionization_Penalty>
3.18796

> <r_epik_Ionization_Penalty_Charging>
3.10426

> <r_epik_Ionization_Penalty_Neutral>
0.0836926

> <r_epik_State_Penalty>
3.10111

> <r_epik_Charging_Adjusted_Penalty>
6.20538

> <i_epik_Tot_Q>
-1

> <i_epik_Tot_abs_Q>
1

> <r_epik_Metal_State_Penalty>
0.463976

> <b_epik_Metal_Only>
1

> <s_lp_Force_Field>
OPLS_2005

> <r_lp_Energy>
9.11233

> <b_lp_Chiralities_Consistent>
1

> <s_lp_Variant>
AV-unprocessed.smi:1327-2

> <Gold.Version>
5.8.1

> <Gold.Id.Protein>
6NUR|6NUR_protein|mol2

> <Gold.PLP.Fitness>
49.3286

> <Gold.PLP.PLP>
-40.6460

> <Gold.PLP.part.hbond>
-2.2741

> <Gold.PLP.part.metal>
0.0000

> <Gold.PLP.part.buried>
-5.5655

> <Gold.PLP.part.nonpolar>
-33.0634

> <Gold.PLP.part.repulsive>
0.0121

> <Gold.PLP.ligand.clash>
0.0000

> <Gold.PLP.ligand.torsion>
1.7725

> <Gold.PLP.Chemscore.Hbond>
3.0433

> <Gold.PLP.Chemscore.CHOScore>
0.0000

> <Gold.PLP.Chemscore.Metal>
0.0000

> <Gold.Chemscore.Hbonds>
donor molecule, donor type, donor heavy atom, donor atom, acceptor molecule, acceptor atom, score
      P1  H  7997  8009       L1     4  0.40

> <Gold.PLP.Chemscore.Internal.Correction>
3.0978

> <Gold.Rescore>
     Score         DG    S(hbond)    S(metal)    S(lipo)     H(rot)  DE(clash)    DE(int)     intcor
     17.90     -20.65       1.69        0.00     109.24       1.27       0.01       2.74       ----

> <Gold.Chemscore.Fitness>
17.9034

> <Gold.Chemscore.DG>
-20.6516

> <Gold.Chemscore.ZeroCoef>
-5.4800

> <Gold.Chemscore.Hbond>
1.6922

> <Gold.Chemscore.Metal>
0.0000

> <Gold.Chemscore.Lipo>
109.2376

> <Gold.Chemscore.Internal_Hbond>
0.0000

> <Gold.Chemscore.DEClash>
0.0106

> <Gold.Chemscore.DEInternal>
2.7376

> <Gold.Chemscore.Rot>
1.2738

> <Gold.Chemscore.Internal.Correction>
   9.000000E+99

> <Gold.Chemscore.Hbond.Weighted>
-5.6519

> <Gold.Chemscore.Metal.Weighted>
-0.0000

> <Gold.Chemscore.Lipo.Weighted>
-12.7808

> <Gold.Chemscore.Internal_Hbond.Weighted>
0.0000

> <Gold.Chemscore.DEClash.Weighted>
0.0106

> <Gold.Chemscore.DEInternal.Weighted>
2.7376

> <Gold.Chemscore.Rot.Weighted>
3.2610

> <Gold.Chemscore.Internal.Correction.Weighted>
   9.000000E+99

> <Gold.Protein.RotatedTorsions>
[ 6907 6896 6895 6894 ] final -131.52 input  -60.11 | X-H torsion
[ 7974 7965 7964 7962 ] final  -84.49 input  175.53 | X-H torsion
[ 8008 7997 7996 7995 ] final  136.25 input   59.86 | X-H torsion
[ 10167 10162 10161 10158 ] final  -18.38 input  -65.29 | X-H torsion
[ 10718 10713 10712 10709 ] final  165.35 input   66.30 | X-H torsion
[ 10763 10752 10751 10750 ] final   10.46 input  -60.55 | X-H torsion
[ 11005 11000 10999 10996 ] final  158.78 input  -57.11 | X-H torsion

> <Gold.Protein.ActiveResidues>
 VAL166  LYS551  ARG553  GLY616  TRP617  ASP618  TYR619  PRO620  LYS621  CYS622 
 ASP623  PHE694  ASN695  SER759  ASP760  ASP761  ALA762  ILE779  LEU786  VAL792 
 PHE793  MET794  SER795  GLU796  ALA797  LYS798  CYS799  TRP800  GLU811  SER814 

> <Gold.Protein.RotatedAtoms>
  150.9519  133.6540  159.2770 H   0  0  0  0  0  0  0  0  0  0  0  0  # atno 6907 bound_to 6896
  151.3893  135.0952  159.9531 H   0  0  0  0  0  0  0  0  0  0  0  0  # atno 6908 bound_to 6896
  152.5113  133.9037  159.7508 H   0  0  0  0  0  0  0  0  0  0  0  0  # atno 6909 bound_to 6896
  145.5060  140.9543  143.1733 H   0  0  0  0  0  0  0  0  0  0  0  0  # atno 7974 bound_to 7965
  156.3004  140.2450  156.3715 H   0  0  0  0  0  0  0  0  0  0  0  0  # atno 8008 bound_to 7997
  154.8785  140.0413  157.1787 H   0  0  0  0  0  0  0  0  0  0  0  0  # atno 8009 bound_to 7997
  154.8721  140.2936  155.5479 H   0  0  0  0  0  0  0  0  0  0  0  0  # atno 8010 bound_to 7997
  140.7258  143.4922  150.9977 H   0  0  0  0  0  0  0  0  0  0  0  0  # atno 10167 bound_to 10162
  157.0814  131.0393  151.2574 H   0  0  0  0  0  0  0  0  0  0  0  0  # atno 10718 bound_to 10713
  153.2029  135.6858  153.8208 H   0  0  0  0  0  0  0  0  0  0  0  0  # atno 10763 bound_to 10752
  153.7468  135.3230  155.3315 H   0  0  0  0  0  0  0  0  0  0  0  0  # atno 10764 bound_to 10752
  154.8181  135.4671  154.0803 H   0  0  0  0  0  0  0  0  0  0  0  0  # atno 10765 bound_to 10752
  140.1898  134.8415  157.2899 H   0  0  0  0  0  0  0  0  0  0  0  0  # atno 11005 bound_to 11000
  144.7754  139.6642  143.7177 LP  0  0  0  0  0  0  0  0  0  0  0  0  # atno 17320 bound_to 7965
  146.2196  139.5612  142.9627 LP  0  0  0  0  0  0  0  0  0  0  0  0  # atno 17321 bound_to 7965
  139.8627  143.7294  152.3172 LP  0  0  0  0  0  0  0  0  0  0  0  0  # atno 17342 bound_to 10162
  139.7515  144.7533  151.0499 LP  0  0  0  0  0  0  0  0  0  0  0  0  # atno 17343 bound_to 10162
  157.4797  130.7758  149.7402 LP  0  0  0  0  0  0  0  0  0  0  0  0  # atno 17370 bound_to 10713
  155.9923  130.3932  150.2949 LP  0  0  0  0  0  0  0  0  0  0  0  0  # atno 17371 bound_to 10713
  140.2172  134.4067  155.7583 LP  0  0  0  0  0  0  0  0  0  0  0  0  # atno 17394 bound_to 11000
  141.2226  133.7148  156.8433 LP  0  0  0  0  0  0  0  0  0  0  0  0  # atno 17395 bound_to 11000

$$$$
