#       Name:                AV-unprocessed.smi:1327
#       Creating user name   scv26
#       Creation time:       Fri Mar 27 05:05:07 2020


#       File generated by GOLD software.
#

@<TRIPOS>MOLECULE
AV-unprocessed.smi:1327
    41    42     1
SMALL
NO_CHARGES


@<TRIPOS>ATOM
      1 ****         1.7271   2.9103   0.3646 O.2            1 S1                 0.0000
      2 ****         1.2136   1.5850  -0.0178 S.o2           1 S1                 0.0000
      3 ****         1.6880   1.0093  -1.2876 O.2            1 S1                 0.0000
      4 ****         1.2067   0.5354   1.2201 N.pl3          1 S1                -1.0000
      5 ****         2.4413  -0.1290   1.6051 C.3            1 S1                 0.0000
      6 ****         2.3833  -1.6425   1.2818 C.3            1 S1                 0.0000
      7 ****         2.2371  -2.0001  -0.1956 C.ar           1 S1                 0.0000
      8 ****         3.3680  -2.0641  -1.0419 C.ar           1 S1                 0.0000
      9 ****         3.1761  -2.3810  -2.4003 C.ar           1 S1                 0.0000
     10 ****         1.8697  -2.6316  -2.8616 C.ar           1 S1                 0.0000
     11 ****         0.8085  -2.5564  -1.9386 C.ar           1 S1                 0.0000
     12 ****         0.9807  -2.2557  -0.6345 N.ar           1 S1                 0.0000
     13 ****        -0.5132   1.7512  -0.1674 N.pl3          1 S1                 0.0000
     14 ****        -1.1970   2.6108   0.8255 C.3            1 S1                 0.0000
     15 ****        -2.7348   2.6544   0.7266 C.3            1 S1                 0.0000
     16 ****        -3.4299   1.4502   1.3811 C.3            1 S1                 0.0000
     17 ****        -3.3962   0.1772   0.5291 C.3            1 S1                 0.0000
     18 ****        -1.9797  -0.2806   0.1602 C.3            1 S1                 0.0000
     19 ****        -1.2765   0.6686  -0.8273 C.3            1 S1                 0.0000
     20 ****         3.3159   0.3076   1.1210 H              1 S1                 0.0000
     21 ****         2.6193  -0.0159   2.6747 H              1 S1                 0.0000
     22 ****         3.2922  -2.1172   1.6526 H              1 S1                 0.0000
     23 ****         1.5655  -2.1016   1.8398 H              1 S1                 0.0000
     24 ****         4.3573  -1.8587  -0.6603 H              1 S1                 0.0000
     25 ****         4.0161  -2.4279  -3.0771 H              1 S1                 0.0000
     26 ****         1.6849  -2.8742  -3.8973 H              1 S1                 0.0000
     27 ****        -0.2070  -2.7418  -2.2556 H              1 S1                 0.0000
     28 ****        -0.9008   2.3044   1.8295 H              1 S1                 0.0000
     29 ****        -0.8149   3.6239   0.6994 H              1 S1                 0.0000
     30 ****        -3.0660   3.5453   1.2609 H              1 S1                 0.0000
     31 ****        -3.0667   2.7969  -0.3023 H              1 S1                 0.0000
     32 ****        -2.9915   1.2545   2.3606 H              1 S1                 0.0000
     33 ****        -4.4733   1.7065   1.5678 H              1 S1                 0.0000
     34 ****        -3.8944  -0.6225   1.0778 H              1 S1                 0.0000
     35 ****        -3.9815   0.3265  -0.3788 H              1 S1                 0.0000
     36 ****        -1.3781  -0.4408   1.0548 H              1 S1                 0.0000
     37 ****        -2.0624  -1.2583  -0.3151 H              1 S1                 0.0000
     38 ****        -1.9906   1.1009  -1.5281 H              1 S1                 0.0000
     39 ****        -0.5981   0.0828  -1.4451 H              1 S1                 0.0000
     40 ****         0.3585   0.3468   1.7150 LP             1 S1                 0.0000
     41 ****         0.2017  -2.2224  -0.0084 LP             1 S1                 0.0000
@<TRIPOS>BOND
    1    1    2 2     
    2    2    3 2     
    3    2    4 1     
    4    2   13 1     
    5    4    5 1     
    6    5    6 1     
    7    5   20 1     
    8    5   21 1     
    9    6    7 1     
   10    6   22 1     
   11    6   23 1     
   12    7   12 ar    
   13    7    8 ar    
   14    8    9 ar    
   15    8   24 1     
   16    9   10 ar    
   17    9   25 1     
   18   10   11 ar    
   19   10   26 1     
   20   11   12 ar    
   21   11   27 1     
   22   13   19 1     
   23   13   14 1     
   24   14   15 1     
   25   14   28 1     
   26   14   29 1     
   27   15   16 1     
   28   15   30 1     
   29   15   31 1     
   30   16   17 1     
   31   16   32 1     
   32   16   33 1     
   33   17   18 1     
   34   17   34 1     
   35   17   35 1     
   36   18   19 1     
   37   18   36 1     
   38   18   37 1     
   39   19   38 1     
   40   19   39 1     
   41    4   40 1     
   42   12   41 1     
@<TRIPOS>SUBSTRUCTURE
      1 S1             1
@<TRIPOS>SET
LONE_PAIRS      STATIC     ATOMS    <user>   **** ""
4 1 3 40 41
ATOM$BLUE        STATIC     ATOMS    COLORGROUP SYSTEM
4 1 3 40 41
