#       Name:                AV-unprocessed.smi:1005
#       Creating user name   scv26
#       Creation time:       Fri Mar 27 02:27:08 2020


#       File generated by GOLD software.
#

@<TRIPOS>MOLECULE
AV-unprocessed.smi:1005
    62    64     1
SMALL
NO_CHARGES


@<TRIPOS>ATOM
      1 ****        -6.5363   3.4508   3.0859 C.3            1 S1                 0.0000
      2 ****        -5.4688   3.1251   2.0560 C.ar           1 S1                 0.0000
      3 ****        -5.8631   2.6620   0.7804 C.ar           1 S1                 0.0000
      4 ****        -4.9019   2.3461  -0.2042 C.ar           1 S1                 0.0000
      5 ****        -5.0601   1.8812  -1.4986 N.2            1 S1                 0.0000
      6 ****        -3.7979   1.7792  -1.9033 C.2            1 S1                 0.0000
      7 ****        -2.8380   2.1187  -1.0214 N.pl3          1 S1                 0.0000
      8 ****        -1.4024   2.0804  -1.2362 C.3            1 S1                 0.0000
      9 ****        -0.8163   0.6708  -1.0300 C.3            1 S1                 0.0000
     10 ****        -1.0687   0.2453   0.2960 O.3            1 S1                 0.0000
     11 ****         0.7056   0.6419  -1.2703 C.3            1 S1                 0.0000
     12 ****         1.2625  -0.7330  -1.1982 N.4            1 S1                 1.0000
     13 ****         1.0323  -1.5331  -2.4258 C.3            1 S1                 0.0000
     14 ****         1.5905  -2.9539  -2.2476 C.3            1 S1                 0.0000
     15 ****         2.9730  -2.8846  -1.9194 O.3            1 S1                 0.0000
     16 ****         3.2077  -2.2005  -0.6923 C.3            1 S1                 0.0000
     17 ****         4.7200  -2.2452  -0.4009 C.3            1 S1                 0.0000
     18 ****         5.2311  -3.6249  -0.1930 N.4            1 S1                 1.0000
     19 ****         4.8519  -4.2050   1.1165 C.3            1 S1                 0.0000
     20 ****         6.6907  -3.7155  -0.4206 C.3            1 S1                 0.0000
     21 ****         2.6991  -0.7511  -0.8335 C.3            1 S1                 0.0000
     22 ****        -3.5240   2.5070   0.1246 C.ar           1 S1                 0.0000
     23 ****        -3.1192   2.9678   1.3897 C.ar           1 S1                 0.0000
     24 ****        -4.0927   3.2799   2.3616 C.ar           1 S1                 0.0000
     25 ****        -3.6457   3.7787   3.7241 C.3            1 S1                 0.0000
     26 ****        -7.5372   3.2682   2.6938 H              1 S1                 0.0000
     27 ****        -6.4777   4.4994   3.3785 H              1 S1                 0.0000
     28 ****        -6.4089   2.8345   3.9761 H              1 S1                 0.0000
     29 ****        -6.9112   2.5442   0.5473 H              1 S1                 0.0000
     30 ****        -3.5558   1.4325  -2.8976 H              1 S1                 0.0000
     31 ****        -1.2019   2.4266  -2.2512 H              1 S1                 0.0000
     32 ****        -0.9279   2.7971  -0.5646 H              1 S1                 0.0000
     33 ****        -1.3218  -0.0150  -1.7095 H              1 S1                 0.0000
     34 ****        -1.9993   0.2990   0.4566 H              1 S1                 0.0000
     35 ****         0.9511   1.0810  -2.2386 H              1 S1                 0.0000
     36 ****         1.1853   1.2741  -0.5211 H              1 S1                 0.0000
     37 ****        -0.0315  -1.5884  -2.6543 H              1 S1                 0.0000
     38 ****         1.5164  -1.0489  -3.2757 H              1 S1                 0.0000
     39 ****         1.0445  -3.4939  -1.4722 H              1 S1                 0.0000
     40 ****         1.4751  -3.5207  -3.1716 H              1 S1                 0.0000
     41 ****         2.6559  -2.6899   0.1109 H              1 S1                 0.0000
     42 ****         5.2423  -1.7897  -1.2439 H              1 S1                 0.0000
     43 ****         4.9605  -1.6365   0.4723 H              1 S1                 0.0000
     44 ****         5.2578  -3.6143   1.9390 H              1 S1                 0.0000
     45 ****         5.2362  -5.2215   1.2098 H              1 S1                 0.0000
     46 ****         3.7706  -4.2597   1.2352 H              1 S1                 0.0000
     47 ****         7.2375  -3.1074   0.3013 H              1 S1                 0.0000
     48 ****         6.9500  -3.3736  -1.4232 H              1 S1                 0.0000
     49 ****         7.0329  -4.7470  -0.3278 H              1 S1                 0.0000
     50 ****         3.2731  -0.2180  -1.5935 H              1 S1                 0.0000
     51 ****         2.8434  -0.2208   0.1088 H              1 S1                 0.0000
     52 ****        -2.0681   3.0799   1.6110 H              1 S1                 0.0000
     53 ****        -2.5590   3.8413   3.7881 H              1 S1                 0.0000
     54 ****        -3.9887   3.1050   4.5095 H              1 S1                 0.0000
     55 ****        -4.0499   4.7723   3.9185 H              1 S1                 0.0000
     56 ****         4.8047  -4.2015  -0.9047 H              1 S1                 0.0000
     57 ****         0.7720  -1.1937  -0.4441 H              1 S1                 0.0000
     58 ****        -5.9020   1.6761  -1.9977 LP             1 S1                 0.0000
     59 ****        -0.5809   0.8362   0.9384 LP             1 S1                 0.0000
     60 ****        -0.7604  -0.6990   0.4116 LP             1 S1                 0.0000
     61 ****         3.4530  -2.4027  -2.6524 LP             1 S1                 0.0000
     62 ****         3.3314  -3.8150  -1.8418 LP             1 S1                 0.0000
@<TRIPOS>BOND
    1    1    2 1     
    2    1   26 1     
    3    1   27 1     
    4    1   28 1     
    5    2   24 ar    
    6    2    3 ar    
    7    3    4 ar    
    8    3   29 1     
    9    4   22 ar    
   10    4    5 1     
   11    5    6 2     
   12    6    7 1     
   13    6   30 1     
   14    7    8 1     
   15    7   22 1     
   16    8    9 1     
   17    8   31 1     
   18    8   32 1     
   19    9   10 1     
   20    9   11 1     
   21    9   33 1     
   22   10   34 1     
   23   11   12 1     
   24   11   35 1     
   25   11   36 1     
   26   12   21 1     
   27   12   13 1     
   28   12   57 1     
   29   13   14 1     
   30   13   37 1     
   31   13   38 1     
   32   14   15 1     
   33   14   39 1     
   34   14   40 1     
   35   15   16 1     
   36   16   17 1     
   37   16   21 1     
   38   16   41 1     
   39   17   18 1     
   40   17   42 1     
   41   17   43 1     
   42   18   19 1     
   43   18   20 1     
   44   18   56 1     
   45   19   44 1     
   46   19   45 1     
   47   19   46 1     
   48   20   47 1     
   49   20   48 1     
   50   20   49 1     
   51   21   50 1     
   52   21   51 1     
   53   22   23 ar    
   54   23   24 ar    
   55   23   52 1     
   56   24   25 1     
   57   25   53 1     
   58   25   54 1     
   59   25   55 1     
   60    5   58 1     
   61   10   59 1     
   62   10   60 1     
   63   15   61 1     
   64   15   62 1     
@<TRIPOS>SUBSTRUCTURE
      1 S1             1
@<TRIPOS>SET
LONE_PAIRS      STATIC     ATOMS    <user>   **** ""
5 58 59 60 61 62
DONOR_HYDROGENS      STATIC     ATOMS    <user>   **** ""
3 34 57 56
ATOM$BLUE        STATIC     ATOMS    COLORGROUP SYSTEM
5 58 59 60 61 62
ATOM$RED        STATIC     ATOMS    COLORGROUP SYSTEM
3 34 57 56
