AV-unprocessed.smi:1207|AV-procd|sdf|5060|dock5
  -GOLD-   22720 4103D 1   1.00000     0.00000
 Structure written by MMmdl.
 53 55  0  0  0  0  0  0  0  0  3 V2000
  152.0479  143.3619  160.3047 C   0  0  0  0  0  0  0  0  0  0  0  0
  151.7433  142.5237  159.0748 C   0  0  0  0  0  0  0  0  0  0  0  0
  150.8234  143.0259  158.1272 C   0  0  0  0  0  0  0  0  0  0  0  0
  150.5653  142.2363  157.0131 C   0  0  0  0  0  0  0  0  0  0  0  0
  149.7227  142.4474  155.9200 N   0  3  0  0  0  0  0  0  0  0  0  0
  149.8012  141.3844  155.0727 C   0  0  0  0  0  0  0  0  0  0  0  0
  150.6783  140.4939  155.6111 N   0  0  0  0  0  0  0  0  0  0  0  0
  151.1207  139.1896  155.0971 C   0  0  0  0  0  0  0  0  0  0  0  0
  149.9542  138.2278  154.7876 C   0  0  1  0  0  0  0  0  0  0  0  0
  149.5709  138.4615  153.4471 O   0  0  0  0  0  0  0  0  0  0  0  0
  150.3195  136.7361  154.9665 C   0  0  0  0  0  0  0  0  0  0  0  0
  149.1785  135.8019  154.7518 N   0  3  2  0  0  0  0  0  0  0  0  0
  148.0823  135.9848  155.7335 C   0  0  0  0  0  0  0  0  0  0  0  0
  149.5945  134.3768  154.6734 C   0  0  0  0  0  0  0  0  0  0  0  0
  148.4227  133.4327  154.7669 C   0  0  0  0  0  0  0  0  0  0  0  0
  147.9621  132.7213  155.9121 C   0  0  0  0  0  0  0  0  0  0  0  0
  148.5176  132.7395  157.3075 C   0  0  0  0  0  0  0  0  0  0  0  0
  146.9138  131.9657  155.6350 N   0  0  0  0  0  0  0  0  0  0  0  0
  146.6412  132.1709  154.2789 O   0  0  0  0  0  0  0  0  0  0  0  0
  147.5501  133.0493  153.7855 C   0  0  0  0  0  0  0  0  0  0  0  0
  147.4253  133.3938  152.3400 C   0  0  0  0  0  0  0  0  0  0  0  0
  151.1859  140.9864  156.8209 C   0  0  0  0  0  0  0  0  0  0  0  0
  152.0958  140.4777  157.7460 C   0  0  0  0  0  0  0  0  0  0  0  0
  152.3707  141.2651  158.8868 C   0  0  0  0  0  0  0  0  0  0  0  0
  153.3571  140.7332  159.9126 C   0  0  0  0  0  0  0  0  0  0  0  0
  151.5313  144.3217  160.2712 H   0  0  0  0  0  0  0  0  0  0  0  0
  153.1169  143.5628  160.3783 H   0  0  0  0  0  0  0  0  0  0  0  0
  151.7293  142.8427  161.2089 H   0  0  0  0  0  0  0  0  0  0  0  0
  150.3419  143.9834  158.2641 H   0  0  0  0  0  0  0  0  0  0  0  0
  149.2645  141.2694  154.1417 H   0  0  0  0  0  0  0  0  0  0  0  0
  151.6953  139.3803  154.1895 H   0  0  0  0  0  0  0  0  0  0  0  0
  151.8193  138.7445  155.8054 H   0  0  0  0  0  0  0  0  0  0  0  0
  149.1200  138.4945  155.4357 H   0  0  0  0  0  0  0  0  0  0  0  0
  149.2335  137.6601  153.0780 H   0  0  0  0  0  0  0  0  0  0  0  0
  151.1213  136.5128  154.2639 H   0  0  0  0  0  0  0  0  0  0  0  0
  150.7274  136.5574  155.9620 H   0  0  0  0  0  0  0  0  0  0  0  0
  148.4385  135.8219  156.7515 H   0  0  0  0  0  0  0  0  0  0  0  0
  147.2703  135.2826  155.5426 H   0  0  0  0  0  0  0  0  0  0  0  0
  147.6513  136.9831  155.6751 H   0  0  0  0  0  0  0  0  0  0  0  0
  150.1551  134.2230  153.7504 H   0  0  0  0  0  0  0  0  0  0  0  0
  150.2949  134.1668  155.4828 H   0  0  0  0  0  0  0  0  0  0  0  0
  149.5667  132.4454  157.3144 H   0  0  0  0  0  0  0  0  0  0  0  0
  147.9778  132.0595  157.9672 H   0  0  0  0  0  0  0  0  0  0  0  0
  148.4514  133.7381  157.7387 H   0  0  0  0  0  0  0  0  0  0  0  0
  148.1656  134.1385  152.0478 H   0  0  0  0  0  0  0  0  0  0  0  0
  146.4367  133.7989  152.1233 H   0  0  0  0  0  0  0  0  0  0  0  0
  147.5723  132.5101  151.7191 H   0  0  0  0  0  0  0  0  0  0  0  0
  152.5764  139.5204  157.6096 H   0  0  0  0  0  0  0  0  0  0  0  0
  153.6917  139.7263  159.6606 H   0  0  0  0  0  0  0  0  0  0  0  0
  152.8996  140.6920  160.9012 H   0  0  0  0  0  0  0  0  0  0  0  0
  154.2369  141.3749  159.9650 H   0  0  0  0  0  0  0  0  0  0  0  0
  148.7926  136.0258  153.8457 H   0  0  0  0  0  0  0  0  0  0  0  0
  149.1394  143.2590  155.7593 H   0  0  0  0  0  0  0  0  0  0  0  0
  1  2  1  0  0  0  0
  1 26  1  0  0  0  0
  1 27  1  0  0  0  0
  1 28  1  0  0  0  0
  2 24  1  0  0  0  0
  2  3  2  0  0  0  0
  3  4  1  0  0  0  0
  3 29  1  0  0  0  0
  4 22  2  0  0  0  0
  4  5  1  0  0  0  0
  5  6  2  0  0  0  0
  5 53  1  0  0  0  0
  6  7  1  0  0  0  0
  6 30  1  0  0  0  0
  7  8  1  0  0  0  0
  7 22  1  0  0  0  0
  8  9  1  0  0  0  0
  8 31  1  0  0  0  0
  8 32  1  0  0  0  0
  9 10  1  0  0  0  0
  9 11  1  0  0  0  0
  9 33  1  0  0  0  0
 10 34  1  0  0  0  0
 11 12  1  0  0  0  0
 11 35  1  0  0  0  0
 11 36  1  0  0  0  0
 12 13  1  0  0  0  0
 12 14  1  0  0  0  0
 12 52  1  0  0  0  0
 13 37  1  0  0  0  0
 13 38  1  0  0  0  0
 13 39  1  0  0  0  0
 14 15  1  0  0  0  0
 14 40  1  0  0  0  0
 14 41  1  0  0  0  0
 15 20  2  0  0  0  0
 15 16  1  0  0  0  0
 16 17  1  0  0  0  0
 16 18  2  0  0  0  0
 17 42  1  0  0  0  0
 17 43  1  0  0  0  0
 17 44  1  0  0  0  0
 18 19  1  0  0  0  0
 19 20  1  0  0  0  0
 20 21  1  0  0  0  0
 21 45  1  0  0  0  0
 21 46  1  0  0  0  0
 21 47  1  0  0  0  0
 22 23  1  0  0  0  0
 23 24  2  0  0  0  0
 23 48  1  0  0  0  0
 24 25  1  0  0  0  0
 25 49  1  0  0  0  0
 25 50  1  0  0  0  0
 25 51  1  0  0  0  0
M  CHG  1   5   1
M  CHG  1  12   1
M  END
> <s_m_source_file>
AV-unprocessed.smi

> <i_m_source_file_index>
1207

> <i_lp_mmshare_version>
43012

> <i_f3d_flags>
0

> <s_epik_input>
W0NIM11jKFtjSF0xKWMoW0NIM10pW2NIXWMoYzEyKW4oW2NIXW4yKVtDSDJdW0NASF0oW09IXSlbQ0gyXU4oW0NIM10pW0NIMl1jM2MoW0NIM10pbm9jM1tDSDNd

> <s_epik_cmdline>
J2VwaWtfcHl0aG9uJywgJy1waCcsICc3LjAnLCAnLXRuJywgJzgnLCAnLW1hJywgJzIwMCcsICctbWV0YWxfYmluZGluZycsICctaW1hZScsICc8aW5maWxlLm1hZT4nLCAnLW9tYWUnLCAnPG91dGZpbGUubWFlPic=

> <r_epik_Ionization_Penalty>
1.77463

> <r_epik_Ionization_Penalty_Charging>
1.77463

> <r_epik_Ionization_Penalty_Neutral>
3.70885e-06

> <r_epik_State_Penalty>
1.85225

> <r_epik_Charging_Adjusted_Penalty>
3.62688

> <i_epik_Tot_Q>
2

> <i_epik_Tot_abs_Q>
2

> <r_epik_Metal_State_Penalty>
1.92674

> <b_epik_Metal_Only>
0

> <s_lp_Force_Field>
OPLS_2005

> <r_lp_Energy>
19.6609

> <b_lp_Chiralities_Consistent>
1

> <s_lp_Variant>
AV-unprocessed.smi:1207-12

> <Gold.Version>
5.8.1

> <Gold.Id.Protein>
6NUR|6NUR_protein|mol2

> <Gold.PLP.Fitness>
58.7225

> <Gold.PLP.PLP>
-45.3184

> <Gold.PLP.part.hbond>
-3.9130

> <Gold.PLP.part.metal>
0.0000

> <Gold.PLP.part.buried>
-3.5611

> <Gold.PLP.part.nonpolar>
-37.6446

> <Gold.PLP.part.repulsive>
0.2444

> <Gold.PLP.ligand.clash>
0.0000

> <Gold.PLP.ligand.torsion>
0.8909

> <Gold.PLP.Chemscore.Hbond>
5.0000

> <Gold.PLP.Chemscore.CHOScore>
0.0000

> <Gold.PLP.Chemscore.Metal>
0.0000

> <Gold.Chemscore.Hbonds>
donor molecule, donor type, donor heavy atom, donor atom, acceptor molecule, acceptor atom, score
      L1  H     5    53       P1  8028  1.76
      L1  H    10    34       P1  7948  1.00
      L1  H    12    52       P1  7948  2.00

> <Gold.PLP.Chemscore.Internal.Correction>
0.1859

> <Gold.Rescore>
     Score         DG    S(hbond)    S(metal)    S(lipo)     H(rot)  DE(clash)    DE(int)     intcor
     21.15     -22.42       2.86        0.00     118.60       2.54       0.28       0.99       ----

> <Gold.Chemscore.Fitness>
21.1466

> <Gold.Chemscore.DG>
-22.4179

> <Gold.Chemscore.ZeroCoef>
-5.4800

> <Gold.Chemscore.Hbond>
2.8597

> <Gold.Chemscore.Metal>
0.0000

> <Gold.Chemscore.Lipo>
118.6023

> <Gold.Chemscore.Internal_Hbond>
0.0000

> <Gold.Chemscore.DEClash>
0.2777

> <Gold.Chemscore.DEInternal>
0.9936

> <Gold.Chemscore.Rot>
2.5351

> <Gold.Chemscore.Internal.Correction>
   9.000000E+99

> <Gold.Chemscore.Hbonds>
donor molecule, donor type, donor heavy atom, donor atom, acceptor molecule, acceptor atom, score
      L1  H     5    53       P1  8028  0.83
      L1  H    10    34       P1  7948  0.98
      L1  H    12    52       P1  7948  0.92

> <Gold.Chemscore.Hbond.Weighted>
-9.5514

> <Gold.Chemscore.Metal.Weighted>
-0.0000

> <Gold.Chemscore.Lipo.Weighted>
-13.8765

> <Gold.Chemscore.Internal_Hbond.Weighted>
0.0000

> <Gold.Chemscore.DEClash.Weighted>
0.2777

> <Gold.Chemscore.DEInternal.Weighted>
0.9936

> <Gold.Chemscore.Rot.Weighted>
6.4900

> <Gold.Chemscore.Internal.Correction.Weighted>
   9.000000E+99

> <Gold.Protein.RotatedTorsions>
[ 6907 6896 6895 6894 ] final   45.14 input  -60.11 | X-H torsion
[ 7974 7965 7964 7962 ] final -104.52 input  175.53 | X-H torsion
[ 8008 7997 7996 7995 ] final   64.38 input   59.86 | X-H torsion
[ 10167 10162 10161 10158 ] final -119.61 input  -65.29 | X-H torsion
[ 10718 10713 10712 10709 ] final -135.51 input   66.30 | X-H torsion
[ 10763 10752 10751 10750 ] final  169.83 input  -60.55 | X-H torsion
[ 11005 11000 10999 10996 ] final  -64.52 input  -57.11 | X-H torsion

> <Gold.Protein.ActiveResidues>
 VAL166  LYS551  ARG553  GLY616  TRP617  ASP618  TYR619  PRO620  LYS621  CYS622 
 ASP623  PHE694  ASN695  SER759  ASP760  ASP761  ALA762  ILE779  LEU786  VAL792 
 PHE793  MET794  SER795  GLU796  ALA797  LYS798  CYS799  TRP800  GLU811  SER814 

> <Gold.Protein.RotatedAtoms>
  152.2410  134.8229  160.0460 H   0  0  0  0  0  0  0  0  0  0  0  0  # atno 6907 bound_to 6896
  151.8943  133.3518  159.3817 H   0  0  0  0  0  0  0  0  0  0  0  0  # atno 6908 bound_to 6896
  150.7053  134.4818  159.5518 H   0  0  0  0  0  0  0  0  0  0  0  0  # atno 6909 bound_to 6896
  145.2421  140.9208  143.3144 H   0  0  0  0  0  0  0  0  0  0  0  0  # atno 7974 bound_to 7965
  155.6451  140.3497  155.4728 H   0  0  0  0  0  0  0  0  0  0  0  0  # atno 8008 bound_to 7997
  155.9894  140.1190  157.0676 H   0  0  0  0  0  0  0  0  0  0  0  0  # atno 8009 bound_to 7997
  154.4214  140.1122  156.5531 H   0  0  0  0  0  0  0  0  0  0  0  0  # atno 8010 bound_to 7997
  140.0448  143.5118  152.2112 H   0  0  0  0  0  0  0  0  0  0  0  0  # atno 10167 bound_to 10162
  156.2669  130.7243  151.1197 H   0  0  0  0  0  0  0  0  0  0  0  0  # atno 10718 bound_to 10713
  154.3889  135.2754  155.2167 H   0  0  0  0  0  0  0  0  0  0  0  0  # atno 10763 bound_to 10752
  154.4241  135.5993  153.6032 H   0  0  0  0  0  0  0  0  0  0  0  0  # atno 10764 bound_to 10752
  152.9832  135.5980  154.4141 H   0  0  0  0  0  0  0  0  0  0  0  0  # atno 10765 bound_to 10752
  141.1427  133.6667  156.5846 H   0  0  0  0  0  0  0  0  0  0  0  0  # atno 11005 bound_to 11000
  144.9580  139.4011  143.6370 LP  0  0  0  0  0  0  0  0  0  0  0  0  # atno 17320 bound_to 7965
  146.3326  139.8619  142.8855 LP  0  0  0  0  0  0  0  0  0  0  0  0  # atno 17321 bound_to 7965
  139.5991  144.7577  151.3215 LP  0  0  0  0  0  0  0  0  0  0  0  0  # atno 17342 bound_to 10162
  140.7244  143.7046  150.7818 LP  0  0  0  0  0  0  0  0  0  0  0  0  # atno 17343 bound_to 10162
  157.7270  131.0642  150.5882 LP  0  0  0  0  0  0  0  0  0  0  0  0  # atno 17370 bound_to 10713
  156.5975  130.4345  149.5911 LP  0  0  0  0  0  0  0  0  0  0  0  0  # atno 17371 bound_to 10713
  140.3811  134.7522  157.4661 LP  0  0  0  0  0  0  0  0  0  0  0  0  # atno 17394 bound_to 11000
  140.0637  134.5960  155.8719 LP  0  0  0  0  0  0  0  0  0  0  0  0  # atno 17395 bound_to 11000

$$$$
