AV-unprocessed.smi:2042|AV-procd|sdf|8294|dock5
  -GOLD-   2272010563D 1   1.00000     0.00000
 Structure written by MMmdl.
 30 31  0  0  0  0  0  0  0  0  1 V2000
  146.6320  133.6022  153.3789 O   0  0  0  0  0  0  0  0  0  0  0  0
  147.3463  132.8180  152.7587 C   0  0  0  0  0  0  0  0  0  0  0  0
  147.0697  132.3299  151.5332 N   0  0  0  0  0  0  0  0  0  0  0  0
  145.9199  132.5422  150.7248 C   0  0  0  0  0  0  0  0  0  0  0  0
  144.7195  133.1417  151.1782 C   0  0  0  0  0  0  0  0  0  0  0  0
  143.6441  133.2754  150.2787 C   0  0  0  0  0  0  0  0  0  0  0  0
  143.8042  132.8007  148.9626 C   0  0  0  0  0  0  0  0  0  0  0  0
  144.9376  132.2171  148.5200 N   0  0  0  0  0  0  0  0  0  0  0  0
  145.9639  132.0916  149.3883 C   0  0  0  0  0  0  0  0  0  0  0  0
  148.5188  132.3989  153.2680 N   0  0  0  0  0  0  0  0  0  0  0  0
  149.1192  132.7322  154.5607 C   0  0  2  0  0  0  0  0  0  0  0  0
  150.1977  133.8204  154.4029 C   0  0  0  0  0  0  0  0  0  0  0  0
  151.0316  133.8771  155.6889 C   0  0  0  0  0  0  0  0  0  0  0  0
  151.0377  132.1735  156.3659 S   0  0  0  0  0  0  0  0  0  0  0  0
  152.3326  131.5349  156.0854 O   0  0  0  0  0  0  0  0  0  0  0  0
  150.4860  132.2008  157.7290 O   0  0  0  0  0  0  0  0  0  0  0  0
  149.7795  131.5068  155.2133 C   0  0  0  0  0  0  0  0  0  0  0  0
  147.7921  131.7640  151.1126 H   0  0  0  0  0  0  0  0  0  0  0  0
  144.5936  133.4872  152.1922 H   0  0  0  0  0  0  0  0  0  0  0  0
  142.7152  133.7278  150.5928 H   0  0  0  0  0  0  0  0  0  0  0  0
  142.9984  132.8869  148.2486 H   0  0  0  0  0  0  0  0  0  0  0  0
  146.8530  131.6161  149.0002 H   0  0  0  0  0  0  0  0  0  0  0  0
  149.0703  131.7959  152.6746 H   0  0  0  0  0  0  0  0  0  0  0  0
  148.3595  133.1267  155.2381 H   0  0  0  0  0  0  0  0  0  0  0  0
  150.8557  133.5574  153.5733 H   0  0  0  0  0  0  0  0  0  0  0  0
  149.7623  134.7919  154.1665 H   0  0  0  0  0  0  0  0  0  0  0  0
  152.0521  134.2210  155.5200 H   0  0  0  0  0  0  0  0  0  0  0  0
  150.5617  134.5291  156.4256 H   0  0  0  0  0  0  0  0  0  0  0  0
  149.0751  130.8739  155.7532 H   0  0  0  0  0  0  0  0  0  0  0  0
  150.2985  130.8966  154.4729 H   0  0  0  0  0  0  0  0  0  0  0  0
  1  2  2  0  0  0  0
  2  3  1  0  0  0  0
  2 10  1  0  0  0  0
  3  4  1  0  0  0  0
  3 18  1  0  0  0  0
  4  9  1  0  0  0  0
  4  5  2  0  0  0  0
  5  6  1  0  0  0  0
  5 19  1  0  0  0  0
  6  7  2  0  0  0  0
  6 20  1  0  0  0  0
  7  8  1  0  0  0  0
  7 21  1  0  0  0  0
  8  9  2  0  0  0  0
  9 22  1  0  0  0  0
 10 11  1  0  0  0  0
 10 23  1  0  0  0  0
 11 17  1  0  0  0  0
 11 12  1  0  0  0  0
 11 24  1  0  0  0  0
 12 13  1  0  0  0  0
 12 25  1  0  0  0  0
 12 26  1  0  0  0  0
 13 14  1  0  0  0  0
 13 27  1  0  0  0  0
 13 28  1  0  0  0  0
 14 15  2  0  0  0  0
 14 16  2  0  0  0  0
 14 17  1  0  0  0  0
 17 29  1  0  0  0  0
 17 30  1  0  0  0  0
M  END
> <s_m_source_file>
AV-unprocessed.smi

> <i_m_source_file_index>
2042

> <i_lp_mmshare_version>
43012

> <i_f3d_flags>
0

> <s_epik_input>
Tz1TMSg9TylbQ0gyXVtDSDJdW0NASF0oW0NIMl0xKVtOSF1DKD1PKVtOSF1jMltjSF1bY0hdW2NIXW5bY0hdMg==

> <s_epik_cmdline>
J2VwaWtfcHl0aG9uJywgJy1waCcsICc3LjAnLCAnLXRuJywgJzgnLCAnLW1hJywgJzIwMCcsICctbWV0YWxfYmluZGluZycsICctaW1hZScsICc8aW5maWxlLm1hZT4nLCAnLW9tYWUnLCAnPG91dGZpbGUubWFlPic=

> <r_epik_Ionization_Penalty>
0.00421056

> <r_epik_Ionization_Penalty_Charging>
0

> <r_epik_Ionization_Penalty_Neutral>
0.00421056

> <r_epik_State_Penalty>
0.00300625

> <r_epik_Charging_Adjusted_Penalty>
0.00300625

> <i_epik_Tot_Q>
0

> <i_epik_Tot_abs_Q>
0

> <r_epik_Metal_State_Penalty>
-0

> <b_epik_Metal_Only>
0

> <s_lp_Force_Field>
OPLS_2005

> <r_lp_Energy>
18.6302

> <b_lp_Chiralities_Consistent>
1

> <s_lp_Variant>
AV-unprocessed.smi:2042-1

> <Gold.Version>
5.8.1

> <Gold.Id.Protein>
6NUR|6NUR_protein|mol2

> <Gold.PLP.Fitness>
40.9908

> <Gold.PLP.PLP>
-31.5213

> <Gold.PLP.part.hbond>
-3.6826

> <Gold.PLP.part.metal>
0.0000

> <Gold.PLP.part.buried>
-2.5102

> <Gold.PLP.part.nonpolar>
-24.1714

> <Gold.PLP.part.repulsive>
1.1000

> <Gold.PLP.ligand.clash>
0.0000

> <Gold.PLP.ligand.torsion>
0.3018

> <Gold.PLP.Chemscore.Hbond>
2.0000

> <Gold.PLP.Chemscore.CHOScore>
1.3575

> <Gold.PLP.Chemscore.Metal>
0.0000

> <Gold.Chemscore.Hbonds>
donor molecule, donor type, donor heavy atom, donor atom, acceptor molecule, acceptor atom, score
      L1  H     3    18       P1 10747  1.00
      P1  H  6896  6907       L1    16  0.98
      L1  C     7    21       P1 10186  0.15
      L1  C     9    22       P1 10747  0.93

> <Gold.PLP.Chemscore.Internal.Correction>
0.0005

> <Gold.Rescore>
     Score         DG    S(hbond)    S(metal)    S(lipo)     H(rot)  DE(clash)    DE(int)     intcor
     16.15     -18.23       2.00        0.00      73.79       1.00       0.62       1.46       ----

> <Gold.Chemscore.Fitness>
16.1506

> <Gold.Chemscore.DG>
-18.2308

> <Gold.Chemscore.ZeroCoef>
-5.4800

> <Gold.Chemscore.Hbond>
1.9991

> <Gold.Chemscore.Metal>
0.0000

> <Gold.Chemscore.Lipo>
73.7924

> <Gold.Chemscore.Internal_Hbond>
0.0000

> <Gold.Chemscore.DEClash>
0.6240

> <Gold.Chemscore.DEInternal>
1.4563

> <Gold.Chemscore.Rot>
1.0000

> <Gold.Chemscore.Internal.Correction>
   9.000000E+99

> <Gold.Chemscore.Hbonds>
donor molecule, donor type, donor heavy atom, donor atom, acceptor molecule, acceptor atom, score
      L1  H     3    18       P1 10747  1.00
      P1  H  6896  6907       L1    16  0.92

> <Gold.Chemscore.Hbond.Weighted>
-6.6771

> <Gold.Chemscore.Metal.Weighted>
-0.0000

> <Gold.Chemscore.Lipo.Weighted>
-8.6337

> <Gold.Chemscore.Internal_Hbond.Weighted>
0.0000

> <Gold.Chemscore.DEClash.Weighted>
0.6240

> <Gold.Chemscore.DEInternal.Weighted>
1.4563

> <Gold.Chemscore.Rot.Weighted>
2.5600

> <Gold.Chemscore.Internal.Correction.Weighted>
   9.000000E+99

> <Gold.Protein.RotatedTorsions>
[ 6907 6896 6895 6894 ] final -148.35 input  -60.11 | X-H torsion
[ 7974 7965 7964 7962 ] final  156.24 input  175.53 | X-H torsion
[ 8008 7997 7996 7995 ] final  -27.49 input   59.86 | X-H torsion
[ 10167 10162 10161 10158 ] final  128.68 input  -65.29 | X-H torsion
[ 10718 10713 10712 10709 ] final  -35.04 input   66.30 | X-H torsion
[ 10763 10752 10751 10750 ] final  -99.02 input  -60.55 | X-H torsion
[ 11005 11000 10999 10996 ] final  -41.66 input  -57.11 | X-H torsion

> <Gold.Protein.ActiveResidues>
 VAL166  LYS551  ARG553  GLY616  TRP617  ASP618  TYR619  PRO620  LYS621  CYS622 
 ASP623  PHE694  ASN695  SER759  ASP760  ASP761  ALA762  ILE779  LEU786  VAL792 
 PHE793  MET794  SER795  GLU796  ALA797  LYS798  CYS799  TRP800  GLU811  SER814 

> <Gold.Protein.RotatedAtoms>
  151.1685  133.4799  159.2593 H   0  0  0  0  0  0  0  0  0  0  0  0  # atno 6907 bound_to 6896
  151.1380  135.0164  159.8623 H   0  0  0  0  0  0  0  0  0  0  0  0  # atno 6908 bound_to 6896
  152.5462  134.1582  159.8600 H   0  0  0  0  0  0  0  0  0  0  0  0  # atno 6909 bound_to 6896
  144.7975  139.7177  143.6196 H   0  0  0  0  0  0  0  0  0  0  0  0  # atno 7974 bound_to 7965
  154.4375  140.1871  156.0940 H   0  0  0  0  0  0  0  0  0  0  0  0  # atno 8008 bound_to 7997
  156.0344  140.3327  155.7148 H   0  0  0  0  0  0  0  0  0  0  0  0  # atno 8009 bound_to 7997
  155.5793  140.0620  157.2778 H   0  0  0  0  0  0  0  0  0  0  0  0  # atno 8010 bound_to 7997
  139.5515  144.6816  151.4310 H   0  0  0  0  0  0  0  0  0  0  0  0  # atno 10167 bound_to 10162
  156.3434  130.4297  149.7767 H   0  0  0  0  0  0  0  0  0  0  0  0  # atno 10718 bound_to 10713
  154.7463  135.4987  153.9210 H   0  0  0  0  0  0  0  0  0  0  0  0  # atno 10763 bound_to 10752
  153.1096  135.6706  153.9533 H   0  0  0  0  0  0  0  0  0  0  0  0  # atno 10764 bound_to 10752
  153.9296  135.3079  155.3425 H   0  0  0  0  0  0  0  0  0  0  0  0  # atno 10765 bound_to 10752
  141.0261  133.6840  156.2488 H   0  0  0  0  0  0  0  0  0  0  0  0  # atno 11005 bound_to 11000
  146.2247  139.5701  142.9595 LP  0  0  0  0  0  0  0  0  0  0  0  0  # atno 17320 bound_to 7965
  145.5636  141.0402  143.2213 LP  0  0  0  0  0  0  0  0  0  0  0  0  # atno 17321 bound_to 7965
  140.6778  143.8149  150.7082 LP  0  0  0  0  0  0  0  0  0  0  0  0  # atno 17342 bound_to 10162
  140.1594  143.4289  152.2077 LP  0  0  0  0  0  0  0  0  0  0  0  0  # atno 17343 bound_to 10162
  156.4995  130.8122  151.3127 LP  0  0  0  0  0  0  0  0  0  0  0  0  # atno 17370 bound_to 10713
  157.7450  130.9949  150.2725 LP  0  0  0  0  0  0  0  0  0  0  0  0  # atno 17371 bound_to 10713
  140.6488  134.5089  157.5576 LP  0  0  0  0  0  0  0  0  0  0  0  0  # atno 17394 bound_to 11000
  139.9177  134.8212  156.1312 LP  0  0  0  0  0  0  0  0  0  0  0  0  # atno 17395 bound_to 11000

$$$$
