AV-unprocessed.smi:3338|AV-procd|sdf|12875|dock1
  -GOLD-   2272019273D 1   1.00000     0.00000
 Structure written by MMmdl.
 44 45  0  0  0  0  0  0  0  0  2 V2000
  146.3840  142.6102  154.3884 C   0  0  0  0  0  0  0  0  0  0  0  0
  147.1876  141.4161  153.8443 C   0  0  2  0  0  0  0  0  0  0  0  0
  146.6798  140.0630  154.3748 C   0  0  0  0  0  0  0  0  0  0  0  0
  147.0813  139.8557  155.8416 C   0  0  0  0  0  0  0  0  0  0  0  0
  148.5952  140.0410  156.0302 C   0  0  0  0  0  0  0  0  0  0  0  0
  149.0402  141.3710  155.5395 N   0  3  1  0  0  0  0  0  0  0  0  0
  150.4701  141.6284  155.8465 C   0  0  0  0  0  0  0  0  0  0  0  0
  150.9089  141.0045  157.1812 C   0  0  0  0  0  0  0  0  0  0  0  0
  151.7031  141.9529  157.9490 N   0  0  0  0  0  0  0  0  0  0  0  0
  151.2198  143.0820  158.4891 C   0  0  0  0  0  0  0  0  0  0  0  0
  150.0483  143.4370  158.3530 O   0  0  0  0  0  0  0  0  0  0  0  0
  152.2154  143.9310  159.2993 C   0  0  1  0  0  0  0  0  0  0  0  0
  151.6293  145.2840  159.7495 C   0  0  0  0  0  0  0  0  0  0  0  0
  152.7444  143.1729  160.4281 N   0  0  0  0  0  0  0  0  0  0  0  0
  152.6024  143.4426  161.7742 C   0  0  0  0  0  0  0  0  0  0  0  0
  153.2812  142.4768  162.4605 C   0  0  0  0  0  0  0  0  0  0  0  0
  153.8165  141.6474  161.4364 C   0  0  0  0  0  0  0  0  0  0  0  0
  153.4984  142.0675  160.2231 N   0  0  0  0  0  0  0  0  0  0  0  0
  148.7013  141.5659  154.1028 C   0  0  0  0  0  0  0  0  0  0  0  0
  146.4948  142.7194  155.4674 H   0  0  0  0  0  0  0  0  0  0  0  0
  145.3208  142.4976  154.1740 H   0  0  0  0  0  0  0  0  0  0  0  0
  146.7121  143.5431  153.9293 H   0  0  0  0  0  0  0  0  0  0  0  0
  147.0394  141.4153  152.7635 H   0  0  0  0  0  0  0  0  0  0  0  0
  145.5976  139.9883  154.2628 H   0  0  0  0  0  0  0  0  0  0  0  0
  147.1047  139.2587  153.7727 H   0  0  0  0  0  0  0  0  0  0  0  0
  146.5417  140.5565  156.4793 H   0  0  0  0  0  0  0  0  0  0  0  0
  146.7862  138.8581  156.1687 H   0  0  0  0  0  0  0  0  0  0  0  0
  148.8354  139.9371  157.0891 H   0  0  0  0  0  0  0  0  0  0  0  0
  149.1407  139.2568  155.5024 H   0  0  0  0  0  0  0  0  0  0  0  0
  151.0883  141.1977  155.0573 H   0  0  0  0  0  0  0  0  0  0  0  0
  150.6626  142.7026  155.8372 H   0  0  0  0  0  0  0  0  0  0  0  0
  150.0480  140.7085  157.7809 H   0  0  0  0  0  0  0  0  0  0  0  0
  151.4998  140.1058  156.9965 H   0  0  0  0  0  0  0  0  0  0  0  0
  152.6759  141.7288  158.1012 H   0  0  0  0  0  0  0  0  0  0  0  0
  153.0545  144.1485  158.6364 H   0  0  0  0  0  0  0  0  0  0  0  0
  151.2923  145.8718  158.8951 H   0  0  0  0  0  0  0  0  0  0  0  0
  152.3794  145.8752  160.2757 H   0  0  0  0  0  0  0  0  0  0  0  0
  150.7791  145.1575  160.4212 H   0  0  0  0  0  0  0  0  0  0  0  0
  152.0354  144.2906  162.1292 H   0  0  0  0  0  0  0  0  0  0  0  0
  153.3801  142.3771  163.5314 H   0  0  0  0  0  0  0  0  0  0  0  0
  154.4243  140.7603  161.5374 H   0  0  0  0  0  0  0  0  0  0  0  0
  149.2499  140.8345  153.5070 H   0  0  0  0  0  0  0  0  0  0  0  0
  149.0254  142.5476  153.7591 H   0  0  0  0  0  0  0  0  0  0  0  0
  148.5092  142.0537  156.0615 H   0  0  0  0  0  0  0  0  0  0  0  0
  1  2  1  0  0  0  0
  1 20  1  0  0  0  0
  1 21  1  0  0  0  0
  1 22  1  0  0  0  0
  2 19  1  0  0  0  0
  2  3  1  0  0  0  0
  2 23  1  0  0  0  0
  3  4  1  0  0  0  0
  3 24  1  0  0  0  0
  3 25  1  0  0  0  0
  4  5  1  0  0  0  0
  4 26  1  0  0  0  0
  4 27  1  0  0  0  0
  5  6  1  0  0  0  0
  5 28  1  0  0  0  0
  5 29  1  0  0  0  0
  6  7  1  0  0  0  0
  6 19  1  0  0  0  0
  6 44  1  0  0  0  0
  7  8  1  0  0  0  0
  7 30  1  0  0  0  0
  7 31  1  0  0  0  0
  8  9  1  0  0  0  0
  8 32  1  0  0  0  0
  8 33  1  0  0  0  0
  9 10  1  0  0  0  0
  9 34  1  0  0  0  0
 10 11  2  0  0  0  0
 10 12  1  0  0  0  0
 12 13  1  0  0  0  0
 12 14  1  0  0  0  0
 12 35  1  0  0  0  0
 13 36  1  0  0  0  0
 13 37  1  0  0  0  0
 13 38  1  0  0  0  0
 14 18  1  0  0  0  0
 14 15  1  0  0  0  0
 15 16  2  0  0  0  0
 15 39  1  0  0  0  0
 16 17  1  0  0  0  0
 16 40  1  0  0  0  0
 17 18  2  0  0  0  0
 17 41  1  0  0  0  0
 19 42  1  0  0  0  0
 19 43  1  0  0  0  0
M  CHG  1   6   1
M  END
> <s_m_source_file>
AV-unprocessed.smi

> <i_m_source_file_index>
3338

> <i_lp_mmshare_version>
43012

> <i_f3d_flags>
0

> <s_epik_input>
W0NIM11bQ0BASF0xW0NIMl1bQ0gyXVtDSDJdTihbQ0gyXTEpW0NIMl1bQ0gyXVtOSF1DKD1PKVtDQEhdKFtDSDNdKW4yW2NIXVtjSF1bY0hdbjI=

> <s_epik_cmdline>
J2VwaWtfcHl0aG9uJywgJy1waCcsICc3LjAnLCAnLXRuJywgJzgnLCAnLW1hJywgJzIwMCcsICctbWV0YWxfYmluZGluZycsICctaW1hZScsICc8aW5maWxlLm1hZT4nLCAnLW9tYWUnLCAnPG91dGZpbGUubWFlPic=

> <r_lp_tautomer_probability>
1

> <r_epik_Ionization_Penalty>
0.00225707

> <r_epik_Ionization_Penalty_Charging>
0.00223709

> <r_epik_Ionization_Penalty_Neutral>
1.99775e-05

> <r_epik_State_Penalty>
0.00153978

> <r_epik_Charging_Adjusted_Penalty>
0.00377687

> <i_epik_Tot_Q>
1

> <i_epik_Tot_abs_Q>
1

> <r_epik_Metal_State_Penalty>
-0

> <b_epik_Metal_Only>
0

> <s_lp_Force_Field>
OPLS_2005

> <r_lp_Energy>
23.0994

> <b_lp_Chiralities_Consistent>
1

> <s_lp_Variant>
AV-unprocessed.smi:3338-7

> <Gold.Version>
5.8.1

> <Gold.Id.Protein>
6NUR|6NUR_protein|mol2

> <Gold.PLP.Fitness>
43.9677

> <Gold.PLP.PLP>
-45.3071

> <Gold.PLP.part.hbond>
0.0000

> <Gold.PLP.part.metal>
0.0000

> <Gold.PLP.part.buried>
-6.2363

> <Gold.PLP.part.nonpolar>
-39.4101

> <Gold.PLP.part.repulsive>
0.4730

> <Gold.PLP.ligand.clash>
0.0000

> <Gold.PLP.ligand.torsion>
0.7348

> <Gold.PLP.Chemscore.Hbond>
0.0000

> <Gold.PLP.Chemscore.CHOScore>
0.0000

> <Gold.PLP.Chemscore.Metal>
0.0000

> <Gold.PLP.Chemscore.Internal.Correction>
0.1302

> <Gold.Rescore>
     Score         DG    S(hbond)    S(metal)    S(lipo)     H(rot)  DE(clash)    DE(int)     intcor
     10.81     -12.82       0.00        0.00     101.16       1.76       0.00       2.00       ----

> <Gold.Chemscore.Fitness>
10.8102

> <Gold.Chemscore.DG>
-12.8179

> <Gold.Chemscore.ZeroCoef>
-5.4800

> <Gold.Chemscore.Hbond>
0.0000

> <Gold.Chemscore.Metal>
0.0000

> <Gold.Chemscore.Lipo>
101.1605

> <Gold.Chemscore.Internal_Hbond>
0.0000

> <Gold.Chemscore.DEClash>
0.0044

> <Gold.Chemscore.DEInternal>
2.0033

> <Gold.Chemscore.Rot>
1.7570

> <Gold.Chemscore.Internal.Correction>
   9.000000E+99

> <Gold.Chemscore.Hbond.Weighted>
-0.0000

> <Gold.Chemscore.Metal.Weighted>
-0.0000

> <Gold.Chemscore.Lipo.Weighted>
-11.8358

> <Gold.Chemscore.Internal_Hbond.Weighted>
0.0000

> <Gold.Chemscore.DEClash.Weighted>
0.0044

> <Gold.Chemscore.DEInternal.Weighted>
2.0033

> <Gold.Chemscore.Rot.Weighted>
4.4979

> <Gold.Chemscore.Internal.Correction.Weighted>
   9.000000E+99

> <Gold.Protein.RotatedTorsions>
[ 6907 6896 6895 6894 ] final  156.92 input  -60.11 | X-H torsion
[ 7974 7965 7964 7962 ] final  -14.72 input  175.53 | X-H torsion
[ 8008 7997 7996 7995 ] final  153.96 input   59.86 | X-H torsion
[ 10167 10162 10161 10158 ] final  -53.36 input  -65.29 | X-H torsion
[ 10718 10713 10712 10709 ] final  -34.86 input   66.30 | X-H torsion
[ 10763 10752 10751 10750 ] final   81.72 input  -60.55 | X-H torsion
[ 11005 11000 10999 10996 ] final   99.14 input  -57.11 | X-H torsion

> <Gold.Protein.ActiveResidues>
 VAL166  LYS551  ARG553  GLY616  TRP617  ASP618  TYR619  PRO620  LYS621  CYS622 
 ASP623  PHE694  ASN695  SER759  ASP760  ASP761  ALA762  ILE779  LEU786  VAL792 
 PHE793  MET794  SER795  GLU796  ALA797  LYS798  CYS799  TRP800  GLU811  SER814 

> <Gold.Protein.RotatedAtoms>
  152.0226  133.3905  159.4264 H   0  0  0  0  0  0  0  0  0  0  0  0  # atno 6907 bound_to 6896
  150.6889  134.3609  159.4959 H   0  0  0  0  0  0  0  0  0  0  0  0  # atno 6908 bound_to 6896
  152.1385  134.9080  160.0605 H   0  0  0  0  0  0  0  0  0  0  0  0  # atno 6909 bound_to 6896
  146.2062  140.3389  142.8406 H   0  0  0  0  0  0  0  0  0  0  0  0  # atno 7974 bound_to 7965
  156.2555  140.1979  156.6572 H   0  0  0  0  0  0  0  0  0  0  0  0  # atno 8008 bound_to 7997
  154.6492  140.0574  156.9961 H   0  0  0  0  0  0  0  0  0  0  0  0  # atno 8009 bound_to 7997
  155.1444  140.3245  155.4447 H   0  0  0  0  0  0  0  0  0  0  0  0  # atno 8010 bound_to 7997
  140.6489  143.2553  151.4781 H   0  0  0  0  0  0  0  0  0  0  0  0  # atno 10167 bound_to 10162
  156.3455  130.4300  149.7749 H   0  0  0  0  0  0  0  0  0  0  0  0  # atno 10718 bound_to 10713
  153.1141  135.4755  154.9086 H   0  0  0  0  0  0  0  0  0  0  0  0  # atno 10763 bound_to 10752
  154.7511  135.3106  154.8558 H   0  0  0  0  0  0  0  0  0  0  0  0  # atno 10764 bound_to 10752
  153.9140  135.6862  153.4803 H   0  0  0  0  0  0  0  0  0  0  0  0  # atno 10765 bound_to 10752
  139.8771  134.9082  156.4561 H   0  0  0  0  0  0  0  0  0  0  0  0  # atno 11005 bound_to 11000
  144.8799  140.7387  143.5993 LP  0  0  0  0  0  0  0  0  0  0  0  0  # atno 17320 bound_to 7965
  145.3309  139.1760  143.4537 LP  0  0  0  0  0  0  0  0  0  0  0  0  # atno 17321 bound_to 7965
  139.5701  144.1948  152.1824 LP  0  0  0  0  0  0  0  0  0  0  0  0  # atno 17342 bound_to 10162
  140.1241  144.5347  150.6844 LP  0  0  0  0  0  0  0  0  0  0  0  0  # atno 17343 bound_to 10162
  156.4970  130.8111  151.3117 LP  0  0  0  0  0  0  0  0  0  0  0  0  # atno 17370 bound_to 10713
  157.7453  130.9957  150.2753 LP  0  0  0  0  0  0  0  0  0  0  0  0  # atno 17371 bound_to 10713
  140.8897  133.7857  155.9558 LP  0  0  0  0  0  0  0  0  0  0  0  0  # atno 17394 bound_to 11000
  140.8767  134.2661  157.5164 LP  0  0  0  0  0  0  0  0  0  0  0  0  # atno 17395 bound_to 11000

$$$$
