AV-unprocessed.smi:1181|AV-procd|sdf|4966|dock4
  -GOLD-   22720 3563D 1   1.00000     0.00000
 Structure written by MMmdl.
 44 45  0  0  0  0  0  0  0  0  1 V2000
  151.9833  144.3299  159.2533 C   0  0  0  0  0  0  0  0  0  0  0  0
  150.9966  143.4684  158.7135 O   0  0  0  0  0  0  0  0  0  0  0  0
  151.5586  142.3609  158.0290 C   0  0  0  0  0  0  0  0  0  0  0  0
  150.4423  141.3820  157.6531 C   0  0  0  0  0  0  0  0  0  0  0  0
  150.8995  140.5508  156.5906 O   0  0  0  0  0  0  0  0  0  0  0  0
  149.9635  139.9289  155.7905 C   0  0  0  0  0  0  0  0  0  0  0  0
  148.7192  139.5844  156.3546 C   0  0  0  0  0  0  0  0  0  0  0  0
  147.7605  138.9481  155.5443 C   0  0  0  0  0  0  0  0  0  0  0  0
  148.0675  138.6840  154.1947 C   0  0  0  0  0  0  0  0  0  0  0  0
  147.0906  138.0202  153.4059 N   0  0  0  0  0  0  0  0  0  0  0  0
  145.7859  137.8161  153.6751 C   0  0  0  0  0  0  0  0  0  0  0  0
  145.2498  138.1762  154.7236 O   0  0  0  0  0  0  0  0  0  0  0  0
  145.1145  137.1484  152.7013 N   0  0  0  0  0  0  0  0  0  0  0  0
  145.6524  136.7279  151.3954 C   0  0  0  0  0  0  0  0  0  0  0  0
  145.8377  135.2002  151.4073 C   0  0  0  0  0  0  0  0  0  0  0  0
  144.5087  134.4818  151.7262 C   0  0  0  0  0  0  0  0  0  0  0  0
  144.6987  132.9633  151.8421 C   0  0  0  0  0  0  0  0  0  0  0  0
  143.8499  135.0739  152.9912 C   0  0  0  0  0  0  0  0  0  0  0  0
  143.7643  136.6095  152.9116 C   0  0  0  0  0  0  0  0  0  0  0  0
  149.3499  139.0573  153.7241 C   0  0  0  0  0  0  0  0  0  0  0  0
  150.2746  139.6659  154.4970 N   0  0  0  0  0  0  0  0  0  0  0  0
  151.5017  145.1620  159.7666 H   0  0  0  0  0  0  0  0  0  0  0  0
  152.6200  144.7411  158.4691 H   0  0  0  0  0  0  0  0  0  0  0  0
  152.6109  143.8066  159.9760 H   0  0  0  0  0  0  0  0  0  0  0  0
  152.0525  142.7139  157.1226 H   0  0  0  0  0  0  0  0  0  0  0  0
  152.3124  141.8629  158.6410 H   0  0  0  0  0  0  0  0  0  0  0  0
  150.1494  140.7911  158.5228 H   0  0  0  0  0  0  0  0  0  0  0  0
  149.5699  141.9474  157.3211 H   0  0  0  0  0  0  0  0  0  0  0  0
  148.5053  139.8030  157.3903 H   0  0  0  0  0  0  0  0  0  0  0  0
  146.8007  138.6712  155.9559 H   0  0  0  0  0  0  0  0  0  0  0  0
  147.4349  137.5928  152.5585 H   0  0  0  0  0  0  0  0  0  0  0  0
  144.9476  137.0093  150.6116 H   0  0  0  0  0  0  0  0  0  0  0  0
  146.5888  137.2135  151.1214 H   0  0  0  0  0  0  0  0  0  0  0  0
  146.2208  134.8657  150.4426 H   0  0  0  0  0  0  0  0  0  0  0  0
  146.5915  134.9333  152.1495 H   0  0  0  0  0  0  0  0  0  0  0  0
  143.8312  134.6637  150.8906 H   0  0  0  0  0  0  0  0  0  0  0  0
  145.3733  132.7096  152.6604 H   0  0  0  0  0  0  0  0  0  0  0  0
  145.1174  132.5491  150.9245 H   0  0  0  0  0  0  0  0  0  0  0  0
  143.7480  132.4621  152.0263 H   0  0  0  0  0  0  0  0  0  0  0  0
  142.8523  134.6542  153.1243 H   0  0  0  0  0  0  0  0  0  0  0  0
  144.4241  134.7906  153.8746 H   0  0  0  0  0  0  0  0  0  0  0  0
  143.2860  136.9997  153.8109 H   0  0  0  0  0  0  0  0  0  0  0  0
  143.1202  136.9080  152.0833 H   0  0  0  0  0  0  0  0  0  0  0  0
  149.6701  138.8502  152.7148 H   0  0  0  0  0  0  0  0  0  0  0  0
  1  2  1  0  0  0  0
  1 22  1  0  0  0  0
  1 23  1  0  0  0  0
  1 24  1  0  0  0  0
  2  3  1  0  0  0  0
  3  4  1  0  0  0  0
  3 25  1  0  0  0  0
  3 26  1  0  0  0  0
  4  5  1  0  0  0  0
  4 27  1  0  0  0  0
  4 28  1  0  0  0  0
  5  6  1  0  0  0  0
  6 21  1  0  0  0  0
  6  7  2  0  0  0  0
  7  8  1  0  0  0  0
  7 29  1  0  0  0  0
  8  9  2  0  0  0  0
  8 30  1  0  0  0  0
  9 10  1  0  0  0  0
  9 20  1  0  0  0  0
 10 11  1  0  0  0  0
 10 31  1  0  0  0  0
 11 12  2  0  0  0  0
 11 13  1  0  0  0  0
 13 19  1  0  0  0  0
 13 14  1  0  0  0  0
 14 15  1  0  0  0  0
 14 32  1  0  0  0  0
 14 33  1  0  0  0  0
 15 16  1  0  0  0  0
 15 34  1  0  0  0  0
 15 35  1  0  0  0  0
 16 17  1  0  0  0  0
 16 18  1  0  0  0  0
 16 36  1  0  0  0  0
 17 37  1  0  0  0  0
 17 38  1  0  0  0  0
 17 39  1  0  0  0  0
 18 19  1  0  0  0  0
 18 40  1  0  0  0  0
 18 41  1  0  0  0  0
 19 42  1  0  0  0  0
 19 43  1  0  0  0  0
 20 21  2  0  0  0  0
 20 44  1  0  0  0  0
M  END
> <s_m_source_file>
AV-unprocessed.smi

> <i_m_source_file_index>
1181

> <i_lp_mmshare_version>
43012

> <i_f3d_flags>
0

> <s_epik_input>
W0NIM11PW0NIMl1bQ0gyXU9jMVtjSF1bY0hdYyhbY0hdbjEpW05IXUMoPU8pTjJbQ0gyXVtDSDJdW0NIXShbQ0gzXSlbQ0gyXVtDSDJdMg==

> <s_epik_cmdline>
J2VwaWtfcHl0aG9uJywgJy1waCcsICc3LjAnLCAnLXRuJywgJzgnLCAnLW1hJywgJzIwMCcsICctbWV0YWxfYmluZGluZycsICctaW1hZScsICc8aW5maWxlLm1hZT4nLCAnLW9tYWUnLCAnPG91dGZpbGUubWFlPic=

> <r_lp_tautomer_probability>
1

> <r_epik_Ionization_Penalty>
8.49399e-05

> <r_epik_Ionization_Penalty_Charging>
0

> <r_epik_Ionization_Penalty_Neutral>
8.49399e-05

> <r_epik_State_Penalty>
-0

> <r_epik_Charging_Adjusted_Penalty>
0

> <i_epik_Tot_Q>
0

> <i_epik_Tot_abs_Q>
0

> <r_epik_Metal_State_Penalty>
-0

> <b_epik_Metal_Only>
0

> <s_lp_Force_Field>
OPLS_2005

> <r_lp_Energy>
36.0421

> <b_lp_Chiralities_Consistent>
1

> <s_lp_Variant>
AV-unprocessed.smi:1181-1

> <Gold.Version>
5.8.1

> <Gold.Id.Protein>
6NUR|6NUR_protein|mol2

> <Gold.PLP.Fitness>
35.9198

> <Gold.PLP.PLP>
-27.7345

> <Gold.PLP.part.hbond>
-2.0000

> <Gold.PLP.part.metal>
0.0000

> <Gold.PLP.part.buried>
-0.6359

> <Gold.PLP.part.nonpolar>
-26.3064

> <Gold.PLP.part.repulsive>
0.4247

> <Gold.PLP.ligand.clash>
0.0000

> <Gold.PLP.ligand.torsion>
0.6706

> <Gold.PLP.Chemscore.Hbond>
1.9600

> <Gold.PLP.Chemscore.CHOScore>
1.1858

> <Gold.PLP.Chemscore.Metal>
0.0000

> <Gold.Chemscore.Hbonds>
donor molecule, donor type, donor heavy atom, donor atom, acceptor molecule, acceptor atom, score
      L1  H    10    31       P1  7948  0.61
      P1  H  7989  7998       L1    21  0.91
      L1  C    20    44       P1  7948  0.23
      L1  C    20    44       P1  7957  0.77

> <Gold.PLP.Chemscore.Internal.Correction>
0.0892

> <Gold.Rescore>
     Score         DG    S(hbond)    S(metal)    S(lipo)     H(rot)  DE(clash)    DE(int)     intcor
     12.46     -15.90       1.80        0.00      71.58       1.55       1.55       1.90       ----

> <Gold.Chemscore.Fitness>
12.4561

> <Gold.Chemscore.DG>
-15.9016

> <Gold.Chemscore.ZeroCoef>
-5.4800

> <Gold.Chemscore.Hbond>
1.8021

> <Gold.Chemscore.Metal>
0.0000

> <Gold.Chemscore.Lipo>
71.5802

> <Gold.Chemscore.Internal_Hbond>
0.0000

> <Gold.Chemscore.DEClash>
1.5473

> <Gold.Chemscore.DEInternal>
1.8982

> <Gold.Chemscore.Rot>
1.5517

> <Gold.Chemscore.Internal.Correction>
   9.000000E+99

> <Gold.Chemscore.Hbonds>
donor molecule, donor type, donor heavy atom, donor atom, acceptor molecule, acceptor atom, score
      L1  H    10    31       P1  7948  0.59
      P1  H  7989  7998       L1    21  0.77

> <Gold.Chemscore.Hbond.Weighted>
-6.0189

> <Gold.Chemscore.Metal.Weighted>
-0.0000

> <Gold.Chemscore.Lipo.Weighted>
-8.3749

> <Gold.Chemscore.Internal_Hbond.Weighted>
0.0000

> <Gold.Chemscore.DEClash.Weighted>
1.5473

> <Gold.Chemscore.DEInternal.Weighted>
1.8982

> <Gold.Chemscore.Rot.Weighted>
3.9723

> <Gold.Chemscore.Internal.Correction.Weighted>
   9.000000E+99

> <Gold.Protein.RotatedTorsions>
[ 6907 6896 6895 6894 ] final  126.47 input  -60.11 | X-H torsion
[ 7974 7965 7964 7962 ] final  127.42 input  175.53 | X-H torsion
[ 8008 7997 7996 7995 ] final  169.91 input   59.86 | X-H torsion
[ 10167 10162 10161 10158 ] final   -8.68 input  -65.29 | X-H torsion
[ 10718 10713 10712 10709 ] final  -83.83 input   66.30 | X-H torsion
[ 10763 10752 10751 10750 ] final  -53.02 input  -60.55 | X-H torsion
[ 11005 11000 10999 10996 ] final  -51.62 input  -57.11 | X-H torsion

> <Gold.Protein.ActiveResidues>
 VAL166  LYS551  ARG553  GLY616  TRP617  ASP618  TYR619  PRO620  LYS621  CYS622 
 ASP623  PHE694  ASN695  SER759  ASP760  ASP761  ALA762  ILE779  LEU786  VAL792 
 PHE793  MET794  SER795  GLU796  ALA797  LYS798  CYS799  TRP800  GLU811  SER814 

> <Gold.Protein.RotatedAtoms>
  152.3901  133.6666  159.6229 H   0  0  0  0  0  0  0  0  0  0  0  0  # atno 6907 bound_to 6896
  150.7811  133.8969  159.3338 H   0  0  0  0  0  0  0  0  0  0  0  0  # atno 6908 bound_to 6896
  151.6758  135.0971  160.0258 H   0  0  0  0  0  0  0  0  0  0  0  0  # atno 6909 bound_to 6896
  145.0508  139.3884  143.5055 H   0  0  0  0  0  0  0  0  0  0  0  0  # atno 7974 bound_to 7965
  156.1414  140.1552  156.8915 H   0  0  0  0  0  0  0  0  0  0  0  0  # atno 8008 bound_to 7997
  154.4991  140.0830  156.7797 H   0  0  0  0  0  0  0  0  0  0  0  0  # atno 8009 bound_to 7997
  155.4071  140.3417  155.4263 H   0  0  0  0  0  0  0  0  0  0  0  0  # atno 8010 bound_to 7997
  140.7066  143.5942  150.8863 H   0  0  0  0  0  0  0  0  0  0  0  0  # atno 10167 bound_to 10162
  156.0013  130.4678  150.4317 H   0  0  0  0  0  0  0  0  0  0  0  0  # atno 10718 bound_to 10713
  154.1521  135.6488  153.4966 H   0  0  0  0  0  0  0  0  0  0  0  0  # atno 10763 bound_to 10752
  153.0135  135.5340  154.6797 H   0  0  0  0  0  0  0  0  0  0  0  0  # atno 10764 bound_to 10752
  154.6088  135.2951  155.0426 H   0  0  0  0  0  0  0  0  0  0  0  0  # atno 10765 bound_to 10752
  141.0881  133.6638  156.3904 H   0  0  0  0  0  0  0  0  0  0  0  0  # atno 11005 bound_to 11000
  146.3518  140.0157  142.8663 LP  0  0  0  0  0  0  0  0  0  0  0  0  # atno 17320 bound_to 7965
  145.1529  140.9633  143.4422 LP  0  0  0  0  0  0  0  0  0  0  0  0  # atno 17321 bound_to 7965
  139.9667  143.6102  152.2986 LP  0  0  0  0  0  0  0  0  0  0  0  0  # atno 17342 bound_to 10162
  139.6674  144.7662  151.1847 LP  0  0  0  0  0  0  0  0  0  0  0  0  # atno 17343 bound_to 10162
  157.2365  131.0516  151.2461 LP  0  0  0  0  0  0  0  0  0  0  0  0  # atno 17370 bound_to 10713
  157.3661  130.7156  149.6534 LP  0  0  0  0  0  0  0  0  0  0  0  0  # atno 17371 bound_to 10713
  140.5317  134.6206  157.5352 LP  0  0  0  0  0  0  0  0  0  0  0  0  # atno 17394 bound_to 11000
  139.9702  134.7306  156.0057 LP  0  0  0  0  0  0  0  0  0  0  0  0  # atno 17395 bound_to 11000

$$$$
