AV-unprocessed.smi:2743|AV-procd|sdf|10566|dock10
  -GOLD-   2272015 23D 1   1.00000     0.00000
 Structure written by MMmdl.
 38 39  0  0  0  0  0  0  0  0  1 V2000
  152.1283  135.9889  156.7113 N   0  0  0  0  0  0  0  0  0  0  0  0
  152.0306  136.7879  157.5430 C   0  0  0  0  0  0  0  0  0  0  0  0
  151.9030  137.8038  158.6014 C   0  0  0  0  0  0  0  0  0  0  0  0
  152.5968  139.1243  158.2660 C   0  0  0  0  0  0  0  0  0  0  0  0
  153.7926  139.1488  157.9753 O   0  0  0  0  0  0  0  0  0  0  0  0
  151.8274  140.2221  158.3229 N   0  0  0  0  0  0  0  0  0  0  0  0
  152.2724  141.5918  158.0660 C   0  0  0  0  0  0  0  0  0  0  0  0
  151.0956  142.5851  157.8264 C   0  0  0  0  0  0  0  0  0  0  0  0
  150.0918  141.9320  156.8494 C   0  0  0  0  0  0  0  0  0  0  0  0
  148.7499  141.7213  157.2484 C   0  0  0  0  0  0  0  0  0  0  0  0
  147.8427  141.1367  156.3432 C   0  0  0  0  0  0  0  0  0  0  0  0
  148.1799  140.7650  155.0920 N   0  0  0  0  0  0  0  0  0  0  0  0
  149.4538  140.9712  154.7010 C   0  0  0  0  0  0  0  0  0  0  0  0
  150.4378  141.5466  155.5295 C   0  0  0  0  0  0  0  0  0  0  0  0
  150.4140  142.9713  159.1772 C   0  0  0  0  0  0  0  0  0  0  0  0
  151.2994  143.8052  160.1207 C   0  0  0  0  0  0  0  0  0  0  0  0
  151.7926  145.0811  159.4307 C   0  0  0  0  0  0  0  0  0  0  0  0
  152.5182  144.7453  158.1234 C   0  0  0  0  0  0  0  0  0  0  0  0
  151.6341  143.8996  157.1880 C   0  0  0  0  0  0  0  0  0  0  0  0
  150.8407  137.9754  158.7775 H   0  0  0  0  0  0  0  0  0  0  0  0
  152.3288  137.3943  159.5177 H   0  0  0  0  0  0  0  0  0  0  0  0
  150.8566  140.1045  158.5748 H   0  0  0  0  0  0  0  0  0  0  0  0
  152.9367  141.9333  158.8591 H   0  0  0  0  0  0  0  0  0  0  0  0
  152.9002  141.5491  157.1757 H   0  0  0  0  0  0  0  0  0  0  0  0
  148.4058  142.0054  158.2312 H   0  0  0  0  0  0  0  0  0  0  0  0
  146.8161  140.9683  156.6329 H   0  0  0  0  0  0  0  0  0  0  0  0
  149.6980  140.6719  153.6926 H   0  0  0  0  0  0  0  0  0  0  0  0
  151.4299  141.6807  155.1279 H   0  0  0  0  0  0  0  0  0  0  0  0
  149.5226  143.5657  158.9714 H   0  0  0  0  0  0  0  0  0  0  0  0
  150.0697  142.0844  159.7091 H   0  0  0  0  0  0  0  0  0  0  0  0
  150.7333  144.0690  161.0144 H   0  0  0  0  0  0  0  0  0  0  0  0
  152.1489  143.2177  160.4678 H   0  0  0  0  0  0  0  0  0  0  0  0
  150.9452  145.7355  159.2214 H   0  0  0  0  0  0  0  0  0  0  0  0
  152.4553  145.6347  160.0961 H   0  0  0  0  0  0  0  0  0  0  0  0
  152.8059  145.6681  157.6190 H   0  0  0  0  0  0  0  0  0  0  0  0
  153.4481  144.2199  158.3409 H   0  0  0  0  0  0  0  0  0  0  0  0
  152.2005  143.6892  156.2811 H   0  0  0  0  0  0  0  0  0  0  0  0
  150.7881  144.5136  156.8746 H   0  0  0  0  0  0  0  0  0  0  0  0
  1  2  3  0  0  0  0
  2  3  1  0  0  0  0
  3  4  1  0  0  0  0
  3 20  1  0  0  0  0
  3 21  1  0  0  0  0
  4  5  2  0  0  0  0
  4  6  1  0  0  0  0
  6  7  1  0  0  0  0
  6 22  1  0  0  0  0
  7  8  1  0  0  0  0
  7 23  1  0  0  0  0
  7 24  1  0  0  0  0
  8 19  1  0  0  0  0
  8  9  1  0  0  0  0
  8 15  1  0  0  0  0
  9 14  1  0  0  0  0
  9 10  2  0  0  0  0
 10 11  1  0  0  0  0
 10 25  1  0  0  0  0
 11 12  2  0  0  0  0
 11 26  1  0  0  0  0
 12 13  1  0  0  0  0
 13 14  2  0  0  0  0
 13 27  1  0  0  0  0
 14 28  1  0  0  0  0
 15 16  1  0  0  0  0
 15 29  1  0  0  0  0
 15 30  1  0  0  0  0
 16 17  1  0  0  0  0
 16 31  1  0  0  0  0
 16 32  1  0  0  0  0
 17 18  1  0  0  0  0
 17 33  1  0  0  0  0
 17 34  1  0  0  0  0
 18 19  1  0  0  0  0
 18 35  1  0  0  0  0
 18 36  1  0  0  0  0
 19 37  1  0  0  0  0
 19 38  1  0  0  0  0
M  END
> <s_m_source_file>
AV-unprocessed.smi

> <i_m_source_file_index>
2743

> <i_lp_mmshare_version>
43012

> <i_f3d_flags>
0

> <s_epik_input>
TiNDW0NIMl1DKD1PKVtOSF1bQ0gyXUMxKFtDSDJdW0NIMl1bQ0gyXVtDSDJdW0NIMl0xKWMyW2NIXVtjSF1uW2NIXVtjSF0y

> <s_epik_cmdline>
J2VwaWtfcHl0aG9uJywgJy1waCcsICc3LjAnLCAnLXRuJywgJzgnLCAnLW1hJywgJzIwMCcsICctbWV0YWxfYmluZGluZycsICctaW1hZScsICc8aW5maWxlLm1hZT4nLCAnLW9tYWUnLCAnPG91dGZpbGUubWFlPic=

> <r_epik_Ionization_Penalty>
0.0541122

> <r_epik_Ionization_Penalty_Charging>
0

> <r_epik_Ionization_Penalty_Neutral>
0.0541122

> <r_epik_State_Penalty>
0.0465294

> <r_epik_Charging_Adjusted_Penalty>
0.0465294

> <i_epik_Tot_Q>
0

> <i_epik_Tot_abs_Q>
0

> <r_epik_Metal_State_Penalty>
0.042555

> <b_epik_Metal_Only>
0

> <s_lp_Force_Field>
OPLS_2005

> <r_lp_Energy>
19.5313

> <b_lp_Chiralities_Consistent>
1

> <s_lp_Variant>
AV-unprocessed.smi:2743-1

> <Gold.Version>
5.8.1

> <Gold.Id.Protein>
6NUR|6NUR_protein|mol2

> <Gold.PLP.Fitness>
39.8296

> <Gold.PLP.PLP>
-31.8181

> <Gold.PLP.part.hbond>
-2.0000

> <Gold.PLP.part.metal>
0.0000

> <Gold.PLP.part.buried>
-1.7912

> <Gold.PLP.part.nonpolar>
-27.0794

> <Gold.PLP.part.repulsive>
0.1917

> <Gold.PLP.ligand.clash>
0.0000

> <Gold.PLP.ligand.torsion>
0.3075

> <Gold.PLP.Chemscore.Hbond>
2.0000

> <Gold.PLP.Chemscore.CHOScore>
0.8686

> <Gold.PLP.Chemscore.Metal>
0.0000

> <Gold.Chemscore.Hbonds>
donor molecule, donor type, donor heavy atom, donor atom, acceptor molecule, acceptor atom, score
      P1  H  7997  8009       L1     5  0.88
      P1  H 10752 10764       L1     1  1.00
      L1  C    13    27       P1  7957  0.81

> <Gold.PLP.Chemscore.Internal.Correction>
0.0207

> <Gold.Rescore>
     Score         DG    S(hbond)    S(metal)    S(lipo)     H(rot)  DE(clash)    DE(int)     intcor
     19.12     -19.67       1.92        0.00     105.67       1.79       0.20       0.35       ----

> <Gold.Chemscore.Fitness>
19.1199

> <Gold.Chemscore.DG>
-19.6653

> <Gold.Chemscore.ZeroCoef>
-5.4800

> <Gold.Chemscore.Hbond>
1.9173

> <Gold.Chemscore.Metal>
0.0000

> <Gold.Chemscore.Lipo>
105.6657

> <Gold.Chemscore.Internal_Hbond>
0.0000

> <Gold.Chemscore.DEClash>
0.1976

> <Gold.Chemscore.DEInternal>
0.3478

> <Gold.Chemscore.Rot>
1.7895

> <Gold.Chemscore.Internal.Correction>
   9.000000E+99

> <Gold.Chemscore.Hbonds>
donor molecule, donor type, donor heavy atom, donor atom, acceptor molecule, acceptor atom, score
      P1  H  7997  8009       L1     5  0.86
      P1  H 10752 10764       L1     1  0.97

> <Gold.Chemscore.Hbond.Weighted>
-6.4036

> <Gold.Chemscore.Metal.Weighted>
-0.0000

> <Gold.Chemscore.Lipo.Weighted>
-12.3629

> <Gold.Chemscore.Internal_Hbond.Weighted>
0.0000

> <Gold.Chemscore.DEClash.Weighted>
0.1976

> <Gold.Chemscore.DEInternal.Weighted>
0.3478

> <Gold.Chemscore.Rot.Weighted>
4.5812

> <Gold.Chemscore.Internal.Correction.Weighted>
   9.000000E+99

> <Gold.Protein.RotatedTorsions>
[ 6907 6896 6895 6894 ] final   35.37 input  -60.11 | X-H torsion
[ 7974 7965 7964 7962 ] final -175.87 input  175.53 | X-H torsion
[ 8008 7997 7996 7995 ] final  172.99 input   59.86 | X-H torsion
[ 10167 10162 10161 10158 ] final  -36.93 input  -65.29 | X-H torsion
[ 10718 10713 10712 10709 ] final -149.68 input   66.30 | X-H torsion
[ 10763 10752 10751 10750 ] final  -12.86 input  -60.55 | X-H torsion
[ 11005 11000 10999 10996 ] final   76.20 input  -57.11 | X-H torsion

> <Gold.Protein.ActiveResidues>
 VAL166  LYS551  ARG553  GLY616  TRP617  ASP618  TYR619  PRO620  LYS621  CYS622 
 ASP623  PHE694  ASN695  SER759  ASP760  ASP761  ALA762  ILE779  LEU786  VAL792 
 PHE793  MET794  SER795  GLU796  ALA797  LYS798  CYS799  TRP800  GLU811  SER814 

> <Gold.Protein.RotatedAtoms>
  152.1152  134.9245  160.0564 H   0  0  0  0  0  0  0  0  0  0  0  0  # atno 6907 bound_to 6896
  152.0407  133.3971  159.4344 H   0  0  0  0  0  0  0  0  0  0  0  0  # atno 6908 bound_to 6896
  150.6846  134.3338  159.4882 H   0  0  0  0  0  0  0  0  0  0  0  0  # atno 6909 bound_to 6896
  144.7127  140.1256  143.6402 H   0  0  0  0  0  0  0  0  0  0  0  0  # atno 7974 bound_to 7965
  156.1120  140.1471  156.9325 H   0  0  0  0  0  0  0  0  0  0  0  0  # atno 8008 bound_to 7997
  154.4773  140.0890  156.7337 H   0  0  0  0  0  0  0  0  0  0  0  0  # atno 8009 bound_to 7997
  155.4580  140.3437  155.4311 H   0  0  0  0  0  0  0  0  0  0  0  0  # atno 8010 bound_to 7997
  140.7131  143.3376  151.2429 H   0  0  0  0  0  0  0  0  0  0  0  0  # atno 10167 bound_to 10162
  156.4363  130.8100  151.2328 H   0  0  0  0  0  0  0  0  0  0  0  0  # atno 10718 bound_to 10713
  153.5048  135.7017  153.5812 H   0  0  0  0  0  0  0  0  0  0  0  0  # atno 10763 bound_to 10752
  153.3928  135.3891  155.1935 H   0  0  0  0  0  0  0  0  0  0  0  0  # atno 10764 bound_to 10752
  154.8708  135.3862  154.4522 H   0  0  0  0  0  0  0  0  0  0  0  0  # atno 10765 bound_to 10752
  139.9309  134.7581  156.1366 H   0  0  0  0  0  0  0  0  0  0  0  0  # atno 11005 bound_to 11000
  145.9332  139.2620  143.1312 LP  0  0  0  0  0  0  0  0  0  0  0  0  # atno 17320 bound_to 7965
  145.9501  140.8915  143.0263 LP  0  0  0  0  0  0  0  0  0  0  0  0  # atno 17321 bound_to 7965
  139.6875  143.9749  152.2841 LP  0  0  0  0  0  0  0  0  0  0  0  0  # atno 17342 bound_to 10162
  139.9400  144.6688  150.8276 LP  0  0  0  0  0  0  0  0  0  0  0  0  # atno 17343 bound_to 10162
  157.7507  131.0182  150.3618 LP  0  0  0  0  0  0  0  0  0  0  0  0  # atno 17370 bound_to 10713
  156.3966  130.3908  149.6990 LP  0  0  0  0  0  0  0  0  0  0  0  0  # atno 17371 bound_to 10713
  141.0896  133.6719  156.2512 LP  0  0  0  0  0  0  0  0  0  0  0  0  # atno 17394 bound_to 11000
  140.6205  134.5366  157.5547 LP  0  0  0  0  0  0  0  0  0  0  0  0  # atno 17395 bound_to 11000

$$$$
