AV-unprocessed.smi:157|AV-procd|sdf|1319|dock3
  -GOLD-   2262019 13D 1   1.00000     0.00000
 Structure written by MMmdl.
 36 38  0  0  0  0  0  0  0  0  2 V2000
  150.2182  139.9369  153.7949 O   0  0  0  0  0  0  0  0  0  0  0  0
  149.8495  138.8026  154.5495 C   0  0  0  0  0  0  0  0  0  0  0  0
  151.0818  138.2464  155.2970 C   0  0  1  0  0  0  0  0  0  0  0  0
  151.8766  139.3506  155.7365 O   0  0  0  0  0  0  0  0  0  0  0  0
  151.6628  139.6210  157.0933 C   0  0  1  0  0  0  0  0  0  0  0  0
  151.2001  141.0357  157.2442 N   0  0  0  0  0  0  0  0  0  0  0  0
  150.1757  141.6297  156.5946 C   0  0  0  0  0  0  0  0  0  0  0  0
  149.9912  142.8996  156.9134 N   0  3  0  0  0  0  0  0  0  0  0  0
  150.9591  143.2141  157.8435 C   0  0  0  0  0  0  0  0  0  0  0  0
  151.6961  142.0433  158.0389 C   0  0  0  0  0  0  0  0  0  0  0  0
  152.7947  141.8020  158.8779 N   0  0  0  0  0  0  0  0  0  0  0  0
  153.1175  142.5856  159.8549 C   0  0  0  0  0  0  0  0  0  0  0  0
  152.5635  143.8020  160.2174 N   0  0  0  0  0  0  0  0  0  0  0  0
  152.2856  144.8597  159.2619 C   0  0  0  0  0  0  0  0  0  0  0  0
  151.0431  144.6021  158.3985 C   0  0  2  0  0  0  0  0  0  0  0  0
  149.8961  144.9589  159.1419 O   0  0  0  0  0  0  0  0  0  0  0  0
  150.5847  138.6543  157.5820 C   0  0  0  0  0  0  0  0  0  0  0  0
  150.7686  137.5112  156.6098 C   0  0  1  0  0  0  0  0  0  0  0  0
  149.6331  136.6718  156.5596 O   0  0  0  0  0  0  0  0  0  0  0  0
  151.6575  137.5990  154.6341 H   0  0  0  0  0  0  0  0  0  0  0  0
  152.5986  139.5609  157.6506 H   0  0  0  0  0  0  0  0  0  0  0  0
  151.0796  145.2924  157.5550 H   0  0  0  0  0  0  0  0  0  0  0  0
  151.6334  136.9170  156.9093 H   0  0  0  0  0  0  0  0  0  0  0  0
  149.8354  139.8627  152.9339 H   0  0  0  0  0  0  0  0  0  0  0  0
  149.0349  139.0525  155.2289 H   0  0  0  0  0  0  0  0  0  0  0  0
  149.4628  138.0689  153.8424 H   0  0  0  0  0  0  0  0  0  0  0  0
  149.5628  141.1136  155.8771 H   0  0  0  0  0  0  0  0  0  0  0  0
  153.9396  142.2987  160.5121 H   0  0  0  0  0  0  0  0  0  0  0  0
  152.7784  144.1772  161.1304 H   0  0  0  0  0  0  0  0  0  0  0  0
  152.2048  145.8142  159.7831 H   0  0  0  0  0  0  0  0  0  0  0  0
  153.1562  144.9449  158.6098 H   0  0  0  0  0  0  0  0  0  0  0  0
  149.3759  145.5585  158.6295 H   0  0  0  0  0  0  0  0  0  0  0  0
  150.7411  138.3784  158.6252 H   0  0  0  0  0  0  0  0  0  0  0  0
  149.5977  139.1082  157.4749 H   0  0  0  0  0  0  0  0  0  0  0  0
  149.2794  136.6961  155.6833 H   0  0  0  0  0  0  0  0  0  0  0  0
  149.2835  143.5171  156.5361 H   0  0  0  0  0  0  0  0  0  0  0  0
  1  2  1  0  0  0  0
  1 24  1  0  0  0  0
  2  3  1  0  0  0  0
  2 25  1  0  0  0  0
  2 26  1  0  0  0  0
  3 20  1  0  0  0  0
  3 18  1  0  0  0  0
  3  4  1  0  0  0  0
  4  5  1  0  0  0  0
  5 21  1  0  0  0  0
  5  6  1  0  0  0  0
  5 17  1  0  0  0  0
  6 10  1  0  0  0  0
  6  7  1  0  0  0  0
  7  8  2  0  0  0  0
  7 27  1  0  0  0  0
  8  9  1  0  0  0  0
  8 36  1  0  0  0  0
  9 15  1  0  0  0  0
  9 10  2  0  0  0  0
 10 11  1  0  0  0  0
 11 12  2  0  0  0  0
 12 13  1  0  0  0  0
 12 28  1  0  0  0  0
 13 14  1  0  0  0  0
 13 29  1  0  0  0  0
 14 15  1  0  0  0  0
 14 30  1  0  0  0  0
 14 31  1  0  0  0  0
 15 22  1  0  0  0  0
 15 16  1  0  0  0  0
 16 32  1  0  0  0  0
 17 18  1  0  0  0  0
 17 33  1  0  0  0  0
 17 34  1  0  0  0  0
 18 23  1  0  0  0  0
 18 19  1  0  0  0  0
 19 35  1  0  0  0  0
M  CHG  1   8   1
M  END
> <s_m_source_file>
AV-unprocessed.smi

> <i_m_source_file_index>
157

> <i_lp_mmshare_version>
43012

> <i_f3d_flags>
0

> <s_epik_input>
W09IXVtDSDJdW0NASF0xT1tDQEhdKFtDSDJdW0NAQEhdMVtPSF0pbihbY0hdbjIpYyhjMjMpTj1bQ0hdW05IXVtDSDJdW0NASF0zW09IXQ==

> <s_epik_cmdline>
J2VwaWtfcHl0aG9uJywgJy1waCcsICc3LjAnLCAnLXRuJywgJzgnLCAnLW1hJywgJzIwMCcsICctbWV0YWxfYmluZGluZycsICctaW1hZScsICc8aW5maWxlLm1hZT4nLCAnLW9tYWUnLCAnPG91dGZpbGUubWFlPic=

> <r_epik_Ionization_Penalty>
1.68594

> <r_epik_Ionization_Penalty_Charging>
0

> <r_epik_Ionization_Penalty_Neutral>
1.68594

> <r_epik_State_Penalty>
1.79006

> <r_epik_Charging_Adjusted_Penalty>
1.79006

> <i_epik_Tot_Q>
1

> <i_epik_Tot_abs_Q>
1

> <r_epik_Metal_State_Penalty>
5.85324

> <b_epik_Metal_Only>
0

> <s_epik_Chemistry_Notes>
This compound has an imine and may undergo hydrolysis. This compound contains an acetal/aminal-like group ( X-CH(R)-Y where X, Y are N, S, or O) that may be acid/base labile, releasing an aldehyde.

> <s_lp_Force_Field>
OPLS_2005

> <r_lp_Energy>
55.1144

> <b_lp_Chiralities_Consistent>
1

> <s_lp_Variant>
AV-unprocessed.smi:157-29

> <Gold.Version>
5.8.1

> <Gold.Id.Protein>
6NUR|6NUR_protein|mol2

> <Gold.PLP.Fitness>
47.5363

> <Gold.PLP.PLP>
-33.5101

> <Gold.PLP.part.hbond>
-3.7945

> <Gold.PLP.part.metal>
0.0000

> <Gold.PLP.part.buried>
-6.4322

> <Gold.PLP.part.nonpolar>
-23.8212

> <Gold.PLP.part.repulsive>
0.0536

> <Gold.PLP.ligand.clash>
0.0000

> <Gold.PLP.ligand.torsion>
0.3628

> <Gold.PLP.Chemscore.Hbond>
4.9120

> <Gold.PLP.Chemscore.CHOScore>
0.0000

> <Gold.PLP.Chemscore.Metal>
0.0000

> <Gold.Chemscore.Hbonds>
donor molecule, donor type, donor heavy atom, donor atom, acceptor molecule, acceptor atom, score
      L1  H     1    24       P1  7957  1.00
      L1  H     8    36       P1  8028  2.00
      L1  H    16    32       P1  8029  0.99
      P1  H  7989  7998       L1     1  0.90

> <Gold.PLP.Chemscore.Internal.Correction>
0.0157

> <Gold.Rescore>
     Score         DG    S(hbond)    S(metal)    S(lipo)     H(rot)  DE(clash)    DE(int)     intcor
     13.21     -13.51       3.35        0.00      53.27       3.67       0.03       0.27       ----

> <Gold.Chemscore.Fitness>
13.2116

> <Gold.Chemscore.DG>
-13.5136

> <Gold.Chemscore.ZeroCoef>
-5.4800

> <Gold.Chemscore.Hbond>
3.3489

> <Gold.Chemscore.Metal>
0.0000

> <Gold.Chemscore.Lipo>
53.2728

> <Gold.Chemscore.Internal_Hbond>
0.0000

> <Gold.Chemscore.DEClash>
0.0310

> <Gold.Chemscore.DEInternal>
0.2710

> <Gold.Chemscore.Rot>
3.6659

> <Gold.Chemscore.Internal.Correction>
   9.000000E+99

> <Gold.Chemscore.Hbonds>
donor molecule, donor type, donor heavy atom, donor atom, acceptor molecule, acceptor atom, score
      L1  H     1    24       P1  7957  1.00
      L1  H     8    36       P1  8028  0.88
      L1  H    16    32       P1  8029  0.86
      P1  H  7989  7998       L1     1  0.26

> <Gold.Chemscore.Hbond.Weighted>
-11.1855

> <Gold.Chemscore.Metal.Weighted>
-0.0000

> <Gold.Chemscore.Lipo.Weighted>
-6.2329

> <Gold.Chemscore.Internal_Hbond.Weighted>
0.0000

> <Gold.Chemscore.DEClash.Weighted>
0.0310

> <Gold.Chemscore.DEInternal.Weighted>
0.2710

> <Gold.Chemscore.Rot.Weighted>
9.3848

> <Gold.Chemscore.Internal.Correction.Weighted>
   9.000000E+99

> <Gold.Protein.RotatedTorsions>
[ 6907 6896 6895 6894 ] final   86.74 input  -60.11 | X-H torsion
[ 7974 7965 7964 7962 ] final  -65.32 input  175.53 | X-H torsion
[ 8008 7997 7996 7995 ] final -177.66 input   59.86 | X-H torsion
[ 10167 10162 10161 10158 ] final -147.15 input  -65.29 | X-H torsion
[ 10718 10713 10712 10709 ] final   27.90 input   66.30 | X-H torsion
[ 10763 10752 10751 10750 ] final  154.42 input  -60.55 | X-H torsion
[ 11005 11000 10999 10996 ] final   69.42 input  -57.11 | X-H torsion

> <Gold.Protein.ActiveResidues>
 VAL166  LYS551  ARG553  GLY616  TRP617  ASP618  TYR619  PRO620  LYS621  CYS622 
 ASP623  PHE694  ASN695  SER759  ASP760  ASP761  ALA762  ILE779  LEU786  VAL792 
 PHE793  MET794  SER795  GLU796  ALA797  LYS798  CYS799  TRP800  GLU811  SER814 

> <Gold.Protein.RotatedAtoms>
  152.5399  134.2385  159.8852 H   0  0  0  0  0  0  0  0  0  0  0  0  # atno 6907 bound_to 6896
  151.2353  133.4421  159.2613 H   0  0  0  0  0  0  0  0  0  0  0  0  # atno 6908 bound_to 6896
  151.0677  134.9792  159.8349 H   0  0  0  0  0  0  0  0  0  0  0  0  # atno 6909 bound_to 6896
  145.7558  140.8886  143.0456 H   0  0  0  0  0  0  0  0  0  0  0  0  # atno 7974 bound_to 7965
  156.0095  140.1237  157.0467 H   0  0  0  0  0  0  0  0  0  0  0  0  # atno 8008 bound_to 7997
  154.4271  140.1090  156.5879 H   0  0  0  0  0  0  0  0  0  0  0  0  # atno 8009 bound_to 7997
  155.6099  140.3471  155.4621 H   0  0  0  0  0  0  0  0  0  0  0  0  # atno 8010 bound_to 7997
  139.7648  143.8323  152.2614 H   0  0  0  0  0  0  0  0  0  0  0  0  # atno 10167 bound_to 10162
  157.2263  130.7002  149.6293 H   0  0  0  0  0  0  0  0  0  0  0  0  # atno 10718 bound_to 10713
  154.1520  135.2814  155.3133 H   0  0  0  0  0  0  0  0  0  0  0  0  # atno 10763 bound_to 10752
  154.6210  135.5467  153.7579 H   0  0  0  0  0  0  0  0  0  0  0  0  # atno 10764 bound_to 10752
  153.0218  135.6439  154.1664 H   0  0  0  0  0  0  0  0  0  0  0  0  # atno 10765 bound_to 10752
  139.9655  134.6989  156.0555 H   0  0  0  0  0  0  0  0  0  0  0  0  # atno 11005 bound_to 11000
  144.6840  139.9654  143.7481 LP  0  0  0  0  0  0  0  0  0  0  0  0  # atno 17320 bound_to 7965
  146.0312  139.3337  143.0754 LP  0  0  0  0  0  0  0  0  0  0  0  0  # atno 17321 bound_to 7965
  139.8340  144.7241  150.9414 LP  0  0  0  0  0  0  0  0  0  0  0  0  # atno 17342 bound_to 10162
  140.7810  143.4044  151.1096 LP  0  0  0  0  0  0  0  0  0  0  0  0  # atno 17343 bound_to 10162
  155.9678  130.4503  150.5693 LP  0  0  0  0  0  0  0  0  0  0  0  0  # atno 17370 bound_to 10713
  157.3524  131.0736  151.1702 LP  0  0  0  0  0  0  0  0  0  0  0  0  # atno 17371 bound_to 10713
  141.1334  133.6581  156.3527 LP  0  0  0  0  0  0  0  0  0  0  0  0  # atno 17394 bound_to 11000
  140.5407  134.6123  157.5379 LP  0  0  0  0  0  0  0  0  0  0  0  0  # atno 17395 bound_to 11000

$$$$
