AV-unprocessed.smi:2538|AV-procd|sdf|9981|dock3
  -GOLD-   2272014 23D 1   1.00000     0.00000
 Structure written by MMmdl.
 48 49  0  0  0  0  0  0  0  0  1 V2000
  152.8112  143.3568  161.4812 C   0  0  0  0  0  0  0  0  0  0  0  0
  152.3106  142.9029  160.1213 C   0  0  0  0  0  0  0  0  0  0  0  0
  152.8100  141.7003  159.5721 C   0  0  0  0  0  0  0  0  0  0  0  0
  152.3712  141.2431  158.3102 C   0  0  0  0  0  0  0  0  0  0  0  0
  152.7206  140.1122  157.5919 N   0  0  0  0  0  0  0  0  0  0  0  0
  151.9742  140.2474  156.4996 C   0  0  0  0  0  0  0  0  0  0  0  0
  151.1806  141.3332  156.4262 N   0  0  0  0  0  0  0  0  0  0  0  0
  150.2810  141.6939  155.3455 C   0  0  0  0  0  0  0  0  0  0  0  0
  150.1478  140.5726  154.2970 C   0  0  2  0  0  0  0  0  0  0  0  0
  149.2489  141.0088  153.2960 O   0  0  0  0  0  0  0  0  0  0  0  0
  149.6063  139.2659  154.9161 C   0  0  0  0  0  0  0  0  0  0  0  0
  150.6345  138.2163  155.0526 N   0  0  0  0  0  0  0  0  0  0  0  0
  151.7945  138.3309  154.1588 C   0  0  0  0  0  0  0  0  0  0  0  0
  150.2125  136.6482  155.6707 S   0  0  0  0  0  0  0  0  0  0  0  0
  148.9267  136.2807  155.0571 O   0  0  0  0  0  0  0  0  0  0  0  0
  151.3811  135.7722  155.4919 O   0  0  0  0  0  0  0  0  0  0  0  0
  149.9388  136.9461  157.4859 C   0  0  0  0  0  0  0  0  0  0  0  0
  148.7634  137.9093  157.7046 C   0  0  0  0  0  0  0  0  0  0  0  0
  151.2217  137.4644  158.1517 C   0  0  0  0  0  0  0  0  0  0  0  0
  151.4118  142.0287  157.6073 C   0  0  0  0  0  0  0  0  0  0  0  0
  150.9075  143.2270  158.1427 C   0  0  0  0  0  0  0  0  0  0  0  0
  151.3553  143.6683  159.4054 C   0  0  0  0  0  0  0  0  0  0  0  0
  150.8028  144.9622  159.9765 C   0  0  0  0  0  0  0  0  0  0  0  0
  153.5859  142.6911  161.8628 H   0  0  0  0  0  0  0  0  0  0  0  0
  151.9943  143.3699  162.2031 H   0  0  0  0  0  0  0  0  0  0  0  0
  153.2352  144.3593  161.4191 H   0  0  0  0  0  0  0  0  0  0  0  0
  153.5365  141.1162  160.1174 H   0  0  0  0  0  0  0  0  0  0  0  0
  152.0031  139.5130  155.7080 H   0  0  0  0  0  0  0  0  0  0  0  0
  149.3072  141.9185  155.7825 H   0  0  0  0  0  0  0  0  0  0  0  0
  150.6363  142.6154  154.8817 H   0  0  0  0  0  0  0  0  0  0  0  0
  151.1258  140.4134  153.8448 H   0  0  0  0  0  0  0  0  0  0  0  0
  149.2272  140.3617  152.6080 H   0  0  0  0  0  0  0  0  0  0  0  0
  149.2218  139.4720  155.9156 H   0  0  0  0  0  0  0  0  0  0  0  0
  148.7485  138.8857  154.3604 H   0  0  0  0  0  0  0  0  0  0  0  0
  151.5715  137.8985  153.1836 H   0  0  0  0  0  0  0  0  0  0  0  0
  152.6493  137.8017  154.5796 H   0  0  0  0  0  0  0  0  0  0  0  0
  152.0795  139.3742  154.0218 H   0  0  0  0  0  0  0  0  0  0  0  0
  149.6806  135.9934  157.9425 H   0  0  0  0  0  0  0  0  0  0  0  0
  148.5891  138.0785  158.7672 H   0  0  0  0  0  0  0  0  0  0  0  0
  147.8404  137.5121  157.2825 H   0  0  0  0  0  0  0  0  0  0  0  0
  148.9545  138.8767  157.2395 H   0  0  0  0  0  0  0  0  0  0  0  0
  151.0814  137.5929  159.2252 H   0  0  0  0  0  0  0  0  0  0  0  0
  151.5233  138.4274  157.7382 H   0  0  0  0  0  0  0  0  0  0  0  0
  152.0464  136.7653  158.0104 H   0  0  0  0  0  0  0  0  0  0  0  0
  150.1807  143.8004  157.5860 H   0  0  0  0  0  0  0  0  0  0  0  0
  150.0388  145.3898  159.3266 H   0  0  0  0  0  0  0  0  0  0  0  0
  151.5984  145.6989  160.0891 H   0  0  0  0  0  0  0  0  0  0  0  0
  150.3505  144.7881  160.9529 H   0  0  0  0  0  0  0  0  0  0  0  0
  1  2  1  0  0  0  0
  1 24  1  0  0  0  0
  1 25  1  0  0  0  0
  1 26  1  0  0  0  0
  2 22  1  0  0  0  0
  2  3  2  0  0  0  0
  3  4  1  0  0  0  0
  3 27  1  0  0  0  0
  4 20  2  0  0  0  0
  4  5  1  0  0  0  0
  5  6  2  0  0  0  0
  6  7  1  0  0  0  0
  6 28  1  0  0  0  0
  7  8  1  0  0  0  0
  7 20  1  0  0  0  0
  8  9  1  0  0  0  0
  8 29  1  0  0  0  0
  8 30  1  0  0  0  0
  9 10  1  0  0  0  0
  9 11  1  0  0  0  0
  9 31  1  0  0  0  0
 10 32  1  0  0  0  0
 11 12  1  0  0  0  0
 11 33  1  0  0  0  0
 11 34  1  0  0  0  0
 12 13  1  0  0  0  0
 12 14  1  0  0  0  0
 13 35  1  0  0  0  0
 13 36  1  0  0  0  0
 13 37  1  0  0  0  0
 14 15  2  0  0  0  0
 14 16  2  0  0  0  0
 14 17  1  0  0  0  0
 17 18  1  0  0  0  0
 17 19  1  0  0  0  0
 17 38  1  0  0  0  0
 18 39  1  0  0  0  0
 18 40  1  0  0  0  0
 18 41  1  0  0  0  0
 19 42  1  0  0  0  0
 19 43  1  0  0  0  0
 19 44  1  0  0  0  0
 20 21  1  0  0  0  0
 21 22  2  0  0  0  0
 21 45  1  0  0  0  0
 22 23  1  0  0  0  0
 23 46  1  0  0  0  0
 23 47  1  0  0  0  0
 23 48  1  0  0  0  0
M  END
> <s_m_source_file>
AV-unprocessed.smi

> <i_m_source_file_index>
2538

> <i_lp_mmshare_version>
43012

> <i_f3d_flags>
0

> <s_epik_input>
W0NIM11jKFtjSF0xKWMoW0NIM10pW2NIXWMoYzEyKW4oW2NIXW4yKVtDSDJdW0NASF0oW09IXSlbQ0gyXU4oW0NIM10pUyg9TykoPU8pW0NIXShbQ0gzXSlbQ0gzXQ==

> <s_epik_cmdline>
J2VwaWtfcHl0aG9uJywgJy1waCcsICc3LjAnLCAnLXRuJywgJzgnLCAnLW1hJywgJzIwMCcsICctbWV0YWxfYmluZGluZycsICctaW1hZScsICc8aW5maWxlLm1hZT4nLCAnLW9tYWUnLCAnPG91dGZpbGUubWFlPic=

> <r_epik_Ionization_Penalty>
0.105018

> <r_epik_Ionization_Penalty_Charging>
0

> <r_epik_Ionization_Penalty_Neutral>
0.105018

> <r_epik_State_Penalty>
0.094904

> <r_epik_Charging_Adjusted_Penalty>
0.094904

> <i_epik_Tot_Q>
0

> <i_epik_Tot_abs_Q>
0

> <r_epik_Metal_State_Penalty>
0.000102919

> <b_epik_Metal_Only>
0

> <s_lp_Force_Field>
OPLS_2005

> <r_lp_Energy>
2.81525

> <b_lp_Chiralities_Consistent>
1

> <s_lp_Variant>
AV-unprocessed.smi:2538-1

> <Gold.Version>
5.8.1

> <Gold.Id.Protein>
6NUR|6NUR_protein|mol2

> <Gold.PLP.Fitness>
53.7041

> <Gold.PLP.PLP>
-44.1335

> <Gold.PLP.part.hbond>
-4.5968

> <Gold.PLP.part.metal>
0.0000

> <Gold.PLP.part.buried>
-4.2223

> <Gold.PLP.part.nonpolar>
-34.8615

> <Gold.PLP.part.repulsive>
0.1901

> <Gold.PLP.ligand.clash>
0.0000

> <Gold.PLP.ligand.torsion>
2.0553

> <Gold.PLP.Chemscore.Hbond>
3.7020

> <Gold.PLP.Chemscore.CHOScore>
0.0000

> <Gold.PLP.Chemscore.Metal>
0.0000

> <Gold.Chemscore.Hbonds>
donor molecule, donor type, donor heavy atom, donor atom, acceptor molecule, acceptor atom, score
      L1  H    10    32       P1  7957  0.90
      P1  H  7997  8010       L1     5  0.95
      P1  H  8011  8017       L1    10  0.90
      P1  H 10752 10763       L1    16  1.00

> <Gold.PLP.Chemscore.Internal.Correction>
2.5752

> <Gold.Rescore>
     Score         DG    S(hbond)    S(metal)    S(lipo)     H(rot)  DE(clash)    DE(int)     intcor
     17.00     -21.99       2.69        0.00     114.33       2.29       1.09       3.89       ----

> <Gold.Chemscore.Fitness>
17.0040

> <Gold.Chemscore.DG>
-21.9886

> <Gold.Chemscore.ZeroCoef>
-5.4800

> <Gold.Chemscore.Hbond>
2.6944

> <Gold.Chemscore.Metal>
0.0000

> <Gold.Chemscore.Lipo>
114.3252

> <Gold.Chemscore.Internal_Hbond>
0.0000

> <Gold.Chemscore.DEClash>
1.0917

> <Gold.Chemscore.DEInternal>
3.8929

> <Gold.Chemscore.Rot>
2.2917

> <Gold.Chemscore.Internal.Correction>
   9.000000E+99

> <Gold.Chemscore.Hbonds>
donor molecule, donor type, donor heavy atom, donor atom, acceptor molecule, acceptor atom, score
      L1  H    10    32       P1  7957  0.82
      P1  H  7997  8010       L1     5  0.20
      P1  H  8011  8017       L1    10  0.16
      P1  H 10752 10763       L1    16  1.00

> <Gold.Chemscore.Hbond.Weighted>
-8.9994

> <Gold.Chemscore.Metal.Weighted>
-0.0000

> <Gold.Chemscore.Lipo.Weighted>
-13.3761

> <Gold.Chemscore.Internal_Hbond.Weighted>
0.0000

> <Gold.Chemscore.DEClash.Weighted>
1.0917

> <Gold.Chemscore.DEInternal.Weighted>
3.8929

> <Gold.Chemscore.Rot.Weighted>
5.8669

> <Gold.Chemscore.Internal.Correction.Weighted>
   9.000000E+99

> <Gold.Protein.RotatedTorsions>
[ 6907 6896 6895 6894 ] final   -3.62 input  -60.11 | X-H torsion
[ 7974 7965 7964 7962 ] final -147.77 input  175.53 | X-H torsion
[ 8008 7997 7996 7995 ] final   51.70 input   59.86 | X-H torsion
[ 10167 10162 10161 10158 ] final -127.24 input  -65.29 | X-H torsion
[ 10718 10713 10712 10709 ] final   45.16 input   66.30 | X-H torsion
[ 10763 10752 10751 10750 ] final   69.75 input  -60.55 | X-H torsion
[ 11005 11000 10999 10996 ] final   17.54 input  -57.11 | X-H torsion

> <Gold.Protein.ActiveResidues>
 VAL166  LYS551  ARG553  GLY616  TRP617  ASP618  TYR619  PRO620  LYS621  CYS622 
 ASP623  PHE694  ASN695  SER759  ASP760  ASP761  ALA762  ILE779  LEU786  VAL792 
 PHE793  MET794  SER795  GLU796  ALA797  LYS798  CYS799  TRP800  GLU811  SER814 

> <Gold.Protein.RotatedAtoms>
  151.5108  135.1065  159.9853 H   0  0  0  0  0  0  0  0  0  0  0  0  # atno 6907 bound_to 6896
  152.4662  133.7925  159.6920 H   0  0  0  0  0  0  0  0  0  0  0  0  # atno 6908 bound_to 6896
  150.8647  133.7528  159.3006 H   0  0  0  0  0  0  0  0  0  0  0  0  # atno 6909 bound_to 6896
  144.8072  140.5283  143.5667 H   0  0  0  0  0  0  0  0  0  0  0  0  # atno 7974 bound_to 7965
  155.4397  140.3454  155.4288 H   0  0  0  0  0  0  0  0  0  0  0  0  # atno 8008 bound_to 7997
  156.1286  140.1508  156.9129 H   0  0  0  0  0  0  0  0  0  0  0  0  # atno 8009 bound_to 7997
  154.4877  140.0850  156.7505 H   0  0  0  0  0  0  0  0  0  0  0  0  # atno 8010 bound_to 7997
  139.9630  143.5929  152.2439 H   0  0  0  0  0  0  0  0  0  0  0  0  # atno 10167 bound_to 10162
  157.4346  130.8045  149.7635 H   0  0  0  0  0  0  0  0  0  0  0  0  # atno 10718 bound_to 10713
  153.0304  135.5199  154.7336 H   0  0  0  0  0  0  0  0  0  0  0  0  # atno 10763 bound_to 10752
  154.6356  135.2906  155.0167 H   0  0  0  0  0  0  0  0  0  0  0  0  # atno 10764 bound_to 10752
  154.1103  135.6623  153.4936 H   0  0  0  0  0  0  0  0  0  0  0  0  # atno 10765 bound_to 10752
  140.4348  134.1382  155.7684 H   0  0  0  0  0  0  0  0  0  0  0  0  # atno 11005 bound_to 11000
  145.5411  139.1475  143.3446 LP  0  0  0  0  0  0  0  0  0  0  0  0  # atno 17320 bound_to 7965
  146.2365  140.5550  142.8953 LP  0  0  0  0  0  0  0  0  0  0  0  0  # atno 17321 bound_to 7965
  139.6539  144.7661  151.2093 LP  0  0  0  0  0  0  0  0  0  0  0  0  # atno 17342 bound_to 10162
  140.7547  143.6116  150.8600 LP  0  0  0  0  0  0  0  0  0  0  0  0  # atno 17343 bound_to 10162
  155.9926  130.3930  150.2937 LP  0  0  0  0  0  0  0  0  0  0  0  0  # atno 17370 bound_to 10713
  157.1096  131.0218  151.3053 LP  0  0  0  0  0  0  0  0  0  0  0  0  # atno 17371 bound_to 10713
  141.1730  133.8570  157.1510 LP  0  0  0  0  0  0  0  0  0  0  0  0  # atno 17394 bound_to 11000
  140.0109  134.9988  157.0394 LP  0  0  0  0  0  0  0  0  0  0  0  0  # atno 17395 bound_to 11000

$$$$
