AV-unprocessed.smi:72|AV-procd|sdf|753|dock8
  -GOLD-   2262017 93D 1   1.00000     0.00000
 Structure written by MMmdl.
 29 30  0  0  0  0  0  0  0  0  1 V2000
  147.4326  132.2395  155.8192 N   0  0  0  0  0  0  0  0  0  0  0  0
  148.0482  133.4733  155.8521 C   0  0  0  0  0  0  0  0  0  0  0  0
  147.8022  134.3216  154.7638 N   0  0  0  0  0  0  0  0  0  0  0  0
  148.3755  135.4829  154.7916 C   0  0  0  0  0  0  0  0  0  0  0  0
  149.2309  135.8765  155.8988 N   0  0  0  0  0  0  0  0  0  0  0  0
  149.9141  137.2323  155.9618 C   0  0  2  0  0  0  0  0  0  0  0  0
  148.9929  138.2480  155.6847 O   0  0  0  0  0  0  0  0  0  0  0  0
  149.2516  138.8107  154.4017 C   0  0  1  0  0  0  0  0  0  0  0  0
  148.6658  140.2287  154.2859 C   0  0  0  0  0  0  0  0  0  0  0  0
  149.3138  140.9383  153.2516 O   0  0  0  0  0  0  0  0  0  0  0  0
  150.7778  138.7130  154.2865 C   0  0  1  0  0  0  0  0  0  0  0  0
  151.4126  139.7721  154.9805 O   0  0  0  0  0  0  0  0  0  0  0  0
  151.0830  137.3795  154.9561 C   0  0  2  0  0  0  0  0  0  0  0  0
  151.1316  136.3564  153.9765 O   0  0  0  0  0  0  0  0  0  0  0  0
  149.4394  134.9622  156.9679 C   0  0  0  0  0  0  0  0  0  0  0  0
  150.1705  135.2704  157.9091 O   0  0  0  0  0  0  0  0  0  0  0  0
  148.7940  133.7225  156.8900 N   0  0  0  0  0  0  0  0  0  0  0  0
  150.2248  137.3536  157.0008 H   0  0  0  0  0  0  0  0  0  0  0  0
  148.8178  138.1659  153.6354 H   0  0  0  0  0  0  0  0  0  0  0  0
  151.1089  138.7475  153.2476 H   0  0  0  0  0  0  0  0  0  0  0  0
  152.0330  137.3877  155.4922 H   0  0  0  0  0  0  0  0  0  0  0  0
  147.5376  131.5481  156.5475 H   0  0  0  0  0  0  0  0  0  0  0  0
  146.8341  131.9355  155.0650 H   0  0  0  0  0  0  0  0  0  0  0  0
  148.2516  136.2205  153.9988 H   0  0  0  0  0  0  0  0  0  0  0  0
  147.5901  140.2024  154.1091 H   0  0  0  0  0  0  0  0  0  0  0  0
  148.8319  140.7801  155.2118 H   0  0  0  0  0  0  0  0  0  0  0  0
  149.5303  140.3318  152.5601 H   0  0  0  0  0  0  0  0  0  0  0  0
  150.8960  139.9833  155.7430 H   0  0  0  0  0  0  0  0  0  0  0  0
  150.4389  136.5081  153.3518 H   0  0  0  0  0  0  0  0  0  0  0  0
  1  2  1  0  0  0  0
  1 22  1  0  0  0  0
  1 23  1  0  0  0  0
  2 17  2  0  0  0  0
  2  3  1  0  0  0  0
  3  4  2  0  0  0  0
  4  5  1  0  0  0  0
  4 24  1  0  0  0  0
  5  6  1  0  0  0  0
  5 15  1  0  0  0  0
  6 18  1  0  0  0  0
  6 13  1  0  0  0  0
  6  7  1  0  0  0  0
  7  8  1  0  0  0  0
  8 19  1  0  0  0  0
  8  9  1  0  0  0  0
  8 11  1  0  0  0  0
  9 10  1  0  0  0  0
  9 25  1  0  0  0  0
  9 26  1  0  0  0  0
 10 27  1  0  0  0  0
 11 20  1  0  0  0  0
 11 12  1  0  0  0  0
 11 13  1  0  0  0  0
 12 28  1  0  0  0  0
 13 21  1  0  0  0  0
 13 14  1  0  0  0  0
 14 29  1  0  0  0  0
 15 16  2  0  0  0  0
 15 17  1  0  0  0  0
M  END
> <s_m_source_file>
AV-unprocessed.smi

> <i_m_source_file_index>
72

> <i_lp_mmshare_version>
43012

> <i_f3d_flags>
0

> <s_epik_input>
W05IMl1jMW5bY0hdbihjKD1PKW4xKVtDQEBIXTJPW0NASF0oW0NIMl1bT0hdKVtDQEBIXShbT0hdKVtDQEhdMltPSF0=

> <s_epik_cmdline>
J2VwaWtfcHl0aG9uJywgJy1waCcsICc3LjAnLCAnLXRuJywgJzgnLCAnLW1hJywgJzIwMCcsICctbWV0YWxfYmluZGluZycsICctaW1hZScsICc8aW5maWxlLm1hZT4nLCAnLW9tYWUnLCAnPG91dGZpbGUubWFlPic=

> <r_lp_tautomer_probability>
4.77166e-05

> <r_epik_Ionization_Penalty>
1.3546

> <r_epik_Ionization_Penalty_Charging>
1.46833e-10

> <r_epik_Ionization_Penalty_Neutral>
1.3546

> <r_epik_State_Penalty>
3.51908

> <r_epik_Charging_Adjusted_Penalty>
3.51908

> <i_epik_Tot_Q>
0

> <i_epik_Tot_abs_Q>
0

> <r_epik_Metal_State_Penalty>
3.44088

> <b_epik_Metal_Only>
1

> <s_epik_Chemistry_Notes>
This compound contains an acetal/aminal-like group ( X-CH(R)-Y where X, Y are N, S, or O) that may be acid/base labile, releasing an aldehyde.

> <s_lp_Force_Field>
OPLS_2005

> <r_lp_Energy>
33.7938

> <b_lp_Chiralities_Consistent>
1

> <s_lp_Variant>
AV-unprocessed.smi:72-91

> <Gold.Version>
5.8.1

> <Gold.Id.Protein>
6NUR|6NUR_protein|mol2

> <Gold.PLP.Fitness>
35.7786

> <Gold.PLP.PLP>
-19.1216

> <Gold.PLP.part.hbond>
-7.0221

> <Gold.PLP.part.metal>
0.0000

> <Gold.PLP.part.buried>
-3.5133

> <Gold.PLP.part.nonpolar>
-9.8166

> <Gold.PLP.part.repulsive>
0.0863

> <Gold.PLP.ligand.clash>
0.0000

> <Gold.PLP.ligand.torsion>
0.4305

> <Gold.PLP.Chemscore.Hbond>
4.8234

> <Gold.PLP.Chemscore.CHOScore>
1.0000

> <Gold.PLP.Chemscore.Metal>
0.0000

> <Gold.Chemscore.Hbonds>
donor molecule, donor type, donor heavy atom, donor atom, acceptor molecule, acceptor atom, score
      L1  H    10    27       P1  7957  0.73
      L1  H    14    29       P1  7948  0.19
      P1  H  6896  6907       L1    16  0.77
      P1  H  7989  7998       L1    12  0.80
      P1  H  8011  8017       L1    10  0.75
      P1  H 10752 10765       L1    14  1.00
      L1  C     4    24       P1  7948  1.00

> <Gold.PLP.Chemscore.Internal.Correction>
0.0477

> <Gold.Rescore>
     Score         DG    S(hbond)    S(metal)    S(lipo)     H(rot)  DE(clash)    DE(int)     intcor
      6.63      -8.27       3.05        0.00      25.63       4.06       0.00       1.64       ----

> <Gold.Chemscore.Fitness>
6.6263

> <Gold.Chemscore.DG>
-8.2671

> <Gold.Chemscore.ZeroCoef>
-5.4800

> <Gold.Chemscore.Hbond>
3.0485

> <Gold.Chemscore.Metal>
0.0000

> <Gold.Chemscore.Lipo>
25.6303

> <Gold.Chemscore.Internal_Hbond>
0.0000

> <Gold.Chemscore.DEClash>
0.0038

> <Gold.Chemscore.DEInternal>
1.6369

> <Gold.Chemscore.Rot>
4.0600

> <Gold.Chemscore.Internal.Correction>
   9.000000E+99

> <Gold.Chemscore.Hbonds>
donor molecule, donor type, donor heavy atom, donor atom, acceptor molecule, acceptor atom, score
      L1  H    10    27       P1  7957  0.70
      P1  H  6896  6907       L1    16  0.76
      P1  H  7989  7998       L1    12  0.12
      P1  H  8011  8017       L1    10  0.09
      P1  H 10752 10765       L1    14  0.34

> <Gold.Chemscore.Hbond.Weighted>
-10.1819

> <Gold.Chemscore.Metal.Weighted>
-0.0000

> <Gold.Chemscore.Lipo.Weighted>
-2.9987

> <Gold.Chemscore.Internal_Hbond.Weighted>
0.0000

> <Gold.Chemscore.DEClash.Weighted>
0.0038

> <Gold.Chemscore.DEInternal.Weighted>
1.6369

> <Gold.Chemscore.Rot.Weighted>
10.3936

> <Gold.Chemscore.Internal.Correction.Weighted>
   9.000000E+99

> <Gold.Protein.RotatedTorsions>
[ 6907 6896 6895 6894 ] final  -71.80 input  -60.11 | X-H torsion
[ 7974 7965 7964 7962 ] final  -69.09 input  175.53 | X-H torsion
[ 8008 7997 7996 7995 ] final   21.25 input   59.86 | X-H torsion
[ 10167 10162 10161 10158 ] final   34.75 input  -65.29 | X-H torsion
[ 10718 10713 10712 10709 ] final  171.89 input   66.30 | X-H torsion
[ 10763 10752 10751 10750 ] final  155.98 input  -60.55 | X-H torsion
[ 11005 11000 10999 10996 ] final  143.10 input  -57.11 | X-H torsion

> <Gold.Protein.ActiveResidues>
 VAL166  LYS551  ARG553  GLY616  TRP617  ASP618  TYR619  PRO620  LYS621  CYS622 
 ASP623  PHE694  ASN695  SER759  ASP760  ASP761  ALA762  ILE779  LEU786  VAL792 
 PHE793  MET794  SER795  GLU796  ALA797  LYS798  CYS799  TRP800  GLU811  SER814 

> <Gold.Protein.RotatedAtoms>
  150.7197  134.5255  159.5674 H   0  0  0  0  0  0  0  0  0  0  0  0  # atno 6907 bound_to 6896
  152.2801  134.7835  160.0407 H   0  0  0  0  0  0  0  0  0  0  0  0  # atno 6908 bound_to 6896
  151.8485  133.3400  159.3702 H   0  0  0  0  0  0  0  0  0  0  0  0  # atno 6909 bound_to 6896
  145.7082  140.9089  143.0695 H   0  0  0  0  0  0  0  0  0  0  0  0  # atno 7974 bound_to 7965
  154.9477  140.3061  155.5090 H   0  0  0  0  0  0  0  0  0  0  0  0  # atno 8008 bound_to 7997
  156.2990  140.2324  156.4490 H   0  0  0  0  0  0  0  0  0  0  0  0  # atno 8009 bound_to 7997
  154.8084  140.0430  157.1313 H   0  0  0  0  0  0  0  0  0  0  0  0  # atno 8010 bound_to 7997
  140.4286  144.1357  150.6156 H   0  0  0  0  0  0  0  0  0  0  0  0  # atno 10167 bound_to 10162
  156.9869  131.0136  151.2867 H   0  0  0  0  0  0  0  0  0  0  0  0  # atno 10718 bound_to 10713
  154.1771  135.2801  155.3063 H   0  0  0  0  0  0  0  0  0  0  0  0  # atno 10763 bound_to 10752
  154.6031  135.5523  153.7398 H   0  0  0  0  0  0  0  0  0  0  0  0  # atno 10764 bound_to 10752
  153.0148  135.6397  154.1910 H   0  0  0  0  0  0  0  0  0  0  0  0  # atno 10765 bound_to 10752
  140.0528  134.9247  157.1047 H   0  0  0  0  0  0  0  0  0  0  0  0  # atno 11005 bound_to 11000
  144.6949  139.9038  143.7460 LP  0  0  0  0  0  0  0  0  0  0  0  0  # atno 17320 bound_to 7965
  146.0737  139.3725  143.0507 LP  0  0  0  0  0  0  0  0  0  0  0  0  # atno 17321 bound_to 7965
  140.4453  143.2509  151.9419 LP  0  0  0  0  0  0  0  0  0  0  0  0  # atno 17342 bound_to 10162
  139.4784  144.5615  151.8232 LP  0  0  0  0  0  0  0  0  0  0  0  0  # atno 17343 bound_to 10162
  157.5486  130.8167  149.8117 LP  0  0  0  0  0  0  0  0  0  0  0  0  # atno 17370 bound_to 10713
  156.0222  130.3791  150.1928 LP  0  0  0  0  0  0  0  0  0  0  0  0  # atno 17371 bound_to 10713
  140.3891  134.2204  155.7167 LP  0  0  0  0  0  0  0  0  0  0  0  0  # atno 17394 bound_to 11000
  141.1938  133.8142  157.0784 LP  0  0  0  0  0  0  0  0  0  0  0  0  # atno 17395 bound_to 11000

$$$$
