AV-unprocessed.smi:1933|AV-procd|sdf|7822|dock5
  -GOLD-   22720 9563D 1   1.00000     0.00000
 Structure written by MMmdl.
 48 50  0  0  0  0  0  0  0  0  2 V2000
  144.5707  136.8173  152.1236 O   0  0  0  0  0  0  0  0  0  0  0  0
  145.7744  136.5827  152.0144 C   0  0  0  0  0  0  0  0  0  0  0  0
  146.7321  137.4695  152.3219 N   0  0  0  0  0  0  0  0  0  0  0  0
  146.5044  138.8243  152.8155 C   0  0  0  0  0  0  0  0  0  0  0  0
  147.8171  139.5345  153.2438 C   0  0  1  0  0  0  0  0  0  0  0  0
  147.5922  140.7691  154.1633 C   0  0  1  0  0  0  0  0  0  0  0  0
  146.8792  141.9292  153.4850 C   0  0  0  0  0  0  0  0  0  0  0  0
  146.3966  142.7482  154.6736 C   0  0  0  0  0  0  0  0  0  0  0  0
  146.0212  141.7825  155.6442 O   0  0  0  0  0  0  0  0  0  0  0  0
  146.6740  140.5452  155.3751 C   0  0  0  0  0  0  0  0  0  0  0  0
  148.7742  138.5877  153.8930 N   0  3  0  0  0  0  0  0  0  0  0  0
  150.1117  139.1373  154.2337 C   0  0  0  0  0  0  0  0  0  0  0  0
  151.0343  138.0067  154.7177 C   0  0  0  0  0  0  0  0  0  0  0  0
  150.4421  137.3565  155.8363 O   0  0  0  0  0  0  0  0  0  0  0  0
  149.1922  136.7596  155.5101 C   0  0  0  0  0  0  0  0  0  0  0  0
  148.2052  137.8431  155.0428 C   0  0  0  0  0  0  0  0  0  0  0  0
  146.3051  135.4277  151.5756 N   0  0  0  0  0  0  0  0  0  0  0  0
  145.6241  134.2616  151.1344 C   0  0  0  0  0  0  0  0  0  0  0  0
  146.4602  133.1852  150.7605 C   0  0  0  0  0  0  0  0  0  0  0  0
  145.8817  131.9831  150.3089 C   0  0  0  0  0  0  0  0  0  0  0  0
  144.4803  131.8880  150.2423 C   0  0  0  0  0  0  0  0  0  0  0  0
  143.7210  133.0068  150.6315 C   0  0  0  0  0  0  0  0  0  0  0  0
  144.2733  134.1597  151.0647 N   0  0  0  0  0  0  0  0  0  0  0  0
  147.6936  137.1851  152.2041 H   0  0  0  0  0  0  0  0  0  0  0  0
  145.9948  139.4213  152.0580 H   0  0  0  0  0  0  0  0  0  0  0  0
  145.8182  138.7424  153.6578 H   0  0  0  0  0  0  0  0  0  0  0  0
  148.3075  139.9021  152.3408 H   0  0  0  0  0  0  0  0  0  0  0  0
  148.5525  141.1318  154.5328 H   0  0  0  0  0  0  0  0  0  0  0  0
  147.5260  142.5043  152.8215 H   0  0  0  0  0  0  0  0  0  0  0  0
  146.0256  141.5714  152.9071 H   0  0  0  0  0  0  0  0  0  0  0  0
  147.2089  143.3556  155.0749 H   0  0  0  0  0  0  0  0  0  0  0  0
  145.5664  143.4089  154.4224 H   0  0  0  0  0  0  0  0  0  0  0  0
  145.9066  139.8014  155.1578 H   0  0  0  0  0  0  0  0  0  0  0  0
  147.2283  140.2120  156.2524 H   0  0  0  0  0  0  0  0  0  0  0  0
  150.5577  139.6259  153.3680 H   0  0  0  0  0  0  0  0  0  0  0  0
  150.0251  139.8875  155.0205 H   0  0  0  0  0  0  0  0  0  0  0  0
  151.2227  137.2870  153.9191 H   0  0  0  0  0  0  0  0  0  0  0  0
  152.0012  138.4124  155.0159 H   0  0  0  0  0  0  0  0  0  0  0  0
  149.3293  135.9991  154.7396 H   0  0  0  0  0  0  0  0  0  0  0  0
  148.8021  136.2519  156.3924 H   0  0  0  0  0  0  0  0  0  0  0  0
  147.9918  138.5263  155.8652 H   0  0  0  0  0  0  0  0  0  0  0  0
  147.2615  137.3764  154.7583 H   0  0  0  0  0  0  0  0  0  0  0  0
  147.3126  135.3763  151.5485 H   0  0  0  0  0  0  0  0  0  0  0  0
  147.5353  133.2743  150.8177 H   0  0  0  0  0  0  0  0  0  0  0  0
  146.5032  131.1489  150.0192 H   0  0  0  0  0  0  0  0  0  0  0  0
  143.9999  130.9826  149.9018 H   0  0  0  0  0  0  0  0  0  0  0  0
  142.6422  132.9760  150.5942 H   0  0  0  0  0  0  0  0  0  0  0  0
  148.9449  137.8819  153.1909 H   0  0  0  0  0  0  0  0  0  0  0  0
  1  2  2  0  0  0  0
  2  3  1  0  0  0  0
  2 17  1  0  0  0  0
  3  4  1  0  0  0  0
  3 24  1  0  0  0  0
  4  5  1  0  0  0  0
  4 25  1  0  0  0  0
  4 26  1  0  0  0  0
  5  6  1  0  0  0  0
  5 11  1  0  0  0  0
  5 27  1  0  0  0  0
  6 10  1  0  0  0  0
  6  7  1  0  0  0  0
  6 28  1  0  0  0  0
  7  8  1  0  0  0  0
  7 29  1  0  0  0  0
  7 30  1  0  0  0  0
  8  9  1  0  0  0  0
  8 31  1  0  0  0  0
  8 32  1  0  0  0  0
  9 10  1  0  0  0  0
 10 33  1  0  0  0  0
 10 34  1  0  0  0  0
 11 16  1  0  0  0  0
 11 12  1  0  0  0  0
 11 48  1  0  0  0  0
 12 13  1  0  0  0  0
 12 35  1  0  0  0  0
 12 36  1  0  0  0  0
 13 14  1  0  0  0  0
 13 37  1  0  0  0  0
 13 38  1  0  0  0  0
 14 15  1  0  0  0  0
 15 16  1  0  0  0  0
 15 39  1  0  0  0  0
 15 40  1  0  0  0  0
 16 41  1  0  0  0  0
 16 42  1  0  0  0  0
 17 18  1  0  0  0  0
 17 43  1  0  0  0  0
 18 23  1  0  0  0  0
 18 19  2  0  0  0  0
 19 20  1  0  0  0  0
 19 44  1  0  0  0  0
 20 21  2  0  0  0  0
 20 45  1  0  0  0  0
 21 22  1  0  0  0  0
 21 46  1  0  0  0  0
 22 23  2  0  0  0  0
 22 47  1  0  0  0  0
M  CHG  1  11   1
M  END
> <s_m_source_file>
AV-unprocessed.smi

> <i_m_source_file_index>
1933

> <i_lp_mmshare_version>
43012

> <i_f3d_flags>
0

> <s_epik_input>
bjFbY0hdW2NIXVtjSF1bY0hdYzFbTkhdQyg9TylbTkhdW0NIMl1bQ0BIXShbQ0BASF0yW0NIMl1bQ0gyXU9bQ0gyXTIpTjNbQ0gyXVtDSDJdT1tDSDJdW0NIMl0z

> <s_epik_cmdline>
J2VwaWtfcHl0aG9uJywgJy1waCcsICc3LjAnLCAnLXRuJywgJzgnLCAnLW1hJywgJzIwMCcsICctbWV0YWxfYmluZGluZycsICctaW1hZScsICc8aW5maWxlLm1hZT4nLCAnLW9tYWUnLCAnPG91dGZpbGUubWFlPic=

> <r_epik_Ionization_Penalty>
0.983294

> <r_epik_Ionization_Penalty_Charging>
0.98326

> <r_epik_Ionization_Penalty_Neutral>
3.39688e-05

> <r_epik_State_Penalty>
1.0303

> <r_epik_Charging_Adjusted_Penalty>
2.01356

> <i_epik_Tot_Q>
1

> <i_epik_Tot_abs_Q>
1

> <r_epik_Metal_State_Penalty>
1.0303

> <b_epik_Metal_Only>
0

> <s_lp_Force_Field>
OPLS_2005

> <r_lp_Energy>
40.1163

> <b_lp_Chiralities_Consistent>
1

> <s_lp_Variant>
AV-unprocessed.smi:1933-8

> <Gold.Version>
5.8.1

> <Gold.Id.Protein>
6NUR|6NUR_protein|mol2

> <Gold.PLP.Fitness>
51.9648

> <Gold.PLP.PLP>
-37.7310

> <Gold.PLP.part.hbond>
-3.6214

> <Gold.PLP.part.metal>
0.0000

> <Gold.PLP.part.buried>
-2.7907

> <Gold.PLP.part.nonpolar>
-32.0205

> <Gold.PLP.part.repulsive>
0.6774

> <Gold.PLP.ligand.clash>
0.0000

> <Gold.PLP.ligand.torsion>
0.4202

> <Gold.PLP.Chemscore.Hbond>
3.9760

> <Gold.PLP.Chemscore.CHOScore>
0.9800

> <Gold.PLP.Chemscore.Metal>
0.0000

> <Gold.Chemscore.Hbonds>
donor molecule, donor type, donor heavy atom, donor atom, acceptor molecule, acceptor atom, score
      L1  H     3    24       P1  7948  1.00
      L1  H    11    48       P1  7948  1.69
      L1  H    17    43       P1  7948  0.98
      L1  C    22    47       P1 10186  1.00

> <Gold.PLP.Chemscore.Internal.Correction>
0.2060

> <Gold.Rescore>
     Score         DG    S(hbond)    S(metal)    S(lipo)     H(rot)  DE(clash)    DE(int)     intcor
     18.97     -21.07       2.74        0.00      93.67       1.77       0.39       1.72       ----

> <Gold.Chemscore.Fitness>
18.9655

> <Gold.Chemscore.DG>
-21.0731

> <Gold.Chemscore.ZeroCoef>
-5.4800

> <Gold.Chemscore.Hbond>
2.7418

> <Gold.Chemscore.Metal>
0.0000

> <Gold.Chemscore.Lipo>
93.6694

> <Gold.Chemscore.Internal_Hbond>
0.0000

> <Gold.Chemscore.DEClash>
0.3898

> <Gold.Chemscore.DEInternal>
1.7177

> <Gold.Chemscore.Rot>
1.7671

> <Gold.Chemscore.Internal.Correction>
   9.000000E+99

> <Gold.Chemscore.Hbonds>
donor molecule, donor type, donor heavy atom, donor atom, acceptor molecule, acceptor atom, score
      L1  H     3    24       P1  7948  0.98
      L1  H    11    48       P1  7948  0.82
      L1  H    17    43       P1  7948  0.88

> <Gold.Chemscore.Hbond.Weighted>
-9.1575

> <Gold.Chemscore.Metal.Weighted>
-0.0000

> <Gold.Chemscore.Lipo.Weighted>
-10.9593

> <Gold.Chemscore.Internal_Hbond.Weighted>
0.0000

> <Gold.Chemscore.DEClash.Weighted>
0.3898

> <Gold.Chemscore.DEInternal.Weighted>
1.7177

> <Gold.Chemscore.Rot.Weighted>
4.5238

> <Gold.Chemscore.Internal.Correction.Weighted>
   9.000000E+99

> <Gold.Protein.RotatedTorsions>
[ 6907 6896 6895 6894 ] final    7.88 input  -60.11 | X-H torsion
[ 7974 7965 7964 7962 ] final  145.58 input  175.53 | X-H torsion
[ 8008 7997 7996 7995 ] final -119.14 input   59.86 | X-H torsion
[ 10167 10162 10161 10158 ] final  136.75 input  -65.29 | X-H torsion
[ 10718 10713 10712 10709 ] final   56.23 input   66.30 | X-H torsion
[ 10763 10752 10751 10750 ] final   49.62 input  -60.55 | X-H torsion
[ 11005 11000 10999 10996 ] final   84.84 input  -57.11 | X-H torsion

> <Gold.Protein.ActiveResidues>
 VAL166  LYS551  ARG553  GLY616  TRP617  ASP618  TYR619  PRO620  LYS621  CYS622 
 ASP623  PHE694  ASN695  SER759  ASP760  ASP761  ALA762  ILE779  LEU786  VAL792 
 PHE793  MET794  SER795  GLU796  ALA797  LYS798  CYS799  TRP800  GLU811  SER814 

> <Gold.Protein.RotatedAtoms>
  151.6971  135.0936  160.0243 H   0  0  0  0  0  0  0  0  0  0  0  0  # atno 6907 bound_to 6896
  152.3743  133.6456  159.6120 H   0  0  0  0  0  0  0  0  0  0  0  0  # atno 6908 bound_to 6896
  150.7697  133.9135  159.3418 H   0  0  0  0  0  0  0  0  0  0  0  0  # atno 6909 bound_to 6896
  144.8740  139.5801  143.5873 H   0  0  0  0  0  0  0  0  0  0  0  0  # atno 7974 bound_to 7965
  155.1110  140.0397  157.2724 H   0  0  0  0  0  0  0  0  0  0  0  0  # atno 8008 bound_to 7997
  154.6685  140.2607  155.7006 H   0  0  0  0  0  0  0  0  0  0  0  0  # atno 8009 bound_to 7997
  156.2649  140.2802  156.1185 H   0  0  0  0  0  0  0  0  0  0  0  0  # atno 8010 bound_to 7997
  139.5169  144.6448  151.5471 H   0  0  0  0  0  0  0  0  0  0  0  0  # atno 10167 bound_to 10162
  157.5413  130.8699  149.8826 H   0  0  0  0  0  0  0  0  0  0  0  0  # atno 10718 bound_to 10713
  152.9786  135.5905  154.4119 H   0  0  0  0  0  0  0  0  0  0  0  0  # atno 10763 bound_to 10752
  154.3753  135.2767  155.2244 H   0  0  0  0  0  0  0  0  0  0  0  0  # atno 10764 bound_to 10752
  154.4182  135.6065  153.6048 H   0  0  0  0  0  0  0  0  0  0  0  0  # atno 10765 bound_to 10752
  139.8988  134.8245  156.2501 H   0  0  0  0  0  0  0  0  0  0  0  0  # atno 11005 bound_to 11000
  146.2950  139.7251  142.9133 LP  0  0  0  0  0  0  0  0  0  0  0  0  # atno 17320 bound_to 7965
  145.4076  141.0393  143.3035 LP  0  0  0  0  0  0  0  0  0  0  0  0  # atno 17321 bound_to 7965
  140.6228  143.9226  150.6540 LP  0  0  0  0  0  0  0  0  0  0  0  0  # atno 17342 bound_to 10162
  140.2505  143.3597  152.1410 LP  0  0  0  0  0  0  0  0  0  0  0  0  # atno 17343 bound_to 10162
  156.0499  130.3720  150.1227 LP  0  0  0  0  0  0  0  0  0  0  0  0  # atno 17370 bound_to 10713
  156.9406  130.9743  151.3517 LP  0  0  0  0  0  0  0  0  0  0  0  0  # atno 17371 bound_to 10713
  141.0229  133.7031  156.1299 LP  0  0  0  0  0  0  0  0  0  0  0  0  # atno 17394 bound_to 11000
  140.7207  134.4361  157.5575 LP  0  0  0  0  0  0  0  0  0  0  0  0  # atno 17395 bound_to 11000

$$$$
