AV-unprocessed.smi:1043|AV-procd|sdf|4541|dock1
  -GOLD-   22720 2563D 1   1.00000     0.00000
 Structure written by MMmdl.
 34 35  0  0  0  0  0  0  0  0  2 V2000
  152.8668  137.3636  157.2354 C   0  0  0  0  0  0  0  0  0  0  0  0
  151.8903  138.5604  157.3131 C   0  0  0  0  0  0  0  0  0  0  0  0
  150.5495  138.0705  157.6679 N   0  0  0  0  0  0  0  0  0  0  0  0
  150.1557  137.3877  158.7561 C   0  0  0  0  0  0  0  0  0  0  0  0
  150.9701  137.0768  159.6279 O   0  0  0  0  0  0  0  0  0  0  0  0
  148.8304  137.1184  158.7706 N   0  5  0  0  0  0  0  0  0  0  0  0
  148.2850  136.4895  159.8245 C   0  0  0  0  0  0  0  0  0  0  0  0
  147.9132  137.1412  160.9379 N   0  0  0  0  0  0  0  0  0  0  0  0
  147.3771  136.3036  161.9069 N   0  0  0  0  0  0  0  0  0  0  0  0
  147.3675  135.0343  161.5007 C   0  0  0  0  0  0  0  0  0  0  0  0
  148.0119  134.7465  159.8986 S   0  0  0  0  0  0  0  0  0  0  0  0
  152.4445  139.6003  158.3302 C   0  0  0  0  0  0  0  0  0  0  0  0
  151.4738  140.6434  158.9286 C   0  0  0  0  0  0  0  0  0  0  0  0
  150.4433  141.2846  157.9833 C   0  0  0  0  0  0  0  0  0  0  0  0
  150.9291  141.5309  156.5487 C   0  0  0  0  0  0  0  0  0  0  0  0
  150.7862  140.2893  155.6541 C   0  0  0  0  0  0  0  0  0  0  0  0
  151.8348  139.1884  155.8950 C   0  0  0  0  0  0  0  0  0  0  0  0
  153.8524  137.6807  156.8927 H   0  0  0  0  0  0  0  0  0  0  0  0
  152.5089  136.6012  156.5423 H   0  0  0  0  0  0  0  0  0  0  0  0
  153.0080  136.8805  158.2023 H   0  0  0  0  0  0  0  0  0  0  0  0
  149.8216  138.2885  157.0036 H   0  0  0  0  0  0  0  0  0  0  0  0
  146.9806  134.2624  162.1489 H   0  0  0  0  0  0  0  0  0  0  0  0
  152.8953  139.0740  159.1728 H   0  0  0  0  0  0  0  0  0  0  0  0
  153.2791  140.1287  157.8680 H   0  0  0  0  0  0  0  0  0  0  0  0
  150.9343  140.1972  159.7646 H   0  0  0  0  0  0  0  0  0  0  0  0
  152.0770  141.4357  159.3732 H   0  0  0  0  0  0  0  0  0  0  0  0
  149.5381  140.6765  157.9598 H   0  0  0  0  0  0  0  0  0  0  0  0
  150.1336  142.2344  158.4206 H   0  0  0  0  0  0  0  0  0  0  0  0
  150.3123  142.3205  156.1180 H   0  0  0  0  0  0  0  0  0  0  0  0
  151.9511  141.9110  156.5390 H   0  0  0  0  0  0  0  0  0  0  0  0
  149.7797  139.8789  155.7432 H   0  0  0  0  0  0  0  0  0  0  0  0
  150.8746  140.6087  154.6156 H   0  0  0  0  0  0  0  0  0  0  0  0
  152.8185  139.5799  155.6320 H   0  0  0  0  0  0  0  0  0  0  0  0
  151.6407  138.3974  155.1690 H   0  0  0  0  0  0  0  0  0  0  0  0
  1  2  1  0  0  0  0
  1 18  1  0  0  0  0
  1 19  1  0  0  0  0
  1 20  1  0  0  0  0
  2 17  1  0  0  0  0
  2  3  1  0  0  0  0
  2 12  1  0  0  0  0
  3  4  1  0  0  0  0
  3 21  1  0  0  0  0
  4  5  2  0  0  0  0
  4  6  1  0  0  0  0
  6  7  1  0  0  0  0
  7 11  1  0  0  0  0
  7  8  2  0  0  0  0
  8  9  1  0  0  0  0
  9 10  2  0  0  0  0
 10 11  1  0  0  0  0
 10 22  1  0  0  0  0
 12 13  1  0  0  0  0
 12 23  1  0  0  0  0
 12 24  1  0  0  0  0
 13 14  1  0  0  0  0
 13 25  1  0  0  0  0
 13 26  1  0  0  0  0
 14 15  1  0  0  0  0
 14 27  1  0  0  0  0
 14 28  1  0  0  0  0
 15 16  1  0  0  0  0
 15 29  1  0  0  0  0
 15 30  1  0  0  0  0
 16 17  1  0  0  0  0
 16 31  1  0  0  0  0
 16 32  1  0  0  0  0
 17 33  1  0  0  0  0
 17 34  1  0  0  0  0
M  CHG  1   6  -1
M  END
> <s_m_source_file>
AV-unprocessed.smi

> <i_m_source_file_index>
1043

> <i_lp_mmshare_version>
43012

> <i_f3d_flags>
0

> <s_epik_input>
W0NIMl0xW0NIMl1bQ0gyXVtDSDJdW0NIMl1bQ0gyXUMxKFtDSDNdKVtOSF1DKD1PKVtOSF1jMm5uW2NIXXMy

> <s_epik_cmdline>
J2VwaWtfcHl0aG9uJywgJy1waCcsICc3LjAnLCAnLXRuJywgJzgnLCAnLW1hJywgJzIwMCcsICctbWV0YWxfYmluZGluZycsICctaW1hZScsICc8aW5maWxlLm1hZT4nLCAnLW9tYWUnLCAnPG91dGZpbGUubWFlPic=

> <r_lp_tautomer_probability>
1

> <r_epik_Ionization_Penalty>
4.55555

> <r_epik_Ionization_Penalty_Charging>
4.50588

> <r_epik_Ionization_Penalty_Neutral>
0.0496753

> <r_epik_State_Penalty>
4.50558

> <r_epik_Charging_Adjusted_Penalty>
9.01146

> <i_epik_Tot_Q>
-1

> <i_epik_Tot_abs_Q>
1

> <r_epik_Metal_State_Penalty>
0.822218

> <b_epik_Metal_Only>
1

> <s_lp_Force_Field>
OPLS_2005

> <r_lp_Energy>
17.5754

> <b_lp_Chiralities_Consistent>
1

> <s_lp_Variant>
AV-unprocessed.smi:1043-2

> <Gold.Version>
5.8.1

> <Gold.Id.Protein>
6NUR|6NUR_protein|mol2

> <Gold.PLP.Fitness>
33.0618

> <Gold.PLP.PLP>
-26.4668

> <Gold.PLP.part.hbond>
-3.0000

> <Gold.PLP.part.metal>
0.0000

> <Gold.PLP.part.buried>
-4.4967

> <Gold.PLP.part.nonpolar>
-19.5386

> <Gold.PLP.part.repulsive>
0.0420

> <Gold.PLP.ligand.clash>
0.0000

> <Gold.PLP.ligand.torsion>
0.7572

> <Gold.PLP.Chemscore.Hbond>
2.6960

> <Gold.PLP.Chemscore.CHOScore>
0.0000

> <Gold.PLP.Chemscore.Metal>
0.0000

> <Gold.Chemscore.Hbonds>
donor molecule, donor type, donor heavy atom, donor atom, acceptor molecule, acceptor atom, score
      P1  H  6896  6907       L1     5  1.00
      P1  H  6931  6943       L1     8  0.93
      P1  H  6934  6947       L1     8  0.80

> <Gold.PLP.Chemscore.Internal.Correction>
0.0213

> <Gold.Rescore>
     Score         DG    S(hbond)    S(metal)    S(lipo)     H(rot)  DE(clash)    DE(int)     intcor
     16.17     -16.88       2.39        0.00      51.22       1.00       0.03       0.69       ----

> <Gold.Chemscore.Fitness>
16.1699

> <Gold.Chemscore.DG>
-16.8845

> <Gold.Chemscore.ZeroCoef>
-5.4800

> <Gold.Chemscore.Hbond>
2.3867

> <Gold.Chemscore.Metal>
0.0000

> <Gold.Chemscore.Lipo>
51.2211

> <Gold.Chemscore.Internal_Hbond>
0.0000

> <Gold.Chemscore.DEClash>
0.0270

> <Gold.Chemscore.DEInternal>
0.6877

> <Gold.Chemscore.Rot>
1.0000

> <Gold.Chemscore.Internal.Correction>
   9.000000E+99

> <Gold.Chemscore.Hbonds>
donor molecule, donor type, donor heavy atom, donor atom, acceptor molecule, acceptor atom, score
      P1  H  6896  6907       L1     5  0.90
      P1  H  6931  6943       L1     8  0.41
      P1  H  6934  6947       L1     8  0.70

> <Gold.Chemscore.Hbond.Weighted>
-7.9717

> <Gold.Chemscore.Metal.Weighted>
-0.0000

> <Gold.Chemscore.Lipo.Weighted>
-5.9929

> <Gold.Chemscore.Internal_Hbond.Weighted>
0.0000

> <Gold.Chemscore.DEClash.Weighted>
0.0270

> <Gold.Chemscore.DEInternal.Weighted>
0.6877

> <Gold.Chemscore.Rot.Weighted>
2.5600

> <Gold.Chemscore.Internal.Correction.Weighted>
   9.000000E+99

> <Gold.Protein.RotatedTorsions>
[ 6907 6896 6895 6894 ] final  -20.25 input  -60.11 | X-H torsion
[ 7974 7965 7964 7962 ] final  164.35 input  175.53 | X-H torsion
[ 8008 7997 7996 7995 ] final  161.93 input   59.86 | X-H torsion
[ 10167 10162 10161 10158 ] final -121.29 input  -65.29 | X-H torsion
[ 10718 10713 10712 10709 ] final  171.42 input   66.30 | X-H torsion
[ 10763 10752 10751 10750 ] final  -24.42 input  -60.55 | X-H torsion
[ 11005 11000 10999 10996 ] final -136.97 input  -57.11 | X-H torsion

> <Gold.Protein.ActiveResidues>
 VAL166  LYS551  ARG553  GLY616  TRP617  ASP618  TYR619  PRO620  LYS621  CYS622 
 ASP623  PHE694  ASN695  SER759  ASP760  ASP761  ALA762  ILE779  LEU786  VAL792 
 PHE793  MET794  SER795  GLU796  ALA797  LYS798  CYS799  TRP800  GLU811  SER814 

> <Gold.Protein.RotatedAtoms>
  151.2510  135.0622  159.9061 H   0  0  0  0  0  0  0  0  0  0  0  0  # atno 6907 bound_to 6896
  152.5380  134.0332  159.8044 H   0  0  0  0  0  0  0  0  0  0  0  0  # atno 6908 bound_to 6896
  151.0540  133.5550  159.2671 H   0  0  0  0  0  0  0  0  0  0  0  0  # atno 6909 bound_to 6896
  144.7549  139.8314  143.6353 H   0  0  0  0  0  0  0  0  0  0  0  0  # atno 7974 bound_to 7965
  156.2068  140.1764  156.7782 H   0  0  0  0  0  0  0  0  0  0  0  0  # atno 8008 bound_to 7997
  154.5666  140.0690  156.8931 H   0  0  0  0  0  0  0  0  0  0  0  0  # atno 8009 bound_to 7997
  155.2749  140.3345  155.4265 H   0  0  0  0  0  0  0  0  0  0  0  0  # atno 8010 bound_to 7997
  140.0267  143.5290  152.2196 H   0  0  0  0  0  0  0  0  0  0  0  0  # atno 10167 bound_to 10162
  156.9938  131.0155  151.2849 H   0  0  0  0  0  0  0  0  0  0  0  0  # atno 10718 bound_to 10713
  153.6836  135.6965  153.5110 H   0  0  0  0  0  0  0  0  0  0  0  0  # atno 10763 bound_to 10752
  153.2466  135.4288  155.0753 H   0  0  0  0  0  0  0  0  0  0  0  0  # atno 10764 bound_to 10752
  154.8393  135.3521  154.6379 H   0  0  0  0  0  0  0  0  0  0  0  0  # atno 10765 bound_to 10752
  140.8755  134.1997  157.4624 H   0  0  0  0  0  0  0  0  0  0  0  0  # atno 11005 bound_to 11000
  146.1546  139.4640  143.0027 LP  0  0  0  0  0  0  0  0  0  0  0  0  # atno 17320 bound_to 7965
  145.6815  141.0190  143.1604 LP  0  0  0  0  0  0  0  0  0  0  0  0  # atno 17321 bound_to 7965
  139.6103  144.7607  151.2966 LP  0  0  0  0  0  0  0  0  0  0  0  0  # atno 17342 bound_to 10162
  140.7320  143.6837  150.7980 LP  0  0  0  0  0  0  0  0  0  0  0  0  # atno 17343 bound_to 10162
  157.5439  130.8138  149.8062 LP  0  0  0  0  0  0  0  0  0  0  0  0  # atno 17370 bound_to 10713
  156.0197  130.3800  150.2000 LP  0  0  0  0  0  0  0  0  0  0  0  0  # atno 17371 bound_to 10713
  139.8715  134.9794  156.5034 LP  0  0  0  0  0  0  0  0  0  0  0  0  # atno 17394 bound_to 11000
  140.8523  133.8123  155.9181 LP  0  0  0  0  0  0  0  0  0  0  0  0  # atno 17395 bound_to 11000

$$$$
