#       Name:                AV-unprocessed.smi:769
#       Creating user name   scv26
#       Creation time:       Fri Mar 27 01:08:55 2020


#       File generated by GOLD software.
#

@<TRIPOS>MOLECULE
AV-unprocessed.smi:769
    55    57     1
SMALL
NO_CHARGES


@<TRIPOS>ATOM
      1 ****        -2.5337   1.7568   0.0939 O.2            1 S1                 0.0000
      2 ****        -3.1407   1.3941  -0.9135 C.2            1 S1                 0.0000
      3 ****        -2.9411   0.2093  -1.5085 N.am           1 S1                 0.0000
      4 ****        -2.0021  -0.8072  -1.0496 C.3            1 S1                 0.0000
      5 ****        -0.5533  -0.4444  -1.4313 C.3            1 S1                 0.0000
      6 ****         0.3935  -1.5064  -1.0949 N.3            1 S1                 0.0000
      7 ****         0.5981  -1.5997   0.3568 C.3            1 S1                 0.0000
      8 ****         1.6247  -2.7024   0.6792 C.3            1 S1                 0.0000
      9 ****         2.8900  -2.3750   0.0160 N.am           1 S1                 0.0000
     10 ****         4.0549  -2.0497   0.6267 C.2            1 S1                 0.0000
     11 ****         5.0718  -1.7743  -0.0117 O.2            1 S1                 0.0000
     12 ****         4.0918  -1.9731   2.1662 C.3            1 S1                 0.0000
     13 ****         5.4193  -1.4991   2.7934 C.3            1 S1                 0.0000
     14 ****         5.2702  -2.6122   3.8341 C.3            1 S1                 0.0000
     15 ****         4.3326  -3.3267   2.8568 C.3            1 S1                 0.0000
     16 ****         2.7009  -2.3302  -1.4363 C.3            1 S1                 0.0000
     17 ****         1.6702  -1.2319  -1.7640 C.3            1 S1                 0.0000
     18 ****        -4.0633   2.1194  -1.5698 N.am           1 S1                 0.0000
     19 ****        -4.5591   3.4165  -1.2637 C.ar           1 S1                 0.0000
     20 ****        -5.2056   4.1273  -2.2995 C.ar           1 S1                 0.0000
     21 ****        -5.7269   5.4118  -2.0431 C.ar           1 S1                 0.0000
     22 ****        -5.6128   5.9498  -0.8101 N.pl3          1 S1                 1.0000
     23 ****        -5.0162   5.3048   0.2151 C.ar           1 S1                 0.0000
     24 ****        -4.4763   4.0171   0.0190 C.ar           1 S1                 0.0000
     25 ****        -3.4780  -0.0092  -2.3352 H              1 S1                 0.0000
     26 ****        -2.1178  -0.9343   0.0270 H              1 S1                 0.0000
     27 ****        -2.2811  -1.7562  -1.5081 H              1 S1                 0.0000
     28 ****        -0.5217  -0.2759  -2.5089 H              1 S1                 0.0000
     29 ****        -0.2475   0.4915  -0.9606 H              1 S1                 0.0000
     30 ****         0.9376  -0.6409   0.7524 H              1 S1                 0.0000
     31 ****        -0.3387  -1.8401   0.8572 H              1 S1                 0.0000
     32 ****         1.7128  -2.8194   1.7574 H              1 S1                 0.0000
     33 ****         1.2673  -3.6663   0.3135 H              1 S1                 0.0000
     34 ****         3.2510  -1.4217   2.5908 H              1 S1                 0.0000
     35 ****         6.3038  -1.6387   2.1700 H              1 S1                 0.0000
     36 ****         5.3851  -0.4937   3.2135 H              1 S1                 0.0000
     37 ****         6.1903  -3.1514   4.0612 H              1 S1                 0.0000
     38 ****         4.7612  -2.2780   4.7395 H              1 S1                 0.0000
     39 ****         3.4493  -3.7603   3.3268 H              1 S1                 0.0000
     40 ****         4.8492  -4.0551   2.2287 H              1 S1                 0.0000
     41 ****         3.6270  -2.1318  -1.9771 H              1 S1                 0.0000
     42 ****         2.3497  -3.3008  -1.7901 H              1 S1                 0.0000
     43 ****         1.5165  -1.1900  -2.8429 H              1 S1                 0.0000
     44 ****         2.0518  -0.2570  -1.4559 H              1 S1                 0.0000
     45 ****        -4.4162   1.7123  -2.4235 H              1 S1                 0.0000
     46 ****        -5.2983   3.6973  -3.2865 H              1 S1                 0.0000
     47 ****        -6.2290   6.0200  -2.7815 H              1 S1                 0.0000
     48 ****        -4.9940   5.8316   1.1581 H              1 S1                 0.0000
     49 ****        -4.0220   3.5148   0.8590 H              1 S1                 0.0000
     50 ****        -5.9975   6.8804  -0.6444 H              1 S1                 0.0000
     51 ****        -1.8512   1.1558   0.5099 LP             1 S1                 0.0000
     52 ****        -2.7229   2.6524   0.4963 LP             1 S1                 0.0000
     53 ****         0.0213  -2.3810  -1.4058 LP             1 S1                 0.0000
     54 ****         5.0533  -1.7868  -1.0115 LP             1 S1                 0.0000
     55 ****         5.9159  -1.5383   0.4698 LP             1 S1                 0.0000
@<TRIPOS>BOND
    1    1    2 2     
    2    2    3 am    
    3    2   18 am    
    4    3    4 1     
    5    3   25 1     
    6    4    5 1     
    7    4   26 1     
    8    4   27 1     
    9    5    6 1     
   10    5   28 1     
   11    5   29 1     
   12    6   17 1     
   13    6    7 1     
   14    7    8 1     
   15    7   30 1     
   16    7   31 1     
   17    8    9 1     
   18    8   32 1     
   19    8   33 1     
   20    9   10 am    
   21    9   16 1     
   22   10   11 2     
   23   10   12 1     
   24   12   15 1     
   25   12   13 1     
   26   12   34 1     
   27   13   14 1     
   28   13   35 1     
   29   13   36 1     
   30   14   15 1     
   31   14   37 1     
   32   14   38 1     
   33   15   39 1     
   34   15   40 1     
   35   16   17 1     
   36   16   41 1     
   37   16   42 1     
   38   17   43 1     
   39   17   44 1     
   40   18   19 1     
   41   18   45 1     
   42   19   24 ar    
   43   19   20 ar    
   44   20   21 ar    
   45   20   46 1     
   46   21   22 ar    
   47   21   47 1     
   48   22   23 ar    
   49   22   50 1     
   50   23   24 ar    
   51   23   48 1     
   52   24   49 1     
   53    1   51 1     
   54    1   52 1     
   55    6   53 1     
   56   11   54 1     
   57   11   55 1     
@<TRIPOS>SUBSTRUCTURE
      1 S1             1
@<TRIPOS>SET
LONE_PAIRS      STATIC     ATOMS    <user>   **** ""
5 51 52 53 54 55
DONOR_HYDROGENS      STATIC     ATOMS    <user>   **** ""
3 25 45 50
ATOM$BLUE        STATIC     ATOMS    COLORGROUP SYSTEM
5 51 52 53 54 55
ATOM$RED        STATIC     ATOMS    COLORGROUP SYSTEM
3 25 45 50
