AV-unprocessed.smi:2506|AV-procd|sdf|9861|dock3
  -GOLD-   2272013493D 1   1.00000     0.00000
 Structure written by MMmdl.
 38 39  0  0  0  0  0  0  0  0  1 V2000
  151.0216  138.1645  154.1447 C   0  0  0  0  0  0  0  0  0  0  0  0
  150.0963  139.3445  154.3846 C   0  0  0  0  0  0  0  0  0  0  0  0
  150.6924  140.4773  154.8258 N   0  0  0  0  0  0  0  0  0  0  0  0
  149.9666  141.5731  155.0698 N   0  0  0  0  0  0  0  0  0  0  0  0
  148.6285  141.5529  154.8822 C   0  0  0  0  0  0  0  0  0  0  0  0
  147.9413  140.4135  154.4254 C   0  0  0  0  0  0  0  0  0  0  0  0
  148.7040  139.2556  154.1518 C   0  0  0  0  0  0  0  0  0  0  0  0
  148.1473  138.0251  153.7026 N   0  0  0  0  0  0  0  0  0  0  0  0
  146.8826  137.5850  153.8164 C   0  0  0  0  0  0  0  0  0  0  0  0
  145.9599  138.1994  154.3509 O   0  0  0  0  0  0  0  0  0  0  0  0
  146.7385  136.3819  153.2425 N   0  0  0  0  0  0  0  0  0  0  0  0
  145.4925  135.6229  153.1554 C   0  0  0  0  0  0  0  0  0  0  0  0
  145.4216  134.7283  151.8925 C   0  0  0  0  0  0  0  0  0  0  0  0
  145.3286  135.5918  150.6133 C   0  0  0  0  0  0  0  0  0  0  0  0
  146.6085  133.7526  151.8040 C   0  0  0  0  0  0  0  0  0  0  0  0
  146.1168  132.5596  150.9766 C   0  0  0  0  0  0  0  0  0  0  0  0
  144.5869  132.5579  151.0956 C   0  0  0  0  0  0  0  0  0  0  0  0
  144.2221  133.7676  151.9656 C   0  0  0  0  0  0  0  0  0  0  0  0
  150.9668  137.8448  153.1036 H   0  0  0  0  0  0  0  0  0  0  0  0
  150.7386  137.3246  154.7798 H   0  0  0  0  0  0  0  0  0  0  0  0
  152.0592  138.4186  154.3655 H   0  0  0  0  0  0  0  0  0  0  0  0
  148.0946  142.4640  155.1081 H   0  0  0  0  0  0  0  0  0  0  0  0
  146.8691  140.4482  154.3109 H   0  0  0  0  0  0  0  0  0  0  0  0
  148.7722  137.4396  153.1682 H   0  0  0  0  0  0  0  0  0  0  0  0
  147.5527  135.9579  152.8228 H   0  0  0  0  0  0  0  0  0  0  0  0
  145.4328  135.0062  154.0528 H   0  0  0  0  0  0  0  0  0  0  0  0
  144.6264  136.2859  153.1967 H   0  0  0  0  0  0  0  0  0  0  0  0
  145.1946  134.9828  149.7192 H   0  0  0  0  0  0  0  0  0  0  0  0
  146.2295  136.1857  150.4606 H   0  0  0  0  0  0  0  0  0  0  0  0
  144.4858  136.2818  150.6657 H   0  0  0  0  0  0  0  0  0  0  0  0
  147.5041  134.2094  151.3806 H   0  0  0  0  0  0  0  0  0  0  0  0
  146.8712  133.3997  152.8025 H   0  0  0  0  0  0  0  0  0  0  0  0
  146.4043  132.6830  149.9317 H   0  0  0  0  0  0  0  0  0  0  0  0
  146.5554  131.6244  151.3258 H   0  0  0  0  0  0  0  0  0  0  0  0
  144.1389  132.6543  150.1059 H   0  0  0  0  0  0  0  0  0  0  0  0
  144.2145  131.6305  151.5318 H   0  0  0  0  0  0  0  0  0  0  0  0
  144.0815  133.4248  152.9918 H   0  0  0  0  0  0  0  0  0  0  0  0
  143.2859  134.2340  151.6565 H   0  0  0  0  0  0  0  0  0  0  0  0
  1  2  1  0  0  0  0
  1 19  1  0  0  0  0
  1 20  1  0  0  0  0
  1 21  1  0  0  0  0
  2  7  1  0  0  0  0
  2  3  2  0  0  0  0
  3  4  1  0  0  0  0
  4  5  2  0  0  0  0
  5  6  1  0  0  0  0
  5 22  1  0  0  0  0
  6  7  2  0  0  0  0
  6 23  1  0  0  0  0
  7  8  1  0  0  0  0
  8  9  1  0  0  0  0
  8 24  1  0  0  0  0
  9 10  2  0  0  0  0
  9 11  1  0  0  0  0
 11 12  1  0  0  0  0
 11 25  1  0  0  0  0
 12 13  1  0  0  0  0
 12 26  1  0  0  0  0
 12 27  1  0  0  0  0
 13 18  1  0  0  0  0
 13 14  1  0  0  0  0
 13 15  1  0  0  0  0
 14 28  1  0  0  0  0
 14 29  1  0  0  0  0
 14 30  1  0  0  0  0
 15 16  1  0  0  0  0
 15 31  1  0  0  0  0
 15 32  1  0  0  0  0
 16 17  1  0  0  0  0
 16 33  1  0  0  0  0
 16 34  1  0  0  0  0
 17 18  1  0  0  0  0
 17 35  1  0  0  0  0
 17 36  1  0  0  0  0
 18 37  1  0  0  0  0
 18 38  1  0  0  0  0
M  END
> <s_m_source_file>
AV-unprocessed.smi

> <i_m_source_file_index>
2506

> <i_lp_mmshare_version>
43012

> <i_f3d_flags>
0

> <s_epik_input>
W0NIM11jMW5uW2NIXVtjSF1jMVtOSF1DKD1PKVtOSF1bQ0gyXUMyKFtDSDNdKVtDSDJdW0NIMl1bQ0gyXVtDSDJdMg==

> <s_epik_cmdline>
J2VwaWtfcHl0aG9uJywgJy1waCcsICc3LjAnLCAnLXRuJywgJzgnLCAnLW1hJywgJzIwMCcsICctbWV0YWxfYmluZGluZycsICctaW1hZScsICc8aW5maWxlLm1hZT4nLCAnLW9tYWUnLCAnPG91dGZpbGUubWFlPic=

> <r_lp_tautomer_probability>
1

> <r_epik_Ionization_Penalty>
0.0953638

> <r_epik_Ionization_Penalty_Charging>
0

> <r_epik_Ionization_Penalty_Neutral>
0.0953638

> <r_epik_State_Penalty>
0.0189073

> <r_epik_Charging_Adjusted_Penalty>
0.0189073

> <i_epik_Tot_Q>
0

> <i_epik_Tot_abs_Q>
0

> <r_epik_Metal_State_Penalty>
0.0138022

> <b_epik_Metal_Only>
0

> <s_lp_Force_Field>
OPLS_2005

> <r_lp_Energy>
34.7898

> <b_lp_Chiralities_Consistent>
1

> <s_lp_Variant>
AV-unprocessed.smi:2506-1

> <Gold.Version>
5.8.1

> <Gold.Id.Protein>
6NUR|6NUR_protein|mol2

> <Gold.PLP.Fitness>
42.4401

> <Gold.PLP.PLP>
-31.2679

> <Gold.PLP.part.hbond>
-4.0000

> <Gold.PLP.part.metal>
0.0000

> <Gold.PLP.part.buried>
-1.8761

> <Gold.PLP.part.nonpolar>
-24.6557

> <Gold.PLP.part.repulsive>
0.3435

> <Gold.PLP.ligand.clash>
0.0000

> <Gold.PLP.ligand.torsion>
0.3370

> <Gold.PLP.Chemscore.Hbond>
2.9440

> <Gold.PLP.Chemscore.CHOScore>
1.0000

> <Gold.PLP.Chemscore.Metal>
0.0000

> <Gold.Chemscore.Hbonds>
donor molecule, donor type, donor heavy atom, donor atom, acceptor molecule, acceptor atom, score
      L1  H     8    24       P1  7948  0.96
      L1  H    11    25       P1  7948  0.91
      P1  H  7989  7998       L1     3  1.00
      L1  C     5    22       P1  8028  1.00

> <Gold.PLP.Chemscore.Internal.Correction>
0.0143

> <Gold.Rescore>
     Score         DG    S(hbond)    S(metal)    S(lipo)     H(rot)  DE(clash)    DE(int)     intcor
     17.12     -19.03       2.37        0.00      74.69       1.21       0.30       1.61       ----

> <Gold.Chemscore.Fitness>
17.1219

> <Gold.Chemscore.DG>
-19.0321

> <Gold.Chemscore.ZeroCoef>
-5.4800

> <Gold.Chemscore.Hbond>
2.3657

> <Gold.Chemscore.Metal>
0.0000

> <Gold.Chemscore.Lipo>
74.6900

> <Gold.Chemscore.Internal_Hbond>
0.0000

> <Gold.Chemscore.DEClash>
0.2992

> <Gold.Chemscore.DEInternal>
1.6110

> <Gold.Chemscore.Rot>
1.2063

> <Gold.Chemscore.Internal.Correction>
   9.000000E+99

> <Gold.Chemscore.Hbonds>
donor molecule, donor type, donor heavy atom, donor atom, acceptor molecule, acceptor atom, score
      L1  H     8    24       P1  7948  0.92
      L1  H    11    25       P1  7948  0.90
      P1  H  7989  7998       L1     3  0.13

> <Gold.Chemscore.Hbond.Weighted>
-7.9016

> <Gold.Chemscore.Metal.Weighted>
-0.0000

> <Gold.Chemscore.Lipo.Weighted>
-8.7387

> <Gold.Chemscore.Internal_Hbond.Weighted>
0.0000

> <Gold.Chemscore.DEClash.Weighted>
0.2992

> <Gold.Chemscore.DEInternal.Weighted>
1.6110

> <Gold.Chemscore.Rot.Weighted>
3.0883

> <Gold.Chemscore.Internal.Correction.Weighted>
   9.000000E+99

> <Gold.Protein.RotatedTorsions>
[ 6907 6896 6895 6894 ] final  -30.05 input  -60.11 | X-H torsion
[ 7974 7965 7964 7962 ] final -140.24 input  175.53 | X-H torsion
[ 8008 7997 7996 7995 ] final -108.35 input   59.86 | X-H torsion
[ 10167 10162 10161 10158 ] final   96.68 input  -65.29 | X-H torsion
[ 10718 10713 10712 10709 ] final  -31.14 input   66.30 | X-H torsion
[ 10763 10752 10751 10750 ] final  -41.32 input  -60.55 | X-H torsion
[ 11005 11000 10999 10996 ] final   50.35 input  -57.11 | X-H torsion

> <Gold.Protein.ActiveResidues>
 VAL166  LYS551  ARG553  GLY616  TRP617  ASP618  TYR619  PRO620  LYS621  CYS622 
 ASP623  PHE694  ASN695  SER759  ASP760  ASP761  ALA762  ILE779  LEU786  VAL792 
 PHE793  MET794  SER795  GLU796  ALA797  LYS798  CYS799  TRP800  GLU811  SER814 

> <Gold.Protein.RotatedAtoms>
  151.1108  135.0025  159.8492 H   0  0  0  0  0  0  0  0  0  0  0  0  # atno 6907 bound_to 6896
  152.5443  134.1838  159.8656 H   0  0  0  0  0  0  0  0  0  0  0  0  # atno 6908 bound_to 6896
  151.1888  133.4635  159.2628 H   0  0  0  0  0  0  0  0  0  0  0  0  # atno 6909 bound_to 6896
  144.8613  140.6224  143.5326 H   0  0  0  0  0  0  0  0  0  0  0  0  # atno 7974 bound_to 7965
  154.9429  140.0402  157.2106 H   0  0  0  0  0  0  0  0  0  0  0  0  # atno 8008 bound_to 7997
  154.8051  140.2858  155.5871 H   0  0  0  0  0  0  0  0  0  0  0  0  # atno 8009 bound_to 7997
  156.2965  140.2547  156.2928 H   0  0  0  0  0  0  0  0  0  0  0  0  # atno 8010 bound_to 7997
  139.7872  144.6866  150.9942 H   0  0  0  0  0  0  0  0  0  0  0  0  # atno 10167 bound_to 10162
  156.3910  130.4373  149.7394 H   0  0  0  0  0  0  0  0  0  0  0  0  # atno 10718 bound_to 10713
  153.9606  135.6740  153.4745 H   0  0  0  0  0  0  0  0  0  0  0  0  # atno 10763 bound_to 10752
  153.0840  135.4908  154.8556 H   0  0  0  0  0  0  0  0  0  0  0  0  # atno 10764 bound_to 10752
  154.7275  135.3130  154.8907 H   0  0  0  0  0  0  0  0  0  0  0  0  # atno 10765 bound_to 10752
  140.1025  134.5063  155.8750 H   0  0  0  0  0  0  0  0  0  0  0  0  # atno 11005 bound_to 11000
  145.4307  139.1549  143.4024 LP  0  0  0  0  0  0  0  0  0  0  0  0  # atno 17320 bound_to 7965
  146.2862  140.4423  142.8757 LP  0  0  0  0  0  0  0  0  0  0  0  0  # atno 17321 bound_to 7965
  140.7820  143.4420  151.0538 LP  0  0  0  0  0  0  0  0  0  0  0  0  # atno 17342 bound_to 10162
  139.8098  143.7967  152.3170 LP  0  0  0  0  0  0  0  0  0  0  0  0  # atno 17343 bound_to 10162
  156.4448  130.7878  151.2899 LP  0  0  0  0  0  0  0  0  0  0  0  0  # atno 17370 bound_to 10713
  157.7499  131.0114  150.3343 LP  0  0  0  0  0  0  0  0  0  0  0  0  # atno 17371 bound_to 10713
  141.2109  133.6700  156.6545 LP  0  0  0  0  0  0  0  0  0  0  0  0  # atno 17394 bound_to 11000
  140.3201  134.8015  157.4245 LP  0  0  0  0  0  0  0  0  0  0  0  0  # atno 17395 bound_to 11000

$$$$
