AV-unprocessed.smi:2919|AV-procd|sdf|11192|dock6
  -GOLD-   2272016 83D 1   1.00000     0.00000
 Structure written by MMmdl.
 34 36  0  0  0  0  0  0  0  0  1 V2000
  153.9225  138.4684  155.6379 C   0  0  0  0  0  0  0  0  0  0  0  0
  153.0411  139.6791  155.8893 C   0  0  0  0  0  0  0  0  0  0  0  0
  153.3943  140.4298  156.9557 N   0  0  0  0  0  0  0  0  0  0  0  0
  152.6951  141.5192  157.2770 N   0  0  0  0  0  0  0  0  0  0  0  0
  151.6175  141.8967  156.5470 C   0  0  0  0  0  0  0  0  0  0  0  0
  150.9311  143.0576  156.9491 N   0  0  0  0  0  0  0  0  0  0  0  0
  150.9042  143.4880  158.3430 C   0  0  2  0  0  0  0  0  0  0  0  0
  150.2851  144.8792  158.5321 C   0  0  0  0  0  0  0  0  0  0  0  0
  151.4081  145.6306  159.2575 C   0  0  1  0  0  0  0  0  0  0  0  0
  151.6245  145.1161  160.6873 C   0  0  0  0  0  0  0  0  0  0  0  0
  152.3024  143.7695  160.4354 C   0  0  0  0  0  0  0  0  0  0  0  0
  152.3204  143.7066  158.9023 C   0  0  2  0  0  0  0  0  0  0  0  0
  152.5365  145.0767  158.6046 O   0  0  0  0  0  0  0  0  0  0  0  0
  151.1917  141.1563  155.4137 C   0  0  0  0  0  0  0  0  0  0  0  0
  150.0296  141.5680  154.6286 C   0  0  0  0  0  0  0  0  0  0  0  0
  149.1097  141.8940  154.0070 N   0  0  0  0  0  0  0  0  0  0  0  0
  151.9325  139.9979  155.0682 C   0  0  0  0  0  0  0  0  0  0  0  0
  151.5463  139.1393  153.8664 C   0  0  0  0  0  0  0  0  0  0  0  0
  154.3900  138.5345  154.6553 H   0  0  0  0  0  0  0  0  0  0  0  0
  153.3345  137.5517  155.6853 H   0  0  0  0  0  0  0  0  0  0  0  0
  154.7182  138.3917  156.3802 H   0  0  0  0  0  0  0  0  0  0  0  0
  150.2938  143.5013  156.3031 H   0  0  0  0  0  0  0  0  0  0  0  0
  150.3868  142.7352  158.9398 H   0  0  0  0  0  0  0  0  0  0  0  0
  150.0711  145.3583  157.5755 H   0  0  0  0  0  0  0  0  0  0  0  0
  149.3607  144.8520  159.1099 H   0  0  0  0  0  0  0  0  0  0  0  0
  151.3339  146.7157  159.1827 H   0  0  0  0  0  0  0  0  0  0  0  0
  152.2869  145.7793  161.2446 H   0  0  0  0  0  0  0  0  0  0  0  0
  150.6884  145.0234  161.2391 H   0  0  0  0  0  0  0  0  0  0  0  0
  153.3181  143.7735  160.8326 H   0  0  0  0  0  0  0  0  0  0  0  0
  151.7644  142.9325  160.8819 H   0  0  0  0  0  0  0  0  0  0  0  0
  153.0761  143.0289  158.5032 H   0  0  0  0  0  0  0  0  0  0  0  0
  150.5360  138.7488  153.9926 H   0  0  0  0  0  0  0  0  0  0  0  0
  152.2065  138.2877  153.7127 H   0  0  0  0  0  0  0  0  0  0  0  0
  151.5699  139.7362  152.9540 H   0  0  0  0  0  0  0  0  0  0  0  0
  1  2  1  0  0  0  0
  1 19  1  0  0  0  0
  1 20  1  0  0  0  0
  1 21  1  0  0  0  0
  2 17  1  0  0  0  0
  2  3  2  0  0  0  0
  3  4  1  0  0  0  0
  4  5  2  0  0  0  0
  5  6  1  0  0  0  0
  5 14  1  0  0  0  0
  6  7  1  0  0  0  0
  6 22  1  0  0  0  0
  7 12  1  0  0  0  0
  7  8  1  0  0  0  0
  7 23  1  0  0  0  0
  8  9  1  0  0  0  0
  8 24  1  0  0  0  0
  8 25  1  0  0  0  0
  9 13  1  0  0  0  0
  9 10  1  0  0  0  0
  9 26  1  0  0  0  0
 10 11  1  0  0  0  0
 10 27  1  0  0  0  0
 10 28  1  0  0  0  0
 11 12  1  0  0  0  0
 11 29  1  0  0  0  0
 11 30  1  0  0  0  0
 12 13  1  0  0  0  0
 12 31  1  0  0  0  0
 14 15  1  0  0  0  0
 14 17  2  0  0  0  0
 15 16  3  0  0  0  0
 17 18  1  0  0  0  0
 18 32  1  0  0  0  0
 18 33  1  0  0  0  0
 18 34  1  0  0  0  0
M  END
> <s_m_source_file>
AV-unprocessed.smi

> <i_m_source_file_index>
2919

> <i_lp_mmshare_version>
43012

> <i_f3d_flags>
0

> <s_epik_input>
W0NIM11jMW5uYyhjKEMjTiljMVtDSDNdKVtOSF1bQ0BIXShbQ0gyXVtDQEBIXTIzKVtDQEBIXShPMylbQ0gyXVtDSDJdMg==

> <s_epik_cmdline>
J2VwaWtfcHl0aG9uJywgJy1waCcsICc3LjAnLCAnLXRuJywgJzgnLCAnLW1hJywgJzIwMCcsICctbWV0YWxfYmluZGluZycsICctaW1hZScsICc8aW5maWxlLm1hZT4nLCAnLW9tYWUnLCAnPG91dGZpbGUubWFlPic=

> <r_lp_tautomer_probability>
1

> <r_epik_Ionization_Penalty>
0.00143865

> <r_epik_Ionization_Penalty_Charging>
0

> <r_epik_Ionization_Penalty_Neutral>
0.00143865

> <r_epik_State_Penalty>
-0

> <r_epik_Charging_Adjusted_Penalty>
0

> <i_epik_Tot_Q>
0

> <i_epik_Tot_abs_Q>
0

> <r_epik_Metal_State_Penalty>
-0

> <b_epik_Metal_Only>
0

> <s_lp_Force_Field>
OPLS_2005

> <r_lp_Energy>
49.0133

> <b_lp_Chiralities_Consistent>
1

> <s_lp_Variant>
AV-unprocessed.smi:2919-1

> <Gold.Version>
5.8.1

> <Gold.Id.Protein>
6NUR|6NUR_protein|mol2

> <Gold.PLP.Fitness>
45.9811

> <Gold.PLP.PLP>
-39.7010

> <Gold.PLP.part.hbond>
-3.0000

> <Gold.PLP.part.metal>
0.0000

> <Gold.PLP.part.buried>
-1.5200

> <Gold.PLP.part.nonpolar>
-35.1683

> <Gold.PLP.part.repulsive>
0.3454

> <Gold.PLP.ligand.clash>
0.0000

> <Gold.PLP.ligand.torsion>
0.2108

> <Gold.PLP.Chemscore.Hbond>
2.2273

> <Gold.PLP.Chemscore.CHOScore>
0.0000

> <Gold.PLP.Chemscore.Metal>
0.0000

> <Gold.Chemscore.Hbonds>
donor molecule, donor type, donor heavy atom, donor atom, acceptor molecule, acceptor atom, score
      L1  H     6    22       P1  8028  1.00
      P1  H  8011  8017       L1    16  0.48

> <Gold.PLP.Chemscore.Internal.Correction>
0.0199

> <Gold.Rescore>
     Score         DG    S(hbond)    S(metal)    S(lipo)     H(rot)  DE(clash)    DE(int)     intcor
     17.32     -17.93       1.06        0.00      97.99       1.00       0.13       0.48       ----

> <Gold.Chemscore.Fitness>
17.3173

> <Gold.Chemscore.DG>
-17.9323

> <Gold.Chemscore.ZeroCoef>
-5.4800

> <Gold.Chemscore.Hbond>
1.0621

> <Gold.Chemscore.Metal>
0.0000

> <Gold.Chemscore.Lipo>
97.9916

> <Gold.Chemscore.Internal_Hbond>
0.0000

> <Gold.Chemscore.DEClash>
0.1316

> <Gold.Chemscore.DEInternal>
0.4834

> <Gold.Chemscore.Rot>
1.0000

> <Gold.Chemscore.Internal.Correction>
   9.000000E+99

> <Gold.Chemscore.Hbonds>
donor molecule, donor type, donor heavy atom, donor atom, acceptor molecule, acceptor atom, score
      L1  H     6    22       P1  8028  0.98
      P1  H  8011  8017       L1    16  0.26

> <Gold.Chemscore.Hbond.Weighted>
-3.5473

> <Gold.Chemscore.Metal.Weighted>
-0.0000

> <Gold.Chemscore.Lipo.Weighted>
-11.4650

> <Gold.Chemscore.Internal_Hbond.Weighted>
0.0000

> <Gold.Chemscore.DEClash.Weighted>
0.1316

> <Gold.Chemscore.DEInternal.Weighted>
0.4834

> <Gold.Chemscore.Rot.Weighted>
2.5600

> <Gold.Chemscore.Internal.Correction.Weighted>
   9.000000E+99

> <Gold.Protein.RotatedTorsions>
[ 6907 6896 6895 6894 ] final  -84.54 input  -60.11 | X-H torsion
[ 7974 7965 7964 7962 ] final   -2.30 input  175.53 | X-H torsion
[ 8008 7997 7996 7995 ] final   70.75 input   59.86 | X-H torsion
[ 10167 10162 10161 10158 ] final -110.68 input  -65.29 | X-H torsion
[ 10718 10713 10712 10709 ] final  166.31 input   66.30 | X-H torsion
[ 10763 10752 10751 10750 ] final -133.49 input  -60.55 | X-H torsion
[ 11005 11000 10999 10996 ] final   -2.87 input  -57.11 | X-H torsion

> <Gold.Protein.ActiveResidues>
 VAL166  LYS551  ARG553  GLY616  TRP617  ASP618  TYR619  PRO620  LYS621  CYS622 
 ASP623  PHE694  ASN695  SER759  ASP760  ASP761  ALA762  ILE779  LEU786  VAL792 
 PHE793  MET794  SER795  GLU796  ALA797  LYS798  CYS799  TRP800  GLU811  SER814 

> <Gold.Protein.RotatedAtoms>
  150.6876  134.3342  159.4839 H   0  0  0  0  0  0  0  0  0  0  0  0  # atno 6907 bound_to 6896
  152.1203  134.9207  160.0572 H   0  0  0  0  0  0  0  0  0  0  0  0  # atno 6908 bound_to 6896
  152.0416  133.3945  159.4376 H   0  0  0  0  0  0  0  0  0  0  0  0  # atno 6909 bound_to 6896
  146.2406  140.1551  142.8333 H   0  0  0  0  0  0  0  0  0  0  0  0  # atno 7974 bound_to 7965
  155.7436  140.3490  155.5116 H   0  0  0  0  0  0  0  0  0  0  0  0  # atno 8008 bound_to 7997
  155.9071  140.1044  157.1328 H   0  0  0  0  0  0  0  0  0  0  0  0  # atno 8009 bound_to 7997
  154.4051  140.1275  156.4497 H   0  0  0  0  0  0  0  0  0  0  0  0  # atno 8010 bound_to 7997
  140.1418  143.4272  152.1556 H   0  0  0  0  0  0  0  0  0  0  0  0  # atno 10167 bound_to 10162
  157.0677  131.0357  151.2623 H   0  0  0  0  0  0  0  0  0  0  0  0  # atno 10718 bound_to 10713
  154.8732  135.3764  154.4582 H   0  0  0  0  0  0  0  0  0  0  0  0  # atno 10763 bound_to 10752
  153.5252  135.7028  153.5716 H   0  0  0  0  0  0  0  0  0  0  0  0  # atno 10764 bound_to 10752
  153.3945  135.3964  155.1911 H   0  0  0  0  0  0  0  0  0  0  0  0  # atno 10765 bound_to 10752
  140.6632  133.9302  155.8448 H   0  0  0  0  0  0  0  0  0  0  0  0  # atno 11005 bound_to 11000
  145.0136  140.8734  143.5209 LP  0  0  0  0  0  0  0  0  0  0  0  0  # atno 17320 bound_to 7965
  145.1588  139.2470  143.5402 LP  0  0  0  0  0  0  0  0  0  0  0  0  # atno 17321 bound_to 7965
  139.5468  144.7305  151.4558 LP  0  0  0  0  0  0  0  0  0  0  0  0  # atno 17342 bound_to 10162
  140.6756  143.8198  150.7054 LP  0  0  0  0  0  0  0  0  0  0  0  0  # atno 17343 bound_to 10162
  157.4903  130.7818  149.7501 LP  0  0  0  0  0  0  0  0  0  0  0  0  # atno 17370 bound_to 10713
  155.9959  130.3909  150.2799 LP  0  0  0  0  0  0  0  0  0  0  0  0  # atno 17371 bound_to 10713
  141.0449  134.0568  157.3856 LP  0  0  0  0  0  0  0  0  0  0  0  0  # atno 17394 bound_to 11000
  139.9006  135.0163  156.7250 LP  0  0  0  0  0  0  0  0  0  0  0  0  # atno 17395 bound_to 11000

$$$$
