#       Name:                AV-unprocessed.smi:1871
#       Creating user name   scv26
#       Creation time:       Fri Mar 27 09:31:44 2020


#       File generated by GOLD software.
#

@<TRIPOS>MOLECULE
AV-unprocessed.smi:1871
    47    49     1
SMALL
NO_CHARGES


@<TRIPOS>ATOM
      1 ****        -2.0051   0.5856  -5.0566 O.3            1 S1                 0.0000
      2 ****        -1.3837  -0.1653  -4.0327 C.3            1 S1                 0.0000
      3 ****        -1.6284   0.3724  -2.6497 C.2            1 S1                 0.0000
      4 ****        -2.1244   1.5938  -2.4359 N.2            1 S1                 0.0000
      5 ****        -2.2046   1.6593  -1.0604 C.ar           1 S1                 0.0000
      6 ****        -2.6572   2.6985  -0.2163 C.ar           1 S1                 0.0000
      7 ****        -2.6497   2.5353   1.1843 C.ar           1 S1                 0.0000
      8 ****        -2.1942   1.3314   1.7589 C.ar           1 S1                 0.0000
      9 ****        -1.7423   0.2830   0.9350 C.ar           1 S1                 0.0000
     10 ****        -1.7437   0.4531  -0.4632 C.ar           1 S1                 0.0000
     11 ****        -1.3574  -0.3532  -1.5324 N.pl3          1 S1                 0.0000
     12 ****        -0.7993  -1.7000  -1.4284 C.3            1 S1                 0.0000
     13 ****         0.7429  -1.7420  -1.3137 C.3            1 S1                 0.0000
     14 ****         1.3419  -1.2272  -2.4858 O.3            1 S1                 0.0000
     15 ****         1.2599  -1.0783  -0.0430 C.ar           1 S1                 0.0000
     16 ****         1.6542   0.2779  -0.0339 C.ar           1 S1                 0.0000
     17 ****         2.1012   0.8801   1.1574 C.ar           1 S1                 0.0000
     18 ****         2.1707   0.1402   2.3545 C.ar           1 S1                 0.0000
     19 ****         2.5975   0.7945   3.4884 O.3            1 S1                 0.0000
     20 ****         3.1868   0.0868   4.4886 C.3            1 S1                 0.0000
     21 ****         4.0587   0.8792   5.1576 F              1 S1                 0.0000
     22 ****         2.2571  -0.3393   5.3785 F              1 S1                 0.0000
     23 ****         1.7689  -1.2173   2.3456 C.ar           1 S1                 0.0000
     24 ****         1.3215  -1.8203   1.1545 C.ar           1 S1                 0.0000
     25 ****        -1.7947   0.1904  -5.8883 H              1 S1                 0.0000
     26 ****        -1.7535  -1.1875  -4.1036 H              1 S1                 0.0000
     27 ****        -0.3124  -0.1842  -4.2268 H              1 S1                 0.0000
     28 ****        -3.0110   3.6230  -0.6479 H              1 S1                 0.0000
     29 ****        -2.9965   3.3368   1.8200 H              1 S1                 0.0000
     30 ****        -2.1910   1.2131   2.8326 H              1 S1                 0.0000
     31 ****        -1.3912  -0.6381   1.3748 H              1 S1                 0.0000
     32 ****        -1.2438  -2.1852  -0.5589 H              1 S1                 0.0000
     33 ****        -1.1252  -2.2901  -2.2839 H              1 S1                 0.0000
     34 ****         1.0412  -2.7901  -1.2700 H              1 S1                 0.0000
     35 ****         2.2742  -1.3740  -2.4346 H              1 S1                 0.0000
     36 ****         1.5985   0.8702  -0.9353 H              1 S1                 0.0000
     37 ****         2.3898   1.9211   1.1525 H              1 S1                 0.0000
     38 ****         3.7427  -0.7687   4.1045 H              1 S1                 0.0000
     39 ****         1.7883  -1.8082   3.2489 H              1 S1                 0.0000
     40 ****         1.0119  -2.8549   1.1663 H              1 S1                 0.0000
     41 ****        -1.6687   1.5271  -5.0359 LP             1 S1                 0.0000
     42 ****        -2.9961   0.5826  -4.9230 LP             1 S1                 0.0000
     43 ****        -2.3759   2.2901  -3.1082 LP             1 S1                 0.0000
     44 ****         1.1580  -0.2468  -2.5562 LP             1 S1                 0.0000
     45 ****         0.9702  -1.6945  -3.2880 LP             1 S1                 0.0000
     46 ****         1.7965   1.2443   3.8834 LP             1 S1                 0.0000
     47 ****         3.2570   1.4862   3.1941 LP             1 S1                 0.0000
@<TRIPOS>BOND
    1    1    2 1     
    2    1   25 1     
    3    2    3 1     
    4    2   26 1     
    5    2   27 1     
    6    3   11 1     
    7    3    4 2     
    8    4    5 1     
    9    5   10 ar    
   10    5    6 ar    
   11    6    7 ar    
   12    6   28 1     
   13    7    8 ar    
   14    7   29 1     
   15    8    9 ar    
   16    8   30 1     
   17    9   10 ar    
   18    9   31 1     
   19   10   11 1     
   20   11   12 1     
   21   12   13 1     
   22   12   32 1     
   23   12   33 1     
   24   13   14 1     
   25   13   15 1     
   26   13   34 1     
   27   14   35 1     
   28   15   24 ar    
   29   15   16 ar    
   30   16   17 ar    
   31   16   36 1     
   32   17   18 ar    
   33   17   37 1     
   34   18   19 1     
   35   18   23 ar    
   36   19   20 1     
   37   20   21 1     
   38   20   22 1     
   39   20   38 1     
   40   23   24 ar    
   41   23   39 1     
   42   24   40 1     
   43    1   41 1     
   44    1   42 1     
   45    4   43 1     
   46   14   44 1     
   47   14   45 1     
   48   19   46 1     
   49   19   47 1     
@<TRIPOS>SUBSTRUCTURE
      1 S1             1
@<TRIPOS>SET
LONE_PAIRS      STATIC     ATOMS    <user>   **** ""
7 41 42 43 44 45 46 47
DONOR_HYDROGENS      STATIC     ATOMS    <user>   **** ""
2 25 35
ATOM$BLUE        STATIC     ATOMS    COLORGROUP SYSTEM
7 41 42 43 44 45 46 47
ATOM$RED        STATIC     ATOMS    COLORGROUP SYSTEM
2 25 35
