AV-unprocessed.smi:1977|AV-procd|sdf|7991|dock4
  -GOLD-   2272010173D 1   1.00000     0.00000
 Structure written by MMmdl.
 45 46  0  0  0  0  0  0  0  0  1 V2000
  144.1685  133.4845  151.1593 C   0  0  0  0  0  0  0  0  0  0  0  0
  145.0150  134.6096  151.7796 C   0  0  0  0  0  0  0  0  0  0  0  0
  145.5980  135.5153  150.6852 C   0  0  0  0  0  0  0  0  0  0  0  0
  146.1353  134.0674  152.6928 C   0  0  0  0  0  0  0  0  0  0  0  0
  147.1095  135.0913  153.0565 N   0  0  0  0  0  0  0  0  0  0  0  0
  147.1045  135.7849  154.2032 C   0  0  0  0  0  0  0  0  0  0  0  0
  146.2681  135.6381  155.0944 O   0  0  0  0  0  0  0  0  0  0  0  0
  148.1176  136.6614  154.2565 N   0  0  0  0  0  0  0  0  0  0  0  0
  148.4014  137.5685  155.3660 C   0  0  0  0  0  0  0  0  0  0  0  0
  148.5497  139.0360  154.9560 C   0  0  0  0  0  0  0  0  0  0  0  0
  147.4978  139.6964  154.2793 C   0  0  0  0  0  0  0  0  0  0  0  0
  147.6347  141.0539  153.9398 C   0  0  0  0  0  0  0  0  0  0  0  0
  148.8235  141.7124  154.2972 C   0  0  0  0  0  0  0  0  0  0  0  0
  149.8340  141.1040  154.9496 N   0  0  0  0  0  0  0  0  0  0  0  0
  149.7083  139.7952  155.2800 C   0  0  0  0  0  0  0  0  0  0  0  0
  150.7958  139.1971  155.9416 N   0  0  0  0  0  0  0  0  0  0  0  0
  151.1174  139.7143  157.2679 C   0  0  0  0  0  0  0  0  0  0  0  0
  152.2012  138.8395  157.9210 C   0  0  0  0  0  0  0  0  0  0  0  0
  153.3439  138.7827  157.0713 O   0  0  0  0  0  0  0  0  0  0  0  0
  153.0391  138.2142  155.8004 C   0  0  0  0  0  0  0  0  0  0  0  0
  151.9737  139.0692  155.0927 C   0  0  0  0  0  0  0  0  0  0  0  0
  144.7818  132.8166  150.5537 H   0  0  0  0  0  0  0  0  0  0  0  0
  143.3875  133.8914  150.5164 H   0  0  0  0  0  0  0  0  0  0  0  0
  143.6759  132.8838  151.9242 H   0  0  0  0  0  0  0  0  0  0  0  0
  144.3506  135.2261  152.3866 H   0  0  0  0  0  0  0  0  0  0  0  0
  146.2748  134.9632  150.0324 H   0  0  0  0  0  0  0  0  0  0  0  0
  146.1566  136.3456  151.1182 H   0  0  0  0  0  0  0  0  0  0  0  0
  144.8086  135.9400  150.0642 H   0  0  0  0  0  0  0  0  0  0  0  0
  145.7047  133.6716  153.6132 H   0  0  0  0  0  0  0  0  0  0  0  0
  146.6470  133.2318  152.2120 H   0  0  0  0  0  0  0  0  0  0  0  0
  147.8385  135.2839  152.3851 H   0  0  0  0  0  0  0  0  0  0  0  0
  148.7469  136.7037  153.4683 H   0  0  0  0  0  0  0  0  0  0  0  0
  147.6268  137.5048  156.1317 H   0  0  0  0  0  0  0  0  0  0  0  0
  149.3105  137.1972  155.8355 H   0  0  0  0  0  0  0  0  0  0  0  0
  146.5848  139.1798  154.0243 H   0  0  0  0  0  0  0  0  0  0  0  0
  146.8448  141.5783  153.4227 H   0  0  0  0  0  0  0  0  0  0  0  0
  148.9667  142.7551  154.0554 H   0  0  0  0  0  0  0  0  0  0  0  0
  151.4765  140.7416  157.1895 H   0  0  0  0  0  0  0  0  0  0  0  0
  150.2201  139.7288  157.8874 H   0  0  0  0  0  0  0  0  0  0  0  0
  152.4941  139.2590  158.8834 H   0  0  0  0  0  0  0  0  0  0  0  0
  151.8267  137.8325  158.1118 H   0  0  0  0  0  0  0  0  0  0  0  0
  153.9485  138.1738  155.2009 H   0  0  0  0  0  0  0  0  0  0  0  0
  152.6921  137.1871  155.9245 H   0  0  0  0  0  0  0  0  0  0  0  0
  151.7088  138.6194  154.1353 H   0  0  0  0  0  0  0  0  0  0  0  0
  152.3724  140.0620  154.8787 H   0  0  0  0  0  0  0  0  0  0  0  0
  1  2  1  0  0  0  0
  1 22  1  0  0  0  0
  1 23  1  0  0  0  0
  1 24  1  0  0  0  0
  2  3  1  0  0  0  0
  2  4  1  0  0  0  0
  2 25  1  0  0  0  0
  3 26  1  0  0  0  0
  3 27  1  0  0  0  0
  3 28  1  0  0  0  0
  4  5  1  0  0  0  0
  4 29  1  0  0  0  0
  4 30  1  0  0  0  0
  5  6  1  0  0  0  0
  5 31  1  0  0  0  0
  6  7  2  0  0  0  0
  6  8  1  0  0  0  0
  8  9  1  0  0  0  0
  8 32  1  0  0  0  0
  9 10  1  0  0  0  0
  9 33  1  0  0  0  0
  9 34  1  0  0  0  0
 10 15  1  0  0  0  0
 10 11  2  0  0  0  0
 11 12  1  0  0  0  0
 11 35  1  0  0  0  0
 12 13  2  0  0  0  0
 12 36  1  0  0  0  0
 13 14  1  0  0  0  0
 13 37  1  0  0  0  0
 14 15  2  0  0  0  0
 15 16  1  0  0  0  0
 16 21  1  0  0  0  0
 16 17  1  0  0  0  0
 17 18  1  0  0  0  0
 17 38  1  0  0  0  0
 17 39  1  0  0  0  0
 18 19  1  0  0  0  0
 18 40  1  0  0  0  0
 18 41  1  0  0  0  0
 19 20  1  0  0  0  0
 20 21  1  0  0  0  0
 20 42  1  0  0  0  0
 20 43  1  0  0  0  0
 21 44  1  0  0  0  0
 21 45  1  0  0  0  0
M  END
> <s_m_source_file>
AV-unprocessed.smi

> <i_m_source_file_index>
1977

> <i_lp_mmshare_version>
43012

> <i_f3d_flags>
0

> <s_epik_input>
W0NIM11bQ0hdKFtDSDNdKVtDSDJdW05IXUMoPU8pW05IXVtDSDJdYzFbY0hdW2NIXVtjSF1uYzFOMltDSDJdW0NIMl1PW0NIMl1bQ0gyXTI=

> <s_epik_cmdline>
J2VwaWtfcHl0aG9uJywgJy1waCcsICc3LjAnLCAnLXRuJywgJzgnLCAnLW1hJywgJzIwMCcsICctbWV0YWxfYmluZGluZycsICctaW1hZScsICc8aW5maWxlLm1hZT4nLCAnLW9tYWUnLCAnPG91dGZpbGUubWFlPic=

> <r_lp_tautomer_probability>
1

> <r_epik_Ionization_Penalty>
0.00617532

> <r_epik_Ionization_Penalty_Charging>
0

> <r_epik_Ionization_Penalty_Neutral>
0.00617532

> <r_epik_State_Penalty>
0.00451205

> <r_epik_Charging_Adjusted_Penalty>
0.00451205

> <i_epik_Tot_Q>
0

> <i_epik_Tot_abs_Q>
0

> <r_epik_Metal_State_Penalty>
-0

> <b_epik_Metal_Only>
0

> <s_lp_Force_Field>
OPLS_2005

> <r_lp_Energy>
18.8779

> <b_lp_Chiralities_Consistent>
1

> <s_lp_Variant>
AV-unprocessed.smi:1977-1

> <Gold.Version>
5.8.1

> <Gold.Id.Protein>
6NUR|6NUR_protein|mol2

> <Gold.PLP.Fitness>
41.0894

> <Gold.PLP.PLP>
-29.0747

> <Gold.PLP.part.hbond>
-4.0000

> <Gold.PLP.part.metal>
0.0000

> <Gold.PLP.part.buried>
-1.4034

> <Gold.PLP.part.nonpolar>
-24.4636

> <Gold.PLP.part.repulsive>
0.1587

> <Gold.PLP.ligand.clash>
0.0000

> <Gold.PLP.ligand.torsion>
0.3909

> <Gold.PLP.Chemscore.Hbond>
3.3372

> <Gold.PLP.Chemscore.CHOScore>
0.8666

> <Gold.PLP.Chemscore.Metal>
0.0000

> <Gold.Chemscore.Hbonds>
donor molecule, donor type, donor heavy atom, donor atom, acceptor molecule, acceptor atom, score
      L1  H     5    31       P1  7948  0.99
      L1  H     8    32       P1  7948  0.90
      P1  H  7989  7998       L1    14  0.17
      P1  H  7997  8010       L1    19  1.00
      L1  C    13    37       P1  8028  0.96

> <Gold.PLP.Chemscore.Internal.Correction>
0.1854

> <Gold.Rescore>
     Score         DG    S(hbond)    S(metal)    S(lipo)     H(rot)  DE(clash)    DE(int)     intcor
     17.41     -19.02       2.91        0.00      71.31       1.77       1.21       0.40       ----

> <Gold.Chemscore.Fitness>
17.4104

> <Gold.Chemscore.DG>
-19.0191

> <Gold.Chemscore.ZeroCoef>
-5.4800

> <Gold.Chemscore.Hbond>
2.9092

> <Gold.Chemscore.Metal>
0.0000

> <Gold.Chemscore.Lipo>
71.3138

> <Gold.Chemscore.Internal_Hbond>
0.0000

> <Gold.Chemscore.DEClash>
1.2110

> <Gold.Chemscore.DEInternal>
0.3976

> <Gold.Chemscore.Rot>
1.7662

> <Gold.Chemscore.Internal.Correction>
   9.000000E+99

> <Gold.Chemscore.Hbonds>
donor molecule, donor type, donor heavy atom, donor atom, acceptor molecule, acceptor atom, score
      L1  H     5    31       P1  7948  0.87
      L1  H     8    32       P1  7948  0.88
      P1  H  7989  7998       L1    14  0.02
      P1  H  7997  8010       L1    19  0.34

> <Gold.Chemscore.Hbond.Weighted>
-9.7168

> <Gold.Chemscore.Metal.Weighted>
-0.0000

> <Gold.Chemscore.Lipo.Weighted>
-8.3437

> <Gold.Chemscore.Internal_Hbond.Weighted>
0.0000

> <Gold.Chemscore.DEClash.Weighted>
1.2110

> <Gold.Chemscore.DEInternal.Weighted>
0.3976

> <Gold.Chemscore.Rot.Weighted>
4.5214

> <Gold.Chemscore.Internal.Correction.Weighted>
   9.000000E+99

> <Gold.Protein.RotatedTorsions>
[ 6907 6896 6895 6894 ] final   29.08 input  -60.11 | X-H torsion
[ 7974 7965 7964 7962 ] final   -0.26 input  175.53 | X-H torsion
[ 8008 7997 7996 7995 ] final   59.98 input   59.86 | X-H torsion
[ 10167 10162 10161 10158 ] final   94.15 input  -65.29 | X-H torsion
[ 10718 10713 10712 10709 ] final  -33.81 input   66.30 | X-H torsion
[ 10763 10752 10751 10750 ] final   -2.78 input  -60.55 | X-H torsion
[ 11005 11000 10999 10996 ] final  101.41 input  -57.11 | X-H torsion

> <Gold.Protein.ActiveResidues>
 VAL166  LYS551  ARG553  GLY616  TRP617  ASP618  TYR619  PRO620  LYS621  CYS622 
 ASP623  PHE694  ASN695  SER759  ASP760  ASP761  ALA762  ILE779  LEU786  VAL792 
 PHE793  MET794  SER795  GLU796  ALA797  LYS798  CYS799  TRP800  GLU811  SER814 

> <Gold.Protein.RotatedAtoms>
  152.0263  134.9794  160.0571 H   0  0  0  0  0  0  0  0  0  0  0  0  # atno 6907 bound_to 6896
  152.1288  133.4391  159.4719 H   0  0  0  0  0  0  0  0  0  0  0  0  # atno 6908 bound_to 6896
  150.6854  134.2364  159.4498 H   0  0  0  0  0  0  0  0  0  0  0  0  # atno 6909 bound_to 6896
  146.2429  140.1243  142.8339 H   0  0  0  0  0  0  0  0  0  0  0  0  # atno 7974 bound_to 7965
  155.5749  140.3490  155.4525 H   0  0  0  0  0  0  0  0  0  0  0  0  # atno 8008 bound_to 7997
  156.0416  140.1297  157.0174 H   0  0  0  0  0  0  0  0  0  0  0  0  # atno 8009 bound_to 7997
  154.4394  140.1023  156.6231 H   0  0  0  0  0  0  0  0  0  0  0  0  # atno 8010 bound_to 7997
  139.8111  144.6773  150.9639 H   0  0  0  0  0  0  0  0  0  0  0  0  # atno 10167 bound_to 10162
  156.3581  130.4319  149.7647 H   0  0  0  0  0  0  0  0  0  0  0  0  # atno 10718 bound_to 10713
  153.3626  135.6991  153.6700 H   0  0  0  0  0  0  0  0  0  0  0  0  # atno 10763 bound_to 10752
  153.5383  135.3578  155.2707 H   0  0  0  0  0  0  0  0  0  0  0  0  # atno 10764 bound_to 10752
  154.8670  135.4197  154.2886 H   0  0  0  0  0  0  0  0  0  0  0  0  # atno 10765 bound_to 10752
  139.8773  134.9182  156.4903 H   0  0  0  0  0  0  0  0  0  0  0  0  # atno 11005 bound_to 11000
  145.0380  140.8923  143.5070 LP  0  0  0  0  0  0  0  0  0  0  0  0  # atno 17320 bound_to 7965
  145.1319  139.2627  143.5535 LP  0  0  0  0  0  0  0  0  0  0  0  0  # atno 17321 bound_to 7965
  140.7817  143.4184  151.0881 LP  0  0  0  0  0  0  0  0  0  0  0  0  # atno 17342 bound_to 10162
  139.7850  143.8300  152.3143 LP  0  0  0  0  0  0  0  0  0  0  0  0  # atno 17343 bound_to 10162
  156.4821  130.8046  151.3060 LP  0  0  0  0  0  0  0  0  0  0  0  0  # atno 17370 bound_to 10713
  157.7470  131.0002  150.2918 LP  0  0  0  0  0  0  0  0  0  0  0  0  # atno 17371 bound_to 10713
  140.8663  133.8022  155.9317 LP  0  0  0  0  0  0  0  0  0  0  0  0  # atno 17394 bound_to 11000
  140.8998  134.2392  157.5048 LP  0  0  0  0  0  0  0  0  0  0  0  0  # atno 17395 bound_to 11000

$$$$
