AV-unprocessed.smi:912|AV-procd|sdf|4147|dock8
  -GOLD-   22720 2 53D 1   1.00000     0.00000
 Structure written by MMmdl.
 26 26  0  0  0  0  0  0  0  0  3 V2000
  146.7976  138.8085  152.2682 C   0  0  0  0  0  0  0  0  0  0  0  0
  148.1826  138.7133  152.7842 N   0  3  0  0  0  0  0  0  0  0  0  0
  148.3910  138.8546  154.2562 C   0  0  2  0  0  0  0  0  0  0  0  0
  147.2721  138.1190  155.0348 C   0  0  0  0  0  0  0  0  0  0  0  0
  148.4033  140.3782  154.5876 C   0  0  0  0  0  0  0  0  0  0  0  0
  149.2509  141.0929  153.8130 N   0  5  0  0  0  0  0  0  0  0  0  0
  147.6816  140.8210  155.4800 O   0  0  0  0  0  0  0  0  0  0  0  0
  149.7335  138.1952  154.6461 C   0  0  0  0  0  0  0  0  0  0  0  0
  150.9732  138.6584  154.1367 C   0  0  0  0  0  0  0  0  0  0  0  0
  152.1664  138.0368  154.5536 C   0  0  0  0  0  0  0  0  0  0  0  0
  152.2031  137.0192  155.4378 N   0  0  0  0  0  0  0  0  0  0  0  0
  151.0304  136.5895  155.9453 C   0  0  0  0  0  0  0  0  0  0  0  0
  149.7826  137.1415  155.5934 C   0  0  0  0  0  0  0  0  0  0  0  0
  146.8175  138.7900  151.1790 H   0  0  0  0  0  0  0  0  0  0  0  0
  146.3118  139.7351  152.5748 H   0  0  0  0  0  0  0  0  0  0  0  0
  146.1897  137.9667  152.5991 H   0  0  0  0  0  0  0  0  0  0  0  0
  148.5581  137.8199  152.5032 H   0  0  0  0  0  0  0  0  0  0  0  0
  147.4612  138.1387  156.1093 H   0  0  0  0  0  0  0  0  0  0  0  0
  147.2088  137.0715  154.7385 H   0  0  0  0  0  0  0  0  0  0  0  0
  146.2894  138.5651  154.8785 H   0  0  0  0  0  0  0  0  0  0  0  0
  149.6345  140.6634  152.9629 H   0  0  0  0  0  0  0  0  0  0  0  0
  151.0254  139.4800  153.4376 H   0  0  0  0  0  0  0  0  0  0  0  0
  153.1188  138.3733  154.1717 H   0  0  0  0  0  0  0  0  0  0  0  0
  151.0868  135.7833  156.6618 H   0  0  0  0  0  0  0  0  0  0  0  0
  148.8901  136.7521  156.0592 H   0  0  0  0  0  0  0  0  0  0  0  0
  148.7288  139.4425  152.3471 H   0  0  0  0  0  0  0  0  0  0  0  0
  1  2  1  0  0  0  0
  1 14  1  0  0  0  0
  1 15  1  0  0  0  0
  1 16  1  0  0  0  0
  2  3  1  0  0  0  0
  2 17  1  0  0  0  0
  2 26  1  0  0  0  0
  3  4  1  0  0  0  0
  3  5  1  0  0  0  0
  3  8  1  0  0  0  0
  4 18  1  0  0  0  0
  4 19  1  0  0  0  0
  4 20  1  0  0  0  0
  5  6  1  0  0  0  0
  5  7  2  0  0  0  0
  6 21  1  0  0  0  0
  8 13  1  0  0  0  0
  8  9  2  0  0  0  0
  9 10  1  0  0  0  0
  9 22  1  0  0  0  0
 10 11  2  0  0  0  0
 10 23  1  0  0  0  0
 11 12  1  0  0  0  0
 12 13  2  0  0  0  0
 12 24  1  0  0  0  0
 13 25  1  0  0  0  0
M  CHG  1   2   1
M  CHG  1   6  -1
M  END
> <s_m_source_file>
AV-unprocessed.smi

> <i_m_source_file_index>
912

> <i_lp_mmshare_version>
43012

> <i_f3d_flags>
0

> <s_epik_input>
W0NIM11bTkhdW0NAQF0oW0NIM10pKEMoPU8pW05IMl0pYzFbY0hdW2NIXW5bY0hdW2NIXTE=

> <s_epik_cmdline>
J2VwaWtfcHl0aG9uJywgJy1waCcsICc3LjAnLCAnLXRuJywgJzgnLCAnLW1hJywgJzIwMCcsICctbWV0YWxfYmluZGluZycsICctaW1hZScsICc8aW5maWxlLm1hZT4nLCAnLW9tYWUnLCAnPG91dGZpbGUubWFlPic=

> <r_epik_Ionization_Penalty>
6.88213

> <r_epik_Ionization_Penalty_Charging>
6.88153

> <r_epik_Ionization_Penalty_Neutral>
0.000601258

> <r_epik_State_Penalty>
7.02604

> <r_epik_Charging_Adjusted_Penalty>
13.9076

> <i_epik_Tot_Q>
0

> <i_epik_Tot_abs_Q>
2

> <r_epik_Metal_State_Penalty>
3.10652

> <b_epik_Metal_Only>
1

> <s_lp_Force_Field>
OPLS_2005

> <r_lp_Energy>
7.66147

> <b_lp_Chiralities_Consistent>
1

> <s_lp_Variant>
AV-unprocessed.smi:912-8

> <Gold.Version>
5.8.1

> <Gold.Id.Protein>
6NUR|6NUR_protein|mol2

> <Gold.PLP.Fitness>
37.2592

> <Gold.PLP.PLP>
-23.4382

> <Gold.PLP.part.hbond>
-5.8678

> <Gold.PLP.part.metal>
0.0000

> <Gold.PLP.part.buried>
-3.8814

> <Gold.PLP.part.nonpolar>
-14.4568

> <Gold.PLP.part.repulsive>
0.1942

> <Gold.PLP.ligand.clash>
0.0107

> <Gold.PLP.ligand.torsion>
0.5167

> <Gold.PLP.Chemscore.Hbond>
4.9440

> <Gold.PLP.Chemscore.CHOScore>
0.0000

> <Gold.PLP.Chemscore.Metal>
0.0000

> <Gold.Chemscore.Hbonds>
donor molecule, donor type, donor heavy atom, donor atom, acceptor molecule, acceptor atom, score
      L1  H     2    17       P1  7948  2.00
      L1  H     2    26       P1  7957  1.00
      L1  H     6    21       P1  7957  1.00
      P1  H 10752 10764       L1    11  0.88

> <Gold.PLP.Chemscore.Internal.Correction>
0.0332

> <Gold.Rescore>
     Score         DG    S(hbond)    S(metal)    S(lipo)     H(rot)  DE(clash)    DE(int)     intcor
     17.77     -18.59       3.75        0.00      44.49       1.80       0.05       0.76       ----

> <Gold.Chemscore.Fitness>
17.7730

> <Gold.Chemscore.DG>
-18.5877

> <Gold.Chemscore.ZeroCoef>
-5.4800

> <Gold.Chemscore.Hbond>
3.7483

> <Gold.Chemscore.Metal>
0.0000

> <Gold.Chemscore.Lipo>
44.4945

> <Gold.Chemscore.Internal_Hbond>
0.0000

> <Gold.Chemscore.DEClash>
0.0500

> <Gold.Chemscore.DEInternal>
0.7648

> <Gold.Chemscore.Rot>
1.8037

> <Gold.Chemscore.Internal.Correction>
   9.000000E+99

> <Gold.Chemscore.Hbonds>
donor molecule, donor type, donor heavy atom, donor atom, acceptor molecule, acceptor atom, score
      L1  H     2    17       P1  7948  1.00
      L1  H     2    26       P1  7957  0.94
      L1  H     6    21       P1  7957  0.98
      P1  H 10752 10764       L1    11  0.37

> <Gold.Chemscore.Hbond.Weighted>
-12.5193

> <Gold.Chemscore.Metal.Weighted>
-0.0000

> <Gold.Chemscore.Lipo.Weighted>
-5.2059

> <Gold.Chemscore.Internal_Hbond.Weighted>
0.0000

> <Gold.Chemscore.DEClash.Weighted>
0.0500

> <Gold.Chemscore.DEInternal.Weighted>
0.7648

> <Gold.Chemscore.Rot.Weighted>
4.6174

> <Gold.Chemscore.Internal.Correction.Weighted>
   9.000000E+99

> <Gold.Protein.RotatedTorsions>
[ 6907 6896 6895 6894 ] final  -46.08 input  -60.11 | X-H torsion
[ 7974 7965 7964 7962 ] final  145.56 input  175.53 | X-H torsion
[ 8008 7997 7996 7995 ] final  -98.80 input   59.86 | X-H torsion
[ 10167 10162 10161 10158 ] final   20.23 input  -65.29 | X-H torsion
[ 10718 10713 10712 10709 ] final   21.33 input   66.30 | X-H torsion
[ 10763 10752 10751 10750 ] final  -51.89 input  -60.55 | X-H torsion
[ 11005 11000 10999 10996 ] final   27.44 input  -57.11 | X-H torsion

> <Gold.Protein.ActiveResidues>
 VAL166  LYS551  ARG553  GLY616  TRP617  ASP618  TYR619  PRO620  LYS621  CYS622 
 ASP623  PHE694  ASN695  SER759  ASP760  ASP761  ALA762  ILE779  LEU786  VAL792 
 PHE793  MET794  SER795  GLU796  ALA797  LYS798  CYS799  TRP800  GLU811  SER814 

> <Gold.Protein.RotatedAtoms>
  150.9150  134.8568  159.7450 H   0  0  0  0  0  0  0  0  0  0  0  0  # atno 6907 bound_to 6896
  152.4964  134.4302  159.9519 H   0  0  0  0  0  0  0  0  0  0  0  0  # atno 6908 bound_to 6896
  151.4341  133.3622  159.2808 H   0  0  0  0  0  0  0  0  0  0  0  0  # atno 6909 bound_to 6896
  144.8743  139.5798  143.5872 H   0  0  0  0  0  0  0  0  0  0  0  0  # atno 7974 bound_to 7965
  154.8061  140.0452  157.1308 H   0  0  0  0  0  0  0  0  0  0  0  0  # atno 8008 bound_to 7997
  154.9422  140.3054  155.5095 H   0  0  0  0  0  0  0  0  0  0  0  0  # atno 8009 bound_to 7997
  156.2967  140.2303  156.4493 H   0  0  0  0  0  0  0  0  0  0  0  0  # atno 8010 bound_to 7997
  140.5519  143.9494  150.6584 H   0  0  0  0  0  0  0  0  0  0  0  0  # atno 10167 bound_to 10162
  157.1370  130.6616  149.5969 H   0  0  0  0  0  0  0  0  0  0  0  0  # atno 10718 bound_to 10713
  154.1339  135.6515  153.4928 H   0  0  0  0  0  0  0  0  0  0  0  0  # atno 10763 bound_to 10752
  153.0186  135.5299  154.6973 H   0  0  0  0  0  0  0  0  0  0  0  0  # atno 10764 bound_to 10752
  154.6215  135.2965  155.0291 H   0  0  0  0  0  0  0  0  0  0  0  0  # atno 10765 bound_to 10752
  140.3263  134.2488  155.7709 H   0  0  0  0  0  0  0  0  0  0  0  0  # atno 11005 bound_to 11000
  146.2952  139.7255  142.9132 LP  0  0  0  0  0  0  0  0  0  0  0  0  # atno 17320 bound_to 7965
  145.4073  141.0392  143.3037 LP  0  0  0  0  0  0  0  0  0  0  0  0  # atno 17321 bound_to 7965
  140.2922  143.3317  152.1052 LP  0  0  0  0  0  0  0  0  0  0  0  0  # atno 17342 bound_to 10162
  139.5031  144.6748  151.6154 LP  0  0  0  0  0  0  0  0  0  0  0  0  # atno 17343 bound_to 10162
  155.9796  130.4791  150.6725 LP  0  0  0  0  0  0  0  0  0  0  0  0  # atno 17370 bound_to 10713
  157.4341  131.0853  151.1009 LP  0  0  0  0  0  0  0  0  0  0  0  0  # atno 17371 bound_to 10713
  141.2074  133.7805  157.0118 LP  0  0  0  0  0  0  0  0  0  0  0  0  # atno 17394 bound_to 11000
  140.0899  134.9599  157.1759 LP  0  0  0  0  0  0  0  0  0  0  0  0  # atno 17395 bound_to 11000

$$$$
