AV-unprocessed.smi:1632|AV-procd|sdf|6531|dock3
  -GOLD-   22720 7213D 1   1.00000     0.00000
 Structure written by MMmdl.
 43 45  0  0  0  0  0  0  0  0  2 V2000
  150.2767  135.3422  154.2874 O   0  0  0  0  0  0  0  0  0  0  0  0
  150.1165  135.8560  155.5916 C   0  0  0  0  0  0  0  0  0  0  0  0
  151.3128  136.7476  155.9467 C   0  0  0  0  0  0  0  0  0  0  0  0
  151.6572  137.7398  154.8254 C   0  0  0  0  0  0  0  0  0  0  0  0
  150.5265  138.6777  154.5349 C   0  0  0  0  0  0  0  0  0  0  0  0
  149.4448  138.4015  153.7514 N   0  3  0  0  0  0  0  0  0  0  0  0
  148.5919  139.5044  153.7115 C   0  0  0  0  0  0  0  0  0  0  0  0
  147.3857  139.7009  153.0458 C   0  0  0  0  0  0  0  0  0  0  0  0
  146.7645  140.9552  153.2196 C   0  0  0  0  0  0  0  0  0  0  0  0
  147.3421  141.9547  154.0292 C   0  0  0  0  0  0  0  0  0  0  0  0
  148.5653  141.7431  154.6990 C   0  0  0  0  0  0  0  0  0  0  0  0
  149.1730  140.5004  154.5212 C   0  0  0  0  0  0  0  0  0  0  0  0
  150.3605  139.9468  155.0131 N   0  0  0  0  0  0  0  0  0  0  0  0
  151.2056  140.7590  155.9036 C   0  0  0  0  0  0  0  0  0  0  0  0
  150.4240  141.3390  157.0999 C   0  0  1  0  0  0  0  0  0  0  0  0
  149.7043  140.2837  157.7031 O   0  0  0  0  0  0  0  0  0  0  0  0
  151.3298  142.0632  158.0898 C   0  0  0  0  0  0  0  0  0  0  0  0
  151.2144  143.4599  158.2713 C   0  0  0  0  0  0  0  0  0  0  0  0
  152.0362  144.1283  159.1989 C   0  0  0  0  0  0  0  0  0  0  0  0
  152.9814  143.4059  159.9507 C   0  0  0  0  0  0  0  0  0  0  0  0
  153.1024  142.0143  159.7756 C   0  0  0  0  0  0  0  0  0  0  0  0
  152.2777  141.3427  158.8521 C   0  0  0  0  0  0  0  0  0  0  0  0
  152.3951  140.0000  158.7116 F   0  0  0  0  0  0  0  0  0  0  0  0
  149.6082  135.7145  153.7322 H   0  0  0  0  0  0  0  0  0  0  0  0
  149.1854  136.4210  155.6411 H   0  0  0  0  0  0  0  0  0  0  0  0
  150.0343  135.0243  156.2920 H   0  0  0  0  0  0  0  0  0  0  0  0
  151.0859  137.2984  156.8598 H   0  0  0  0  0  0  0  0  0  0  0  0
  152.1805  136.1246  156.1686 H   0  0  0  0  0  0  0  0  0  0  0  0
  152.5372  138.3240  155.0957 H   0  0  0  0  0  0  0  0  0  0  0  0
  151.9149  137.1883  153.9223 H   0  0  0  0  0  0  0  0  0  0  0  0
  146.9415  138.9367  152.4250 H   0  0  0  0  0  0  0  0  0  0  0  0
  145.8263  141.1545  152.7221 H   0  0  0  0  0  0  0  0  0  0  0  0
  146.8374  142.9037  154.1391 H   0  0  0  0  0  0  0  0  0  0  0  0
  149.0007  142.5157  155.3153 H   0  0  0  0  0  0  0  0  0  0  0  0
  152.0300  140.1330  156.2477 H   0  0  0  0  0  0  0  0  0  0  0  0
  151.6622  141.5546  155.3149 H   0  0  0  0  0  0  0  0  0  0  0  0
  149.6726  142.0376  156.7315 H   0  0  0  0  0  0  0  0  0  0  0  0
  150.3182  139.6169  157.9716 H   0  0  0  0  0  0  0  0  0  0  0  0
  150.4880  144.0238  157.7047 H   0  0  0  0  0  0  0  0  0  0  0  0
  151.9394  145.1955  159.3350 H   0  0  0  0  0  0  0  0  0  0  0  0
  153.6109  143.9176  160.6637 H   0  0  0  0  0  0  0  0  0  0  0  0
  153.8242  141.4596  160.3568 H   0  0  0  0  0  0  0  0  0  0  0  0
  149.3070  137.5207  153.2724 H   0  0  0  0  0  0  0  0  0  0  0  0
  1  2  1  0  0  0  0
  1 24  1  0  0  0  0
  2  3  1  0  0  0  0
  2 25  1  0  0  0  0
  2 26  1  0  0  0  0
  3  4  1  0  0  0  0
  3 27  1  0  0  0  0
  3 28  1  0  0  0  0
  4  5  1  0  0  0  0
  4 29  1  0  0  0  0
  4 30  1  0  0  0  0
  5 13  1  0  0  0  0
  5  6  2  0  0  0  0
  6  7  1  0  0  0  0
  6 43  1  0  0  0  0
  7 12  2  0  0  0  0
  7  8  1  0  0  0  0
  8  9  2  0  0  0  0
  8 31  1  0  0  0  0
  9 10  1  0  0  0  0
  9 32  1  0  0  0  0
 10 11  2  0  0  0  0
 10 33  1  0  0  0  0
 11 12  1  0  0  0  0
 11 34  1  0  0  0  0
 12 13  1  0  0  0  0
 13 14  1  0  0  0  0
 14 15  1  0  0  0  0
 14 35  1  0  0  0  0
 14 36  1  0  0  0  0
 15 16  1  0  0  0  0
 15 17  1  0  0  0  0
 15 37  1  0  0  0  0
 16 38  1  0  0  0  0
 17 22  1  0  0  0  0
 17 18  2  0  0  0  0
 18 19  1  0  0  0  0
 18 39  1  0  0  0  0
 19 20  2  0  0  0  0
 19 40  1  0  0  0  0
 20 21  1  0  0  0  0
 20 41  1  0  0  0  0
 21 22  2  0  0  0  0
 21 42  1  0  0  0  0
 22 23  1  0  0  0  0
M  CHG  1   6   1
M  END
> <s_m_source_file>
AV-unprocessed.smi

> <i_m_source_file_index>
1632

> <i_lp_mmshare_version>
43012

> <i_f3d_flags>
0

> <s_epik_input>
W09IXVtDSDJdW0NIMl1bQ0gyXWMobjEpbihjKGMxMilbY0hdW2NIXVtjSF1bY0hdMilbQ0gyXVtDQEhdKFtPSF0pYzNbY0hdW2NIXVtjSF1bY0hdYzNG

> <s_epik_cmdline>
J2VwaWtfcHl0aG9uJywgJy1waCcsICc3LjAnLCAnLXRuJywgJzgnLCAnLW1hJywgJzIwMCcsICctbWV0YWxfYmluZGluZycsICctaW1hZScsICc8aW5maWxlLm1hZT4nLCAnLW9tYWUnLCAnPG91dGZpbGUubWFlPic=

> <r_epik_Ionization_Penalty>
0.786441

> <r_epik_Ionization_Penalty_Charging>
0.786439

> <r_epik_Ionization_Penalty_Neutral>
1.50852e-06

> <r_epik_State_Penalty>
0.816472

> <r_epik_Charging_Adjusted_Penalty>
1.60291

> <i_epik_Tot_Q>
1

> <i_epik_Tot_abs_Q>
1

> <r_epik_Metal_State_Penalty>
4.73733

> <b_epik_Metal_Only>
0

> <s_lp_Force_Field>
OPLS_2005

> <r_lp_Energy>
15.9798

> <b_lp_Chiralities_Consistent>
1

> <s_lp_Variant>
AV-unprocessed.smi:1632-4

> <Gold.Version>
5.8.1

> <Gold.Id.Protein>
6NUR|6NUR_protein|mol2

> <Gold.PLP.Fitness>
58.6499

> <Gold.PLP.PLP>
-50.7928

> <Gold.PLP.part.hbond>
-3.9274

> <Gold.PLP.part.metal>
0.0000

> <Gold.PLP.part.buried>
1.9861

> <Gold.PLP.part.nonpolar>
-49.1298

> <Gold.PLP.part.repulsive>
0.0558

> <Gold.PLP.ligand.clash>
0.0000

> <Gold.PLP.ligand.torsion>
0.5246

> <Gold.PLP.Chemscore.Hbond>
2.9516

> <Gold.PLP.Chemscore.CHOScore>
0.0000

> <Gold.PLP.Chemscore.Metal>
0.0000

> <Gold.Chemscore.Hbonds>
donor molecule, donor type, donor heavy atom, donor atom, acceptor molecule, acceptor atom, score
      L1  H     1    24       P1  7948  0.91
      L1  H     6    43       P1  7948  2.00

> <Gold.PLP.Chemscore.Internal.Correction>
0.0515

> <Gold.Rescore>
     Score         DG    S(hbond)    S(metal)    S(lipo)     H(rot)  DE(clash)    DE(int)     intcor
     16.04     -18.52       1.51        0.00     137.40       3.16       0.75       1.73       ----

> <Gold.Chemscore.Fitness>
16.0430

> <Gold.Chemscore.DG>
-18.5228

> <Gold.Chemscore.ZeroCoef>
-5.4800

> <Gold.Chemscore.Hbond>
1.5141

> <Gold.Chemscore.Metal>
0.0000

> <Gold.Chemscore.Lipo>
137.4042

> <Gold.Chemscore.Internal_Hbond>
0.0000

> <Gold.Chemscore.DEClash>
0.7530

> <Gold.Chemscore.DEInternal>
1.7268

> <Gold.Chemscore.Rot>
3.1604

> <Gold.Chemscore.Internal.Correction>
   9.000000E+99

> <Gold.Chemscore.Hbonds>
donor molecule, donor type, donor heavy atom, donor atom, acceptor molecule, acceptor atom, score
      L1  H     1    24       P1  7948  0.19
      L1  H     6    43       P1  7948  0.97

> <Gold.Chemscore.Hbond.Weighted>
-5.0572

> <Gold.Chemscore.Metal.Weighted>
-0.0000

> <Gold.Chemscore.Lipo.Weighted>
-16.0763

> <Gold.Chemscore.Internal_Hbond.Weighted>
0.0000

> <Gold.Chemscore.DEClash.Weighted>
0.7530

> <Gold.Chemscore.DEInternal.Weighted>
1.7268

> <Gold.Chemscore.Rot.Weighted>
8.0907

> <Gold.Chemscore.Internal.Correction.Weighted>
   9.000000E+99

> <Gold.Protein.RotatedTorsions>
[ 6907 6896 6895 6894 ] final   -2.70 input  -60.11 | X-H torsion
[ 7974 7965 7964 7962 ] final    6.51 input  175.53 | X-H torsion
[ 8008 7997 7996 7995 ] final  151.01 input   59.86 | X-H torsion
[ 10167 10162 10161 10158 ] final   81.18 input  -65.29 | X-H torsion
[ 10718 10713 10712 10709 ] final  178.57 input   66.30 | X-H torsion
[ 10763 10752 10751 10750 ] final   47.26 input  -60.55 | X-H torsion
[ 11005 11000 10999 10996 ] final -174.06 input  -57.11 | X-H torsion

> <Gold.Protein.ActiveResidues>
 VAL166  LYS551  ARG553  GLY616  TRP617  ASP618  TYR619  PRO620  LYS621  CYS622 
 ASP623  PHE694  ASN695  SER759  ASP760  ASP761  ALA762  ILE779  LEU786  VAL792 
 PHE793  MET794  SER795  GLU796  ALA797  LYS798  CYS799  TRP800  GLU811  SER814 

> <Gold.Protein.RotatedAtoms>
  151.5257  135.1068  159.9889 H   0  0  0  0  0  0  0  0  0  0  0  0  # atno 6907 bound_to 6896
  152.4601  133.7800  159.6856 H   0  0  0  0  0  0  0  0  0  0  0  0  # atno 6908 bound_to 6896
  150.8559  133.7651  159.3034 H   0  0  0  0  0  0  0  0  0  0  0  0  # atno 6909 bound_to 6896
  146.2434  140.0223  142.8397 H   0  0  0  0  0  0  0  0  0  0  0  0  # atno 7974 bound_to 7965
  156.2692  140.2059  156.6108 H   0  0  0  0  0  0  0  0  0  0  0  0  # atno 8008 bound_to 7997
  154.6833  140.0537  157.0312 H   0  0  0  0  0  0  0  0  0  0  0  0  # atno 8009 bound_to 7997
  155.0970  140.3202  155.4560 H   0  0  0  0  0  0  0  0  0  0  0  0  # atno 8010 bound_to 7997
  139.9419  144.6084  150.8243 H   0  0  0  0  0  0  0  0  0  0  0  0  # atno 10167 bound_to 10162
  156.8885  130.9839  151.3052 H   0  0  0  0  0  0  0  0  0  0  0  0  # atno 10718 bound_to 10713
  152.9802  135.5982  154.3733 H   0  0  0  0  0  0  0  0  0  0  0  0  # atno 10763 bound_to 10752
  154.3405  135.2768  155.2427 H   0  0  0  0  0  0  0  0  0  0  0  0  # atno 10764 bound_to 10752
  154.4511  135.5989  153.6247 H   0  0  0  0  0  0  0  0  0  0  0  0  # atno 10765 bound_to 10752
  140.4788  134.6095  157.4911 H   0  0  0  0  0  0  0  0  0  0  0  0  # atno 11005 bound_to 11000
  145.1230  140.9473  143.4589 LP  0  0  0  0  0  0  0  0  0  0  0  0  # atno 17320 bound_to 7965
  145.0463  139.3218  143.5951 LP  0  0  0  0  0  0  0  0  0  0  0  0  # atno 17321 bound_to 7965
  140.7608  143.3160  151.2732 LP  0  0  0  0  0  0  0  0  0  0  0  0  # atno 17342 bound_to 10162
  139.6698  144.0041  152.2745 LP  0  0  0  0  0  0  0  0  0  0  0  0  # atno 17343 bound_to 10162
  157.6098  130.8574  149.8933 LP  0  0  0  0  0  0  0  0  0  0  0  0  # atno 17370 bound_to 10713
  156.0641  130.3695  150.0918 LP  0  0  0  0  0  0  0  0  0  0  0  0  # atno 17371 bound_to 10713
  139.9839  134.7092  155.9809 LP  0  0  0  0  0  0  0  0  0  0  0  0  # atno 17394 bound_to 11000
  141.1541  133.6545  156.4107 LP  0  0  0  0  0  0  0  0  0  0  0  0  # atno 17395 bound_to 11000

$$$$
