AV-unprocessed.smi:712|AV-procd|sdf|3471|dock2
  -GOLD-   22720 0463D 1   1.00000     0.00000
 Structure written by MMmdl.
 51 52  0  0  0  0  0  0  0  0  2 V2000
  152.5731  143.6399  161.5102 C   0  0  0  0  0  0  0  0  0  0  0  0
  152.1419  143.0734  160.1734 C   0  0  0  0  0  0  0  0  0  0  0  0
  151.1341  143.7407  159.3754 C   0  0  0  0  0  0  0  0  0  0  0  0
  150.7694  143.2043  158.2004 C   0  0  0  0  0  0  0  0  0  0  0  0
  151.3387  142.0112  157.7194 N   0  0  0  0  0  0  0  0  0  0  0  0
  150.8393  141.4921  156.4349 C   0  0  0  0  0  0  0  0  0  0  0  0
  149.5159  140.7394  156.6131 C   0  0  0  0  0  0  0  0  0  0  0  0
  149.0093  140.6353  157.7305 O   0  0  0  0  0  0  0  0  0  0  0  0
  148.9841  140.1940  155.5084 N   0  0  0  0  0  0  0  0  0  0  0  0
  147.8304  139.2994  155.4841 C   0  0  0  0  0  0  0  0  0  0  0  0
  147.6659  138.6232  154.1075 C   0  0  1  0  0  0  0  0  0  0  0  0
  146.7863  137.3540  154.1415 C   0  0  0  0  0  0  0  0  0  0  0  0
  146.6266  136.7843  152.7824 N   0  3  1  0  0  0  0  0  0  0  0  0
  145.8277  135.5309  152.7441 C   0  0  0  0  0  0  0  0  0  0  0  0
  145.7847  134.8578  151.3527 C   0  0  0  0  0  0  0  0  0  0  0  0
  144.6006  135.3510  150.5046 C   0  0  0  0  0  0  0  0  0  0  0  0
  145.7461  133.3290  151.4908 C   0  0  0  0  0  0  0  0  0  0  0  0
  146.1039  137.8138  151.8538 C   0  0  0  0  0  0  0  0  0  0  0  0
  146.9889  139.0707  151.8880 C   0  0  0  0  0  0  0  0  0  0  0  0
  147.0715  139.5638  153.2200 O   0  0  0  0  0  0  0  0  0  0  0  0
  152.2984  141.3351  158.4221 C   0  0  0  0  0  0  0  0  0  0  0  0
  152.7960  140.2860  158.0107 O   0  0  0  0  0  0  0  0  0  0  0  0
  152.6879  141.9298  159.7053 C   0  0  0  0  0  0  0  0  0  0  0  0
  152.1044  144.6063  161.6988 H   0  0  0  0  0  0  0  0  0  0  0  0
  153.6547  143.7762  161.5346 H   0  0  0  0  0  0  0  0  0  0  0  0
  152.2928  142.9614  162.3166 H   0  0  0  0  0  0  0  0  0  0  0  0
  150.6757  144.6565  159.7197 H   0  0  0  0  0  0  0  0  0  0  0  0
  150.0180  143.6468  157.5625 H   0  0  0  0  0  0  0  0  0  0  0  0
  150.6799  142.3010  155.7203 H   0  0  0  0  0  0  0  0  0  0  0  0
  151.5884  140.8438  155.9757 H   0  0  0  0  0  0  0  0  0  0  0  0
  149.4598  140.3464  154.6307 H   0  0  0  0  0  0  0  0  0  0  0  0
  147.8952  138.5502  156.2751 H   0  0  0  0  0  0  0  0  0  0  0  0
  146.9455  139.8975  155.7034 H   0  0  0  0  0  0  0  0  0  0  0  0
  148.6582  138.3657  153.7313 H   0  0  0  0  0  0  0  0  0  0  0  0
  147.2530  136.6137  154.7856 H   0  0  0  0  0  0  0  0  0  0  0  0
  145.8070  137.5811  154.5658 H   0  0  0  0  0  0  0  0  0  0  0  0
  146.2212  134.8356  153.4872 H   0  0  0  0  0  0  0  0  0  0  0  0
  144.8048  135.7572  153.0489 H   0  0  0  0  0  0  0  0  0  0  0  0
  146.7032  135.0873  150.8150 H   0  0  0  0  0  0  0  0  0  0  0  0
  143.6487  135.1553  150.9991 H   0  0  0  0  0  0  0  0  0  0  0  0
  144.5793  134.8533  149.5347 H   0  0  0  0  0  0  0  0  0  0  0  0
  144.6650  136.4225  150.3141 H   0  0  0  0  0  0  0  0  0  0  0  0
  144.8461  132.9991  152.0107 H   0  0  0  0  0  0  0  0  0  0  0  0
  146.6078  132.9623  152.0495 H   0  0  0  0  0  0  0  0  0  0  0  0
  145.7616  132.8462  150.5128 H   0  0  0  0  0  0  0  0  0  0  0  0
  146.0712  137.4162  150.8387 H   0  0  0  0  0  0  0  0  0  0  0  0
  145.0802  138.0710  152.1315 H   0  0  0  0  0  0  0  0  0  0  0  0
  147.9868  138.8554  151.5028 H   0  0  0  0  0  0  0  0  0  0  0  0
  146.5628  139.8461  151.2511 H   0  0  0  0  0  0  0  0  0  0  0  0
  153.4379  141.4264  160.2978 H   0  0  0  0  0  0  0  0  0  0  0  0
  147.5515  136.5458  152.4538 H   0  0  0  0  0  0  0  0  0  0  0  0
  1  2  1  0  0  0  0
  1 24  1  0  0  0  0
  1 25  1  0  0  0  0
  1 26  1  0  0  0  0
  2 23  2  0  0  0  0
  2  3  1  0  0  0  0
  3  4  2  0  0  0  0
  3 27  1  0  0  0  0
  4  5  1  0  0  0  0
  4 28  1  0  0  0  0
  5  6  1  0  0  0  0
  5 21  1  0  0  0  0
  6  7  1  0  0  0  0
  6 29  1  0  0  0  0
  6 30  1  0  0  0  0
  7  8  2  0  0  0  0
  7  9  1  0  0  0  0
  9 10  1  0  0  0  0
  9 31  1  0  0  0  0
 10 11  1  0  0  0  0
 10 32  1  0  0  0  0
 10 33  1  0  0  0  0
 11 20  1  0  0  0  0
 11 12  1  0  0  0  0
 11 34  1  0  0  0  0
 12 13  1  0  0  0  0
 12 35  1  0  0  0  0
 12 36  1  0  0  0  0
 13 14  1  0  0  0  0
 13 18  1  0  0  0  0
 13 51  1  0  0  0  0
 14 15  1  0  0  0  0
 14 37  1  0  0  0  0
 14 38  1  0  0  0  0
 15 16  1  0  0  0  0
 15 17  1  0  0  0  0
 15 39  1  0  0  0  0
 16 40  1  0  0  0  0
 16 41  1  0  0  0  0
 16 42  1  0  0  0  0
 17 43  1  0  0  0  0
 17 44  1  0  0  0  0
 17 45  1  0  0  0  0
 18 19  1  0  0  0  0
 18 46  1  0  0  0  0
 18 47  1  0  0  0  0
 19 20  1  0  0  0  0
 19 48  1  0  0  0  0
 19 49  1  0  0  0  0
 21 22  2  0  0  0  0
 21 23  1  0  0  0  0
 23 50  1  0  0  0  0
M  CHG  1  13   1
M  END
> <s_m_source_file>
AV-unprocessed.smi

> <i_m_source_file_index>
712

> <i_lp_mmshare_version>
43012

> <i_f3d_flags>
0

> <s_epik_input>
W0NIM11jMVtjSF1bY0hdbihjKD1PKVtjSF0xKVtDSDJdQyg9TylbTkhdW0NIMl1bQ0BASF0yW0NIMl1OKFtDSDJdW0NIMl1PMilbQ0gyXVtDSF0oW0NIM10pW0NIM10=

> <s_epik_cmdline>
J2VwaWtfcHl0aG9uJywgJy1waCcsICc3LjAnLCAnLXRuJywgJzgnLCAnLW1hJywgJzIwMCcsICctbWV0YWxfYmluZGluZycsICctaW1hZScsICc8aW5maWxlLm1hZT4nLCAnLW9tYWUnLCAnPG91dGZpbGUubWFlPic=

> <r_lp_tautomer_probability>
1

> <r_epik_Ionization_Penalty>
0.0975935

> <r_epik_Ionization_Penalty_Charging>
0.0975934

> <r_epik_Ionization_Penalty_Neutral>
6.27044e-08

> <r_epik_State_Penalty>
0.0877056

> <r_epik_Charging_Adjusted_Penalty>
0.185299

> <i_epik_Tot_Q>
1

> <i_epik_Tot_abs_Q>
1

> <r_epik_Metal_State_Penalty>
0.0877109

> <b_epik_Metal_Only>
0

> <s_lp_Force_Field>
OPLS_2005

> <r_lp_Energy>
25.8349

> <b_lp_Chiralities_Consistent>
1

> <s_lp_Variant>
AV-unprocessed.smi:712-4

> <Gold.Version>
5.8.1

> <Gold.Id.Protein>
6NUR|6NUR_protein|mol2

> <Gold.PLP.Fitness>
49.8423

> <Gold.PLP.PLP>
-39.4675

> <Gold.PLP.part.hbond>
-2.0000

> <Gold.PLP.part.metal>
0.0000

> <Gold.PLP.part.buried>
-2.0967

> <Gold.PLP.part.nonpolar>
-35.9531

> <Gold.PLP.part.repulsive>
0.3117

> <Gold.PLP.ligand.clash>
0.0000

> <Gold.PLP.ligand.torsion>
0.9556

> <Gold.PLP.Chemscore.Hbond>
3.0000

> <Gold.PLP.Chemscore.CHOScore>
1.0000

> <Gold.PLP.Chemscore.Metal>
0.0000

> <Gold.Chemscore.Hbonds>
donor molecule, donor type, donor heavy atom, donor atom, acceptor molecule, acceptor atom, score
      L1  H    13    51       P1  7948  2.00
      P1  H  7997  8008       L1    22  0.94
      L1  C     4    28       P1  8028  1.00

> <Gold.PLP.Chemscore.Internal.Correction>
0.2860

> <Gold.Rescore>
     Score         DG    S(hbond)    S(metal)    S(lipo)     H(rot)  DE(clash)    DE(int)     intcor
     17.85     -19.10       1.93        0.00     102.62       1.89       0.26       0.99       ----

> <Gold.Chemscore.Fitness>
17.8549

> <Gold.Chemscore.DG>
-19.1045

> <Gold.Chemscore.ZeroCoef>
-5.4800

> <Gold.Chemscore.Hbond>
1.9307

> <Gold.Chemscore.Metal>
0.0000

> <Gold.Chemscore.Lipo>
102.6225

> <Gold.Chemscore.Internal_Hbond>
0.0000

> <Gold.Chemscore.DEClash>
0.2560

> <Gold.Chemscore.DEInternal>
0.9936

> <Gold.Chemscore.Rot>
1.8871

> <Gold.Chemscore.Internal.Correction>
   9.000000E+99

> <Gold.Chemscore.Hbonds>
donor molecule, donor type, donor heavy atom, donor atom, acceptor molecule, acceptor atom, score
      L1  H    13    51       P1  7948  0.94
      P1  H  7997  8008       L1    22  0.84

> <Gold.Chemscore.Hbond.Weighted>
-6.4486

> <Gold.Chemscore.Metal.Weighted>
-0.0000

> <Gold.Chemscore.Lipo.Weighted>
-12.0068

> <Gold.Chemscore.Internal_Hbond.Weighted>
0.0000

> <Gold.Chemscore.DEClash.Weighted>
0.2560

> <Gold.Chemscore.DEInternal.Weighted>
0.9936

> <Gold.Chemscore.Rot.Weighted>
4.8309

> <Gold.Chemscore.Internal.Correction.Weighted>
   9.000000E+99

> <Gold.Protein.RotatedTorsions>
[ 6907 6896 6895 6894 ] final -124.81 input  -60.11 | X-H torsion
[ 7974 7965 7964 7962 ] final  156.80 input  175.53 | X-H torsion
[ 8008 7997 7996 7995 ] final  -75.62 input   59.86 | X-H torsion
[ 10167 10162 10161 10158 ] final  169.25 input  -65.29 | X-H torsion
[ 10718 10713 10712 10709 ] final  -55.23 input   66.30 | X-H torsion
[ 10763 10752 10751 10750 ] final  -97.75 input  -60.55 | X-H torsion
[ 11005 11000 10999 10996 ] final  130.05 input  -57.11 | X-H torsion

> <Gold.Protein.ActiveResidues>
 VAL166  LYS551  ARG553  GLY616  TRP617  ASP618  TYR619  PRO620  LYS621  CYS622 
 ASP623  PHE694  ASN695  SER759  ASP760  ASP761  ALA762  ILE779  LEU786  VAL792 
 PHE793  MET794  SER795  GLU796  ALA797  LYS798  CYS799  TRP800  GLU811  SER814 

> <Gold.Protein.RotatedAtoms>
  150.8805  133.7379  159.2933 H   0  0  0  0  0  0  0  0  0  0  0  0  # atno 6907 bound_to 6896
  151.4962  135.1058  159.9826 H   0  0  0  0  0  0  0  0  0  0  0  0  # atno 6908 bound_to 6896
  152.4756  133.8085  159.7046 H   0  0  0  0  0  0  0  0  0  0  0  0  # atno 6909 bound_to 6896
  144.7941  139.7253  143.6209 H   0  0  0  0  0  0  0  0  0  0  0  0  # atno 7974 bound_to 7965
  154.5433  140.0741  156.8546 H   0  0  0  0  0  0  0  0  0  0  0  0  # atno 8008 bound_to 7997
  155.3138  140.3392  155.4225 H   0  0  0  0  0  0  0  0  0  0  0  0  # atno 8009 bound_to 7997
  156.1894  140.1681  156.8107 H   0  0  0  0  0  0  0  0  0  0  0  0  # atno 8010 bound_to 7997
  139.4987  144.3726  151.9708 H   0  0  0  0  0  0  0  0  0  0  0  0  # atno 10167 bound_to 10162
  156.1385  130.4155  150.0144 H   0  0  0  0  0  0  0  0  0  0  0  0  # atno 10718 bound_to 10713
  154.7355  135.5035  153.9035 H   0  0  0  0  0  0  0  0  0  0  0  0  # atno 10763 bound_to 10752
  153.0991  135.6680  153.9715 H   0  0  0  0  0  0  0  0  0  0  0  0  # atno 10764 bound_to 10752
  153.9505  135.3058  155.3418 H   0  0  0  0  0  0  0  0  0  0  0  0  # atno 10765 bound_to 10752
  139.9650  134.9593  156.9237 H   0  0  0  0  0  0  0  0  0  0  0  0  # atno 11005 bound_to 11000
  146.2203  139.5624  142.9622 LP  0  0  0  0  0  0  0  0  0  0  0  0  # atno 17320 bound_to 7965
  145.5718  141.0393  143.2170 LP  0  0  0  0  0  0  0  0  0  0  0  0  # atno 17321 bound_to 7965
  140.3162  144.3480  150.6021 LP  0  0  0  0  0  0  0  0  0  0  0  0  # atno 17342 bound_to 10162
  140.5759  143.2176  151.7516 LP  0  0  0  0  0  0  0  0  0  0  0  0  # atno 17343 bound_to 10162
  156.8036  130.9299  151.3645 LP  0  0  0  0  0  0  0  0  0  0  0  0  # atno 17370 bound_to 10713
  157.6554  130.8920  149.9718 LP  0  0  0  0  0  0  0  0  0  0  0  0  # atno 17371 bound_to 10713
  140.5417  134.0714  155.7343 LP  0  0  0  0  0  0  0  0  0  0  0  0  # atno 17394 bound_to 11000
  141.1329  133.9271  157.2497 LP  0  0  0  0  0  0  0  0  0  0  0  0  # atno 17395 bound_to 11000

$$$$
