AV-unprocessed.smi:2032|AV-procd|sdf|8256|dock3
  -GOLD-   2272010533D 1   1.00000     0.00000
 Structure written by MMmdl.
 42 43  0  0  0  0  0  0  0  0  3 V2000
  152.9318  138.6165  154.8034 C   0  0  0  0  0  0  0  0  0  0  0  0
  151.4429  138.9966  154.7162 C   0  0  1  0  0  0  0  0  0  0  0  0
  150.5081  137.9895  155.4108 C   0  0  0  0  0  0  0  0  0  0  0  0
  150.6098  138.0785  156.8922 N   0  3  2  0  0  0  0  0  0  0  0  0
  149.8105  137.0150  157.5814 C   0  0  2  0  0  0  0  0  0  0  0  0
  149.9900  135.6031  156.9727 C   0  0  0  0  0  0  0  0  0  0  0  0
  148.3103  137.4096  157.5901 C   0  0  0  0  0  0  0  0  0  0  0  0
  147.8076  137.7068  158.9275 N   0  0  0  0  0  0  0  0  0  0  0  0
  147.9263  136.9113  159.9996 C   0  0  0  0  0  0  0  0  0  0  0  0
  148.5209  135.8351  159.9029 O   0  0  0  0  0  0  0  0  0  0  0  0
  147.3418  137.4092  161.1120 N   0  5  0  0  0  0  0  0  0  0  0  0
  146.2917  136.7766  161.6602 C   0  0  0  0  0  0  0  0  0  0  0  0
  145.0742  137.3243  161.7482 N   0  0  0  0  0  0  0  0  0  0  0  0
  144.1305  136.4867  162.3459 C   0  0  0  0  0  0  0  0  0  0  0  0
  144.6396  135.2700  162.7150 C   0  0  0  0  0  0  0  0  0  0  0  0
  146.3295  135.1387  162.3194 S   0  0  0  0  0  0  0  0  0  0  0  0
  150.3455  139.4785  157.3194 C   0  0  0  0  0  0  0  0  0  0  0  0
  151.2988  140.4589  156.6105 C   0  0  2  0  0  0  0  0  0  0  0  0
  150.9830  141.9180  156.9584 C   0  0  0  0  0  0  0  0  0  0  0  0
  151.1849  140.3132  155.1990 O   0  0  0  0  0  0  0  0  0  0  0  0
  153.1149  137.6622  154.3087 H   0  0  0  0  0  0  0  0  0  0  0  0
  153.2760  138.5168  155.8324 H   0  0  0  0  0  0  0  0  0  0  0  0
  153.5536  139.3654  154.3127 H   0  0  0  0  0  0  0  0  0  0  0  0
  151.1849  139.0101  153.6568 H   0  0  0  0  0  0  0  0  0  0  0  0
  149.4770  138.1915  155.1155 H   0  0  0  0  0  0  0  0  0  0  0  0
  150.7367  136.9867  155.0540 H   0  0  0  0  0  0  0  0  0  0  0  0
  150.1678  136.9546  158.6107 H   0  0  0  0  0  0  0  0  0  0  0  0
  149.3805  134.8624  157.4904 H   0  0  0  0  0  0  0  0  0  0  0  0
  151.0173  135.2488  157.0575 H   0  0  0  0  0  0  0  0  0  0  0  0
  149.7039  135.5818  155.9206 H   0  0  0  0  0  0  0  0  0  0  0  0
  148.1086  138.2693  156.9522 H   0  0  0  0  0  0  0  0  0  0  0  0
  147.7129  136.5917  157.1858 H   0  0  0  0  0  0  0  0  0  0  0  0
  147.3184  138.5815  159.0510 H   0  0  0  0  0  0  0  0  0  0  0  0
  143.1170  136.8386  162.4682 H   0  0  0  0  0  0  0  0  0  0  0  0
  144.1279  134.4474  163.1909 H   0  0  0  0  0  0  0  0  0  0  0  0
  149.3055  139.7344  157.1095 H   0  0  0  0  0  0  0  0  0  0  0  0
  150.5019  139.5937  158.3916 H   0  0  0  0  0  0  0  0  0  0  0  0
  152.3248  140.2560  156.9183 H   0  0  0  0  0  0  0  0  0  0  0  0
  151.0680  142.0946  158.0311 H   0  0  0  0  0  0  0  0  0  0  0  0
  149.9711  142.1868  156.6543 H   0  0  0  0  0  0  0  0  0  0  0  0
  151.6728  142.5962  156.4554 H   0  0  0  0  0  0  0  0  0  0  0  0
  151.5739  137.8973  157.1324 H   0  0  0  0  0  0  0  0  0  0  0  0
  1  2  1  0  0  0  0
  1 21  1  0  0  0  0
  1 22  1  0  0  0  0
  1 23  1  0  0  0  0
  2 20  1  0  0  0  0
  2  3  1  0  0  0  0
  2 24  1  0  0  0  0
  3  4  1  0  0  0  0
  3 25  1  0  0  0  0
  3 26  1  0  0  0  0
  4  5  1  0  0  0  0
  4 17  1  0  0  0  0
  4 42  1  0  0  0  0
  5  6  1  0  0  0  0
  5  7  1  0  0  0  0
  5 27  1  0  0  0  0
  6 28  1  0  0  0  0
  6 29  1  0  0  0  0
  6 30  1  0  0  0  0
  7  8  1  0  0  0  0
  7 31  1  0  0  0  0
  7 32  1  0  0  0  0
  8  9  1  0  0  0  0
  8 33  1  0  0  0  0
  9 10  2  0  0  0  0
  9 11  1  0  0  0  0
 11 12  1  0  0  0  0
 12 16  1  0  0  0  0
 12 13  2  0  0  0  0
 13 14  1  0  0  0  0
 14 15  2  0  0  0  0
 14 34  1  0  0  0  0
 15 16  1  0  0  0  0
 15 35  1  0  0  0  0
 17 18  1  0  0  0  0
 17 36  1  0  0  0  0
 17 37  1  0  0  0  0
 18 19  1  0  0  0  0
 18 20  1  0  0  0  0
 18 38  1  0  0  0  0
 19 39  1  0  0  0  0
 19 40  1  0  0  0  0
 19 41  1  0  0  0  0
M  CHG  1   4   1
M  CHG  1  11  -1
M  END
> <s_m_source_file>
AV-unprocessed.smi

> <i_m_source_file_index>
2032

> <i_lp_mmshare_version>
43012

> <i_f3d_flags>
0

> <s_epik_input>
W0NIM11bQ0BASF0xW0NIMl1OKFtDSDJdW0NASF0oTzEpW0NIM10pW0NASF0oW0NIM10pW0NIMl1bTkhdQyg9TylbTkhdYzJuW2NIXVtjSF1zMg==

> <s_epik_cmdline>
J2VwaWtfcHl0aG9uJywgJy1waCcsICc3LjAnLCAnLXRuJywgJzgnLCAnLW1hJywgJzIwMCcsICctbWV0YWxfYmluZGluZycsICctaW1hZScsICc8aW5maWxlLm1hZT4nLCAnLW9tYWUnLCAnPG91dGZpbGUubWFlPic=

> <r_lp_tautomer_probability>
0.999

> <r_epik_Ionization_Penalty>
6.71699

> <r_epik_Ionization_Penalty_Charging>
5.88592

> <r_epik_Ionization_Penalty_Neutral>
0.831074

> <r_epik_State_Penalty>
6.08365

> <r_epik_Charging_Adjusted_Penalty>
11.9696

> <i_epik_Tot_Q>
0

> <i_epik_Tot_abs_Q>
2

> <r_epik_Metal_State_Penalty>
2.0947

> <b_epik_Metal_Only>
1

> <s_lp_Force_Field>
OPLS_2005

> <r_lp_Energy>
13.0478

> <b_lp_Chiralities_Consistent>
1

> <s_lp_Variant>
AV-unprocessed.smi:2032-26

> <Gold.Version>
5.8.1

> <Gold.Id.Protein>
6NUR|6NUR_protein|mol2

> <Gold.PLP.Fitness>
43.4442

> <Gold.PLP.PLP>
-32.8379

> <Gold.PLP.part.hbond>
-4.0000

> <Gold.PLP.part.metal>
0.0000

> <Gold.PLP.part.buried>
-5.2632

> <Gold.PLP.part.nonpolar>
-24.4061

> <Gold.PLP.part.repulsive>
0.1992

> <Gold.PLP.ligand.clash>
0.0000

> <Gold.PLP.ligand.torsion>
2.1500

> <Gold.PLP.Chemscore.Hbond>
4.9353

> <Gold.PLP.Chemscore.CHOScore>
0.0000

> <Gold.PLP.Chemscore.Metal>
0.0000

> <Gold.Chemscore.Hbonds>
donor molecule, donor type, donor heavy atom, donor atom, acceptor molecule, acceptor atom, score
      P1  H  6931  6943       L1    11  1.25
      P1  H  6934  6947       L1    11  2.00
      P1  H  7989  7998       L1    20  0.30

> <Gold.PLP.Chemscore.Internal.Correction>
0.1005

> <Gold.Rescore>
     Score         DG    S(hbond)    S(metal)    S(lipo)     H(rot)  DE(clash)    DE(int)     intcor
     12.71     -16.67       2.14        0.00      69.16       1.58       0.60       3.36       ----

> <Gold.Chemscore.Fitness>
12.7137

> <Gold.Chemscore.DG>
-16.6736

> <Gold.Chemscore.ZeroCoef>
-5.4800

> <Gold.Chemscore.Hbond>
2.1391

> <Gold.Chemscore.Metal>
0.0000

> <Gold.Chemscore.Lipo>
69.1589

> <Gold.Chemscore.Internal_Hbond>
0.0000

> <Gold.Chemscore.DEClash>
0.6038

> <Gold.Chemscore.DEInternal>
3.3561

> <Gold.Chemscore.Rot>
1.5791

> <Gold.Chemscore.Internal.Correction>
   9.000000E+99

> <Gold.Chemscore.Hbonds>
donor molecule, donor type, donor heavy atom, donor atom, acceptor molecule, acceptor atom, score
      P1  H  6896  6909       L1    10  0.02
      P1  H  6931  6943       L1    11  0.10
      P1  H  6934  6947       L1    11  0.62

> <Gold.Chemscore.Hbond.Weighted>
-7.1445

> <Gold.Chemscore.Metal.Weighted>
-0.0000

> <Gold.Chemscore.Lipo.Weighted>
-8.0916

> <Gold.Chemscore.Internal_Hbond.Weighted>
0.0000

> <Gold.Chemscore.DEClash.Weighted>
0.6038

> <Gold.Chemscore.DEInternal.Weighted>
3.3561

> <Gold.Chemscore.Rot.Weighted>
4.0425

> <Gold.Chemscore.Internal.Correction.Weighted>
   9.000000E+99

> <Gold.Protein.RotatedTorsions>
[ 6907 6896 6895 6894 ] final   56.06 input  -60.11 | X-H torsion
[ 7974 7965 7964 7962 ] final -175.12 input  175.53 | X-H torsion
[ 8008 7997 7996 7995 ] final -168.03 input   59.86 | X-H torsion
[ 10167 10162 10161 10158 ] final   41.88 input  -65.29 | X-H torsion
[ 10718 10713 10712 10709 ] final -126.44 input   66.30 | X-H torsion
[ 10763 10752 10751 10750 ] final  128.89 input  -60.55 | X-H torsion
[ 11005 11000 10999 10996 ] final  -14.60 input  -57.11 | X-H torsion

> <Gold.Protein.ActiveResidues>
 VAL166  LYS551  ARG553  GLY616  TRP617  ASP618  TYR619  PRO620  LYS621  CYS622 
 ASP623  PHE694  ASN695  SER759  ASP760  ASP761  ALA762  ILE779  LEU786  VAL792 
 PHE793  MET794  SER795  GLU796  ALA797  LYS798  CYS799  TRP800  GLU811  SER814 

> <Gold.Protein.RotatedAtoms>
  152.3600  134.6886  160.0209 H   0  0  0  0  0  0  0  0  0  0  0  0  # atno 6907 bound_to 6896
  151.7212  133.3309  159.3324 H   0  0  0  0  0  0  0  0  0  0  0  0  # atno 6908 bound_to 6896
  150.7598  134.6380  159.6266 H   0  0  0  0  0  0  0  0  0  0  0  0  # atno 6909 bound_to 6896
  144.7129  140.1369  143.6394 H   0  0  0  0  0  0  0  0  0  0  0  0  # atno 7974 bound_to 7965
  155.8858  140.1016  157.1453 H   0  0  0  0  0  0  0  0  0  0  0  0  # atno 8008 bound_to 7997
  154.4010  140.1320  156.4318 H   0  0  0  0  0  0  0  0  0  0  0  0  # atno 8009 bound_to 7997
  155.7590  140.3463  155.5191 H   0  0  0  0  0  0  0  0  0  0  0  0  # atno 8010 bound_to 7997
  140.3599  144.2241  150.6139 H   0  0  0  0  0  0  0  0  0  0  0  0  # atno 10167 bound_to 10162
  156.1766  130.6703  151.0250 H   0  0  0  0  0  0  0  0  0  0  0  0  # atno 10718 bound_to 10713
  153.7329  135.3236  155.3289 H   0  0  0  0  0  0  0  0  0  0  0  0  # atno 10763 bound_to 10752
  154.8320  135.4526  154.1104 H   0  0  0  0  0  0  0  0  0  0  0  0  # atno 10764 bound_to 10752
  153.2256  135.6953  153.8030 H   0  0  0  0  0  0  0  0  0  0  0  0  # atno 10765 bound_to 10752
  140.7881  133.8309  155.9354 H   0  0  0  0  0  0  0  0  0  0  0  0  # atno 11005 bound_to 11000
  145.9237  139.2561  143.1366 LP  0  0  0  0  0  0  0  0  0  0  0  0  # atno 17320 bound_to 7965
  145.9594  140.8847  143.0218 LP  0  0  0  0  0  0  0  0  0  0  0  0  # atno 17321 bound_to 7965
  140.5137  143.2284  151.8496 LP  0  0  0  0  0  0  0  0  0  0  0  0  # atno 17342 bound_to 10162
  139.4815  144.4920  151.9173 LP  0  0  0  0  0  0  0  0  0  0  0  0  # atno 17343 bound_to 10162
  157.6840  131.0830  150.7294 LP  0  0  0  0  0  0  0  0  0  0  0  0  # atno 17370 bound_to 10713
  156.7352  130.4722  149.5490 LP  0  0  0  0  0  0  0  0  0  0  0  0  # atno 17371 bound_to 10713
  140.9416  134.1893  157.4793 LP  0  0  0  0  0  0  0  0  0  0  0  0  # atno 17394 bound_to 11000
  139.8734  134.9874  156.5367 LP  0  0  0  0  0  0  0  0  0  0  0  0  # atno 17395 bound_to 11000

$$$$
