AV-unprocessed.smi:582|AV-procd|sdf|2995|dock6
  -GOLD-   2262023503D 1   1.00000     0.00000
 Structure written by MMmdl.
 26 27  0  0  0  0  0  0  0  0  2 V2000
  154.6731  135.2214  157.1220 O   0  0  0  0  0  0  0  0  0  0  0  0
  154.3449  135.4749  158.3025 C   0  0  0  0  0  0  0  0  0  0  0  0
  154.4136  134.6218  159.2151 O   0  5  0  0  0  0  0  0  0  0  0  0
  153.8499  136.8544  158.6354 C   0  0  0  0  0  0  0  0  0  0  0  0
  153.6568  137.2584  159.9752 C   0  0  0  0  0  0  0  0  0  0  0  0
  153.1921  138.5613  160.2395 C   0  0  0  0  0  0  0  0  0  0  0  0
  152.9334  139.4222  159.1538 C   0  0  0  0  0  0  0  0  0  0  0  0
  152.4724  140.7209  159.4113 N   0  0  0  0  0  0  0  0  0  0  0  0
  153.3908  141.5102  160.2223 C   0  0  0  0  0  0  0  0  0  0  0  0
  152.7566  142.8701  160.5615 C   0  0  0  0  0  0  0  0  0  0  0  0
  152.3835  143.5373  159.3590 O   0  0  0  0  0  0  0  0  0  0  0  0
  151.4307  142.7916  158.6059 C   0  0  0  0  0  0  0  0  0  0  0  0
  152.0323  141.4304  158.2164 C   0  0  0  0  0  0  0  0  0  0  0  0
  153.1146  139.0459  157.8658 N   0  0  0  0  0  0  0  0  0  0  0  0
  153.5610  137.7947  157.6201 C   0  0  0  0  0  0  0  0  0  0  0  0
  153.8589  136.5877  160.7976 H   0  0  0  0  0  0  0  0  0  0  0  0
  153.0383  138.8898  161.2569 H   0  0  0  0  0  0  0  0  0  0  0  0
  153.6329  140.9699  161.1385 H   0  0  0  0  0  0  0  0  0  0  0  0
  154.3251  141.6627  159.6802 H   0  0  0  0  0  0  0  0  0  0  0  0
  151.8844  142.7427  161.2048 H   0  0  0  0  0  0  0  0  0  0  0  0
  153.4672  143.4912  161.1070 H   0  0  0  0  0  0  0  0  0  0  0  0
  150.5154  142.6607  159.1854 H   0  0  0  0  0  0  0  0  0  0  0  0
  151.1644  143.3552  157.7117 H   0  0  0  0  0  0  0  0  0  0  0  0
  152.8768  141.5792  157.5419 H   0  0  0  0  0  0  0  0  0  0  0  0
  151.2931  140.8320  157.6827 H   0  0  0  0  0  0  0  0  0  0  0  0
  153.6880  137.5479  156.5761 H   0  0  0  0  0  0  0  0  0  0  0  0
  1  2  2  0  0  0  0
  2  3  1  0  0  0  0
  2  4  1  0  0  0  0
  4 15  1  0  0  0  0
  4  5  2  0  0  0  0
  5  6  1  0  0  0  0
  5 16  1  0  0  0  0
  6  7  2  0  0  0  0
  6 17  1  0  0  0  0
  7  8  1  0  0  0  0
  7 14  1  0  0  0  0
  8 13  1  0  0  0  0
  8  9  1  0  0  0  0
  9 10  1  0  0  0  0
  9 18  1  0  0  0  0
  9 19  1  0  0  0  0
 10 11  1  0  0  0  0
 10 20  1  0  0  0  0
 10 21  1  0  0  0  0
 11 12  1  0  0  0  0
 12 13  1  0  0  0  0
 12 22  1  0  0  0  0
 12 23  1  0  0  0  0
 13 24  1  0  0  0  0
 13 25  1  0  0  0  0
 14 15  2  0  0  0  0
 15 26  1  0  0  0  0
M  CHG  1   3  -1
M  END
> <s_m_source_file>
AV-unprocessed.smi

> <i_m_source_file_index>
582

> <i_lp_mmshare_version>
43012

> <i_f3d_flags>
0

> <s_epik_input>
Tz1DKFtPSF0pYzFbY0hdW2NIXWMobltjSF0xKU4yW0NIMl1bQ0gyXU9bQ0gyXVtDSDJdMg==

> <s_epik_cmdline>
J2VwaWtfcHl0aG9uJywgJy1waCcsICc3LjAnLCAnLXRuJywgJzgnLCAnLW1hJywgJzIwMCcsICctbWV0YWxfYmluZGluZycsICctaW1hZScsICc8aW5maWxlLm1hZT4nLCAnLW9tYWUnLCAnPG91dGZpbGUubWFlPic=

> <r_epik_Ionization_Penalty>
0.00875305

> <r_epik_Ionization_Penalty_Charging>
0.000191694

> <r_epik_Ionization_Penalty_Neutral>
0.00856136

> <r_epik_State_Penalty>
0.00645777

> <r_epik_Charging_Adjusted_Penalty>
0.00664946

> <i_epik_Tot_Q>
-1

> <i_epik_Tot_abs_Q>
1

> <r_epik_Metal_State_Penalty>
6.49305e-06

> <b_epik_Metal_Only>
0

> <s_lp_Force_Field>
OPLS_2005

> <r_lp_Energy>
18.8372

> <b_lp_Chiralities_Consistent>
1

> <s_lp_Variant>
AV-unprocessed.smi:582-1

> <Gold.Version>
5.8.1

> <Gold.Id.Protein>
6NUR|6NUR_protein|mol2

> <Gold.PLP.Fitness>
37.3431

> <Gold.PLP.PLP>
-22.5033

> <Gold.PLP.part.hbond>
-3.0000

> <Gold.PLP.part.metal>
0.0000

> <Gold.PLP.part.buried>
-4.5096

> <Gold.PLP.part.nonpolar>
-15.0782

> <Gold.PLP.part.repulsive>
0.0000

> <Gold.PLP.ligand.clash>
0.0000

> <Gold.PLP.ligand.torsion>
0.1306

> <Gold.PLP.Chemscore.Hbond>
5.0000

> <Gold.PLP.Chemscore.CHOScore>
0.0000

> <Gold.PLP.Chemscore.Metal>
0.0000

> <Gold.Chemscore.Hbonds>
donor molecule, donor type, donor heavy atom, donor atom, acceptor molecule, acceptor atom, score
      P1  H  6896  6907       L1     3  2.00
      P1  H  7997  8008       L1    14  0.90
      P1  H 10752 10765       L1     1  2.00

> <Gold.PLP.Chemscore.Internal.Correction>
0.1011

> <Gold.Rescore>
     Score         DG    S(hbond)    S(metal)    S(lipo)     H(rot)  DE(clash)    DE(int)     intcor
     17.63     -17.87       2.36        0.00      60.49       1.00       0.06       0.18       ----

> <Gold.Chemscore.Fitness>
17.6345

> <Gold.Chemscore.DG>
-17.8749

> <Gold.Chemscore.ZeroCoef>
-5.4800

> <Gold.Chemscore.Hbond>
2.3586

> <Gold.Chemscore.Metal>
0.0000

> <Gold.Chemscore.Lipo>
60.4888

> <Gold.Chemscore.Internal_Hbond>
0.0000

> <Gold.Chemscore.DEClash>
0.0563

> <Gold.Chemscore.DEInternal>
0.1841

> <Gold.Chemscore.Rot>
1.0000

> <Gold.Chemscore.Internal.Correction>
   9.000000E+99

> <Gold.Chemscore.Hbonds>
donor molecule, donor type, donor heavy atom, donor atom, acceptor molecule, acceptor atom, score
      P1  H  6896  6907       L1     3  0.47
      P1  H  7997  8008       L1    14  0.16
      P1  H 10752 10765       L1     1  1.00

> <Gold.Chemscore.Hbond.Weighted>
-7.8777

> <Gold.Chemscore.Metal.Weighted>
-0.0000

> <Gold.Chemscore.Lipo.Weighted>
-7.0772

> <Gold.Chemscore.Internal_Hbond.Weighted>
0.0000

> <Gold.Chemscore.DEClash.Weighted>
0.0563

> <Gold.Chemscore.DEInternal.Weighted>
0.1841

> <Gold.Chemscore.Rot.Weighted>
2.5600

> <Gold.Chemscore.Internal.Correction.Weighted>
   9.000000E+99

> <Gold.Protein.RotatedTorsions>
[ 6907 6896 6895 6894 ] final   72.49 input  -60.11 | X-H torsion
[ 7974 7965 7964 7962 ] final  113.92 input  175.53 | X-H torsion
[ 8008 7997 7996 7995 ] final  -79.46 input   59.86 | X-H torsion
[ 10167 10162 10161 10158 ] final  -42.42 input  -65.29 | X-H torsion
[ 10718 10713 10712 10709 ] final   19.27 input   66.30 | X-H torsion
[ 10763 10752 10751 10750 ] final  -85.25 input  -60.55 | X-H torsion
[ 11005 11000 10999 10996 ] final -138.89 input  -57.11 | X-H torsion

> <Gold.Protein.ActiveResidues>
 VAL166  LYS551  ARG553  GLY616  TRP617  ASP618  TYR619  PRO620  LYS621  CYS622 
 ASP623  PHE694  ASN695  SER759  ASP760  ASP761  ALA762  ILE779  LEU786  VAL792 
 PHE793  MET794  SER795  GLU796  ALA797  LYS798  CYS799  TRP800  GLU811  SER814 

> <Gold.Protein.RotatedAtoms>
  152.4871  134.4563  159.9590 H   0  0  0  0  0  0  0  0  0  0  0  0  # atno 6907 bound_to 6896
  151.4557  133.3600  159.2809 H   0  0  0  0  0  0  0  0  0  0  0  0  # atno 6908 bound_to 6896
  150.8991  134.8426  159.7408 H   0  0  0  0  0  0  0  0  0  0  0  0  # atno 6909 bound_to 6896
  145.2109  139.2907  143.4269 H   0  0  0  0  0  0  0  0  0  0  0  0  # atno 7974 bound_to 7965
  154.5787  140.0678  156.9073 H   0  0  0  0  0  0  0  0  0  0  0  0  # atno 8008 bound_to 7997
  155.2501  140.3351  155.4265 H   0  0  0  0  0  0  0  0  0  0  0  0  # atno 8009 bound_to 7997
  156.2173  140.1784  156.7543 H   0  0  0  0  0  0  0  0  0  0  0  0  # atno 8010 bound_to 7997
  140.6970  143.3039  151.3206 H   0  0  0  0  0  0  0  0  0  0  0  0  # atno 10167 bound_to 10162
  157.1081  130.6497  149.5890 H   0  0  0  0  0  0  0  0  0  0  0  0  # atno 10718 bound_to 10713
  154.6089  135.5492  153.7452 H   0  0  0  0  0  0  0  0  0  0  0  0  # atno 10763 bound_to 10752
  153.0186  135.6384  154.1607 H   0  0  0  0  0  0  0  0  0  0  0  0  # atno 10764 bound_to 10752
  154.1545  135.2901  155.3106 H   0  0  0  0  0  0  0  0  0  0  0  0  # atno 10765 bound_to 10752
  140.8573  134.2213  157.4727 H   0  0  0  0  0  0  0  0  0  0  0  0  # atno 11005 bound_to 11000
  146.3398  140.2384  142.8595 LP  0  0  0  0  0  0  0  0  0  0  0  0  # atno 17320 bound_to 7965
  144.9857  140.8500  143.5370 LP  0  0  0  0  0  0  0  0  0  0  0  0  # atno 17321 bound_to 7965
  139.6437  144.0491  152.2574 LP  0  0  0  0  0  0  0  0  0  0  0  0  # atno 17342 bound_to 10162
  140.0004  144.6297  150.7734 LP  0  0  0  0  0  0  0  0  0  0  0  0  # atno 17343 bound_to 10162
  155.9857  130.4888  150.7044 LP  0  0  0  0  0  0  0  0  0  0  0  0  # atno 17370 bound_to 10713
  157.4583  131.0880  151.0773 LP  0  0  0  0  0  0  0  0  0  0  0  0  # atno 17371 bound_to 10713
  139.8705  134.9712  156.4729 LP  0  0  0  0  0  0  0  0  0  0  0  0  # atno 17394 bound_to 11000
  140.8723  133.7979  155.9378 LP  0  0  0  0  0  0  0  0  0  0  0  0  # atno 17395 bound_to 11000

$$$$
