AV-unprocessed.smi:249|AV-procd|sdf|1915|dock6
  -GOLD-   2262021 13D 1   1.00000     0.00000
 Structure written by MMmdl.
 64 67  0  0  0  0  0  0  0  0  2 V2000
  152.1069  145.1571  159.2581 C   0  0  0  0  0  0  0  0  0  0  0  0
  152.6726  143.7323  159.1428 C   0  0  0  0  0  0  0  0  0  0  0  0
  151.6166  142.6862  159.0160 N   0  3  1  0  0  0  0  0  0  0  0  0
  150.5515  143.0992  158.0568 C   0  0  0  0  0  0  0  0  0  0  0  0
  149.4125  142.0711  157.9705 C   0  0  0  0  0  0  0  0  0  0  0  0
  149.9356  140.6877  157.5491 C   0  0  1  0  0  0  0  0  0  0  0  0
  150.4307  140.6742  156.1626 N   0  0  0  0  0  0  0  0  0  0  0  0
  149.6070  141.3268  155.1499 C   0  0  0  0  0  0  0  0  0  0  0  0
  150.8680  139.4770  155.7127 C   0  0  0  0  0  0  0  0  0  0  0  0
  151.7802  139.4856  154.7101 N   0  0  0  0  0  0  0  0  0  0  0  0
  152.2550  138.3313  154.2320 C   0  0  0  0  0  0  0  0  0  0  0  0
  151.9553  137.0855  154.6070 N   0  0  0  0  0  0  0  0  0  0  0  0
  151.0311  137.0770  155.6105 C   0  0  0  0  0  0  0  0  0  0  0  0
  150.4383  138.2183  156.2182 C   0  0  0  0  0  0  0  0  0  0  0  0
  149.5432  137.8220  157.2044 N   0  0  0  0  0  0  0  0  0  0  0  0
  149.6052  136.5181  157.1828 C   0  0  0  0  0  0  0  0  0  0  0  0
  150.4782  135.9876  156.2602 N   0  0  0  0  0  0  0  0  0  0  0  0
  150.7380  134.5774  156.0258 C   0  0  0  0  0  0  0  0  0  0  0  0
  149.4645  133.6977  156.1019 C   0  0  2  0  0  0  0  0  0  0  0  0
  149.4620  132.8290  157.3861 C   0  0  0  0  0  0  0  0  0  0  0  0
  149.0619  133.5709  158.5189 O   0  0  0  0  0  0  0  0  0  0  0  0
  149.3258  132.8450  154.8107 C   0  0  2  0  0  0  0  0  0  0  0  0
  149.3346  133.6504  153.5138 C   0  0  0  0  0  0  0  0  0  0  0  0
  148.4735  132.8373  152.5424 C   0  0  0  0  0  0  0  0  0  0  0  0
  147.9939  131.7251  153.2851 O   0  0  0  0  0  0  0  0  0  0  0  0
  148.0165  132.0686  154.6596 C   0  0  0  0  0  0  0  0  0  0  0  0
  151.0012  140.2899  158.5933 C   0  0  0  0  0  0  0  0  0  0  0  0
  152.1506  141.3196  158.7046 C   0  0  2  0  0  0  0  0  0  0  0  0
  153.1607  140.8098  159.7540 C   0  0  0  0  0  0  0  0  0  0  0  0
  152.9038  145.8636  159.4917 H   0  0  0  0  0  0  0  0  0  0  0  0
  151.3658  145.2245  160.0552 H   0  0  0  0  0  0  0  0  0  0  0  0
  151.6456  145.4997  158.3327 H   0  0  0  0  0  0  0  0  0  0  0  0
  153.3672  143.6637  158.3045 H   0  0  0  0  0  0  0  0  0  0  0  0
  153.2623  143.5758  160.0425 H   0  0  0  0  0  0  0  0  0  0  0  0
  150.1146  144.0490  158.3602 H   0  0  0  0  0  0  0  0  0  0  0  0
  150.9905  143.2588  157.0706 H   0  0  0  0  0  0  0  0  0  0  0  0
  148.9295  141.9926  158.9454 H   0  0  0  0  0  0  0  0  0  0  0  0
  148.6363  142.4229  157.2908 H   0  0  0  0  0  0  0  0  0  0  0  0
  149.1075  139.9806  157.6105 H   0  0  0  0  0  0  0  0  0  0  0  0
  149.9014  141.0429  154.1378 H   0  0  0  0  0  0  0  0  0  0  0  0
  149.7069  142.4096  155.2228 H   0  0  0  0  0  0  0  0  0  0  0  0
  148.5554  141.0695  155.2815 H   0  0  0  0  0  0  0  0  0  0  0  0
  152.9790  138.4178  153.4350 H   0  0  0  0  0  0  0  0  0  0  0  0
  149.0144  135.9023  157.8456 H   0  0  0  0  0  0  0  0  0  0  0  0
  151.2076  134.4998  155.0455 H   0  0  0  0  0  0  0  0  0  0  0  0
  151.4779  134.2300  156.7480 H   0  0  0  0  0  0  0  0  0  0  0  0
  148.6100  134.3744  156.1553 H   0  0  0  0  0  0  0  0  0  0  0  0
  148.8125  131.9615  157.2659 H   0  0  0  0  0  0  0  0  0  0  0  0
  150.4554  132.4458  157.6147 H   0  0  0  0  0  0  0  0  0  0  0  0
  148.1319  133.7294  158.4617 H   0  0  0  0  0  0  0  0  0  0  0  0
  150.1454  132.1255  154.7684 H   0  0  0  0  0  0  0  0  0  0  0  0
  148.8857  134.6336  153.6615 H   0  0  0  0  0  0  0  0  0  0  0  0
  150.3462  133.7999  153.1349 H   0  0  0  0  0  0  0  0  0  0  0  0
  147.6319  133.4306  152.1825 H   0  0  0  0  0  0  0  0  0  0  0  0
  149.0410  132.4935  151.6774 H   0  0  0  0  0  0  0  0  0  0  0  0
  147.9787  131.1732  155.2802 H   0  0  0  0  0  0  0  0  0  0  0  0
  147.1532  132.6936  154.8954 H   0  0  0  0  0  0  0  0  0  0  0  0
  150.5169  140.1951  159.5665 H   0  0  0  0  0  0  0  0  0  0  0  0
  151.3995  139.2974  158.3804 H   0  0  0  0  0  0  0  0  0  0  0  0
  152.6645  141.3717  157.7437 H   0  0  0  0  0  0  0  0  0  0  0  0
  153.3976  139.7586  159.5864 H   0  0  0  0  0  0  0  0  0  0  0  0
  152.7632  140.8981  160.7656 H   0  0  0  0  0  0  0  0  0  0  0  0
  154.1121  141.3385  159.7116 H   0  0  0  0  0  0  0  0  0  0  0  0
  151.1766  142.6124  159.9220 H   0  0  0  0  0  0  0  0  0  0  0  0
  1  2  1  0  0  0  0
  1 30  1  0  0  0  0
  1 31  1  0  0  0  0
  1 32  1  0  0  0  0
  2  3  1  0  0  0  0
  2 33  1  0  0  0  0
  2 34  1  0  0  0  0
  3 28  1  0  0  0  0
  3  4  1  0  0  0  0
  3 64  1  0  0  0  0
  4  5  1  0  0  0  0
  4 35  1  0  0  0  0
  4 36  1  0  0  0  0
  5  6  1  0  0  0  0
  5 37  1  0  0  0  0
  5 38  1  0  0  0  0
  6  7  1  0  0  0  0
  6 27  1  0  0  0  0
  6 39  1  0  0  0  0
  7  8  1  0  0  0  0
  7  9  1  0  0  0  0
  8 40  1  0  0  0  0
  8 41  1  0  0  0  0
  8 42  1  0  0  0  0
  9 14  1  0  0  0  0
  9 10  2  0  0  0  0
 10 11  1  0  0  0  0
 11 12  2  0  0  0  0
 11 43  1  0  0  0  0
 12 13  1  0  0  0  0
 13 17  1  0  0  0  0
 13 14  2  0  0  0  0
 14 15  1  0  0  0  0
 15 16  2  0  0  0  0
 16 17  1  0  0  0  0
 16 44  1  0  0  0  0
 17 18  1  0  0  0  0
 18 19  1  0  0  0  0
 18 45  1  0  0  0  0
 18 46  1  0  0  0  0
 19 20  1  0  0  0  0
 19 22  1  0  0  0  0
 19 47  1  0  0  0  0
 20 21  1  0  0  0  0
 20 48  1  0  0  0  0
 20 49  1  0  0  0  0
 21 50  1  0  0  0  0
 22 26  1  0  0  0  0
 22 23  1  0  0  0  0
 22 51  1  0  0  0  0
 23 24  1  0  0  0  0
 23 52  1  0  0  0  0
 23 53  1  0  0  0  0
 24 25  1  0  0  0  0
 24 54  1  0  0  0  0
 24 55  1  0  0  0  0
 25 26  1  0  0  0  0
 26 56  1  0  0  0  0
 26 57  1  0  0  0  0
 27 28  1  0  0  0  0
 27 58  1  0  0  0  0
 27 59  1  0  0  0  0
 28 29  1  0  0  0  0
 28 60  1  0  0  0  0
 29 61  1  0  0  0  0
 29 62  1  0  0  0  0
 29 63  1  0  0  0  0
M  CHG  1   3   1
M  END
> <s_m_source_file>
AV-unprocessed.smi

> <i_m_source_file_index>
249

> <i_lp_mmshare_version>
43012

> <i_f3d_flags>
0

> <s_epik_input>
W0NIM11bQ0gyXU4xW0NIMl1bQ0gyXVtDQEhdKFtDSDJdW0NASF0xW0NIM10pTihbQ0gzXSljKG5bY0hdbjIpYyhjMjMpbltjSF1uM1tDSDJdW0NASF0oW0NIMl1bT0hdKVtDQEBIXTRbQ0gyXVtDSDJdT1tDSDJdNA==

> <s_epik_cmdline>
J2VwaWtfcHl0aG9uJywgJy1waCcsICc3LjAnLCAnLXRuJywgJzgnLCAnLW1hJywgJzIwMCcsICctbWV0YWxfYmluZGluZycsICctaW1hZScsICc8aW5maWxlLm1hZT4nLCAnLW9tYWUnLCAnPG91dGZpbGUubWFlPic=

> <r_lp_tautomer_probability>
1

> <r_epik_Ionization_Penalty>
0.00294688

> <r_epik_Ionization_Penalty_Charging>
0.00169971

> <r_epik_Ionization_Penalty_Neutral>
0.00124717

> <r_epik_State_Penalty>
-0

> <r_epik_Charging_Adjusted_Penalty>
0.00169971

> <i_epik_Tot_Q>
1

> <i_epik_Tot_abs_Q>
1

> <r_epik_Metal_State_Penalty>
-0

> <b_epik_Metal_Only>
0

> <s_lp_Force_Field>
OPLS_2005

> <r_lp_Energy>
57.0606

> <b_lp_Chiralities_Consistent>
1

> <s_lp_Variant>
AV-unprocessed.smi:249-18

> <Gold.Version>
5.8.1

> <Gold.Id.Protein>
6NUR|6NUR_protein|mol2

> <Gold.PLP.Fitness>
50.3650

> <Gold.PLP.PLP>
-44.4632

> <Gold.PLP.part.hbond>
-3.0000

> <Gold.PLP.part.metal>
0.0000

> <Gold.PLP.part.buried>
-6.5510

> <Gold.PLP.part.nonpolar>
-35.5918

> <Gold.PLP.part.repulsive>
0.3731

> <Gold.PLP.ligand.clash>
0.0000

> <Gold.PLP.ligand.torsion>
1.8471

> <Gold.PLP.Chemscore.Hbond>
3.0000

> <Gold.PLP.Chemscore.CHOScore>
0.0000

> <Gold.PLP.Chemscore.Metal>
0.0000

> <Gold.Chemscore.Hbonds>
donor molecule, donor type, donor heavy atom, donor atom, acceptor molecule, acceptor atom, score
      P1  H  6896  6907       L1    21  1.00
      P1  H  7989  7998       L1    10  1.00
      P1  H 10752 10763       L1    12  0.98

> <Gold.PLP.Chemscore.Internal.Correction>
0.5960

> <Gold.Rescore>
     Score         DG    S(hbond)    S(metal)    S(lipo)     H(rot)  DE(clash)    DE(int)     intcor
     13.48     -16.74       1.94        0.00     104.22       2.90       0.21       3.05       ----

> <Gold.Chemscore.Fitness>
13.4775

> <Gold.Chemscore.DG>
-16.7375

> <Gold.Chemscore.ZeroCoef>
-5.4800

> <Gold.Chemscore.Hbond>
1.9428

> <Gold.Chemscore.Metal>
0.0000

> <Gold.Chemscore.Lipo>
104.2235

> <Gold.Chemscore.Internal_Hbond>
0.0000

> <Gold.Chemscore.DEClash>
0.2056

> <Gold.Chemscore.DEInternal>
3.0543

> <Gold.Chemscore.Rot>
2.9006

> <Gold.Chemscore.Internal.Correction>
   9.000000E+99

> <Gold.Chemscore.Hbonds>
donor molecule, donor type, donor heavy atom, donor atom, acceptor molecule, acceptor atom, score
      P1  H  6896  6907       L1    21  0.40
      P1  H  7989  7998       L1    10  0.82
      P1  H 10752 10763       L1    12  0.91

> <Gold.Chemscore.Hbond.Weighted>
-6.4890

> <Gold.Chemscore.Metal.Weighted>
-0.0000

> <Gold.Chemscore.Lipo.Weighted>
-12.1941

> <Gold.Chemscore.Internal_Hbond.Weighted>
0.0000

> <Gold.Chemscore.DEClash.Weighted>
0.2056

> <Gold.Chemscore.DEInternal.Weighted>
3.0543

> <Gold.Chemscore.Rot.Weighted>
7.4256

> <Gold.Chemscore.Internal.Correction.Weighted>
   9.000000E+99

> <Gold.Protein.RotatedTorsions>
[ 6907 6896 6895 6894 ] final -104.81 input  -60.11 | X-H torsion
[ 7974 7965 7964 7962 ] final   97.57 input  175.53 | X-H torsion
[ 8008 7997 7996 7995 ] final -106.95 input   59.86 | X-H torsion
[ 10167 10162 10161 10158 ] final  -93.96 input  -65.29 | X-H torsion
[ 10718 10713 10712 10709 ] final  -57.10 input   66.30 | X-H torsion
[ 10763 10752 10751 10750 ] final   43.61 input  -60.55 | X-H torsion
[ 11005 11000 10999 10996 ] final  155.66 input  -57.11 | X-H torsion

> <Gold.Protein.ActiveResidues>
 VAL166  LYS551  ARG553  GLY616  TRP617  ASP618  TYR619  PRO620  LYS621  CYS622 
 ASP623  PHE694  ASN695  SER759  ASP760  ASP761  ALA762  ILE779  LEU786  VAL792 
 PHE793  MET794  SER795  GLU796  ALA797  LYS798  CYS799  TRP800  GLU811  SER814 

> <Gold.Protein.RotatedAtoms>
  150.7305  134.0221  159.3704 H   0  0  0  0  0  0  0  0  0  0  0  0  # atno 6907 bound_to 6896
  151.8187  135.0656  160.0431 H   0  0  0  0  0  0  0  0  0  0  0  0  # atno 6908 bound_to 6896
  152.3020  133.5628  159.5661 H   0  0  0  0  0  0  0  0  0  0  0  0  # atno 6909 bound_to 6896
  145.4237  139.2318  143.3182 H   0  0  0  0  0  0  0  0  0  0  0  0  # atno 7974 bound_to 7965
  154.9221  140.0407  157.2003 H   0  0  0  0  0  0  0  0  0  0  0  0  # atno 8008 bound_to 7997
  154.8243  140.2889  155.5743 H   0  0  0  0  0  0  0  0  0  0  0  0  # atno 8009 bound_to 7997
  156.2982  140.2513  156.3157 H   0  0  0  0  0  0  0  0  0  0  0  0  # atno 8010 bound_to 7997
  140.3194  143.3058  152.0063 H   0  0  0  0  0  0  0  0  0  0  0  0  # atno 10167 bound_to 10162
  156.1237  130.4164  150.0394 H   0  0  0  0  0  0  0  0  0  0  0  0  # atno 10718 bound_to 10713
  152.9857  135.6096  154.3139 H   0  0  0  0  0  0  0  0  0  0  0  0  # atno 10763 bound_to 10752
  154.2852  135.2776  155.2681 H   0  0  0  0  0  0  0  0  0  0  0  0  # atno 10764 bound_to 10752
  154.5001  135.5869  153.6581 H   0  0  0  0  0  0  0  0  0  0  0  0  # atno 10765 bound_to 10752
  140.1602  134.8614  157.2565 H   0  0  0  0  0  0  0  0  0  0  0  0  # atno 11005 bound_to 11000
  146.2643  140.4965  142.8840 LP  0  0  0  0  0  0  0  0  0  0  0  0  # atno 17320 bound_to 7965
  144.8228  140.6578  143.6342 LP  0  0  0  0  0  0  0  0  0  0  0  0  # atno 17321 bound_to 7965
  139.4877  144.6323  151.7045 LP  0  0  0  0  0  0  0  0  0  0  0  0  # atno 17342 bound_to 10162
  140.5497  144.0445  150.6122 LP  0  0  0  0  0  0  0  0  0  0  0  0  # atno 17343 bound_to 10162
  156.8326  130.9397  151.3636 LP  0  0  0  0  0  0  0  0  0  0  0  0  # atno 17370 bound_to 10713
  157.6420  130.8813  149.9465 LP  0  0  0  0  0  0  0  0  0  0  0  0  # atno 17371 bound_to 10713
  140.2499  134.3696  155.7446 LP  0  0  0  0  0  0  0  0  0  0  0  0  # atno 17394 bound_to 11000
  141.2208  133.7311  156.8919 LP  0  0  0  0  0  0  0  0  0  0  0  0  # atno 17395 bound_to 11000

$$$$
