AV-unprocessed.smi:3335|AV-procd|sdf|12838|dock7
  -GOLD-   2272019223D 1   1.00000     0.00000
 Structure written by MMmdl.
 47 48  0  0  0  0  0  0  0  0  2 V2000
  146.8486  141.8811  154.0023 C   0  0  0  0  0  0  0  0  0  0  0  0
  148.0913  141.1143  154.3517 C   0  0  0  0  0  0  0  0  0  0  0  0
  149.1531  141.5127  155.2117 C   0  0  0  0  0  0  0  0  0  0  0  0
  150.1030  140.5977  155.3108 N   0  0  0  0  0  0  0  0  0  0  0  0
  149.6943  139.5884  154.5083 N   0  0  0  0  0  0  0  0  0  0  0  0
  150.4771  138.3634  154.3752 C   0  0  1  0  0  0  0  0  0  0  0  0
  151.9672  138.5845  154.7153 C   0  0  0  0  0  0  0  0  0  0  0  0
  149.8256  137.1832  155.1421 C   0  0  2  0  0  0  0  0  0  0  0  0
  150.7407  135.9515  155.3017 C   0  0  0  0  0  0  0  0  0  0  0  0
  148.5387  136.8193  154.4983 N   0  3  0  0  0  0  0  0  0  0  0  0
  147.7502  135.7406  155.1428 C   0  0  2  0  0  0  0  0  0  0  0  0
  147.9520  135.8094  156.6652 C   0  0  0  0  0  0  0  0  0  0  0  0
  148.1620  134.3475  154.6247 C   0  0  0  0  0  0  0  0  0  0  0  0
  149.0875  133.7567  155.1840 O   0  0  0  0  0  0  0  0  0  0  0  0
  147.4962  133.8055  153.5820 N   0  0  0  0  0  0  0  0  0  0  0  0
  146.3857  134.4761  152.9072 C   0  0  0  0  0  0  0  0  0  0  0  0
  145.7739  133.4331  151.9720 C   0  0  0  0  0  0  0  0  0  0  0  0
  146.9190  132.4713  151.6899 C   0  0  0  0  0  0  0  0  0  0  0  0
  147.7565  132.5029  152.9683 C   0  0  0  0  0  0  0  0  0  0  0  0
  148.4743  139.8730  153.9301 C   0  0  0  0  0  0  0  0  0  0  0  0
  146.9160  142.9253  154.3084 H   0  0  0  0  0  0  0  0  0  0  0  0
  145.9676  141.4605  154.4872 H   0  0  0  0  0  0  0  0  0  0  0  0
  146.6598  141.8740  152.9286 H   0  0  0  0  0  0  0  0  0  0  0  0
  149.2581  142.4331  155.7671 H   0  0  0  0  0  0  0  0  0  0  0  0
  150.4413  138.1099  153.3142 H   0  0  0  0  0  0  0  0  0  0  0  0
  152.5589  137.6920  154.5120 H   0  0  0  0  0  0  0  0  0  0  0  0
  152.1171  138.8463  155.7628 H   0  0  0  0  0  0  0  0  0  0  0  0
  152.3861  139.3915  154.1134 H   0  0  0  0  0  0  0  0  0  0  0  0
  149.6027  137.5533  156.1435 H   0  0  0  0  0  0  0  0  0  0  0  0
  151.6834  136.2119  155.7815 H   0  0  0  0  0  0  0  0  0  0  0  0
  150.9715  135.4939  154.3399 H   0  0  0  0  0  0  0  0  0  0  0  0
  150.2804  135.1854  155.9244 H   0  0  0  0  0  0  0  0  0  0  0  0
  147.9526  137.6420  154.4849 H   0  0  0  0  0  0  0  0  0  0  0  0
  146.6983  135.9273  154.9347 H   0  0  0  0  0  0  0  0  0  0  0  0
  147.3781  135.0401  157.1827 H   0  0  0  0  0  0  0  0  0  0  0  0
  147.6290  136.7736  157.0586 H   0  0  0  0  0  0  0  0  0  0  0  0
  149.0004  135.6765  156.9368 H   0  0  0  0  0  0  0  0  0  0  0  0
  145.6447  134.8565  153.6122 H   0  0  0  0  0  0  0  0  0  0  0  0
  146.7756  135.3203  152.3364 H   0  0  0  0  0  0  0  0  0  0  0  0
  144.9720  132.9036  152.4887 H   0  0  0  0  0  0  0  0  0  0  0  0
  145.3553  133.8714  151.0655 H   0  0  0  0  0  0  0  0  0  0  0  0
  146.5767  131.4687  151.4320 H   0  0  0  0  0  0  0  0  0  0  0  0
  147.5122  132.8465  150.8549 H   0  0  0  0  0  0  0  0  0  0  0  0
  148.8122  132.3481  152.7443 H   0  0  0  0  0  0  0  0  0  0  0  0
  147.4328  131.7162  153.6516 H   0  0  0  0  0  0  0  0  0  0  0  0
  147.9833  139.1741  153.2689 H   0  0  0  0  0  0  0  0  0  0  0  0
  148.7351  136.5539  153.5440 H   0  0  0  0  0  0  0  0  0  0  0  0
  1  2  1  0  0  0  0
  1 21  1  0  0  0  0
  1 22  1  0  0  0  0
  1 23  1  0  0  0  0
  2 20  2  0  0  0  0
  2  3  1  0  0  0  0
  3  4  2  0  0  0  0
  3 24  1  0  0  0  0
  4  5  1  0  0  0  0
  5  6  1  0  0  0  0
  5 20  1  0  0  0  0
  6  7  1  0  0  0  0
  6  8  1  0  0  0  0
  6 25  1  0  0  0  0
  7 26  1  0  0  0  0
  7 27  1  0  0  0  0
  7 28  1  0  0  0  0
  8  9  1  0  0  0  0
  8 10  1  0  0  0  0
  8 29  1  0  0  0  0
  9 30  1  0  0  0  0
  9 31  1  0  0  0  0
  9 32  1  0  0  0  0
 10 11  1  0  0  0  0
 10 33  1  0  0  0  0
 10 47  1  0  0  0  0
 11 12  1  0  0  0  0
 11 13  1  0  0  0  0
 11 34  1  0  0  0  0
 12 35  1  0  0  0  0
 12 36  1  0  0  0  0
 12 37  1  0  0  0  0
 13 14  2  0  0  0  0
 13 15  1  0  0  0  0
 15 19  1  0  0  0  0
 15 16  1  0  0  0  0
 16 17  1  0  0  0  0
 16 38  1  0  0  0  0
 16 39  1  0  0  0  0
 17 18  1  0  0  0  0
 17 40  1  0  0  0  0
 17 41  1  0  0  0  0
 18 19  1  0  0  0  0
 18 42  1  0  0  0  0
 18 43  1  0  0  0  0
 19 44  1  0  0  0  0
 19 45  1  0  0  0  0
 20 46  1  0  0  0  0
M  CHG  1  10   1
M  END
> <s_m_source_file>
AV-unprocessed.smi

> <i_m_source_file_index>
3335

> <i_lp_mmshare_version>
43012

> <i_f3d_flags>
0

> <s_epik_input>
W0NIM11jMVtjSF1ubihbY0hdMSlbQ0BIXShbQ0gzXSlbQ0BIXShbQ0gzXSlbTkhdW0NASF0oW0NIM10pQyg9TylOMltDSDJdW0NIMl1bQ0gyXVtDSDJdMg==

> <s_epik_cmdline>
J2VwaWtfcHl0aG9uJywgJy1waCcsICc3LjAnLCAnLXRuJywgJzgnLCAnLW1hJywgJzIwMCcsICctbWV0YWxfYmluZGluZycsICctaW1hZScsICc8aW5maWxlLm1hZT4nLCAnLW9tYWUnLCAnPG91dGZpbGUubWFlPic=

> <r_lp_tautomer_probability>
1

> <r_epik_Ionization_Penalty>
0.14175

> <r_epik_Ionization_Penalty_Charging>
0.141731

> <r_epik_Ionization_Penalty_Neutral>
1.91261e-05

> <r_epik_State_Penalty>
0.131043

> <r_epik_Charging_Adjusted_Penalty>
0.272773

> <i_epik_Tot_Q>
1

> <i_epik_Tot_abs_Q>
1

> <r_epik_Metal_State_Penalty>
0.131408

> <b_epik_Metal_Only>
0

> <s_lp_Force_Field>
OPLS_2005

> <r_lp_Energy>
39.0238

> <b_lp_Chiralities_Consistent>
1

> <s_lp_Variant>
AV-unprocessed.smi:3335-2

> <Gold.Version>
5.8.1

> <Gold.Id.Protein>
6NUR|6NUR_protein|mol2

> <Gold.PLP.Fitness>
40.5751

> <Gold.PLP.PLP>
-34.1544

> <Gold.PLP.part.hbond>
-2.0000

> <Gold.PLP.part.metal>
0.0000

> <Gold.PLP.part.buried>
0.6777

> <Gold.PLP.part.nonpolar>
-32.5588

> <Gold.PLP.part.repulsive>
0.1208

> <Gold.PLP.ligand.clash>
0.0000

> <Gold.PLP.ligand.torsion>
1.7336

> <Gold.PLP.Chemscore.Hbond>
2.0000

> <Gold.PLP.Chemscore.CHOScore>
1.2327

> <Gold.PLP.Chemscore.Metal>
0.0000

> <Gold.Chemscore.Hbonds>
donor molecule, donor type, donor heavy atom, donor atom, acceptor molecule, acceptor atom, score
      L1  H    10    47       P1  7948  2.00
      L1  C     3    24       P1  8028  1.00
      L1  C    20    46       P1  7957  0.07

> <Gold.PLP.Chemscore.Internal.Correction>
0.1899

> <Gold.Rescore>
     Score         DG    S(hbond)    S(metal)    S(lipo)     H(rot)  DE(clash)    DE(int)     intcor
      8.76     -13.14       1.00        0.00      73.66       1.68       0.40       3.98       ----

> <Gold.Chemscore.Fitness>
8.7611

> <Gold.Chemscore.DG>
-13.1414

> <Gold.Chemscore.ZeroCoef>
-5.4800

> <Gold.Chemscore.Hbond>
0.9996

> <Gold.Chemscore.Metal>
0.0000

> <Gold.Chemscore.Lipo>
73.6574

> <Gold.Chemscore.Internal_Hbond>
0.0000

> <Gold.Chemscore.DEClash>
0.3997

> <Gold.Chemscore.DEInternal>
3.9807

> <Gold.Chemscore.Rot>
1.6778

> <Gold.Chemscore.Internal.Correction>
   9.000000E+99

> <Gold.Chemscore.Hbonds>
donor molecule, donor type, donor heavy atom, donor atom, acceptor molecule, acceptor atom, score
      L1  H    10    47       P1  7948  1.00

> <Gold.Chemscore.Hbond.Weighted>
-3.3387

> <Gold.Chemscore.Metal.Weighted>
-0.0000

> <Gold.Chemscore.Lipo.Weighted>
-8.6179

> <Gold.Chemscore.Internal_Hbond.Weighted>
0.0000

> <Gold.Chemscore.DEClash.Weighted>
0.3997

> <Gold.Chemscore.DEInternal.Weighted>
3.9807

> <Gold.Chemscore.Rot.Weighted>
4.2952

> <Gold.Chemscore.Internal.Correction.Weighted>
   9.000000E+99

> <Gold.Protein.RotatedTorsions>
[ 6907 6896 6895 6894 ] final   -2.46 input  -60.11 | X-H torsion
[ 7974 7965 7964 7962 ] final -112.63 input  175.53 | X-H torsion
[ 8008 7997 7996 7995 ] final  -38.06 input   59.86 | X-H torsion
[ 10167 10162 10161 10158 ] final  165.97 input  -65.29 | X-H torsion
[ 10718 10713 10712 10709 ] final  -90.06 input   66.30 | X-H torsion
[ 10763 10752 10751 10750 ] final   27.29 input  -60.55 | X-H torsion
[ 11005 11000 10999 10996 ] final  119.16 input  -57.11 | X-H torsion

> <Gold.Protein.ActiveResidues>
 VAL166  LYS551  ARG553  GLY616  TRP617  ASP618  TYR619  PRO620  LYS621  CYS622 
 ASP623  PHE694  ASN695  SER759  ASP760  ASP761  ALA762  ILE779  LEU786  VAL792 
 PHE793  MET794  SER795  GLU796  ALA797  LYS798  CYS799  TRP800  GLU811  SER814 

> <Gold.Protein.RotatedAtoms>
  151.5296  135.1068  159.9898 H   0  0  0  0  0  0  0  0  0  0  0  0  # atno 6907 bound_to 6896
  152.4584  133.7767  159.6839 H   0  0  0  0  0  0  0  0  0  0  0  0  # atno 6908 bound_to 6896
  150.8537  133.7683  159.3041 H   0  0  0  0  0  0  0  0  0  0  0  0  # atno 6909 bound_to 6896
  145.1417  140.8781  143.3698 H   0  0  0  0  0  0  0  0  0  0  0  0  # atno 7974 bound_to 7965
  154.4043  140.1588  156.2638 H   0  0  0  0  0  0  0  0  0  0  0  0  # atno 8008 bound_to 7997
  155.9013  140.3433  155.6006 H   0  0  0  0  0  0  0  0  0  0  0  0  # atno 8009 bound_to 7997
  155.7444  140.0797  157.2221 H   0  0  0  0  0  0  0  0  0  0  0  0  # atno 8010 bound_to 7997
  139.4915  144.4077  151.9336 H   0  0  0  0  0  0  0  0  0  0  0  0  # atno 10167 bound_to 10162
  155.9986  130.4895  150.5266 H   0  0  0  0  0  0  0  0  0  0  0  0  # atno 10718 bound_to 10713
  153.0566  135.6540  154.0563 H   0  0  0  0  0  0  0  0  0  0  0  0  # atno 10763 bound_to 10752
  154.0240  135.2917  155.3379 H   0  0  0  0  0  0  0  0  0  0  0  0  # atno 10764 bound_to 10752
  154.6884  135.5292  153.8425 H   0  0  0  0  0  0  0  0  0  0  0  0  # atno 10765 bound_to 10752
  139.9136  134.9626  156.7613 H   0  0  0  0  0  0  0  0  0  0  0  0  # atno 11005 bound_to 11000
  145.0525  139.3170  143.5921 LP  0  0  0  0  0  0  0  0  0  0  0  0  # atno 17320 bound_to 7965
  146.3504  139.9938  142.8683 LP  0  0  0  0  0  0  0  0  0  0  0  0  # atno 17321 bound_to 7965
  140.3517  144.3080  150.5948 LP  0  0  0  0  0  0  0  0  0  0  0  0  # atno 17342 bound_to 10162
  140.5479  143.2211  151.7976 LP  0  0  0  0  0  0  0  0  0  0  0  0  # atno 17343 bound_to 10162
  157.3221  131.0683  151.1924 LP  0  0  0  0  0  0  0  0  0  0  0  0  # atno 17370 bound_to 10713
  157.2834  130.6761  149.6077 LP  0  0  0  0  0  0  0  0  0  0  0  0  # atno 17371 bound_to 10713
  140.6695  133.9572  155.7849 LP  0  0  0  0  0  0  0  0  0  0  0  0  # atno 17394 bound_to 11000
  141.0587  134.0378  157.3687 LP  0  0  0  0  0  0  0  0  0  0  0  0  # atno 17395 bound_to 11000

$$$$
