#       Name:                AV-unprocessed.smi:176
#       Creating user name   scv26
#       Creation time:       Thu Mar 26 19:21:53 2020


#       File generated by GOLD software.
#

@<TRIPOS>MOLECULE
AV-unprocessed.smi:176
    67    71     1
SMALL
NO_CHARGES


@<TRIPOS>ATOM
      1 ****        -5.1047  -2.8751  -0.1498 O.3            1 S1                 0.0000
      2 ****        -6.1453  -2.0582   0.3491 C.3            1 S1                 0.0000
      3 ****        -5.6331  -0.7311   0.9400 C.3            1 S1                 0.0000
      4 ****        -6.8985   0.0025   1.4323 C.3            1 S1                 0.0000
      5 ****        -6.6283   1.2553   2.0276 O.3            1 S1                 0.0000
      6 ****        -4.4626  -0.8314   1.9457 C.3            1 S1                 0.0000
      7 ****        -3.7572   0.3415   1.2532 C.3            1 S1                 0.0000
      8 ****        -2.3317   0.3691   1.0978 N.pl3          1 S1                 0.0000
      9 ****        -1.3967  -0.2093   1.9267 C.2            1 S1                 0.0000
     10 ****        -0.1522  -0.0034   1.5917 N.2            1 S1                 0.0000
     11 ****        -0.2324   0.8040   0.4629 C.ar           1 S1                 0.0000
     12 ****         0.7304   1.4063  -0.3969 C.ar           1 S1                 0.0000
     13 ****         2.0683   1.2292  -0.2426 N.3            1 S1                 0.0000
     14 ****         2.9577   2.2214  -0.8464 C.3            1 S1                 0.0000
     15 ****         4.3816   2.0944  -0.2815 C.3            1 S1                 0.0000
     16 ****         4.9414   0.6595  -0.4018 C.3            1 S1                 0.0000
     17 ****         6.1302   0.6386   0.3687 O.3            1 S1                 0.0000
     18 ****         5.3219   0.2911  -1.8572 C.3            1 S1                 0.0000
     19 ****         5.8020  -1.1654  -1.9900 C.3            1 S1                 0.0000
     20 ****         4.7714  -2.1525  -1.4226 C.3            1 S1                 0.0000
     21 ****         4.4135  -1.8127   0.0343 C.3            1 S1                 0.0000
     22 ****         3.9316  -0.3548   0.2023 C.3            1 S1                 0.0000
     23 ****         2.5146  -0.1560  -0.3801 C.3            1 S1                 0.0000
     24 ****         0.2610   2.1852  -1.4088 N.ar           1 S1                 0.0000
     25 ****        -1.0533   2.3565  -1.5773 C.ar           1 S1                 0.0000
     26 ****        -2.0590   1.8476  -0.8640 N.ar           1 S1                 0.0000
     27 ****        -1.5975   1.0680   0.1553 C.ar           1 S1                 0.0000
     28 ****        -4.6720   0.0885   0.0494 C.3            1 S1                 0.0000
     29 ****        -5.4849  -3.6651  -0.5028 H              1 S1                 0.0000
     30 ****        -6.8427  -1.8736  -0.4687 H              1 S1                 0.0000
     31 ****        -6.6874  -2.6339   1.1000 H              1 S1                 0.0000
     32 ****        -7.5900   0.1730   0.6064 H              1 S1                 0.0000
     33 ****        -7.4335  -0.6009   2.1664 H              1 S1                 0.0000
     34 ****        -7.4472   1.6454   2.2931 H              1 S1                 0.0000
     35 ****        -4.7342  -0.6368   2.9836 H              1 S1                 0.0000
     36 ****        -3.8984  -1.7613   1.8649 H              1 S1                 0.0000
     37 ****        -4.0171   1.2831   1.7380 H              1 S1                 0.0000
     38 ****        -1.6657  -0.7982   2.7914 H              1 S1                 0.0000
     39 ****         2.9657   2.0924  -1.9292 H              1 S1                 0.0000
     40 ****         2.5840   3.2268  -0.6477 H              1 S1                 0.0000
     41 ****         5.0428   2.8058  -0.7777 H              1 S1                 0.0000
     42 ****         4.3554   2.3878   0.7693 H              1 S1                 0.0000
     43 ****         5.9131   0.8581   1.2617 H              1 S1                 0.0000
     44 ****         4.4633   0.4313  -2.5142 H              1 S1                 0.0000
     45 ****         6.0940   0.9666  -2.2279 H              1 S1                 0.0000
     46 ****         5.9966  -1.3957  -3.0378 H              1 S1                 0.0000
     47 ****         6.7523  -1.2908  -1.4696 H              1 S1                 0.0000
     48 ****         3.8736  -2.1418  -2.0408 H              1 S1                 0.0000
     49 ****         5.1645  -3.1679  -1.4773 H              1 S1                 0.0000
     50 ****         3.6530  -2.5032   0.4007 H              1 S1                 0.0000
     51 ****         5.2912  -1.9765   0.6608 H              1 S1                 0.0000
     52 ****         3.8537  -0.1589   1.2733 H              1 S1                 0.0000
     53 ****         1.8281  -0.8429   0.1132 H              1 S1                 0.0000
     54 ****         2.4938  -0.4133  -1.4393 H              1 S1                 0.0000
     55 ****        -1.3400   2.9894  -2.4041 H              1 S1                 0.0000
     56 ****        -4.1791  -0.5035  -0.7229 H              1 S1                 0.0000
     57 ****        -5.1048   0.9930  -0.3792 H              1 S1                 0.0000
     58 ****        -4.4736  -3.1065   0.5905 LP             1 S1                 0.0000
     59 ****        -4.6099  -2.3883  -0.8697 LP             1 S1                 0.0000
     60 ****        -6.1700   1.8504   1.3673 LP             1 S1                 0.0000
     61 ****        -6.0405   1.1290   2.8266 LP             1 S1                 0.0000
     62 ****         0.6707  -0.3476   2.0436 LP             1 S1                 0.0000
     63 ****         2.1803   1.4465   0.7270 LP             1 S1                 0.0000
     64 ****         6.7793   1.3070   0.0054 LP             1 S1                 0.0000
     65 ****         6.5377  -0.2739   0.3353 LP             1 S1                 0.0000
     66 ****         0.9039   2.6325  -2.0306 LP             1 S1                 0.0000
     67 ****        -3.0266   2.0161  -1.0524 LP             1 S1                 0.0000
@<TRIPOS>BOND
    1    1    2 1     
    2    1   29 1     
    3    2    3 1     
    4    2   30 1     
    5    2   31 1     
    6    3   28 1     
    7    3    4 1     
    8    3    6 1     
    9    4    5 1     
   10    4   32 1     
   11    4   33 1     
   12    5   34 1     
   13    6    7 1     
   14    6   35 1     
   15    6   36 1     
   16    7    8 1     
   17    7   28 1     
   18    7   37 1     
   19    8   27 1     
   20    8    9 1     
   21    9   10 2     
   22    9   38 1     
   23   10   11 1     
   24   11   27 ar    
   25   11   12 ar    
   26   12   13 1     
   27   12   24 ar    
   28   13   23 1     
   29   13   14 1     
   30   14   15 1     
   31   14   39 1     
   32   14   40 1     
   33   15   16 1     
   34   15   41 1     
   35   15   42 1     
   36   16   22 1     
   37   16   17 1     
   38   16   18 1     
   39   17   43 1     
   40   18   19 1     
   41   18   44 1     
   42   18   45 1     
   43   19   20 1     
   44   19   46 1     
   45   19   47 1     
   46   20   21 1     
   47   20   48 1     
   48   20   49 1     
   49   21   22 1     
   50   21   50 1     
   51   21   51 1     
   52   22   23 1     
   53   22   52 1     
   54   23   53 1     
   55   23   54 1     
   56   24   25 ar    
   57   25   26 ar    
   58   25   55 1     
   59   26   27 ar    
   60   28   56 1     
   61   28   57 1     
   62    1   58 1     
   63    1   59 1     
   64    5   60 1     
   65    5   61 1     
   66   10   62 1     
   67   13   63 1     
   68   17   64 1     
   69   17   65 1     
   70   24   66 1     
   71   26   67 1     
@<TRIPOS>SUBSTRUCTURE
      1 S1             1
@<TRIPOS>SET
LONE_PAIRS      STATIC     ATOMS    <user>   **** ""
10 58 59 60 61 62 63 64 65 66 67
DONOR_HYDROGENS      STATIC     ATOMS    <user>   **** ""
3 29 34 43
ATOM$BLUE        STATIC     ATOMS    COLORGROUP SYSTEM
10 58 59 60 61 62 63 64 65 66 67
ATOM$RED        STATIC     ATOMS    COLORGROUP SYSTEM
3 29 34 43
