AV-unprocessed.smi:1944|AV-procd|sdf|7853|dock1
  -GOLD-   2272010 03D 1   1.00000     0.00000
 Structure written by MMmdl.
 46 47  0  0  0  0  0  0  0  0  2 V2000
  151.6991  138.2983  154.3905 C   0  0  0  0  0  0  0  0  0  0  0  0
  150.3566  138.3068  153.9177 O   0  0  0  0  0  0  0  0  0  0  0  0
  149.5999  139.4489  154.0990 C   0  0  0  0  0  0  0  0  0  0  0  0
  150.1769  140.5150  154.7084 N   0  0  0  0  0  0  0  0  0  0  0  0
  149.4415  141.6325  154.8809 C   0  0  0  0  0  0  0  0  0  0  0  0
  148.1062  141.7490  154.4540 C   0  0  0  0  0  0  0  0  0  0  0  0
  147.5052  140.6447  153.8221 C   0  0  0  0  0  0  0  0  0  0  0  0
  148.2594  139.4588  153.6467 C   0  0  0  0  0  0  0  0  0  0  0  0
  147.7603  138.2916  153.0044 N   0  0  0  0  0  0  0  0  0  0  0  0
  146.4842  137.9127  152.8210 C   0  0  0  0  0  0  0  0  0  0  0  0
  145.4925  138.5254  153.2164 O   0  0  0  0  0  0  0  0  0  0  0  0
  146.4139  136.7490  152.1593 N   0  0  0  0  0  0  0  0  0  0  0  0
  145.1748  136.0692  151.8006 C   0  0  0  0  0  0  0  0  0  0  0  0
  145.4358  134.8963  150.8294 C   0  0  0  0  0  0  0  0  0  0  0  0
  145.5358  133.5643  151.4892 N   0  3  2  0  0  0  0  0  0  0  0  0
  146.4314  133.5847  152.6773 C   0  0  0  0  0  0  0  0  0  0  0  0
  146.3116  132.2853  153.4868 C   0  0  0  0  0  0  0  0  0  0  0  0
  146.6189  131.0718  152.6042 C   0  0  0  0  0  0  0  0  0  0  0  0
  145.7056  131.0802  151.3722 C   0  0  0  0  0  0  0  0  0  0  0  0
  145.8141  132.4041  150.5849 C   0  0  1  0  0  0  0  0  0  0  0  0
  144.8733  132.3570  149.3647 C   0  0  0  0  0  0  0  0  0  0  0  0
  152.1547  137.3348  154.1629 H   0  0  0  0  0  0  0  0  0  0  0  0
  151.7429  138.4377  155.4715 H   0  0  0  0  0  0  0  0  0  0  0  0
  152.2983  139.0699  153.9052 H   0  0  0  0  0  0  0  0  0  0  0  0
  149.9344  142.4608  155.3679 H   0  0  0  0  0  0  0  0  0  0  0  0
  147.5568  142.6665  154.6033 H   0  0  0  0  0  0  0  0  0  0  0  0
  146.4885  140.7362  153.4738 H   0  0  0  0  0  0  0  0  0  0  0  0
  148.4666  137.6390  152.6962 H   0  0  0  0  0  0  0  0  0  0  0  0
  147.2772  136.3096  151.8741 H   0  0  0  0  0  0  0  0  0  0  0  0
  144.6778  135.7317  152.7109 H   0  0  0  0  0  0  0  0  0  0  0  0
  144.5167  136.8072  151.3428 H   0  0  0  0  0  0  0  0  0  0  0  0
  144.6362  134.8565  150.0883 H   0  0  0  0  0  0  0  0  0  0  0  0
  146.3421  135.0751  150.2514 H   0  0  0  0  0  0  0  0  0  0  0  0
  147.4658  133.7257  152.3616 H   0  0  0  0  0  0  0  0  0  0  0  0
  146.1770  134.4298  153.3180 H   0  0  0  0  0  0  0  0  0  0  0  0
  146.9936  132.3107  154.3372 H   0  0  0  0  0  0  0  0  0  0  0  0
  145.3052  132.1974  153.8983 H   0  0  0  0  0  0  0  0  0  0  0  0
  147.6636  131.0949  152.2916 H   0  0  0  0  0  0  0  0  0  0  0  0
  146.4814  130.1496  153.1694 H   0  0  0  0  0  0  0  0  0  0  0  0
  145.9618  130.2389  150.7273 H   0  0  0  0  0  0  0  0  0  0  0  0
  144.6728  130.9217  151.6868 H   0  0  0  0  0  0  0  0  0  0  0  0
  146.8383  132.4904  150.2197 H   0  0  0  0  0  0  0  0  0  0  0  0
  145.0455  131.4551  148.7768 H   0  0  0  0  0  0  0  0  0  0  0  0
  145.0298  133.1994  148.6912 H   0  0  0  0  0  0  0  0  0  0  0  0
  143.8261  132.3568  149.6686 H   0  0  0  0  0  0  0  0  0  0  0  0
  144.6117  133.3933  151.8596 H   0  0  0  0  0  0  0  0  0  0  0  0
  1  2  1  0  0  0  0
  1 22  1  0  0  0  0
  1 23  1  0  0  0  0
  1 24  1  0  0  0  0
  2  3  1  0  0  0  0
  3  8  1  0  0  0  0
  3  4  2  0  0  0  0
  4  5  1  0  0  0  0
  5  6  2  0  0  0  0
  5 25  1  0  0  0  0
  6  7  1  0  0  0  0
  6 26  1  0  0  0  0
  7  8  2  0  0  0  0
  7 27  1  0  0  0  0
  8  9  1  0  0  0  0
  9 10  1  0  0  0  0
  9 28  1  0  0  0  0
 10 11  2  0  0  0  0
 10 12  1  0  0  0  0
 12 13  1  0  0  0  0
 12 29  1  0  0  0  0
 13 14  1  0  0  0  0
 13 30  1  0  0  0  0
 13 31  1  0  0  0  0
 14 15  1  0  0  0  0
 14 32  1  0  0  0  0
 14 33  1  0  0  0  0
 15 20  1  0  0  0  0
 15 16  1  0  0  0  0
 15 46  1  0  0  0  0
 16 17  1  0  0  0  0
 16 34  1  0  0  0  0
 16 35  1  0  0  0  0
 17 18  1  0  0  0  0
 17 36  1  0  0  0  0
 17 37  1  0  0  0  0
 18 19  1  0  0  0  0
 18 38  1  0  0  0  0
 18 39  1  0  0  0  0
 19 20  1  0  0  0  0
 19 40  1  0  0  0  0
 19 41  1  0  0  0  0
 20 21  1  0  0  0  0
 20 42  1  0  0  0  0
 21 43  1  0  0  0  0
 21 44  1  0  0  0  0
 21 45  1  0  0  0  0
M  CHG  1  15   1
M  END
> <s_m_source_file>
AV-unprocessed.smi

> <i_m_source_file_index>
1944

> <i_lp_mmshare_version>
43012

> <i_f3d_flags>
0

> <s_epik_input>
W0NIM11PYzFuW2NIXVtjSF1bY0hdYzFbTkhdQyg9TylbTkhdW0NIMl1bQ0gyXU4yW0NIMl1bQ0gyXVtDSDJdW0NIMl1bQ0BIXTJbQ0gzXQ==

> <s_epik_cmdline>
J2VwaWtfcHl0aG9uJywgJy1waCcsICc3LjAnLCAnLXRuJywgJzgnLCAnLW1hJywgJzIwMCcsICctbWV0YWxfYmluZGluZycsICctaW1hZScsICc8aW5maWxlLm1hZT4nLCAnLW9tYWUnLCAnPG91dGZpbGUubWFlPic=

> <r_lp_tautomer_probability>
1

> <r_epik_Ionization_Penalty>
0.00219525

> <r_epik_Ionization_Penalty_Charging>
0.00211816

> <r_epik_Ionization_Penalty_Neutral>
7.7088e-05

> <r_epik_State_Penalty>
0.00145254

> <r_epik_Charging_Adjusted_Penalty>
0.0035707

> <i_epik_Tot_Q>
1

> <i_epik_Tot_abs_Q>
1

> <r_epik_Metal_State_Penalty>
-0

> <b_epik_Metal_Only>
0

> <s_lp_Force_Field>
OPLS_2005

> <r_lp_Energy>
22.1071

> <b_lp_Chiralities_Consistent>
1

> <s_lp_Variant>
AV-unprocessed.smi:1944-1

> <Gold.Version>
5.8.1

> <Gold.Id.Protein>
6NUR|6NUR_protein|mol2

> <Gold.PLP.Fitness>
46.5175

> <Gold.PLP.PLP>
-35.8655

> <Gold.PLP.part.hbond>
-3.6308

> <Gold.PLP.part.metal>
0.0000

> <Gold.PLP.part.buried>
-2.4182

> <Gold.PLP.part.nonpolar>
-33.1852

> <Gold.PLP.part.repulsive>
3.2665

> <Gold.PLP.ligand.clash>
0.0000

> <Gold.PLP.ligand.torsion>
0.4359

> <Gold.PLP.Chemscore.Hbond>
2.9600

> <Gold.PLP.Chemscore.CHOScore>
0.8559

> <Gold.PLP.Chemscore.Metal>
0.0000

> <Gold.Chemscore.Hbonds>
donor molecule, donor type, donor heavy atom, donor atom, acceptor molecule, acceptor atom, score
      L1  H     9    28       P1  7948  1.00
      L1  H    12    29       P1  7948  1.00
      P1  H  7989  7998       L1     4  0.93
      L1  C     5    25       P1  8028  0.87

> <Gold.PLP.Chemscore.Internal.Correction>
0.0762

> <Gold.Rescore>
     Score         DG    S(hbond)    S(metal)    S(lipo)     H(rot)  DE(clash)    DE(int)     intcor
     16.26     -17.97       2.02        0.00      86.34       1.71       0.14       1.57       ----

> <Gold.Chemscore.Fitness>
16.2570

> <Gold.Chemscore.DG>
-17.9654

> <Gold.Chemscore.ZeroCoef>
-5.4800

> <Gold.Chemscore.Hbond>
2.0250

> <Gold.Chemscore.Metal>
0.0000

> <Gold.Chemscore.Lipo>
86.3366

> <Gold.Chemscore.Internal_Hbond>
0.0000

> <Gold.Chemscore.DEClash>
0.1377

> <Gold.Chemscore.DEInternal>
1.5707

> <Gold.Chemscore.Rot>
1.7107

> <Gold.Chemscore.Internal.Correction>
   9.000000E+99

> <Gold.Chemscore.Hbonds>
donor molecule, donor type, donor heavy atom, donor atom, acceptor molecule, acceptor atom, score
      L1  H     9    28       P1  7948  0.97
      L1  H    12    29       P1  7948  0.97
      P1  H  7989  7998       L1     4  0.19

> <Gold.Chemscore.Hbond.Weighted>
-6.7634

> <Gold.Chemscore.Metal.Weighted>
-0.0000

> <Gold.Chemscore.Lipo.Weighted>
-10.1014

> <Gold.Chemscore.Internal_Hbond.Weighted>
0.0000

> <Gold.Chemscore.DEClash.Weighted>
0.1377

> <Gold.Chemscore.DEInternal.Weighted>
1.5707

> <Gold.Chemscore.Rot.Weighted>
4.3794

> <Gold.Chemscore.Internal.Correction.Weighted>
   9.000000E+99

> <Gold.Protein.RotatedTorsions>
[ 6907 6896 6895 6894 ] final  -57.98 input  -60.11 | X-H torsion
[ 7974 7965 7964 7962 ] final   19.18 input  175.53 | X-H torsion
[ 8008 7997 7996 7995 ] final  104.78 input   59.86 | X-H torsion
[ 10167 10162 10161 10158 ] final   90.03 input  -65.29 | X-H torsion
[ 10718 10713 10712 10709 ] final  144.43 input   66.30 | X-H torsion
[ 10763 10752 10751 10750 ] final   60.62 input  -60.55 | X-H torsion
[ 11005 11000 10999 10996 ] final  -47.55 input  -57.11 | X-H torsion

> <Gold.Protein.ActiveResidues>
 VAL166  LYS551  ARG553  GLY616  TRP617  ASP618  TYR619  PRO620  LYS621  CYS622 
 ASP623  PHE694  ASN695  SER759  ASP760  ASP761  ALA762  ILE779  LEU786  VAL792 
 PHE793  MET794  SER795  GLU796  ALA797  LYS798  CYS799  TRP800  GLU811  SER814 

> <Gold.Protein.RotatedAtoms>
  150.8043  134.7158  159.6629 H   0  0  0  0  0  0  0  0  0  0  0  0  # atno 6907 bound_to 6896
  152.4162  134.6034  160.0016 H   0  0  0  0  0  0  0  0  0  0  0  0  # atno 6908 bound_to 6896
  151.6263  133.3298  159.3135 H   0  0  0  0  0  0  0  0  0  0  0  0  # atno 6909 bound_to 6896
  146.2158  139.8350  142.8652 H   0  0  0  0  0  0  0  0  0  0  0  0  # atno 7974 bound_to 7965
  156.1603  140.3142  155.8795 H   0  0  0  0  0  0  0  0  0  0  0  0  # atno 8008 bound_to 7997
  155.3796  140.0487  157.3061 H   0  0  0  0  0  0  0  0  0  0  0  0  # atno 8009 bound_to 7997
  154.5140  140.2174  155.9113 H   0  0  0  0  0  0  0  0  0  0  0  0  # atno 8010 bound_to 7997
  139.8513  144.6592  150.9166 H   0  0  0  0  0  0  0  0  0  0  0  0  # atno 10167 bound_to 10162
  157.3572  131.0959  151.0948 H   0  0  0  0  0  0  0  0  0  0  0  0  # atno 10718 bound_to 10713
  152.9926  135.5530  154.5903 H   0  0  0  0  0  0  0  0  0  0  0  0  # atno 10763 bound_to 10752
  154.5266  135.2811  155.1219 H   0  0  0  0  0  0  0  0  0  0  0  0  # atno 10764 bound_to 10752
  154.2551  135.6391  153.5307 H   0  0  0  0  0  0  0  0  0  0  0  0  # atno 10765 bound_to 10752
  141.0648  133.6697  156.3314 H   0  0  0  0  0  0  0  0  0  0  0  0  # atno 11005 bound_to 11000
  145.2958  141.0180  143.3637 LP  0  0  0  0  0  0  0  0  0  0  0  0  # atno 17320 bound_to 7965
  144.9043  139.4609  143.6617 LP  0  0  0  0  0  0  0  0  0  0  0  0  # atno 17321 bound_to 7965
  140.7787  143.3824  151.1453 LP  0  0  0  0  0  0  0  0  0  0  0  0  # atno 17342 bound_to 10162
  139.7462  143.8848  152.3064 LP  0  0  0  0  0  0  0  0  0  0  0  0  # atno 17343 bound_to 10162
  157.2101  130.6434  149.5771 LP  0  0  0  0  0  0  0  0  0  0  0  0  # atno 17370 bound_to 10713
  155.9731  130.4663  150.6283 LP  0  0  0  0  0  0  0  0  0  0  0  0  # atno 17371 bound_to 10713
  140.5796  134.5759  157.5476 LP  0  0  0  0  0  0  0  0  0  0  0  0  # atno 17394 bound_to 11000
  139.9466  134.7692  156.0548 LP  0  0  0  0  0  0  0  0  0  0  0  0  # atno 17395 bound_to 11000

$$$$
