#       Name:                AV-unprocessed.smi:3015
#       Creating user name   scv26
#       Creation time:       Fri Mar 27 16:40:59 2020


#       File generated by GOLD software.
#

@<TRIPOS>MOLECULE
AV-unprocessed.smi:3015
    27    27     1
SMALL
NO_CHARGES


@<TRIPOS>ATOM
      1 ****         0.7951  -1.6200   0.9464 N.3            1 S1                 0.0000
      2 ****         1.2145  -0.7559  -0.1697 C.3            1 S1                 0.0000
      3 ****         2.7444  -0.7689  -0.3516 C.3            1 S1                 0.0000
      4 ****         3.3926   0.0284   0.6188 O.3            1 S1                 0.0000
      5 ****         0.6258   0.6670  -0.0793 C.3            1 S1                 0.0000
      6 ****        -0.8885   0.6873  -0.1881 C.ar           1 S1                 0.0000
      7 ****        -1.6976   0.7782   0.9634 C.ar           1 S1                 0.0000
      8 ****        -3.0973   0.7923   0.8098 C.ar           1 S1                 0.0000
      9 ****        -3.6296   0.7140  -0.4926 C.ar           1 S1                 0.0000
     10 ****        -2.8650   0.6258  -1.6024 N.ar           1 S1                 0.0000
     11 ****        -1.5237   0.6130  -1.4459 C.ar           1 S1                 0.0000
     12 ****         1.1994  -2.5497   0.8450 H              1 S1                 0.0000
     13 ****         1.1419  -1.2452   1.8283 H              1 S1                 0.0000
     14 ****         0.8141  -1.2000  -1.0819 H              1 S1                 0.0000
     15 ****         3.1357  -1.7862  -0.3104 H              1 S1                 0.0000
     16 ****         3.0011  -0.3726  -1.3344 H              1 S1                 0.0000
     17 ****         4.3230   0.0042   0.4546 H              1 S1                 0.0000
     18 ****         0.9254   1.1472   0.8533 H              1 S1                 0.0000
     19 ****         1.0307   1.2851  -0.8817 H              1 S1                 0.0000
     20 ****        -1.2558   0.8337   1.9474 H              1 S1                 0.0000
     21 ****        -3.7474   0.8606   1.6693 H              1 S1                 0.0000
     22 ****        -4.6985   0.7227  -0.6467 H              1 S1                 0.0000
     23 ****        -0.9401   0.5399  -2.3518 H              1 S1                 0.0000
     24 ****        -0.2040  -1.6612   0.9387 LP             1 S1                 0.0000
     25 ****         3.2020  -0.3308   1.5324 LP             1 S1                 0.0000
     26 ****         3.0634   0.9705   0.5557 LP             1 S1                 0.0000
     27 ****        -3.2789   0.5717  -2.5111 LP             1 S1                 0.0000
@<TRIPOS>BOND
    1    1    2 1     
    2    1   12 1     
    3    1   13 1     
    4    2    3 1     
    5    2    5 1     
    6    2   14 1     
    7    3    4 1     
    8    3   15 1     
    9    3   16 1     
   10    4   17 1     
   11    5    6 1     
   12    5   18 1     
   13    5   19 1     
   14    6   11 ar    
   15    6    7 ar    
   16    7    8 ar    
   17    7   20 1     
   18    8    9 ar    
   19    8   21 1     
   20    9   10 ar    
   21    9   22 1     
   22   10   11 ar    
   23   11   23 1     
   24    1   24 1     
   25    4   25 1     
   26    4   26 1     
   27   10   27 1     
@<TRIPOS>SUBSTRUCTURE
      1 S1             1
@<TRIPOS>SET
LONE_PAIRS      STATIC     ATOMS    <user>   **** ""
4 24 25 26 27
DONOR_HYDROGENS      STATIC     ATOMS    <user>   **** ""
3 12 13 17
ATOM$BLUE        STATIC     ATOMS    COLORGROUP SYSTEM
4 24 25 26 27
ATOM$RED        STATIC     ATOMS    COLORGROUP SYSTEM
3 12 13 17
