#       Name:                AV-unprocessed.smi:811
#       Creating user name   scv26
#       Creation time:       Fri Mar 27 01:25:25 2020


#       File generated by GOLD software.
#

@<TRIPOS>MOLECULE
AV-unprocessed.smi:811
    52    54     1
SMALL
NO_CHARGES


@<TRIPOS>ATOM
      1 ****        -6.1896  -4.3930   0.7526 C.3            1 S1                 0.0000
      2 ****        -5.6006  -3.0469   0.5982 N.4            1 S1                 1.0000
      3 ****        -5.5639  -2.5446  -0.7954 C.3            1 S1                 0.0000
      4 ****        -4.2623  -1.7378  -0.9418 C.3            1 S1                 0.0000
      5 ****        -3.7096  -1.6379   0.4827 C.3            1 S1                 0.0000
      6 ****        -2.2553  -1.5466   0.5588 N.am           1 S1                 0.0000
      7 ****        -1.5487  -0.4414   0.2838 C.2            1 S1                 0.0000
      8 ****        -2.0683   0.6208  -0.0559 O.2            1 S1                 0.0000
      9 ****        -0.2306  -0.6556   0.4391 N.am           1 S1                 0.0000
     10 ****         0.8554   0.2422   0.2438 C.ar           1 S1                 0.0000
     11 ****         0.7629   1.4968  -0.4031 C.ar           1 S1                 0.0000
     12 ****         1.9225   2.2844  -0.5361 C.ar           1 S1                 0.0000
     13 ****         3.1530   1.8015  -0.0311 C.ar           1 S1                 0.0000
     14 ****         4.3293   2.5753  -0.1505 N.3            1 S1                 0.0000
     15 ****         4.6174   3.1101  -1.4797 C.3            1 S1                 0.0000
     16 ****         5.7201   4.1802  -1.4001 C.3            1 S1                 0.0000
     17 ****         6.8718   3.6401  -0.7615 O.3            1 S1                 0.0000
     18 ****         6.5923   3.2319   0.5731 C.3            1 S1                 0.0000
     19 ****         5.5233   2.1264   0.5645 C.3            1 S1                 0.0000
     20 ****         3.2376   0.5968   0.5846 N.ar           1 S1                 0.0000
     21 ****         2.1242  -0.1545   0.7107 C.ar           1 S1                 0.0000
     22 ****        -4.2354  -2.9124   1.1357 C.3            1 S1                 0.0000
     23 ****        -5.6084  -5.1417   0.2128 H              1 S1                 0.0000
     24 ****        -7.2100  -4.4078   0.3685 H              1 S1                 0.0000
     25 ****        -6.2204  -4.6762   1.8051 H              1 S1                 0.0000
     26 ****        -5.5791  -3.3639  -1.5160 H              1 S1                 0.0000
     27 ****        -6.4427  -1.9257  -0.9788 H              1 S1                 0.0000
     28 ****        -3.5667  -2.2819  -1.5827 H              1 S1                 0.0000
     29 ****        -4.4263  -0.7574  -1.3903 H              1 S1                 0.0000
     30 ****        -4.1596  -0.7789   0.9854 H              1 S1                 0.0000
     31 ****        -1.7540  -2.3779   0.8362 H              1 S1                 0.0000
     32 ****         0.0304  -1.5722   0.7718 H              1 S1                 0.0000
     33 ****        -0.1628   1.8758  -0.8050 H              1 S1                 0.0000
     34 ****         1.8472   3.2511  -1.0102 H              1 S1                 0.0000
     35 ****         4.9386   2.2915  -2.1249 H              1 S1                 0.0000
     36 ****         3.7356   3.5497  -1.9425 H              1 S1                 0.0000
     37 ****         5.9933   4.5121  -2.4018 H              1 S1                 0.0000
     38 ****         5.3695   5.0602  -0.8585 H              1 S1                 0.0000
     39 ****         7.5097   2.8623   1.0312 H              1 S1                 0.0000
     40 ****         6.2627   4.0872   1.1655 H              1 S1                 0.0000
     41 ****         5.2742   1.8618   1.5928 H              1 S1                 0.0000
     42 ****         5.9163   1.2302   0.0824 H              1 S1                 0.0000
     43 ****         2.2530  -1.1057   1.2065 H              1 S1                 0.0000
     44 ****        -4.2368  -2.8567   2.2249 H              1 S1                 0.0000
     45 ****        -3.6332  -3.7730   0.8373 H              1 S1                 0.0000
     46 ****        -6.1756  -2.3998   1.1189 H              1 S1                 0.0000
     47 ****        -3.0627   0.6874  -0.1377 LP             1 S1                 0.0000
     48 ****        -1.4962   1.4177  -0.2503 LP             1 S1                 0.0000
     49 ****         4.0371   3.3633   0.3914 LP             1 S1                 0.0000
     50 ****         7.5889   4.3369  -0.7437 LP             1 S1                 0.0000
     51 ****         7.1896   2.8480  -1.2827 LP             1 S1                 0.0000
     52 ****         4.1130   0.2696   0.9403 LP             1 S1                 0.0000
@<TRIPOS>BOND
    1    1    2 1     
    2    1   23 1     
    3    1   24 1     
    4    1   25 1     
    5    2   22 1     
    6    2    3 1     
    7    2   46 1     
    8    3    4 1     
    9    3   26 1     
   10    3   27 1     
   11    4    5 1     
   12    4   28 1     
   13    4   29 1     
   14    5    6 1     
   15    5   22 1     
   16    5   30 1     
   17    6    7 am    
   18    6   31 1     
   19    7    8 2     
   20    7    9 am    
   21    9   10 1     
   22    9   32 1     
   23   10   21 ar    
   24   10   11 ar    
   25   11   12 ar    
   26   11   33 1     
   27   12   13 ar    
   28   12   34 1     
   29   13   14 1     
   30   13   20 ar    
   31   14   19 1     
   32   14   15 1     
   33   15   16 1     
   34   15   35 1     
   35   15   36 1     
   36   16   17 1     
   37   16   37 1     
   38   16   38 1     
   39   17   18 1     
   40   18   19 1     
   41   18   39 1     
   42   18   40 1     
   43   19   41 1     
   44   19   42 1     
   45   20   21 ar    
   46   21   43 1     
   47   22   44 1     
   48   22   45 1     
   49    8   47 1     
   50    8   48 1     
   51   14   49 1     
   52   17   50 1     
   53   17   51 1     
   54   20   52 1     
@<TRIPOS>SUBSTRUCTURE
      1 S1             1
@<TRIPOS>SET
LONE_PAIRS      STATIC     ATOMS    <user>   **** ""
6 47 48 49 50 51 52
DONOR_HYDROGENS      STATIC     ATOMS    <user>   **** ""
3 46 31 32
ATOM$BLUE        STATIC     ATOMS    COLORGROUP SYSTEM
6 47 48 49 50 51 52
ATOM$RED        STATIC     ATOMS    COLORGROUP SYSTEM
3 46 31 32
