AV-unprocessed.smi:21|AV-procd|sdf|135|dock7
  -GOLD-   2262015333D 1   1.00000     0.00000
 Structure written by MMmdl.
 62 65  0  0  0  0  0  0  0  0  2 V2000
  145.4636  131.3344  151.1003 C   0  0  0  0  0  0  0  0  0  0  0  0
  146.0535  132.6084  150.8942 O   0  0  0  0  0  0  0  0  0  0  0  0
  145.5279  133.6227  151.7395 C   0  0  1  0  0  0  0  0  0  0  0  0
  145.9026  133.2981  153.1863 C   0  0  0  0  0  0  0  0  0  0  0  0
  147.1706  134.1149  153.4331 C   0  0  2  0  0  0  0  0  0  0  0  0
  147.5386  134.3163  154.9223 C   0  0  0  0  0  0  0  0  0  0  0  0
  148.9127  134.7773  155.1096 N   0  0  0  0  0  0  0  0  0  0  0  0
  149.9806  134.0446  154.4297 C   0  0  0  0  0  0  0  0  0  0  0  0
  149.1934  135.9915  155.6734 C   0  0  0  0  0  0  0  0  0  0  0  0
  148.1669  136.6791  156.2446 N   0  0  0  0  0  0  0  0  0  0  0  0
  148.3641  137.8680  156.8181 C   0  0  0  0  0  0  0  0  0  0  0  0
  149.4981  138.5559  156.9345 N   0  0  0  0  0  0  0  0  0  0  0  0
  150.5393  137.8885  156.3635 C   0  0  0  0  0  0  0  0  0  0  0  0
  150.4815  136.6169  155.7173 C   0  0  0  0  0  0  0  0  0  0  0  0
  151.7563  136.2808  155.2666 N   0  0  0  0  0  0  0  0  0  0  0  0
  152.5111  137.2835  155.6196 C   0  0  0  0  0  0  0  0  0  0  0  0
  151.8595  138.2958  156.2805 N   0  0  0  0  0  0  0  0  0  0  0  0
  152.4556  139.5229  156.7804 C   0  0  0  0  0  0  0  0  0  0  0  0
  152.3702  139.6562  158.3212 C   0  0  1  0  0  0  0  0  0  0  0  0
  152.8616  138.3856  159.0574 C   0  0  0  0  0  0  0  0  0  0  0  0
  154.2456  138.1790  158.8640 O   0  0  0  0  0  0  0  0  0  0  0  0
  153.0805  140.9380  158.8266 C   0  0  1  0  0  0  0  0  0  0  0  0
  152.4885  142.2399  158.3157 C   0  0  0  0  0  0  0  0  0  0  0  0
  153.0488  143.2550  159.3049 C   0  0  0  0  0  0  0  0  0  0  0  0
  153.1275  142.5690  160.5486 O   0  0  0  0  0  0  0  0  0  0  0  0
  152.9921  141.1660  160.3402 C   0  0  0  0  0  0  0  0  0  0  0  0
  146.9619  135.3658  152.6633 N   0  3  2  0  0  0  0  0  0  0  0  0
  146.3187  136.4789  153.4038 C   0  0  0  0  0  0  0  0  0  0  0  0
  146.2031  134.9795  151.4501 C   0  0  0  0  0  0  0  0  0  0  0  0
  144.4418  133.6779  151.6441 H   0  0  0  0  0  0  0  0  0  0  0  0
  147.9925  133.6005  152.9331 H   0  0  0  0  0  0  0  0  0  0  0  0
  145.9028  130.6139  150.4103 H   0  0  0  0  0  0  0  0  0  0  0  0
  144.3877  131.3537  150.9244 H   0  0  0  0  0  0  0  0  0  0  0  0
  145.6446  130.9779  152.1149 H   0  0  0  0  0  0  0  0  0  0  0  0
  145.1091  133.6355  153.8543 H   0  0  0  0  0  0  0  0  0  0  0  0
  146.0448  132.2302  153.3563 H   0  0  0  0  0  0  0  0  0  0  0  0
  146.8507  135.0027  155.4127 H   0  0  0  0  0  0  0  0  0  0  0  0
  147.4169  133.3753  155.4596 H   0  0  0  0  0  0  0  0  0  0  0  0
  150.7731  133.7807  155.1309 H   0  0  0  0  0  0  0  0  0  0  0  0
  150.4120  134.6439  153.6271 H   0  0  0  0  0  0  0  0  0  0  0  0
  149.6104  133.1189  153.9885 H   0  0  0  0  0  0  0  0  0  0  0  0
  147.4878  138.3341  157.2442 H   0  0  0  0  0  0  0  0  0  0  0  0
  153.5693  137.3159  155.4034 H   0  0  0  0  0  0  0  0  0  0  0  0
  153.4947  139.5689  156.4521 H   0  0  0  0  0  0  0  0  0  0  0  0
  151.9449  140.3542  156.2944 H   0  0  0  0  0  0  0  0  0  0  0  0
  151.3126  139.7607  158.5681 H   0  0  0  0  0  0  0  0  0  0  0  0
  152.6673  138.4567  160.1274 H   0  0  0  0  0  0  0  0  0  0  0  0
  152.3245  137.5009  158.7154 H   0  0  0  0  0  0  0  0  0  0  0  0
  154.4567  137.2942  159.1203 H   0  0  0  0  0  0  0  0  0  0  0  0
  154.1337  140.9090  158.5417 H   0  0  0  0  0  0  0  0  0  0  0  0
  152.7675  142.4670  157.2865 H   0  0  0  0  0  0  0  0  0  0  0  0
  151.3996  142.2172  158.3794 H   0  0  0  0  0  0  0  0  0  0  0  0
  154.0545  143.5577  159.0101 H   0  0  0  0  0  0  0  0  0  0  0  0
  152.4326  144.1513  159.3799 H   0  0  0  0  0  0  0  0  0  0  0  0
  152.0176  140.8596  160.7227 H   0  0  0  0  0  0  0  0  0  0  0  0
  153.7566  140.6147  160.8880 H   0  0  0  0  0  0  0  0  0  0  0  0
  145.3486  136.1815  153.8036 H   0  0  0  0  0  0  0  0  0  0  0  0
  146.1659  137.3344  152.7450 H   0  0  0  0  0  0  0  0  0  0  0  0
  146.9438  136.8233  154.2275 H   0  0  0  0  0  0  0  0  0  0  0  0
  146.9123  134.8892  150.6267 H   0  0  0  0  0  0  0  0  0  0  0  0
  145.4735  135.7364  151.1581 H   0  0  0  0  0  0  0  0  0  0  0  0
  147.8682  135.7052  152.3731 H   0  0  0  0  0  0  0  0  0  0  0  0
  1  2  1  0  0  0  0
  1 32  1  0  0  0  0
  1 33  1  0  0  0  0
  1 34  1  0  0  0  0
  2  3  1  0  0  0  0
  3 30  1  0  0  0  0
  3 29  1  0  0  0  0
  3  4  1  0  0  0  0
  4  5  1  0  0  0  0
  4 35  1  0  0  0  0
  4 36  1  0  0  0  0
  5 31  1  0  0  0  0
  5  6  1  0  0  0  0
  5 27  1  0  0  0  0
  6  7  1  0  0  0  0
  6 37  1  0  0  0  0
  6 38  1  0  0  0  0
  7  8  1  0  0  0  0
  7  9  1  0  0  0  0
  8 39  1  0  0  0  0
  8 40  1  0  0  0  0
  8 41  1  0  0  0  0
  9 14  1  0  0  0  0
  9 10  2  0  0  0  0
 10 11  1  0  0  0  0
 11 12  2  0  0  0  0
 11 42  1  0  0  0  0
 12 13  1  0  0  0  0
 13 17  1  0  0  0  0
 13 14  2  0  0  0  0
 14 15  1  0  0  0  0
 15 16  2  0  0  0  0
 16 17  1  0  0  0  0
 16 43  1  0  0  0  0
 17 18  1  0  0  0  0
 18 19  1  0  0  0  0
 18 44  1  0  0  0  0
 18 45  1  0  0  0  0
 19 20  1  0  0  0  0
 19 22  1  0  0  0  0
 19 46  1  0  0  0  0
 20 21  1  0  0  0  0
 20 47  1  0  0  0  0
 20 48  1  0  0  0  0
 21 49  1  0  0  0  0
 22 26  1  0  0  0  0
 22 23  1  0  0  0  0
 22 50  1  0  0  0  0
 23 24  1  0  0  0  0
 23 51  1  0  0  0  0
 23 52  1  0  0  0  0
 24 25  1  0  0  0  0
 24 53  1  0  0  0  0
 24 54  1  0  0  0  0
 25 26  1  0  0  0  0
 26 55  1  0  0  0  0
 26 56  1  0  0  0  0
 27 28  1  0  0  0  0
 27 29  1  0  0  0  0
 27 62  1  0  0  0  0
 28 57  1  0  0  0  0
 28 58  1  0  0  0  0
 28 59  1  0  0  0  0
 29 60  1  0  0  0  0
 29 61  1  0  0  0  0
M  CHG  1  27   1
M  END
> <s_m_source_file>
AV-unprocessed.smi

> <i_m_source_file_index>
21

> <i_lp_mmshare_version>
43012

> <i_f3d_flags>
0

> <s_epik_input>
W0NIM11PW0NASF0xW0NIMl1bQ0BIXShOKFtDSDNdKVtDSDJdMSlbQ0gyXU4oW0NIM10pYyhuW2NIXW4yKWMoYzIzKW5bY0hdbjNbQ0gyXVtDQEhdKFtDSDJdW09IXSlbQ0BASF00W0NIMl1bQ0gyXU9bQ0gyXTQ=

> <s_epik_cmdline>
J2VwaWtfcHl0aG9uJywgJy1waCcsICc3LjAnLCAnLXRuJywgJzgnLCAnLW1hJywgJzIwMCcsICctbWV0YWxfYmluZGluZycsICctaW1hZScsICc8aW5maWxlLm1hZT4nLCAnLW9tYWUnLCAnPG91dGZpbGUubWFlPic=

> <r_lp_tautomer_probability>
1

> <r_epik_Ionization_Penalty>
0.0157465

> <r_epik_Ionization_Penalty_Charging>
0.015354

> <r_epik_Ionization_Penalty_Neutral>
0.000392529

> <r_epik_State_Penalty>
0.0120612

> <r_epik_Charging_Adjusted_Penalty>
0.0274152

> <i_epik_Tot_Q>
1

> <i_epik_Tot_abs_Q>
1

> <r_epik_Metal_State_Penalty>
0.0121253

> <b_epik_Metal_Only>
0

> <s_lp_Force_Field>
OPLS_2005

> <r_lp_Energy>
62.2742

> <b_lp_Chiralities_Consistent>
1

> <s_lp_Variant>
AV-unprocessed.smi:21-15

> <Gold.Version>
5.8.1

> <Gold.Id.Protein>
6NUR|6NUR_protein|mol2

> <Gold.PLP.Fitness>
50.3862

> <Gold.PLP.PLP>
-38.4946

> <Gold.PLP.part.hbond>
-3.0000

> <Gold.PLP.part.metal>
0.0000

> <Gold.PLP.part.buried>
-6.5842

> <Gold.PLP.part.nonpolar>
-28.5259

> <Gold.PLP.part.repulsive>
0.2796

> <Gold.PLP.ligand.clash>
0.0000

> <Gold.PLP.ligand.torsion>
0.2686

> <Gold.PLP.Chemscore.Hbond>
4.0000

> <Gold.PLP.Chemscore.CHOScore>
0.0000

> <Gold.PLP.Chemscore.Metal>
0.0000

> <Gold.Chemscore.Hbonds>
donor molecule, donor type, donor heavy atom, donor atom, acceptor molecule, acceptor atom, score
      L1  H    27    62       P1  7948  0.81
      P1  H 10752 10764       L1    15  0.55

> <Gold.PLP.Chemscore.Internal.Correction>
0.4288

> <Gold.Rescore>
     Score         DG    S(hbond)    S(metal)    S(lipo)     H(rot)  DE(clash)    DE(int)     intcor
     14.25     -16.02       2.20        0.00      94.68       3.08       0.07       1.71       ----

> <Gold.Chemscore.Fitness>
14.2453

> <Gold.Chemscore.DG>
-16.0242

> <Gold.Chemscore.ZeroCoef>
-5.4800

> <Gold.Chemscore.Hbond>
2.1978

> <Gold.Chemscore.Metal>
0.0000

> <Gold.Chemscore.Lipo>
94.6814

> <Gold.Chemscore.Internal_Hbond>
0.0000

> <Gold.Chemscore.DEClash>
0.0732

> <Gold.Chemscore.DEInternal>
1.7057

> <Gold.Chemscore.Rot>
3.0758

> <Gold.Chemscore.Internal.Correction>
   9.000000E+99

> <Gold.Chemscore.Hbonds>
donor molecule, donor type, donor heavy atom, donor atom, acceptor molecule, acceptor atom, score
      L1  H    27    62       P1  7948  0.39
      P1  H 10752 10764       L1    15  0.03

> <Gold.Chemscore.Hbond.Weighted>
-7.3406

> <Gold.Chemscore.Metal.Weighted>
-0.0000

> <Gold.Chemscore.Lipo.Weighted>
-11.0777

> <Gold.Chemscore.Internal_Hbond.Weighted>
0.0000

> <Gold.Chemscore.DEClash.Weighted>
0.0732

> <Gold.Chemscore.DEInternal.Weighted>
1.7057

> <Gold.Chemscore.Rot.Weighted>
7.8741

> <Gold.Chemscore.Internal.Correction.Weighted>
   9.000000E+99

> <Gold.Protein.RotatedTorsions>
[ 6907 6896 6895 6894 ] final   17.72 input  -60.11 | X-H torsion
[ 7974 7965 7964 7962 ] final  -81.93 input  175.53 | X-H torsion
[ 8008 7997 7996 7995 ] final  118.07 input   59.86 | X-H torsion
[ 10167 10162 10161 10158 ] final  173.32 input  -65.29 | X-H torsion
[ 10718 10713 10712 10709 ] final   90.09 input   66.30 | X-H torsion
[ 10763 10752 10751 10750 ] final  -61.51 input  -60.55 | X-H torsion
[ 11005 11000 10999 10996 ] final  140.95 input  -57.11 | X-H torsion

> <Gold.Protein.ActiveResidues>
 VAL166  LYS551  ARG553  GLY616  TRP617  ASP618  TYR619  PRO620  LYS621  CYS622 
 ASP623  PHE694  ASN695  SER759  ASP760  ASP761  ALA762  ILE779  LEU786  VAL792 
 PHE793  MET794  SER795  GLU796  ALA797  LYS798  CYS799  TRP800  GLU811  SER814 

> <Gold.Protein.RotatedAtoms>
  151.8540  135.0548  160.0461 H   0  0  0  0  0  0  0  0  0  0  0  0  # atno 6907 bound_to 6896
  152.2714  133.5382  159.5450 H   0  0  0  0  0  0  0  0  0  0  0  0  # atno 6908 bound_to 6896
  150.7153  134.0608  159.3873 H   0  0  0  0  0  0  0  0  0  0  0  0  # atno 6909 bound_to 6896
  145.5401  140.9510  143.1555 H   0  0  0  0  0  0  0  0  0  0  0  0  # atno 7974 bound_to 7965
  156.2527  140.2882  156.0778 H   0  0  0  0  0  0  0  0  0  0  0  0  # atno 8008 bound_to 7997
  155.1600  140.0399  157.2858 H   0  0  0  0  0  0  0  0  0  0  0  0  # atno 8009 bound_to 7997
  154.6399  140.2520  155.7341 H   0  0  0  0  0  0  0  0  0  0  0  0  # atno 8010 bound_to 7997
  139.5105  144.3273  152.0145 H   0  0  0  0  0  0  0  0  0  0  0  0  # atno 10167 bound_to 10162
  157.6958  131.0357  150.3525 H   0  0  0  0  0  0  0  0  0  0  0  0  # atno 10718 bound_to 10713
  154.2856  135.6263  153.5364 H   0  0  0  0  0  0  0  0  0  0  0  0  # atno 10763 bound_to 10752
  152.9859  135.5643  154.5446 H   0  0  0  0  0  0  0  0  0  0  0  0  # atno 10764 bound_to 10752
  154.5046  135.2874  155.1368 H   0  0  0  0  0  0  0  0  0  0  0  0  # atno 10765 bound_to 10752
  140.0365  134.9326  157.0762 H   0  0  0  0  0  0  0  0  0  0  0  0  # atno 11005 bound_to 11000
  144.7581  139.7024  143.7245 LP  0  0  0  0  0  0  0  0  0  0  0  0  # atno 17320 bound_to 7965
  146.1986  139.5268  142.9758 LP  0  0  0  0  0  0  0  0  0  0  0  0  # atno 17321 bound_to 7965
  140.2714  144.3960  150.6150 LP  0  0  0  0  0  0  0  0  0  0  0  0  # atno 17342 bound_to 10162
  140.6086  143.2168  151.6932 LP  0  0  0  0  0  0  0  0  0  0  0  0  # atno 17343 bound_to 10162
  156.3971  130.3909  149.6987 LP  0  0  0  0  0  0  0  0  0  0  0  0  # atno 17370 bound_to 10713
  156.4316  130.7818  151.2838 LP  0  0  0  0  0  0  0  0  0  0  0  0  # atno 17371 bound_to 10713
  140.4139  134.1952  155.7163 LP  0  0  0  0  0  0  0  0  0  0  0  0  # atno 17394 bound_to 11000
  141.1860  133.8311  157.1084 LP  0  0  0  0  0  0  0  0  0  0  0  0  # atno 17395 bound_to 11000

$$$$
