AV-unprocessed.smi:1802|AV-procd|sdf|7276|dock9
  -GOLD-   22720 8533D 1   1.00000     0.00000
 Structure written by MMmdl.
 40 41  0  0  0  0  0  0  0  0  3 V2000
  149.8743  144.5866  159.5126 C   0  0  0  0  0  0  0  0  0  0  0  0
  151.2324  144.4684  158.7985 C   0  0  1  0  0  0  0  0  0  0  0  0
  152.4262  144.5299  159.7693 C   0  0  0  0  0  0  0  0  0  0  0  0
  152.5645  143.2247  160.5654 C   0  0  0  0  0  0  0  0  0  0  0  0
  152.6167  142.0083  159.6271 C   0  0  0  0  0  0  0  0  0  0  0  0
  151.4294  141.9669  158.7351 N   0  3  2  0  0  0  0  0  0  0  0  0
  151.3782  140.7233  157.9259 C   0  0  0  0  0  0  0  0  0  0  0  0
  151.4123  139.4573  158.7969 C   0  0  0  0  0  0  0  0  0  0  0  0
  151.4359  138.1707  157.9557 C   0  0  0  0  0  0  0  0  0  0  0  0
  150.7574  137.0744  158.6378 N   0  0  0  0  0  0  0  0  0  0  0  0
  149.4898  137.0909  159.0749 C   0  0  0  0  0  0  0  0  0  0  0  0
  148.7926  138.0933  158.9004 O   0  0  0  0  0  0  0  0  0  0  0  0
  149.1115  135.9496  159.6928 N   0  5  0  0  0  0  0  0  0  0  0  0
  148.3101  136.0053  160.7696 C   0  0  0  0  0  0  0  0  0  0  0  0
  147.8585  137.1661  161.2708 N   0  0  0  0  0  0  0  0  0  0  0  0
  147.0462  137.0007  162.3845 N   0  0  0  0  0  0  0  0  0  0  0  0
  146.8973  135.7119  162.6902 C   0  0  0  0  0  0  0  0  0  0  0  0
  147.7329  134.5837  161.6439 S   0  0  0  0  0  0  0  0  0  0  0  0
  151.3175  143.2056  157.9168 C   0  0  0  0  0  0  0  0  0  0  0  0
  149.6929  143.7496  160.1868 H   0  0  0  0  0  0  0  0  0  0  0  0
  149.0556  144.6102  158.7928 H   0  0  0  0  0  0  0  0  0  0  0  0
  149.8189  145.5037  160.0995 H   0  0  0  0  0  0  0  0  0  0  0  0
  151.3072  145.3331  158.1379 H   0  0  0  0  0  0  0  0  0  0  0  0
  153.3420  144.6981  159.2009 H   0  0  0  0  0  0  0  0  0  0  0  0
  152.3276  145.3790  160.4467 H   0  0  0  0  0  0  0  0  0  0  0  0
  153.4661  143.2594  161.1780 H   0  0  0  0  0  0  0  0  0  0  0  0
  151.7296  143.1197  161.2589 H   0  0  0  0  0  0  0  0  0  0  0  0
  153.5256  142.0347  159.0239 H   0  0  0  0  0  0  0  0  0  0  0  0
  152.6611  141.0992  160.2282 H   0  0  0  0  0  0  0  0  0  0  0  0
  150.4940  140.7317  157.2866 H   0  0  0  0  0  0  0  0  0  0  0  0
  152.2409  140.6930  157.2588 H   0  0  0  0  0  0  0  0  0  0  0  0
  152.2905  139.4827  159.4434 H   0  0  0  0  0  0  0  0  0  0  0  0
  150.5459  139.4334  159.4571 H   0  0  0  0  0  0  0  0  0  0  0  0
  150.9795  138.3404  156.9792 H   0  0  0  0  0  0  0  0  0  0  0  0
  152.4657  137.8659  157.7682 H   0  0  0  0  0  0  0  0  0  0  0  0
  151.2908  136.2317  158.7957 H   0  0  0  0  0  0  0  0  0  0  0  0
  146.2896  135.4237  163.5348 H   0  0  0  0  0  0  0  0  0  0  0  0
  150.4426  143.1643  157.2691 H   0  0  0  0  0  0  0  0  0  0  0  0
  152.1843  143.2744  157.2573 H   0  0  0  0  0  0  0  0  0  0  0  0
  150.6227  141.9422  159.3424 H   0  0  0  0  0  0  0  0  0  0  0  0
  1  2  1  0  0  0  0
  1 20  1  0  0  0  0
  1 21  1  0  0  0  0
  1 22  1  0  0  0  0
  2 19  1  0  0  0  0
  2  3  1  0  0  0  0
  2 23  1  0  0  0  0
  3  4  1  0  0  0  0
  3 24  1  0  0  0  0
  3 25  1  0  0  0  0
  4  5  1  0  0  0  0
  4 26  1  0  0  0  0
  4 27  1  0  0  0  0
  5  6  1  0  0  0  0
  5 28  1  0  0  0  0
  5 29  1  0  0  0  0
  6  7  1  0  0  0  0
  6 19  1  0  0  0  0
  6 40  1  0  0  0  0
  7  8  1  0  0  0  0
  7 30  1  0  0  0  0
  7 31  1  0  0  0  0
  8  9  1  0  0  0  0
  8 32  1  0  0  0  0
  8 33  1  0  0  0  0
  9 10  1  0  0  0  0
  9 34  1  0  0  0  0
  9 35  1  0  0  0  0
 10 11  1  0  0  0  0
 10 36  1  0  0  0  0
 11 12  2  0  0  0  0
 11 13  1  0  0  0  0
 13 14  1  0  0  0  0
 14 18  1  0  0  0  0
 14 15  2  0  0  0  0
 15 16  1  0  0  0  0
 16 17  2  0  0  0  0
 17 18  1  0  0  0  0
 17 37  1  0  0  0  0
 19 38  1  0  0  0  0
 19 39  1  0  0  0  0
M  CHG  1   6   1
M  CHG  1  13  -1
M  END
> <s_m_source_file>
AV-unprocessed.smi

> <i_m_source_file_index>
1802

> <i_lp_mmshare_version>
43012

> <i_f3d_flags>
0

> <s_epik_input>
W0NIM11bQ0BASF0xW0NIMl1bQ0gyXVtDSDJdTihbQ0gyXTEpW0NIMl1bQ0gyXVtDSDJdW05IXUMoPU8pW05IXWMybm5bY0hdczI=

> <s_epik_cmdline>
J2VwaWtfcHl0aG9uJywgJy1waCcsICc3LjAnLCAnLXRuJywgJzgnLCAnLW1hJywgJzIwMCcsICctbWV0YWxfYmluZGluZycsICctaW1hZScsICc8aW5maWxlLm1hZT4nLCAnLW9tYWUnLCAnPG91dGZpbGUubWFlPic=

> <r_lp_tautomer_probability>
1

> <r_epik_Ionization_Penalty>
3.29702

> <r_epik_Ionization_Penalty_Charging>
3.26059

> <r_epik_Ionization_Penalty_Neutral>
0.0364294

> <r_epik_State_Penalty>
3.25788

> <r_epik_Charging_Adjusted_Penalty>
6.51847

> <i_epik_Tot_Q>
0

> <i_epik_Tot_abs_Q>
2

> <r_epik_Metal_State_Penalty>
0.477639

> <b_epik_Metal_Only>
1

> <s_lp_Force_Field>
OPLS_2005

> <r_lp_Energy>
11.8287

> <b_lp_Chiralities_Consistent>
1

> <s_lp_Variant>
AV-unprocessed.smi:1802-6

> <Gold.Version>
5.8.1

> <Gold.Id.Protein>
6NUR|6NUR_protein|mol2

> <Gold.PLP.Fitness>
48.5469

> <Gold.PLP.PLP>
-39.0342

> <Gold.PLP.part.hbond>
-4.2093

> <Gold.PLP.part.metal>
0.0000

> <Gold.PLP.part.buried>
-6.4838

> <Gold.PLP.part.nonpolar>
-29.2297

> <Gold.PLP.part.repulsive>
0.2293

> <Gold.PLP.ligand.clash>
0.0000

> <Gold.PLP.ligand.torsion>
0.4994

> <Gold.PLP.Chemscore.Hbond>
3.4921

> <Gold.PLP.Chemscore.CHOScore>
0.0000

> <Gold.PLP.Chemscore.Metal>
0.0000

> <Gold.Chemscore.Hbonds>
donor molecule, donor type, donor heavy atom, donor atom, acceptor molecule, acceptor atom, score
      P1  H  6896  6909       L1    13  2.00
      P1  H  6931  6943       L1    15  1.00
      P1  H  6934  6947       L1    15  0.50

> <Gold.PLP.Chemscore.Internal.Correction>
0.0352

> <Gold.Rescore>
     Score         DG    S(hbond)    S(metal)    S(lipo)     H(rot)  DE(clash)    DE(int)     intcor
     12.43     -14.50       0.90        0.00      93.90       1.94       0.01       2.05       ----

> <Gold.Chemscore.Fitness>
12.4333

> <Gold.Chemscore.DG>
-14.5004

> <Gold.Chemscore.ZeroCoef>
-5.4800

> <Gold.Chemscore.Hbond>
0.8971

> <Gold.Chemscore.Metal>
0.0000

> <Gold.Chemscore.Lipo>
93.8981

> <Gold.Chemscore.Internal_Hbond>
0.0000

> <Gold.Chemscore.DEClash>
0.0133

> <Gold.Chemscore.DEInternal>
2.0538

> <Gold.Chemscore.Rot>
1.9383

> <Gold.Chemscore.Internal.Correction>
   9.000000E+99

> <Gold.Chemscore.Hbonds>
donor molecule, donor type, donor heavy atom, donor atom, acceptor molecule, acceptor atom, score
      P1  H  6896  6909       L1    13  0.46
      P1  H  6931  6943       L1    15  0.23
      P1  H  6934  6947       L1    15  0.04

> <Gold.Chemscore.Hbond.Weighted>
-2.9964

> <Gold.Chemscore.Metal.Weighted>
-0.0000

> <Gold.Chemscore.Lipo.Weighted>
-10.9861

> <Gold.Chemscore.Internal_Hbond.Weighted>
0.0000

> <Gold.Chemscore.DEClash.Weighted>
0.0133

> <Gold.Chemscore.DEInternal.Weighted>
2.0538

> <Gold.Chemscore.Rot.Weighted>
4.9620

> <Gold.Chemscore.Internal.Correction.Weighted>
   9.000000E+99

> <Gold.Protein.RotatedTorsions>
[ 6907 6896 6895 6894 ] final   63.06 input  -60.11 | X-H torsion
[ 7974 7965 7964 7962 ] final -111.39 input  175.53 | X-H torsion
[ 8008 7997 7996 7995 ] final   47.33 input   59.86 | X-H torsion
[ 10167 10162 10161 10158 ] final    7.46 input  -65.29 | X-H torsion
[ 10718 10713 10712 10709 ] final   60.78 input   66.30 | X-H torsion
[ 10763 10752 10751 10750 ] final  -96.54 input  -60.55 | X-H torsion
[ 11005 11000 10999 10996 ] final  -23.23 input  -57.11 | X-H torsion

> <Gold.Protein.ActiveResidues>
 VAL166  LYS551  ARG553  GLY616  TRP617  ASP618  TYR619  PRO620  LYS621  CYS622 
 ASP623  PHE694  ASN695  SER759  ASP760  ASP761  ALA762  ILE779  LEU786  VAL792 
 PHE793  MET794  SER795  GLU796  ALA797  LYS798  CYS799  TRP800  GLU811  SER814 

> <Gold.Protein.RotatedAtoms>
  152.4222  134.5934  159.9980 H   0  0  0  0  0  0  0  0  0  0  0  0  # atno 6907 bound_to 6896
  151.6080  133.3344  159.3069 H   0  0  0  0  0  0  0  0  0  0  0  0  # atno 6908 bound_to 6896
  150.8111  134.7303  159.6754 H   0  0  0  0  0  0  0  0  0  0  0  0  # atno 6909 bound_to 6896
  145.1567  140.8857  143.3615 H   0  0  0  0  0  0  0  0  0  0  0  0  # atno 7974 bound_to 7965
  155.3672  140.3422  155.4242 H   0  0  0  0  0  0  0  0  0  0  0  0  # atno 8008 bound_to 7997
  156.1682  140.1623  156.8528 H   0  0  0  0  0  0  0  0  0  0  0  0  # atno 8009 bound_to 7997
  154.5206  140.0768  156.8147 H   0  0  0  0  0  0  0  0  0  0  0  0  # atno 8010 bound_to 7997
  140.6370  143.7862  150.7374 H   0  0  0  0  0  0  0  0  0  0  0  0  # atno 10167 bound_to 10162
  157.5779  130.8958  149.9379 H   0  0  0  0  0  0  0  0  0  0  0  0  # atno 10718 bound_to 10713
  154.7249  135.5080  153.8870 H   0  0  0  0  0  0  0  0  0  0  0  0  # atno 10763 bound_to 10752
  153.0895  135.6655  153.9890 H   0  0  0  0  0  0  0  0  0  0  0  0  # atno 10764 bound_to 10752
  153.9705  135.3039  155.3407 H   0  0  0  0  0  0  0  0  0  0  0  0  # atno 10765 bound_to 10752
  140.8732  133.7706  156.0211 H   0  0  0  0  0  0  0  0  0  0  0  0  # atno 11005 bound_to 11000
  145.0374  139.3289  143.5994 LP  0  0  0  0  0  0  0  0  0  0  0  0  # atno 17320 bound_to 7965
  146.3488  139.9734  142.8703 LP  0  0  0  0  0  0  0  0  0  0  0  0  # atno 17321 bound_to 7965
  140.1486  143.4378  152.2146 LP  0  0  0  0  0  0  0  0  0  0  0  0  # atno 17342 bound_to 10162
  139.5580  144.7386  151.4236 LP  0  0  0  0  0  0  0  0  0  0  0  0  # atno 17343 bound_to 10162
  156.0824  130.3671  150.0554 LP  0  0  0  0  0  0  0  0  0  0  0  0  # atno 17370 bound_to 10713
  156.8698  130.9520  151.3610 LP  0  0  0  0  0  0  0  0  0  0  0  0  # atno 17371 bound_to 10713
  140.8549  134.2910  157.5260 LP  0  0  0  0  0  0  0  0  0  0  0  0  # atno 17394 bound_to 11000
  139.8713  134.9487  156.4005 LP  0  0  0  0  0  0  0  0  0  0  0  0  # atno 17395 bound_to 11000

$$$$
