AV-unprocessed.smi:255|AV-procd|sdf|1955|dock7
  -GOLD-   2262021 93D 1   1.00000     0.00000
 Structure written by MMmdl.
 44 47  0  0  0  0  0  0  0  0  1 V2000
  154.4545  139.4925  160.0725 O   0  0  0  0  0  0  0  0  0  0  0  0
  153.1673  139.6320  159.5090 C   0  0  0  0  0  0  0  0  0  0  0  0
  152.8883  141.1050  159.1548 C   0  0  2  0  0  0  0  0  0  0  0  0
  152.9648  142.0377  160.3633 C   0  0  0  0  0  0  0  0  0  0  0  0
  152.2008  143.2681  159.8793 C   0  0  1  0  0  0  0  0  0  0  0  0
  153.0280  144.0710  159.2087 F   0  0  0  0  0  0  0  0  0  0  0  0
  151.1539  142.7016  158.9104 C   0  0  0  0  0  0  0  0  0  0  0  0
  151.5351  141.3167  158.6500 N   0  0  0  0  0  0  0  0  0  0  0  0
  151.2922  140.8967  157.3891 C   0  0  0  0  0  0  0  0  0  0  0  0
  152.2430  140.2117  156.7005 N   0  0  0  0  0  0  0  0  0  0  0  0
  151.9919  139.7936  155.4561 C   0  0  0  0  0  0  0  0  0  0  0  0
  150.8842  139.9548  154.7281 N   0  0  0  0  0  0  0  0  0  0  0  0
  149.9331  140.6484  155.4180 C   0  0  0  0  0  0  0  0  0  0  0  0
  150.0553  141.1509  156.7432 C   0  0  0  0  0  0  0  0  0  0  0  0
  148.8855  141.7972  157.1203 N   0  0  0  0  0  0  0  0  0  0  0  0
  148.1127  141.6832  156.0743 C   0  0  0  0  0  0  0  0  0  0  0  0
  148.6644  141.0150  155.0032 N   0  0  0  0  0  0  0  0  0  0  0  0
  148.0279  140.7436  153.7231 C   0  0  0  0  0  0  0  0  0  0  0  0
  147.7446  139.2430  153.4758 C   0  0  2  0  0  0  0  0  0  0  0  0
  148.9775  138.5654  153.3009 O   0  0  0  0  0  0  0  0  0  0  0  0
  146.8854  138.9982  152.2420 C   0  0  0  0  0  0  0  0  0  0  0  0
  146.1679  137.6997  152.5845 C   0  0  0  0  0  0  0  0  0  0  0  0
  145.8720  137.8545  153.9619 O   0  0  0  0  0  0  0  0  0  0  0  0
  146.9507  138.5371  154.5951 C   0  0  0  0  0  0  0  0  0  0  0  0
  153.6209  141.4518  158.4236 H   0  0  0  0  0  0  0  0  0  0  0  0
  151.7652  143.8509  160.6914 H   0  0  0  0  0  0  0  0  0  0  0  0
  154.9540  138.8946  159.5374 H   0  0  0  0  0  0  0  0  0  0  0  0
  153.0574  138.9811  158.6407 H   0  0  0  0  0  0  0  0  0  0  0  0
  152.4539  139.2882  160.2584 H   0  0  0  0  0  0  0  0  0  0  0  0
  152.4469  141.5943  161.2152 H   0  0  0  0  0  0  0  0  0  0  0  0
  153.9879  142.2606  160.6682 H   0  0  0  0  0  0  0  0  0  0  0  0
  150.1699  142.6978  159.3797 H   0  0  0  0  0  0  0  0  0  0  0  0
  151.0816  143.3024  158.0022 H   0  0  0  0  0  0  0  0  0  0  0  0
  152.7931  139.2521  154.9751 H   0  0  0  0  0  0  0  0  0  0  0  0
  147.1120  142.0895  156.0535 H   0  0  0  0  0  0  0  0  0  0  0  0
  147.0979  141.3115  153.6785 H   0  0  0  0  0  0  0  0  0  0  0  0
  148.6659  141.1430  152.9335 H   0  0  0  0  0  0  0  0  0  0  0  0
  148.8156  137.7700  152.8168 H   0  0  0  0  0  0  0  0  0  0  0  0
  146.1456  139.7921  152.1322 H   0  0  0  0  0  0  0  0  0  0  0  0
  147.4540  138.9437  151.3129 H   0  0  0  0  0  0  0  0  0  0  0  0
  145.2648  137.5461  151.9937 H   0  0  0  0  0  0  0  0  0  0  0  0
  146.8241  136.8396  152.4440 H   0  0  0  0  0  0  0  0  0  0  0  0
  147.5648  137.8323  155.1579 H   0  0  0  0  0  0  0  0  0  0  0  0
  146.5258  139.2414  155.3093 H   0  0  0  0  0  0  0  0  0  0  0  0
  1  2  1  0  0  0  0
  1 27  1  0  0  0  0
  2  3  1  0  0  0  0
  2 28  1  0  0  0  0
  2 29  1  0  0  0  0
  3 25  1  0  0  0  0
  3  8  1  0  0  0  0
  3  4  1  0  0  0  0
  4  5  1  0  0  0  0
  4 30  1  0  0  0  0
  4 31  1  0  0  0  0
  5 26  1  0  0  0  0
  5  6  1  0  0  0  0
  5  7  1  0  0  0  0
  7  8  1  0  0  0  0
  7 32  1  0  0  0  0
  7 33  1  0  0  0  0
  8  9  1  0  0  0  0
  9 14  1  0  0  0  0
  9 10  2  0  0  0  0
 10 11  1  0  0  0  0
 11 12  2  0  0  0  0
 11 34  1  0  0  0  0
 12 13  1  0  0  0  0
 13 17  1  0  0  0  0
 13 14  2  0  0  0  0
 14 15  1  0  0  0  0
 15 16  2  0  0  0  0
 16 17  1  0  0  0  0
 16 35  1  0  0  0  0
 17 18  1  0  0  0  0
 18 19  1  0  0  0  0
 18 36  1  0  0  0  0
 18 37  1  0  0  0  0
 19 24  1  0  0  0  0
 19 20  1  0  0  0  0
 19 21  1  0  0  0  0
 20 38  1  0  0  0  0
 21 22  1  0  0  0  0
 21 39  1  0  0  0  0
 21 40  1  0  0  0  0
 22 23  1  0  0  0  0
 22 41  1  0  0  0  0
 22 42  1  0  0  0  0
 23 24  1  0  0  0  0
 24 43  1  0  0  0  0
 24 44  1  0  0  0  0
M  END
> <s_m_source_file>
AV-unprocessed.smi

> <i_m_source_file_index>
255

> <i_lp_mmshare_version>
43012

> <i_f3d_flags>
0

> <s_epik_input>
W09IXVtDSDJdW0NAQEhdMVtDSDJdW0NASF0oRilbQ0gyXU4xYyhuW2NIXW4yKWMoYzIzKW5bY0hdbjNbQ0gyXVtDQEBdNChbT0hdKVtDSDJdW0NIMl1PW0NIMl00

> <s_epik_cmdline>
J2VwaWtfcHl0aG9uJywgJy1waCcsICc3LjAnLCAnLXRuJywgJzgnLCAnLW1hJywgJzIwMCcsICctbWV0YWxfYmluZGluZycsICctaW1hZScsICc8aW5maWxlLm1hZT4nLCAnLW9tYWUnLCAnPG91dGZpbGUubWFlPic=

> <r_lp_tautomer_probability>
1

> <r_epik_Ionization_Penalty>
0.0058098

> <r_epik_Ionization_Penalty_Charging>
0

> <r_epik_Ionization_Penalty_Neutral>
0.0058098

> <r_epik_State_Penalty>
0.00411166

> <r_epik_Charging_Adjusted_Penalty>
0.00411166

> <i_epik_Tot_Q>
0

> <i_epik_Tot_abs_Q>
0

> <r_epik_Metal_State_Penalty>
-0

> <b_epik_Metal_Only>
0

> <s_lp_Force_Field>
OPLS_2005

> <r_lp_Energy>
53.8685

> <b_lp_Chiralities_Consistent>
1

> <s_lp_Variant>
AV-unprocessed.smi:255-7

> <Gold.Version>
5.8.1

> <Gold.Id.Protein>
6NUR|6NUR_protein|mol2

> <Gold.PLP.Fitness>
49.1266

> <Gold.PLP.PLP>
-42.2932

> <Gold.PLP.part.hbond>
-3.8296

> <Gold.PLP.part.metal>
0.0000

> <Gold.PLP.part.buried>
-1.8583

> <Gold.PLP.part.nonpolar>
-35.9762

> <Gold.PLP.part.repulsive>
0.3341

> <Gold.PLP.ligand.clash>
0.0000

> <Gold.PLP.ligand.torsion>
0.2993

> <Gold.PLP.Chemscore.Hbond>
2.4484

> <Gold.PLP.Chemscore.CHOScore>
0.0000

> <Gold.PLP.Chemscore.Metal>
0.0000

> <Gold.Chemscore.Hbonds>
donor molecule, donor type, donor heavy atom, donor atom, acceptor molecule, acceptor atom, score
      L1  H    20    38       P1  7948  1.00
      P1  H  7989  7998       L1    12  0.75
      P1  H  7997  8010       L1    10  0.65

> <Gold.PLP.Chemscore.Internal.Correction>
0.0867

> <Gold.Rescore>
     Score         DG    S(hbond)    S(metal)    S(lipo)     H(rot)  DE(clash)    DE(int)     intcor
      9.93     -10.45       1.20        0.00      80.89       3.33       0.36       0.16       ----

> <Gold.Chemscore.Fitness>
9.9297

> <Gold.Chemscore.DG>
-10.4491

> <Gold.Chemscore.ZeroCoef>
-5.4800

> <Gold.Chemscore.Hbond>
1.2045

> <Gold.Chemscore.Metal>
0.0000

> <Gold.Chemscore.Lipo>
80.8880

> <Gold.Chemscore.Internal_Hbond>
0.0000

> <Gold.Chemscore.DEClash>
0.3597

> <Gold.Chemscore.DEInternal>
0.1597

> <Gold.Chemscore.Rot>
3.3273

> <Gold.Chemscore.Internal.Correction>
   9.000000E+99

> <Gold.Chemscore.Hbonds>
donor molecule, donor type, donor heavy atom, donor atom, acceptor molecule, acceptor atom, score
      L1  H    20    38       P1  7948  1.00
      P1  H  7989  7998       L1    12  0.08
      P1  H  7997  8010       L1    10  0.12

> <Gold.Chemscore.Hbond.Weighted>
-4.0232

> <Gold.Chemscore.Metal.Weighted>
-0.0000

> <Gold.Chemscore.Lipo.Weighted>
-9.4639

> <Gold.Chemscore.Internal_Hbond.Weighted>
0.0000

> <Gold.Chemscore.DEClash.Weighted>
0.3597

> <Gold.Chemscore.DEInternal.Weighted>
0.1597

> <Gold.Chemscore.Rot.Weighted>
8.5179

> <Gold.Chemscore.Internal.Correction.Weighted>
   9.000000E+99

> <Gold.Protein.RotatedTorsions>
[ 6907 6896 6895 6894 ] final  129.71 input  -60.11 | X-H torsion
[ 7974 7965 7964 7962 ] final   74.90 input  175.53 | X-H torsion
[ 8008 7997 7996 7995 ] final   58.89 input   59.86 | X-H torsion
[ 10167 10162 10161 10158 ] final  -38.25 input  -65.29 | X-H torsion
[ 10718 10713 10712 10709 ] final  107.95 input   66.30 | X-H torsion
[ 10763 10752 10751 10750 ] final  -75.78 input  -60.55 | X-H torsion
[ 11005 11000 10999 10996 ] final  -36.15 input  -57.11 | X-H torsion

> <Gold.Protein.ActiveResidues>
 VAL166  LYS551  ARG553  GLY616  TRP617  ASP618  TYR619  PRO620  LYS621  CYS622 
 ASP623  PHE694  ASN695  SER759  ASP760  ASP761  ALA762  ILE779  LEU786  VAL792 
 PHE793  MET794  SER795  GLU796  ALA797  LYS798  CYS799  TRP800  GLU811  SER814 

> <Gold.Protein.RotatedAtoms>
  152.3598  133.6282  159.6005 H   0  0  0  0  0  0  0  0  0  0  0  0  # atno 6907 bound_to 6896
  150.7593  133.9442  159.3474 H   0  0  0  0  0  0  0  0  0  0  0  0  # atno 6908 bound_to 6896
  151.7282  135.0881  160.0347 H   0  0  0  0  0  0  0  0  0  0  0  0  # atno 6909 bound_to 6896
  145.7224  139.2653  143.1588 H   0  0  0  0  0  0  0  0  0  0  0  0  # atno 7974 bound_to 7965
  155.5574  140.3487  155.4483 H   0  0  0  0  0  0  0  0  0  0  0  0  # atno 8008 bound_to 7997
  156.0539  140.1324  157.0044 H   0  0  0  0  0  0  0  0  0  0  0  0  # atno 8009 bound_to 7997
  154.4447  140.0999  156.6402 H   0  0  0  0  0  0  0  0  0  0  0  0  # atno 8010 bound_to 7997
  140.7097  143.3289  151.2615 H   0  0  0  0  0  0  0  0  0  0  0  0  # atno 10167 bound_to 10162
  157.6607  131.0883  150.6233 H   0  0  0  0  0  0  0  0  0  0  0  0  # atno 10718 bound_to 10713
  154.4911  135.5820  153.6460 H   0  0  0  0  0  0  0  0  0  0  0  0  # atno 10763 bound_to 10752
  152.9862  135.6113  154.3124 H   0  0  0  0  0  0  0  0  0  0  0  0  # atno 10764 bound_to 10752
  154.3023  135.2846  155.2584 H   0  0  0  0  0  0  0  0  0  0  0  0  # atno 10765 bound_to 10752
  140.9852  133.7034  156.1753 H   0  0  0  0  0  0  0  0  0  0  0  0  # atno 11005 bound_to 11000
  146.0613  140.7967  142.9733 LP  0  0  0  0  0  0  0  0  0  0  0  0  # atno 17320 bound_to 7965
  144.6913  140.3201  143.7233 LP  0  0  0  0  0  0  0  0  0  0  0  0  # atno 17321 bound_to 7965
  139.6765  143.9928  152.2784 LP  0  0  0  0  0  0  0  0  0  0  0  0  # atno 17342 bound_to 10162
  139.9544  144.6599  150.8140 LP  0  0  0  0  0  0  0  0  0  0  0  0  # atno 17343 bound_to 10162
  156.6536  130.4492  149.5711 LP  0  0  0  0  0  0  0  0  0  0  0  0  # atno 17370 bound_to 10713
  156.2119  130.6684  151.1278 LP  0  0  0  0  0  0  0  0  0  0  0  0  # atno 17371 bound_to 10713
  140.7125  134.4446  157.5580 LP  0  0  0  0  0  0  0  0  0  0  0  0  # atno 17394 bound_to 11000
  139.8967  134.8652  156.2074 LP  0  0  0  0  0  0  0  0  0  0  0  0  # atno 17395 bound_to 11000

$$$$
