#       Name:                AV-unprocessed.smi:2482
#       Creating user name   scv26
#       Creation time:       Fri Mar 27 13:42:10 2020


#       File generated by GOLD software.
#

@<TRIPOS>MOLECULE
AV-unprocessed.smi:2482
    40    41     1
SMALL
NO_CHARGES


@<TRIPOS>ATOM
      1 ****        -5.1957   2.5314   0.8753 C.3            1 S1                 0.0000
      2 ****        -4.4144   1.2358   0.7606 C.ar           1 S1                 0.0000
      3 ****        -5.1570   0.1097   0.6876 N.ar           1 S1                 0.0000
      4 ****        -4.5121  -1.0708   0.5921 C.ar           1 S1                 0.0000
      5 ****        -3.1095  -1.1870   0.5586 C.ar           1 S1                 0.0000
      6 ****        -2.3284  -0.0080   0.6181 C.ar           1 S1                 0.0000
      7 ****        -0.9062  -0.0110   0.6138 N.am           1 S1                 0.0000
      8 ****        -0.0619  -0.9291   0.1076 C.2            1 S1                 0.0000
      9 ****        -0.4173  -1.9669  -0.4513 O.2            1 S1                 0.0000
     10 ****         1.4326  -0.6132   0.2654 C.3            1 S1                 0.0000
     11 ****         2.3204  -1.3817  -0.7405 C.3            1 S1                 0.0000
     12 ****         3.7252  -1.0138  -0.6152 N.3            1 S1                 0.0000
     13 ****         4.5557  -1.7372  -1.5658 C.3            1 S1                 0.0000
     14 ****         3.8699   0.4278  -0.7633 C.3            1 S1                 0.0000
     15 ****         2.9884   1.1910   0.2391 C.3            1 S1                 0.0000
     16 ****         1.6312   0.7897   0.0810 O.3            1 S1                 0.0000
     17 ****        -2.9999   1.2317   0.7356 C.ar           1 S1                 0.0000
     18 ****        -2.1104   2.7145   0.8399 Cl             1 S1                 0.0000
     19 ****        -4.9681   3.1870   0.0346 H              1 S1                 0.0000
     20 ****        -4.9370   3.0504   1.7985 H              1 S1                 0.0000
     21 ****        -6.2717   2.3520   0.8801 H              1 S1                 0.0000
     22 ****        -5.1336  -1.9528   0.5483 H              1 S1                 0.0000
     23 ****        -2.6666  -2.1691   0.5022 H              1 S1                 0.0000
     24 ****        -0.4727   0.8302   0.9672 H              1 S1                 0.0000
     25 ****         1.7192  -0.8797   1.2843 H              1 S1                 0.0000
     26 ****         2.2126  -2.4553  -0.5797 H              1 S1                 0.0000
     27 ****         1.9775  -1.1829  -1.7576 H              1 S1                 0.0000
     28 ****         5.6069  -1.4784  -1.4355 H              1 S1                 0.0000
     29 ****         4.2731  -1.5046  -2.5934 H              1 S1                 0.0000
     30 ****         4.4587  -2.8138  -1.4224 H              1 S1                 0.0000
     31 ****         4.9130   0.7123  -0.6206 H              1 S1                 0.0000
     32 ****         3.6007   0.7243  -1.7783 H              1 S1                 0.0000
     33 ****         3.3138   1.0022   1.2632 H              1 S1                 0.0000
     34 ****         3.0647   2.2653   0.0708 H              1 S1                 0.0000
     35 ****        -6.1561   0.1503   0.7039 LP             1 S1                 0.0000
     36 ****        -1.3908  -2.1721  -0.5527 LP             1 S1                 0.0000
     37 ****         0.2675  -2.6047  -0.8039 LP             1 S1                 0.0000
     38 ****         4.0434  -1.2742   0.2964 LP             1 S1                 0.0000
     39 ****         1.0748   1.2801   0.7518 LP             1 S1                 0.0000
     40 ****         1.3332   1.0341  -0.8418 LP             1 S1                 0.0000
@<TRIPOS>BOND
    1    1    2 1     
    2    1   19 1     
    3    1   20 1     
    4    1   21 1     
    5    2   17 ar    
    6    2    3 ar    
    7    3    4 ar    
    8    4    5 ar    
    9    4   22 1     
   10    5    6 ar    
   11    5   23 1     
   12    6    7 1     
   13    6   17 ar    
   14    7    8 am    
   15    7   24 1     
   16    8    9 2     
   17    8   10 1     
   18   10   16 1     
   19   10   11 1     
   20   10   25 1     
   21   11   12 1     
   22   11   26 1     
   23   11   27 1     
   24   12   13 1     
   25   12   14 1     
   26   13   28 1     
   27   13   29 1     
   28   13   30 1     
   29   14   15 1     
   30   14   31 1     
   31   14   32 1     
   32   15   16 1     
   33   15   33 1     
   34   15   34 1     
   35   17   18 1     
   36    3   35 1     
   37    9   36 1     
   38    9   37 1     
   39   12   38 1     
   40   16   39 1     
   41   16   40 1     
@<TRIPOS>SUBSTRUCTURE
      1 S1             1
@<TRIPOS>SET
LONE_PAIRS      STATIC     ATOMS    <user>   **** ""
6 35 36 37 38 39 40
DONOR_HYDROGENS      STATIC     ATOMS    <user>   **** ""
1 24
ATOM$BLUE        STATIC     ATOMS    COLORGROUP SYSTEM
6 35 36 37 38 39 40
ATOM$RED        STATIC     ATOMS    COLORGROUP SYSTEM
1 24
