AV-unprocessed.smi:1007|AV-procd|sdf|4406|dock1
  -GOLD-   22720 2343D 1   1.00000     0.00000
 Structure written by MMmdl.
 57 59  0  0  0  0  0  0  0  0  3 V2000
  144.3379  133.3439  151.1115 C   0  0  0  0  0  0  0  0  0  0  0  0
  144.1995  134.6877  150.6824 O   0  0  0  0  0  0  0  0  0  0  0  0
  145.4002  135.4291  150.8205 C   0  0  0  0  0  0  0  0  0  0  0  0
  145.5995  135.7798  152.3032 C   0  0  0  0  0  0  0  0  0  0  0  0
  146.4155  137.0059  152.4953 N   0  3  2  0  0  0  0  0  0  0  0  0
  146.4678  137.4692  153.9056 C   0  0  0  0  0  0  0  0  0  0  0  0
  147.3864  138.6954  154.0556 C   0  0  0  0  0  0  0  0  0  0  0  0
  146.9677  139.7951  153.1493 N   0  3  1  0  0  0  0  0  0  0  0  0
  147.7742  141.0326  153.3066 C   0  0  0  0  0  0  0  0  0  0  0  0
  148.1994  141.2855  154.7703 C   0  0  2  0  0  0  0  0  0  0  0  0
  147.3710  142.2995  155.3053 O   0  0  0  0  0  0  0  0  0  0  0  0
  149.6777  141.7096  154.9174 C   0  0  0  0  0  0  0  0  0  0  0  0
  150.3339  141.1395  156.0830 N   0  0  0  0  0  0  0  0  0  0  0  0
  150.4457  139.8339  156.3967 C   0  0  0  0  0  0  0  0  0  0  0  0
  151.0767  139.5308  157.5268 N   0  0  0  0  0  0  0  0  0  0  0  0
  151.4254  140.7846  157.9975 C   0  0  0  0  0  0  0  0  0  0  0  0
  152.1186  141.1649  159.1671 C   0  0  0  0  0  0  0  0  0  0  0  0
  152.3679  142.5264  159.4517 C   0  0  0  0  0  0  0  0  0  0  0  0
  153.1200  142.8900  160.7200 C   0  0  0  0  0  0  0  0  0  0  0  0
  151.9208  143.5325  158.5582 C   0  0  0  0  0  0  0  0  0  0  0  0
  152.1833  145.0011  158.8402 C   0  0  0  0  0  0  0  0  0  0  0  0
  151.2240  143.1703  157.3867 C   0  0  0  0  0  0  0  0  0  0  0  0
  150.9811  141.8121  157.1147 C   0  0  0  0  0  0  0  0  0  0  0  0
  146.9156  139.3313  151.7411 C   0  0  0  0  0  0  0  0  0  0  0  0
  145.9974  138.1058  151.5916 C   0  0  0  0  0  0  0  0  0  0  0  0
  143.3935  132.8169  150.9757 H   0  0  0  0  0  0  0  0  0  0  0  0
  144.6016  133.2929  152.1687 H   0  0  0  0  0  0  0  0  0  0  0  0
  145.1016  132.8209  150.5344 H   0  0  0  0  0  0  0  0  0  0  0  0
  146.2421  134.8249  150.4785 H   0  0  0  0  0  0  0  0  0  0  0  0
  145.3761  136.3224  150.1960 H   0  0  0  0  0  0  0  0  0  0  0  0
  144.6138  135.9207  152.7496 H   0  0  0  0  0  0  0  0  0  0  0  0
  146.0591  134.9450  152.8345 H   0  0  0  0  0  0  0  0  0  0  0  0
  145.4603  137.7158  154.2452 H   0  0  0  0  0  0  0  0  0  0  0  0
  146.8322  136.6728  154.5536 H   0  0  0  0  0  0  0  0  0  0  0  0
  147.3662  139.0294  155.0924 H   0  0  0  0  0  0  0  0  0  0  0  0
  148.4179  138.4150  153.8352 H   0  0  0  0  0  0  0  0  0  0  0  0
  148.6489  140.9782  152.6570 H   0  0  0  0  0  0  0  0  0  0  0  0
  147.1906  141.8865  152.9586 H   0  0  0  0  0  0  0  0  0  0  0  0
  148.0516  140.3881  155.3700 H   0  0  0  0  0  0  0  0  0  0  0  0
  147.8994  143.0672  155.4671 H   0  0  0  0  0  0  0  0  0  0  0  0
  150.2450  141.4298  154.0283 H   0  0  0  0  0  0  0  0  0  0  0  0
  149.7430  142.7960  154.9874 H   0  0  0  0  0  0  0  0  0  0  0  0
  150.0320  139.0624  155.7635 H   0  0  0  0  0  0  0  0  0  0  0  0
  152.4604  140.3981  159.8469 H   0  0  0  0  0  0  0  0  0  0  0  0
  154.0422  143.4188  160.4784 H   0  0  0  0  0  0  0  0  0  0  0  0
  153.3844  142.0020  161.2949 H   0  0  0  0  0  0  0  0  0  0  0  0
  152.5100  143.5306  161.3568 H   0  0  0  0  0  0  0  0  0  0  0  0
  151.7633  145.6374  158.0608 H   0  0  0  0  0  0  0  0  0  0  0  0
  153.2552  145.1937  158.8876 H   0  0  0  0  0  0  0  0  0  0  0  0
  151.7361  145.2955  159.7899 H   0  0  0  0  0  0  0  0  0  0  0  0
  150.8795  143.9279  156.6987 H   0  0  0  0  0  0  0  0  0  0  0  0
  146.5466  140.1345  151.1018 H   0  0  0  0  0  0  0  0  0  0  0  0
  147.9235  139.0905  151.3992 H   0  0  0  0  0  0  0  0  0  0  0  0
  146.0231  137.7626  150.5566 H   0  0  0  0  0  0  0  0  0  0  0  0
  144.9641  138.3821  151.8091 H   0  0  0  0  0  0  0  0  0  0  0  0
  146.0211  140.0468  153.3986 H   0  0  0  0  0  0  0  0  0  0  0  0
  147.3582  136.7611  152.2257 H   0  0  0  0  0  0  0  0  0  0  0  0
  1  2  1  0  0  0  0
  1 26  1  0  0  0  0
  1 27  1  0  0  0  0
  1 28  1  0  0  0  0
  2  3  1  0  0  0  0
  3  4  1  0  0  0  0
  3 29  1  0  0  0  0
  3 30  1  0  0  0  0
  4  5  1  0  0  0  0
  4 31  1  0  0  0  0
  4 32  1  0  0  0  0
  5 25  1  0  0  0  0
  5  6  1  0  0  0  0
  5 57  1  0  0  0  0
  6  7  1  0  0  0  0
  6 33  1  0  0  0  0
  6 34  1  0  0  0  0
  7  8  1  0  0  0  0
  7 35  1  0  0  0  0
  7 36  1  0  0  0  0
  8  9  1  0  0  0  0
  8 24  1  0  0  0  0
  8 56  1  0  0  0  0
  9 10  1  0  0  0  0
  9 37  1  0  0  0  0
  9 38  1  0  0  0  0
 10 11  1  0  0  0  0
 10 12  1  0  0  0  0
 10 39  1  0  0  0  0
 11 40  1  0  0  0  0
 12 13  1  0  0  0  0
 12 41  1  0  0  0  0
 12 42  1  0  0  0  0
 13 23  1  0  0  0  0
 13 14  1  0  0  0  0
 14 15  2  0  0  0  0
 14 43  1  0  0  0  0
 15 16  1  0  0  0  0
 16 23  2  0  0  0  0
 16 17  1  0  0  0  0
 17 18  2  0  0  0  0
 17 44  1  0  0  0  0
 18 19  1  0  0  0  0
 18 20  1  0  0  0  0
 19 45  1  0  0  0  0
 19 46  1  0  0  0  0
 19 47  1  0  0  0  0
 20 21  1  0  0  0  0
 20 22  2  0  0  0  0
 21 48  1  0  0  0  0
 21 49  1  0  0  0  0
 21 50  1  0  0  0  0
 22 23  1  0  0  0  0
 22 51  1  0  0  0  0
 24 25  1  0  0  0  0
 24 52  1  0  0  0  0
 24 53  1  0  0  0  0
 25 54  1  0  0  0  0
 25 55  1  0  0  0  0
M  CHG  1   5   1
M  CHG  1   8   1
M  END
> <s_m_source_file>
AV-unprocessed.smi

> <i_m_source_file_index>
1007

> <i_lp_mmshare_version>
43012

> <i_f3d_flags>
0

> <s_epik_input>
W0NIM11PW0NIMl1bQ0gyXU4xW0NIMl1bQ0gyXU4oW0NIMl1bQ0gyXTEpW0NIMl1bQ0BIXShbT0hdKVtDSDJdbihbY0hdbjIpYyhjMjMpW2NIXWMoW0NIM10pYyhbY0hdMylbQ0gzXQ==

> <s_epik_cmdline>
J2VwaWtfcHl0aG9uJywgJy1waCcsICc3LjAnLCAnLXRuJywgJzgnLCAnLW1hJywgJzIwMCcsICctbWV0YWxfYmluZGluZycsICctaW1hZScsICc8aW5maWxlLm1hZT4nLCAnLW9tYWUnLCAnPG91dGZpbGUubWFlPic=

> <r_epik_Ionization_Penalty>
3.88944

> <r_epik_Ionization_Penalty_Charging>
3.80608

> <r_epik_Ionization_Penalty_Neutral>
0.0833653

> <r_epik_State_Penalty>
2.70739

> <r_epik_Charging_Adjusted_Penalty>
6.51347

> <i_epik_Tot_Q>
2

> <i_epik_Tot_abs_Q>
2

> <r_epik_Metal_State_Penalty>
2.62239

> <b_epik_Metal_Only>
0

> <s_lp_Force_Field>
OPLS_2005

> <r_lp_Energy>
26.7916

> <b_lp_Chiralities_Consistent>
1

> <s_lp_Variant>
AV-unprocessed.smi:1007-9

> <Gold.Version>
5.8.1

> <Gold.Id.Protein>
6NUR|6NUR_protein|mol2

> <Gold.PLP.Fitness>
55.9691

> <Gold.PLP.PLP>
-50.1409

> <Gold.PLP.part.hbond>
-2.0852

> <Gold.PLP.part.metal>
0.0000

> <Gold.PLP.part.buried>
1.0877

> <Gold.PLP.part.nonpolar>
-48.9039

> <Gold.PLP.part.repulsive>
0.2663

> <Gold.PLP.ligand.clash>
0.0000

> <Gold.PLP.ligand.torsion>
1.6481

> <Gold.PLP.Chemscore.Hbond>
3.0000

> <Gold.PLP.Chemscore.CHOScore>
0.0000

> <Gold.PLP.Chemscore.Metal>
0.0000

> <Gold.Chemscore.Hbonds>
donor molecule, donor type, donor heavy atom, donor atom, acceptor molecule, acceptor atom, score
      L1  H     5    57       P1  7948  2.00
      L1  H    11    40       P1  8028  1.00

> <Gold.PLP.Chemscore.Internal.Correction>
0.1243

> <Gold.Rescore>
     Score         DG    S(hbond)    S(metal)    S(lipo)     H(rot)  DE(clash)    DE(int)     intcor
     18.36     -21.87       1.74        0.00     147.92       2.63       1.99       1.53       ----

> <Gold.Chemscore.Fitness>
18.3569

> <Gold.Chemscore.DG>
-21.8692

> <Gold.Chemscore.ZeroCoef>
-5.4800

> <Gold.Chemscore.Hbond>
1.7449

> <Gold.Chemscore.Metal>
0.0000

> <Gold.Chemscore.Lipo>
147.9152

> <Gold.Chemscore.Internal_Hbond>
0.0000

> <Gold.Chemscore.DEClash>
1.9854

> <Gold.Chemscore.DEInternal>
1.5269

> <Gold.Chemscore.Rot>
2.6347

> <Gold.Chemscore.Internal.Correction>
   9.000000E+99

> <Gold.Chemscore.Hbonds>
donor molecule, donor type, donor heavy atom, donor atom, acceptor molecule, acceptor atom, score
      L1  H     5    57       P1  7948  1.00
      L1  H    11    40       P1  8028  0.70

> <Gold.Chemscore.Hbond.Weighted>
-5.8279

> <Gold.Chemscore.Metal.Weighted>
-0.0000

> <Gold.Chemscore.Lipo.Weighted>
-17.3061

> <Gold.Chemscore.Internal_Hbond.Weighted>
0.0000

> <Gold.Chemscore.DEClash.Weighted>
1.9854

> <Gold.Chemscore.DEInternal.Weighted>
1.5269

> <Gold.Chemscore.Rot.Weighted>
6.7448

> <Gold.Chemscore.Internal.Correction.Weighted>
   9.000000E+99

> <Gold.Protein.RotatedTorsions>
[ 6907 6896 6895 6894 ] final -109.56 input  -60.11 | X-H torsion
[ 7974 7965 7964 7962 ] final -111.59 input  175.53 | X-H torsion
[ 8008 7997 7996 7995 ] final  126.57 input   59.86 | X-H torsion
[ 10167 10162 10161 10158 ] final -167.13 input  -65.29 | X-H torsion
[ 10718 10713 10712 10709 ] final  116.01 input   66.30 | X-H torsion
[ 10763 10752 10751 10750 ] final   22.94 input  -60.55 | X-H torsion
[ 11005 11000 10999 10996 ] final  141.56 input  -57.11 | X-H torsion

> <Gold.Protein.ActiveResidues>
 VAL166  LYS551  ARG553  GLY616  TRP617  ASP618  TYR619  PRO620  LYS621  CYS622 
 ASP623  PHE694  ASN695  SER759  ASP760  ASP761  ALA762  ILE779  LEU786  VAL792 
 PHE793  MET794  SER795  GLU796  ALA797  LYS798  CYS799  TRP800  GLU811  SER814 

> <Gold.Protein.RotatedAtoms>
  150.7569  133.9512  159.3485 H   0  0  0  0  0  0  0  0  0  0  0  0  # atno 6907 bound_to 6896
  151.7429  135.0848  160.0328 H   0  0  0  0  0  0  0  0  0  0  0  0  # atno 6908 bound_to 6896
  152.3516  133.6150  159.5985 H   0  0  0  0  0  0  0  0  0  0  0  0  # atno 6909 bound_to 6896
  145.1542  140.8845  143.3628 H   0  0  0  0  0  0  0  0  0  0  0  0  # atno 7974 bound_to 7965
  156.2867  140.2689  156.2132 H   0  0  0  0  0  0  0  0  0  0  0  0  # atno 8008 bound_to 7997
  155.0243  140.0386  157.2468 H   0  0  0  0  0  0  0  0  0  0  0  0  # atno 8009 bound_to 7997
  154.7408  140.2724  155.6380 H   0  0  0  0  0  0  0  0  0  0  0  0  # atno 8010 bound_to 7997
  139.6069  144.0894  152.1802 H   0  0  0  0  0  0  0  0  0  0  0  0  # atno 10167 bound_to 10162
  157.6187  131.1020  150.7412 H   0  0  0  0  0  0  0  0  0  0  0  0  # atno 10718 bound_to 10713
  153.0877  135.6637  153.9917 H   0  0  0  0  0  0  0  0  0  0  0  0  # atno 10763 bound_to 10752
  153.9522  135.2983  155.3439 H   0  0  0  0  0  0  0  0  0  0  0  0  # atno 10764 bound_to 10752
  154.7287  135.5132  153.9001 H   0  0  0  0  0  0  0  0  0  0  0  0  # atno 10765 bound_to 10752
  140.0411  134.9304  157.0844 H   0  0  0  0  0  0  0  0  0  0  0  0  # atno 11005 bound_to 11000
  145.0399  139.3269  143.5982 LP  0  0  0  0  0  0  0  0  0  0  0  0  # atno 17320 bound_to 7965
  146.3491  139.9768  142.8700 LP  0  0  0  0  0  0  0  0  0  0  0  0  # atno 17321 bound_to 7965
  140.0503  144.5938  150.7341 LP  0  0  0  0  0  0  0  0  0  0  0  0  # atno 17342 bound_to 10162
  140.7291  143.2669  151.4014 LP  0  0  0  0  0  0  0  0  0  0  0  0  # atno 17343 bound_to 10162
  156.7774  130.4848  149.5407 LP  0  0  0  0  0  0  0  0  0  0  0  0  # atno 17370 bound_to 10713
  156.1321  130.6185  151.0348 LP  0  0  0  0  0  0  0  0  0  0  0  0  # atno 17371 bound_to 10713
  140.4068  134.2023  155.7163 LP  0  0  0  0  0  0  0  0  0  0  0  0  # atno 17394 bound_to 11000
  141.1883  133.8263  157.0999 LP  0  0  0  0  0  0  0  0  0  0  0  0  # atno 17395 bound_to 11000

$$$$
