#       Name:                AV-unprocessed.smi:72
#       Creating user name   scv26
#       Creation time:       Thu Mar 26 17:02:49 2020


#       File generated by GOLD software.
#

@<TRIPOS>MOLECULE
AV-unprocessed.smi:72
    41    42     1
SMALL
NO_CHARGES


@<TRIPOS>ATOM
      1 ****        -5.0043  -0.2209   0.6411 N.pl3          1 S1                 0.0000
      2 ****        -3.6546  -0.4985   0.7014 C.2            1 S1                 0.0000
      3 ****        -2.7852   0.4109   0.1260 N.pl3          1 S1                 1.0000
      4 ****        -1.4516   0.2878   0.0999 C.2            1 S1                 0.0000
      5 ****        -0.8942  -0.7675   0.6532 N.am           1 S1                 0.0000
      6 ****         0.6032  -0.9202   0.6274 C.3            1 S1                 0.0000
      7 ****         1.1551   0.3067   0.9883 O.3            1 S1                 0.0000
      8 ****         2.3566   0.4933   0.2523 C.3            1 S1                 0.0000
      9 ****         2.8289   1.9572   0.3056 C.3            1 S1                 0.0000
     10 ****         4.0855   2.0850  -0.3245 O.3            1 S1                 0.0000
     11 ****         2.0181  -0.0862  -1.1296 C.3            1 S1                 0.0000
     12 ****         1.3432   0.8672  -1.9334 O.3            1 S1                 0.0000
     13 ****         1.1383  -1.2852  -0.7735 C.3            1 S1                 0.0000
     14 ****         0.1483  -1.5688  -1.7493 O.3            1 S1                 0.0000
     15 ****        -1.7030  -1.7580   1.2673 C.2            1 S1                 0.0000
     16 ****        -1.1981  -2.7573   1.7770 O.2            1 S1                 0.0000
     17 ****        -3.0884  -1.5387   1.2485 N.2            1 S1                 0.0000
     18 ****         0.8804  -1.6541   1.3846 H              1 S1                 0.0000
     19 ****         3.1147  -0.1382   0.7203 H              1 S1                 0.0000
     20 ****         2.9174  -0.3955  -1.6634 H              1 S1                 0.0000
     21 ****         1.7668  -2.1691  -0.6555 H              1 S1                 0.0000
     22 ****        -5.7109  -0.8269   1.0340 H              1 S1                 0.0000
     23 ****        -5.3935   0.6004   0.2009 H              1 S1                 0.0000
     24 ****        -0.8459   1.0507  -0.3717 H              1 S1                 0.0000
     25 ****         2.1113   2.6333  -0.1594 H              1 S1                 0.0000
     26 ****         2.9346   2.2746   1.3433 H              1 S1                 0.0000
     27 ****         4.3652   2.9857  -0.2606 H              1 S1                 0.0000
     28 ****         0.5706   1.1558  -1.4742 H              1 S1                 0.0000
     29 ****         0.5814  -1.7510  -2.5701 H              1 S1                 0.0000
     30 ****        -3.1910   1.2285  -0.3064 H              1 S1                 0.0000
     31 ****         1.3552   0.3117   1.9681 LP             1 S1                 0.0000
     32 ****         0.5115   1.0419   0.7758 LP             1 S1                 0.0000
     33 ****         4.0079   1.8239  -1.2867 LP             1 S1                 0.0000
     34 ****         4.7515   1.4926   0.1290 LP             1 S1                 0.0000
     35 ****         1.0816   0.4493  -2.8034 LP             1 S1                 0.0000
     36 ****         1.9439   1.6479  -2.1058 LP             1 S1                 0.0000
     37 ****        -0.4574  -0.7802  -1.8549 LP             1 S1                 0.0000
     38 ****        -0.3869  -2.3646  -1.4659 LP             1 S1                 0.0000
     39 ****        -0.2056  -2.8792   1.7618 LP             1 S1                 0.0000
     40 ****        -1.7801  -3.4478   2.2066 LP             1 S1                 0.0000
     41 ****        -3.6778  -2.2212   1.6807 LP             1 S1                 0.0000
@<TRIPOS>BOND
    1    1    2 1     
    2    1   22 1     
    3    1   23 1     
    4    2   17 2     
    5    2    3 1     
    6    3    4 2     
    7    3   30 1     
    8    4    5 1     
    9    4   24 1     
   10    5    6 1     
   11    5   15 am    
   12    6   18 1     
   13    6   13 1     
   14    6    7 1     
   15    7    8 1     
   16    8   19 1     
   17    8    9 1     
   18    8   11 1     
   19    9   10 1     
   20    9   25 1     
   21    9   26 1     
   22   10   27 1     
   23   11   20 1     
   24   11   12 1     
   25   11   13 1     
   26   12   28 1     
   27   13   21 1     
   28   13   14 1     
   29   14   29 1     
   30   15   16 2     
   31   15   17 1     
   32    7   31 1     
   33    7   32 1     
   34   10   33 1     
   35   10   34 1     
   36   12   35 1     
   37   12   36 1     
   38   14   37 1     
   39   14   38 1     
   40   16   39 1     
   41   16   40 1     
   42   17   41 1     
@<TRIPOS>SUBSTRUCTURE
      1 S1             1
@<TRIPOS>SET
LONE_PAIRS      STATIC     ATOMS    <user>   **** ""
11 31 32 33 34 35 36 37 38 39 40 41
DONOR_HYDROGENS      STATIC     ATOMS    <user>   **** ""
6 22 23 30 27 28 29
ATOM$BLUE        STATIC     ATOMS    COLORGROUP SYSTEM
11 31 32 33 34 35 36 37 38 39 40 41
ATOM$RED        STATIC     ATOMS    COLORGROUP SYSTEM
6 22 23 30 27 28 29
