AV-unprocessed.smi:2124|AV-procd|sdf|8653|dock7
  -GOLD-   2272011403D 1   1.00000     0.00000
 Structure written by MMmdl.
 47 49  0  0  0  0  0  0  0  0  1 V2000
  147.1029  134.6053  155.1617 C   0  0  0  0  0  0  0  0  0  0  0  0
  148.2327  135.4452  155.7189 C   0  0  0  0  0  0  0  0  0  0  0  0
  148.2093  136.0045  156.8839 N   0  0  0  0  0  0  0  0  0  0  0  0
  149.3167  136.7624  157.2897 C   0  0  0  0  0  0  0  0  0  0  0  0
  149.2108  137.3955  158.6665 C   0  0  0  0  0  0  0  0  0  0  0  0
  150.4118  136.9148  156.4887 C   0  0  0  0  0  0  0  0  0  0  0  0
  151.6326  137.7377  156.8988 C   0  0  0  0  0  0  0  0  0  0  0  0
  151.5972  139.2258  156.5408 C   0  0  0  0  0  0  0  0  0  0  0  0
  151.6597  139.5884  155.3658 O   0  0  0  0  0  0  0  0  0  0  0  0
  151.4886  140.0726  157.5783 N   0  0  0  0  0  0  0  0  0  0  0  0
  151.3989  141.5351  157.5311 C   0  0  1  0  0  0  0  0  0  0  0  0
  150.2617  141.9786  156.5890 C   0  0  0  0  0  0  0  0  0  0  0  0
  151.3079  142.1629  158.9497 C   0  0  1  0  0  0  0  0  0  0  0  0
  152.2138  141.4741  160.0022 C   0  0  0  0  0  0  0  0  0  0  0  0
  153.0262  142.6407  160.5904 C   0  0  2  0  0  0  0  0  0  0  0  0
  152.1012  143.5460  161.4237 C   0  0  0  0  0  0  0  0  0  0  0  0
  151.2636  144.2568  160.3446 C   0  0  0  0  0  0  0  0  0  0  0  0
  151.7909  143.6327  159.0380 C   0  0  1  0  0  0  0  0  0  0  0  0
  153.2768  143.4911  159.3526 C   0  0  0  0  0  0  0  0  0  0  0  0
  150.4274  136.2727  155.1605 C   0  0  0  0  0  0  0  0  0  0  0  0
  151.3566  136.3519  154.3584 O   0  0  0  0  0  0  0  0  0  0  0  0
  149.3175  135.5655  154.8519 N   0  0  0  0  0  0  0  0  0  0  0  0
  149.2782  135.1093  153.9521 H   0  0  0  0  0  0  0  0  0  0  0  0
  146.1873  135.1947  155.1097 H   0  0  0  0  0  0  0  0  0  0  0  0
  146.9212  133.7451  155.8064 H   0  0  0  0  0  0  0  0  0  0  0  0
  147.3297  134.2386  154.1595 H   0  0  0  0  0  0  0  0  0  0  0  0
  149.9514  136.9668  159.3418 H   0  0  0  0  0  0  0  0  0  0  0  0
  148.2250  137.2311  159.1031 H   0  0  0  0  0  0  0  0  0  0  0  0
  149.3734  138.4720  158.6105 H   0  0  0  0  0  0  0  0  0  0  0  0
  151.7591  137.6560  157.9786 H   0  0  0  0  0  0  0  0  0  0  0  0
  152.5406  137.3032  156.4794 H   0  0  0  0  0  0  0  0  0  0  0  0
  151.4505  139.6611  158.4997 H   0  0  0  0  0  0  0  0  0  0  0  0
  152.3356  141.8594  157.0772 H   0  0  0  0  0  0  0  0  0  0  0  0
  150.3047  143.0470  156.3819 H   0  0  0  0  0  0  0  0  0  0  0  0
  149.2795  141.7670  157.0118 H   0  0  0  0  0  0  0  0  0  0  0  0
  150.3270  141.4661  155.6287 H   0  0  0  0  0  0  0  0  0  0  0  0
  150.2695  142.1129  159.2793 H   0  0  0  0  0  0  0  0  0  0  0  0
  151.6359  140.9449  160.7609 H   0  0  0  0  0  0  0  0  0  0  0  0
  152.8899  140.7525  159.5419 H   0  0  0  0  0  0  0  0  0  0  0  0
  153.9242  142.3236  161.1214 H   0  0  0  0  0  0  0  0  0  0  0  0
  151.4860  142.9762  162.1212 H   0  0  0  0  0  0  0  0  0  0  0  0
  152.6786  144.2704  161.9993 H   0  0  0  0  0  0  0  0  0  0  0  0
  150.1920  144.1063  160.4797 H   0  0  0  0  0  0  0  0  0  0  0  0
  151.4525  145.3309  160.3617 H   0  0  0  0  0  0  0  0  0  0  0  0
  151.5675  144.2409  158.1624 H   0  0  0  0  0  0  0  0  0  0  0  0
  153.7649  144.4424  159.5728 H   0  0  0  0  0  0  0  0  0  0  0  0
  153.8419  142.9729  158.5765 H   0  0  0  0  0  0  0  0  0  0  0  0
  1  2  1  0  0  0  0
  1 24  1  0  0  0  0
  1 25  1  0  0  0  0
  1 26  1  0  0  0  0
  2 22  1  0  0  0  0
  2  3  2  0  0  0  0
  3  4  1  0  0  0  0
  4  5  1  0  0  0  0
  4  6  2  0  0  0  0
  5 27  1  0  0  0  0
  5 28  1  0  0  0  0
  5 29  1  0  0  0  0
  6  7  1  0  0  0  0
  6 20  1  0  0  0  0
  7  8  1  0  0  0  0
  7 30  1  0  0  0  0
  7 31  1  0  0  0  0
  8  9  2  0  0  0  0
  8 10  1  0  0  0  0
 10 11  1  0  0  0  0
 10 32  1  0  0  0  0
 11 12  1  0  0  0  0
 11 13  1  0  0  0  0
 11 33  1  0  0  0  0
 12 34  1  0  0  0  0
 12 35  1  0  0  0  0
 12 36  1  0  0  0  0
 13 18  1  0  0  0  0
 13 14  1  0  0  0  0
 13 37  1  0  0  0  0
 14 15  1  0  0  0  0
 14 38  1  0  0  0  0
 14 39  1  0  0  0  0
 15 19  1  0  0  0  0
 15 16  1  0  0  0  0
 15 40  1  0  0  0  0
 16 17  1  0  0  0  0
 16 41  1  0  0  0  0
 16 42  1  0  0  0  0
 17 18  1  0  0  0  0
 17 43  1  0  0  0  0
 17 44  1  0  0  0  0
 18 19  1  0  0  0  0
 18 45  1  0  0  0  0
 19 46  1  0  0  0  0
 19 47  1  0  0  0  0
 20 21  2  0  0  0  0
 20 22  1  0  0  0  0
 22 23  1  0  0  0  0
M  END
> <s_m_source_file>
AV-unprocessed.smi

> <i_m_source_file_index>
2124

> <i_lp_mmshare_version>
43012

> <i_f3d_flags>
0

> <s_epik_input>
W0NIM11jMW5jKFtDSDNdKWMoYyg9TylbbkhdMSlbQ0gyXUMoPU8pW05IXVtDQEhdKFtDSDNdKVtDQEhdKFtDSDJdW0NASF0yMylbQ0BIXShbQ0gyXTMpW0NIMl1bQ0gyXTI=

> <s_epik_cmdline>
J2VwaWtfcHl0aG9uJywgJy1waCcsICc3LjAnLCAnLXRuJywgJzgnLCAnLW1hJywgJzIwMCcsICctbWV0YWxfYmluZGluZycsICctaW1hZScsICc8aW5maWxlLm1hZT4nLCAnLW9tYWUnLCAnPG91dGZpbGUubWFlPic=

> <r_lp_tautomer_probability>
0.839158

> <r_epik_Ionization_Penalty>
0.000383628

> <r_epik_Ionization_Penalty_Charging>
0.00035045

> <r_epik_Ionization_Penalty_Neutral>
3.31781e-05

> <r_epik_State_Penalty>
0.09125

> <r_epik_Charging_Adjusted_Penalty>
0.0916005

> <i_epik_Tot_Q>
0

> <i_epik_Tot_abs_Q>
0

> <r_epik_Metal_State_Penalty>
0.255229

> <b_epik_Metal_Only>
0

> <s_lp_Force_Field>
OPLS_2005

> <r_lp_Energy>
52.6925

> <b_lp_Chiralities_Consistent>
1

> <s_lp_Variant>
AV-unprocessed.smi:2124-4

> <Gold.Version>
5.8.1

> <Gold.Id.Protein>
6NUR|6NUR_protein|mol2

> <Gold.PLP.Fitness>
40.4718

> <Gold.PLP.PLP>
-34.2840

> <Gold.PLP.part.hbond>
-3.0000

> <Gold.PLP.part.metal>
0.0000

> <Gold.PLP.part.buried>
-5.8676

> <Gold.PLP.part.nonpolar>
-27.9848

> <Gold.PLP.part.repulsive>
2.8282

> <Gold.PLP.ligand.clash>
0.0000

> <Gold.PLP.ligand.torsion>
0.8314

> <Gold.PLP.Chemscore.Hbond>
2.5947

> <Gold.PLP.Chemscore.CHOScore>
0.0000

> <Gold.PLP.Chemscore.Metal>
0.0000

> <Gold.Chemscore.Hbonds>
donor molecule, donor type, donor heavy atom, donor atom, acceptor molecule, acceptor atom, score
      L1  H    22    23       P1  7948  0.09
      P1  H  7989  7998       L1     9  0.44
      P1  H 10752 10764       L1    21  1.00

> <Gold.PLP.Chemscore.Internal.Correction>
0.0665

> <Gold.Rescore>
     Score         DG    S(hbond)    S(metal)    S(lipo)     H(rot)  DE(clash)    DE(int)     intcor
     18.71     -21.92       2.48        0.00     105.89       1.65       1.86       1.34       ----

> <Gold.Chemscore.Fitness>
18.7144

> <Gold.Chemscore.DG>
-21.9171

> <Gold.Chemscore.ZeroCoef>
-5.4800

> <Gold.Chemscore.Hbond>
2.4792

> <Gold.Chemscore.Metal>
0.0000

> <Gold.Chemscore.Lipo>
105.8901

> <Gold.Chemscore.Internal_Hbond>
0.0000

> <Gold.Chemscore.DEClash>
1.8615

> <Gold.Chemscore.DEInternal>
1.3412

> <Gold.Chemscore.Rot>
1.6534

> <Gold.Chemscore.Internal.Correction>
   9.000000E+99

> <Gold.Chemscore.Hbonds>
donor molecule, donor type, donor heavy atom, donor atom, acceptor molecule, acceptor atom, score
      L1  H    22    23       P1  7948  0.03
      P1  H  7989  7998       L1     9  0.42
      P1  H 10752 10764       L1    21  1.00

> <Gold.Chemscore.Hbond.Weighted>
-8.2806

> <Gold.Chemscore.Metal.Weighted>
-0.0000

> <Gold.Chemscore.Lipo.Weighted>
-12.3891

> <Gold.Chemscore.Internal_Hbond.Weighted>
0.0000

> <Gold.Chemscore.DEClash.Weighted>
1.8615

> <Gold.Chemscore.DEInternal.Weighted>
1.3412

> <Gold.Chemscore.Rot.Weighted>
4.2326

> <Gold.Chemscore.Internal.Correction.Weighted>
   9.000000E+99

> <Gold.Protein.RotatedTorsions>
[ 6907 6896 6895 6894 ] final  119.04 input  -60.11 | X-H torsion
[ 7974 7965 7964 7962 ] final -170.64 input  175.53 | X-H torsion
[ 8008 7997 7996 7995 ] final  131.16 input   59.86 | X-H torsion
[ 10167 10162 10161 10158 ] final   40.90 input  -65.29 | X-H torsion
[ 10718 10713 10712 10709 ] final   49.23 input   66.30 | X-H torsion
[ 10763 10752 10751 10750 ] final  -78.07 input  -60.55 | X-H torsion
[ 11005 11000 10999 10996 ] final  142.87 input  -57.11 | X-H torsion

> <Gold.Protein.ActiveResidues>
 VAL166  LYS551  ARG553  GLY616  TRP617  ASP618  TYR619  PRO620  LYS621  CYS622 
 ASP623  PHE694  ASN695  SER759  ASP760  ASP761  ALA762  ILE779  LEU786  VAL792 
 PHE793  MET794  SER795  GLU796  ALA797  LYS798  CYS799  TRP800  GLU811  SER814 

> <Gold.Protein.RotatedAtoms>
  152.4500  133.7611  159.6746 H   0  0  0  0  0  0  0  0  0  0  0  0  # atno 6907 bound_to 6896
  150.8410  133.7926  159.3067 H   0  0  0  0  0  0  0  0  0  0  0  0  # atno 6908 bound_to 6896
  151.5551  135.1069  160.0011 H   0  0  0  0  0  0  0  0  0  0  0  0  # atno 6909 bound_to 6896
  144.7167  140.2041  143.6335 H   0  0  0  0  0  0  0  0  0  0  0  0  # atno 7974 bound_to 7965
  156.2966  140.2578  156.2881 H   0  0  0  0  0  0  0  0  0  0  0  0  # atno 8008 bound_to 7997
  154.9537  140.0394  157.2175 H   0  0  0  0  0  0  0  0  0  0  0  0  # atno 8009 bound_to 7997
  154.8012  140.2828  155.5924 H   0  0  0  0  0  0  0  0  0  0  0  0  # atno 8010 bound_to 7997
  140.3697  144.2121  150.6133 H   0  0  0  0  0  0  0  0  0  0  0  0  # atno 10167 bound_to 10162
  157.4766  130.8288  149.8046 H   0  0  0  0  0  0  0  0  0  0  0  0  # atno 10718 bound_to 10713
  154.5211  135.5742  153.6682 H   0  0  0  0  0  0  0  0  0  0  0  0  # atno 10763 bound_to 10752
  152.9917  135.6182  154.2753 H   0  0  0  0  0  0  0  0  0  0  0  0  # atno 10764 bound_to 10752
  154.2673  135.2854  155.2732 H   0  0  0  0  0  0  0  0  0  0  0  0  # atno 10765 bound_to 10752
  140.0510  134.9255  157.1017 H   0  0  0  0  0  0  0  0  0  0  0  0  # atno 11005 bound_to 11000
  145.8652  139.2243  143.1693 LP  0  0  0  0  0  0  0  0  0  0  0  0  # atno 17320 bound_to 7965
  146.0136  140.8412  142.9958 LP  0  0  0  0  0  0  0  0  0  0  0  0  # atno 17321 bound_to 7965
  140.5046  143.2308  151.8628 LP  0  0  0  0  0  0  0  0  0  0  0  0  # atno 17342 bound_to 10162
  139.4805  144.5021  151.9047 LP  0  0  0  0  0  0  0  0  0  0  0  0  # atno 17343 bound_to 10162
  156.0100  130.3838  150.2298 LP  0  0  0  0  0  0  0  0  0  0  0  0  # atno 17370 bound_to 10713
  157.0483  131.0055  151.3262 LP  0  0  0  0  0  0  0  0  0  0  0  0  # atno 17371 bound_to 10713
  140.3917  134.2177  155.7166 LP  0  0  0  0  0  0  0  0  0  0  0  0  # atno 17394 bound_to 11000
  141.1930  133.8160  157.0815 LP  0  0  0  0  0  0  0  0  0  0  0  0  # atno 17395 bound_to 11000

$$$$
