AV-unprocessed.smi:767|AV-procd|sdf|3662|dock10
  -GOLD-   22720 1 73D 1   1.00000     0.00000
 Structure written by MMmdl.
 47 49  0  0  0  0  0  0  0  0  1 V2000
  145.1403  131.7622  150.8227 C   0  0  0  0  0  0  0  0  0  0  0  0
  145.0875  133.2328  151.1795 C   0  0  0  0  0  0  0  0  0  0  0  0
  143.9897  134.0275  150.7898 C   0  0  0  0  0  0  0  0  0  0  0  0
  143.9859  135.3883  151.1506 C   0  0  0  0  0  0  0  0  0  0  0  0
  145.0728  135.9006  151.8880 C   0  0  0  0  0  0  0  0  0  0  0  0
  145.0958  137.3539  152.3324 C   0  0  0  0  0  0  0  0  0  0  0  0
  146.2922  138.1538  151.7760 C   0  0  0  0  0  0  0  0  0  0  0  0
  147.4259  138.1956  152.6944 N   0  0  0  0  0  0  0  0  0  0  0  0
  147.5769  139.0683  153.6991 C   0  0  0  0  0  0  0  0  0  0  0  0
  146.7912  139.9828  153.9468 O   0  0  0  0  0  0  0  0  0  0  0  0
  148.6748  138.8023  154.4170 N   0  0  0  0  0  0  0  0  0  0  0  0
  149.0956  139.5277  155.6169 C   0  0  1  0  0  0  0  0  0  0  0  0
  150.4887  139.0967  156.1368 C   0  0  1  0  0  0  0  0  0  0  0  0
  151.2029  137.8602  155.6503 C   0  0  0  0  0  0  0  0  0  0  0  0
  152.1088  138.3990  154.5388 C   0  0  0  0  0  0  0  0  0  0  0  0
  151.5513  139.6642  154.1860 O   0  0  0  0  0  0  0  0  0  0  0  0
  151.0655  140.2799  155.3776 C   0  0  1  0  0  0  0  0  0  0  0  0
  149.6694  140.9329  155.2943 C   0  0  0  0  0  0  0  0  0  0  0  0
  149.3022  141.5917  153.9576 C   0  0  0  0  0  0  0  0  0  0  0  0
  149.4050  141.9832  156.3776 C   0  0  0  0  0  0  0  0  0  0  0  0
  146.1273  135.0232  152.2176 C   0  0  0  0  0  0  0  0  0  0  0  0
  146.1400  133.7168  151.8754 N   0  0  0  0  0  0  0  0  0  0  0  0
  144.1354  131.3538  150.7109 H   0  0  0  0  0  0  0  0  0  0  0  0
  145.6518  131.1903  151.5978 H   0  0  0  0  0  0  0  0  0  0  0  0
  145.6746  131.6228  149.8828 H   0  0  0  0  0  0  0  0  0  0  0  0
  143.1660  133.6053  150.2331 H   0  0  0  0  0  0  0  0  0  0  0  0
  143.1546  136.0217  150.8772 H   0  0  0  0  0  0  0  0  0  0  0  0
  144.1618  137.8296  152.0321 H   0  0  0  0  0  0  0  0  0  0  0  0
  145.1142  137.3894  153.4224 H   0  0  0  0  0  0  0  0  0  0  0  0
  146.6462  137.6810  150.8597 H   0  0  0  0  0  0  0  0  0  0  0  0
  145.9848  139.1639  151.5017 H   0  0  0  0  0  0  0  0  0  0  0  0
  148.1281  137.4794  152.5804 H   0  0  0  0  0  0  0  0  0  0  0  0
  149.2500  138.0214  154.1365 H   0  0  0  0  0  0  0  0  0  0  0  0
  148.3388  139.5526  156.4034 H   0  0  0  0  0  0  0  0  0  0  0  0
  150.5614  139.2480  157.2150 H   0  0  0  0  0  0  0  0  0  0  0  0
  151.7903  137.3878  156.4381 H   0  0  0  0  0  0  0  0  0  0  0  0
  150.5107  137.1112  155.2717 H   0  0  0  0  0  0  0  0  0  0  0  0
  153.1224  138.5508  154.9122 H   0  0  0  0  0  0  0  0  0  0  0  0
  152.1583  137.7306  153.6790 H   0  0  0  0  0  0  0  0  0  0  0  0
  151.8280  140.8346  155.9264 H   0  0  0  0  0  0  0  0  0  0  0  0
  149.8379  142.5305  153.8139 H   0  0  0  0  0  0  0  0  0  0  0  0
  148.2353  141.8103  153.9022 H   0  0  0  0  0  0  0  0  0  0  0  0
  149.5468  140.9594  153.1041 H   0  0  0  0  0  0  0  0  0  0  0  0
  150.0169  142.8738  156.2312 H   0  0  0  0  0  0  0  0  0  0  0  0
  149.6304  141.6013  157.3738 H   0  0  0  0  0  0  0  0  0  0  0  0
  148.3608  142.2971  156.3834 H   0  0  0  0  0  0  0  0  0  0  0  0
  146.9782  135.3757  152.7813 H   0  0  0  0  0  0  0  0  0  0  0  0
  1  2  1  0  0  0  0
  1 23  1  0  0  0  0
  1 24  1  0  0  0  0
  1 25  1  0  0  0  0
  2 22  1  0  0  0  0
  2  3  2  0  0  0  0
  3  4  1  0  0  0  0
  3 26  1  0  0  0  0
  4  5  2  0  0  0  0
  4 27  1  0  0  0  0
  5  6  1  0  0  0  0
  5 21  1  0  0  0  0
  6  7  1  0  0  0  0
  6 28  1  0  0  0  0
  6 29  1  0  0  0  0
  7  8  1  0  0  0  0
  7 30  1  0  0  0  0
  7 31  1  0  0  0  0
  8  9  1  0  0  0  0
  8 32  1  0  0  0  0
  9 10  2  0  0  0  0
  9 11  1  0  0  0  0
 11 12  1  0  0  0  0
 11 33  1  0  0  0  0
 12 18  1  0  0  0  0
 12 13  1  0  0  0  0
 12 34  1  0  0  0  0
 13 17  1  0  0  0  0
 13 14  1  0  0  0  0
 13 35  1  0  0  0  0
 14 15  1  0  0  0  0
 14 36  1  0  0  0  0
 14 37  1  0  0  0  0
 15 16  1  0  0  0  0
 15 38  1  0  0  0  0
 15 39  1  0  0  0  0
 16 17  1  0  0  0  0
 17 18  1  0  0  0  0
 17 40  1  0  0  0  0
 18 19  1  0  0  0  0
 18 20  1  0  0  0  0
 19 41  1  0  0  0  0
 19 42  1  0  0  0  0
 19 43  1  0  0  0  0
 20 44  1  0  0  0  0
 20 45  1  0  0  0  0
 20 46  1  0  0  0  0
 21 22  2  0  0  0  0
 21 47  1  0  0  0  0
M  END
> <s_m_source_file>
AV-unprocessed.smi

> <i_m_source_file_index>
767

> <i_lp_mmshare_version>
43012

> <i_f3d_flags>
0

> <s_epik_input>
W0NIM11jMVtjSF1bY0hdYyhbY0hdbjEpW0NIMl1bQ0gyXVtOSF1DKD1PKVtOSF1bQ0BIXTJDKFtDSDNdKShbQ0gzXSlbQ0BIXShbQ0BASF0yMylPW0NIMl1bQ0gyXTM=

> <s_epik_cmdline>
J2VwaWtfcHl0aG9uJywgJy1waCcsICc3LjAnLCAnLXRuJywgJzgnLCAnLW1hJywgJzIwMCcsICctbWV0YWxfYmluZGluZycsICctaW1hZScsICc8aW5maWxlLm1hZT4nLCAnLW9tYWUnLCAnPG91dGZpbGUubWFlPic=

> <r_epik_Ionization_Penalty>
0.0567523

> <r_epik_Ionization_Penalty_Charging>
0

> <r_epik_Ionization_Penalty_Neutral>
0.0567523

> <r_epik_State_Penalty>
0.0489186

> <r_epik_Charging_Adjusted_Penalty>
0.0489186

> <i_epik_Tot_Q>
0

> <i_epik_Tot_abs_Q>
0

> <r_epik_Metal_State_Penalty>
0.044622

> <b_epik_Metal_Only>
0

> <s_lp_Force_Field>
OPLS_2005

> <r_lp_Energy>
33.3409

> <b_lp_Chiralities_Consistent>
1

> <s_lp_Variant>
AV-unprocessed.smi:767-6

> <Gold.Version>
5.8.1

> <Gold.Id.Protein>
6NUR|6NUR_protein|mol2

> <Gold.PLP.Fitness>
42.6216

> <Gold.PLP.PLP>
-34.4857

> <Gold.PLP.part.hbond>
-2.1892

> <Gold.PLP.part.metal>
0.0000

> <Gold.PLP.part.buried>
0.9273

> <Gold.PLP.part.nonpolar>
-33.6457

> <Gold.PLP.part.repulsive>
0.5117

> <Gold.PLP.ligand.clash>
0.0000

> <Gold.PLP.ligand.torsion>
0.5083

> <Gold.PLP.Chemscore.Hbond>
2.0000

> <Gold.PLP.Chemscore.CHOScore>
0.9843

> <Gold.PLP.Chemscore.Metal>
0.0000

> <Gold.Chemscore.Hbonds>
donor molecule, donor type, donor heavy atom, donor atom, acceptor molecule, acceptor atom, score
      L1  H     8    32       P1  7948  1.00
      P1  H  7989  7998       L1    16  0.46
      L1  C    21    47       P1  7948  0.89

> <Gold.PLP.Chemscore.Internal.Correction>
0.1997

> <Gold.Rescore>
     Score         DG    S(hbond)    S(metal)    S(lipo)     H(rot)  DE(clash)    DE(int)     intcor
     17.50     -19.02       1.95        0.00      91.91       1.45       0.31       1.20       ----

> <Gold.Chemscore.Fitness>
17.5035

> <Gold.Chemscore.DG>
-19.0197

> <Gold.Chemscore.ZeroCoef>
-5.4800

> <Gold.Chemscore.Hbond>
1.9454

> <Gold.Chemscore.Metal>
0.0000

> <Gold.Chemscore.Lipo>
91.9084

> <Gold.Chemscore.Internal_Hbond>
0.0000

> <Gold.Chemscore.DEClash>
0.3118

> <Gold.Chemscore.DEInternal>
1.2044

> <Gold.Chemscore.Rot>
1.4497

> <Gold.Chemscore.Internal.Correction>
   9.000000E+99

> <Gold.Chemscore.Hbonds>
donor molecule, donor type, donor heavy atom, donor atom, acceptor molecule, acceptor atom, score
      L1  H     8    32       P1  7948  0.99
      P1  H  7989  7998       L1    16  0.06

> <Gold.Chemscore.Hbond.Weighted>
-6.4977

> <Gold.Chemscore.Metal.Weighted>
-0.0000

> <Gold.Chemscore.Lipo.Weighted>
-10.7533

> <Gold.Chemscore.Internal_Hbond.Weighted>
0.0000

> <Gold.Chemscore.DEClash.Weighted>
0.3118

> <Gold.Chemscore.DEInternal.Weighted>
1.2044

> <Gold.Chemscore.Rot.Weighted>
3.7112

> <Gold.Chemscore.Internal.Correction.Weighted>
   9.000000E+99

> <Gold.Protein.RotatedTorsions>
[ 6907 6896 6895 6894 ] final -130.52 input  -60.11 | X-H torsion
[ 7974 7965 7964 7962 ] final  -70.09 input  175.53 | X-H torsion
[ 8008 7997 7996 7995 ] final  125.63 input   59.86 | X-H torsion
[ 10167 10162 10161 10158 ] final  -90.59 input  -65.29 | X-H torsion
[ 10718 10713 10712 10709 ] final  -41.00 input   66.30 | X-H torsion
[ 10763 10752 10751 10750 ] final  165.39 input  -60.55 | X-H torsion
[ 11005 11000 10999 10996 ] final   63.71 input  -57.11 | X-H torsion

> <Gold.Protein.ActiveResidues>
 VAL166  LYS551  ARG553  GLY616  TRP617  ASP618  TYR619  PRO620  LYS621  CYS622 
 ASP623  PHE694  ASN695  SER759  ASP760  ASP761  ALA762  ILE779  LEU786  VAL792 
 PHE793  MET794  SER795  GLU796  ALA797  LYS798  CYS799  TRP800  GLU811  SER814 

> <Gold.Protein.RotatedAtoms>
  150.9406  133.6661  159.2791 H   0  0  0  0  0  0  0  0  0  0  0  0  # atno 6907 bound_to 6896
  151.4051  135.0975  159.9577 H   0  0  0  0  0  0  0  0  0  0  0  0  # atno 6908 bound_to 6896
  152.5067  133.8891  159.7440 H   0  0  0  0  0  0  0  0  0  0  0  0  # atno 6909 bound_to 6896
  145.6954  140.9137  143.0759 H   0  0  0  0  0  0  0  0  0  0  0  0  # atno 7974 bound_to 7965
  156.2840  140.2712  156.1980 H   0  0  0  0  0  0  0  0  0  0  0  0  # atno 8008 bound_to 7997
  155.0390  140.0386  157.2520 H   0  0  0  0  0  0  0  0  0  0  0  0  # atno 8009 bound_to 7997
  154.7290  140.2703  155.6478 H   0  0  0  0  0  0  0  0  0  0  0  0  # atno 8010 bound_to 7997
  140.3534  143.2879  151.9699 H   0  0  0  0  0  0  0  0  0  0  0  0  # atno 10167 bound_to 10162
  156.2751  130.4211  149.8396 H   0  0  0  0  0  0  0  0  0  0  0  0  # atno 10718 bound_to 10713
  154.3233  135.2755  155.2509 H   0  0  0  0  0  0  0  0  0  0  0  0  # atno 10763 bound_to 10752
  154.4852  135.5848  153.6422 H   0  0  0  0  0  0  0  0  0  0  0  0  # atno 10764 bound_to 10752
  152.9874  135.6121  154.3419 H   0  0  0  0  0  0  0  0  0  0  0  0  # atno 10765 bound_to 10752
  140.0006  134.6448  155.9937 H   0  0  0  0  0  0  0  0  0  0  0  0  # atno 11005 bound_to 11000
  144.6984  139.8877  143.7451 LP  0  0  0  0  0  0  0  0  0  0  0  0  # atno 17320 bound_to 7965
  146.0844  139.3833  143.0444 LP  0  0  0  0  0  0  0  0  0  0  0  0  # atno 17321 bound_to 7965
  139.4823  144.6056  151.7527 LP  0  0  0  0  0  0  0  0  0  0  0  0  # atno 17342 bound_to 10162
  140.5197  144.0898  150.6019 LP  0  0  0  0  0  0  0  0  0  0  0  0  # atno 17343 bound_to 10162
  156.5863  130.8487  151.3396 LP  0  0  0  0  0  0  0  0  0  0  0  0  # atno 17370 bound_to 10713
  157.7297  130.9674  150.1797 LP  0  0  0  0  0  0  0  0  0  0  0  0  # atno 17371 bound_to 10713
  141.1639  133.6537  156.4412 LP  0  0  0  0  0  0  0  0  0  0  0  0  # atno 17394 bound_to 11000
  140.4735  134.6731  157.5139 LP  0  0  0  0  0  0  0  0  0  0  0  0  # atno 17395 bound_to 11000

$$$$
