#       Name:                AV-unprocessed.smi:1762
#       Creating user name   scv26
#       Creation time:       Fri Mar 27 08:35:14 2020


#       File generated by GOLD software.
#

@<TRIPOS>MOLECULE
AV-unprocessed.smi:1762
    58    59     1
SMALL
NO_CHARGES


@<TRIPOS>ATOM
      1 ****        -5.4626   0.4064   0.7182 C.3            1 S1                 0.0000
      2 ****        -3.9785   0.0520   0.8599 C.3            1 S1                 0.0000
      3 ****        -3.1195   0.7090  -0.2391 C.3            1 S1                 0.0000
      4 ****        -1.6774   0.3894  -0.0563 N.4            1 S1                 1.0000
      5 ****        -1.2406  -1.0045  -0.4281 C.3            1 S1                 0.0000
      6 ****         0.2993  -1.1728  -0.3814 C.2            1 S1                 0.0000
      7 ****         0.7541  -2.1501   0.2223 O.2            1 S1                 0.0000
      8 ****         0.9495  -0.1616  -1.0262 N.pl3          1 S1                -1.0000
      9 ****         2.4036  -0.0692  -1.1456 C.3            1 S1                 0.0000
     10 ****         3.0050   0.5999   0.1121 C.3            1 S1                 0.0000
     11 ****         4.5201   0.7698   0.0673 C.ar           1 S1                 0.0000
     12 ****         5.0947   1.9804  -0.3827 C.ar           1 S1                 0.0000
     13 ****         6.4977   2.0985  -0.3949 C.ar           1 S1                 0.0000
     14 ****         7.2741   1.0098   0.0449 C.ar           1 S1                 0.0000
     15 ****         6.6098  -0.1538   0.4804 C.ar           1 S1                 0.0000
     16 ****         5.2654  -0.2773   0.4981 N.ar           1 S1                 0.0000
     17 ****        -1.8492  -1.5527  -1.7648 C.3            1 S1                 0.0000
     18 ****        -1.4751  -3.0227  -2.0387 C.3            1 S1                 0.0000
     19 ****        -1.5540  -0.6921  -3.0109 C.3            1 S1                 0.0000
     20 ****        -1.2735   0.8277   1.3109 C.3            1 S1                 0.0000
     21 ****        -2.1728   0.2002   2.3981 C.3            1 S1                 0.0000
     22 ****        -1.8312   0.7248   3.7969 C.3            1 S1                 0.0000
     23 ****        -3.5336   0.5220   2.1282 O.3            1 S1                 0.0000
     24 ****        -5.8580   0.0648  -0.2387 H              1 S1                 0.0000
     25 ****        -5.6193   1.4837   0.7800 H              1 S1                 0.0000
     26 ****        -6.0523  -0.0618   1.5067 H              1 S1                 0.0000
     27 ****        -3.8794  -1.0338   0.8196 H              1 S1                 0.0000
     28 ****        -3.4836   0.4553  -1.2321 H              1 S1                 0.0000
     29 ****        -3.2303   1.7926  -0.1745 H              1 S1                 0.0000
     30 ****        -1.6281  -1.6616   0.3502 H              1 S1                 0.0000
     31 ****         2.8655  -1.0462  -1.2946 H              1 S1                 0.0000
     32 ****         2.6801   0.5188  -2.0211 H              1 S1                 0.0000
     33 ****         2.5518   1.5815   0.2586 H              1 S1                 0.0000
     34 ****         2.7509   0.0180   0.9996 H              1 S1                 0.0000
     35 ****         4.4735   2.7992  -0.7147 H              1 S1                 0.0000
     36 ****         6.9699   3.0083  -0.7352 H              1 S1                 0.0000
     37 ****         8.3525   1.0651   0.0487 H              1 S1                 0.0000
     38 ****         7.1731  -1.0080   0.8253 H              1 S1                 0.0000
     39 ****        -2.9312  -1.5780  -1.6415 H              1 S1                 0.0000
     40 ****        -0.4171  -3.1376  -2.2765 H              1 S1                 0.0000
     41 ****        -2.0405  -3.4179  -2.8831 H              1 S1                 0.0000
     42 ****        -1.6942  -3.6527  -1.1761 H              1 S1                 0.0000
     43 ****        -0.5049  -0.7493  -3.3008 H              1 S1                 0.0000
     44 ****        -1.7944   0.3585  -2.8519 H              1 S1                 0.0000
     45 ****        -2.1405  -1.0339  -3.8640 H              1 S1                 0.0000
     46 ****        -0.2244   0.6174   1.5162 H              1 S1                 0.0000
     47 ****        -1.3628   1.9141   1.3541 H              1 S1                 0.0000
     48 ****        -2.0573  -0.8840   2.4083 H              1 S1                 0.0000
     49 ****        -0.7981   0.4960   4.0595 H              1 S1                 0.0000
     50 ****        -2.4736   0.2700   4.5512 H              1 S1                 0.0000
     51 ****        -1.9608   1.8057   3.8565 H              1 S1                 0.0000
     52 ****        -1.1703   0.9804  -0.7007 H              1 S1                 0.0000
     53 ****         0.1334  -2.8004   0.6603 LP             1 S1                 0.0000
     54 ****         1.7428  -2.2907   0.2730 LP             1 S1                 0.0000
     55 ****         0.3975   0.5608  -1.4427 LP             1 S1                 0.0000
     56 ****         4.8312  -1.1185   0.8204 LP             1 S1                 0.0000
     57 ****        -4.1048   0.1103   2.8383 LP             1 S1                 0.0000
     58 ****        -3.6363   1.5165   2.1529 LP             1 S1                 0.0000
@<TRIPOS>BOND
    1    1    2 1     
    2    1   24 1     
    3    1   25 1     
    4    1   26 1     
    5    2   23 1     
    6    2    3 1     
    7    2   27 1     
    8    3    4 1     
    9    3   28 1     
   10    3   29 1     
   11    4    5 1     
   12    4   20 1     
   13    4   52 1     
   14    5    6 1     
   15    5   17 1     
   16    5   30 1     
   17    6    7 2     
   18    6    8 1     
   19    8    9 1     
   20    9   10 1     
   21    9   31 1     
   22    9   32 1     
   23   10   11 1     
   24   10   33 1     
   25   10   34 1     
   26   11   16 ar    
   27   11   12 ar    
   28   12   13 ar    
   29   12   35 1     
   30   13   14 ar    
   31   13   36 1     
   32   14   15 ar    
   33   14   37 1     
   34   15   16 ar    
   35   15   38 1     
   36   17   18 1     
   37   17   19 1     
   38   17   39 1     
   39   18   40 1     
   40   18   41 1     
   41   18   42 1     
   42   19   43 1     
   43   19   44 1     
   44   19   45 1     
   45   20   21 1     
   46   20   46 1     
   47   20   47 1     
   48   21   22 1     
   49   21   23 1     
   50   21   48 1     
   51   22   49 1     
   52   22   50 1     
   53   22   51 1     
   54    7   53 1     
   55    7   54 1     
   56    8   55 1     
   57   16   56 1     
   58   23   57 1     
   59   23   58 1     
@<TRIPOS>SUBSTRUCTURE
      1 S1             1
@<TRIPOS>SET
LONE_PAIRS      STATIC     ATOMS    <user>   **** ""
6 53 54 55 56 57 58
DONOR_HYDROGENS      STATIC     ATOMS    <user>   **** ""
1 52
ATOM$BLUE        STATIC     ATOMS    COLORGROUP SYSTEM
6 53 54 55 56 57 58
ATOM$RED        STATIC     ATOMS    COLORGROUP SYSTEM
1 52
