AV-unprocessed.smi:1005|AV-procd|sdf|4377|dock8
  -GOLD-   22720 2293D 1   1.00000     0.00000
 Structure written by MMmdl.
 57 59  0  0  0  0  0  0  0  0  3 V2000
  152.1388  144.3868  161.2214 C   0  0  0  0  0  0  0  0  0  0  0  0
  151.9668  143.3815  160.0954 C   0  0  0  0  0  0  0  0  0  0  0  0
  151.1157  143.7152  159.0178 C   0  0  0  0  0  0  0  0  0  0  0  0
  150.9774  142.7748  158.0039 C   0  0  0  0  0  0  0  0  0  0  0  0
  150.2223  142.8027  156.8297 N   0  3  0  0  0  0  0  0  0  0  0  0
  150.4047  141.6403  156.1446 C   0  0  0  0  0  0  0  0  0  0  0  0
  151.2649  140.8695  156.8640 N   0  0  0  0  0  0  0  0  0  0  0  0
  151.7873  139.5284  156.5655 C   0  0  0  0  0  0  0  0  0  0  0  0
  150.8793  138.7325  155.6076 C   0  0  1  0  0  0  0  0  0  0  0  0
  151.0130  139.3044  154.3228 O   0  0  0  0  0  0  0  0  0  0  0  0
  151.2376  137.2317  155.5225 C   0  0  0  0  0  0  0  0  0  0  0  0
  150.1862  136.3583  154.9992 N   0  0  0  0  0  0  0  0  0  0  0  0
  149.0227  136.2851  155.8808 C   0  0  0  0  0  0  0  0  0  0  0  0
  147.9466  135.3332  155.3322 C   0  0  0  0  0  0  0  0  0  0  0  0
  148.5138  134.0457  155.1142 O   0  0  0  0  0  0  0  0  0  0  0  0
  149.6125  134.0681  154.2068 C   0  0  2  0  0  0  0  0  0  0  0  0
  150.1339  132.6288  154.0465 C   0  0  0  0  0  0  0  0  0  0  0  0
  149.0582  131.6613  153.7101 N   0  3  0  0  0  0  0  0  0  0  0  0
  148.1112  132.1613  152.6865 C   0  0  0  0  0  0  0  0  0  0  0  0
  149.6000  130.3340  153.3437 C   0  0  0  0  0  0  0  0  0  0  0  0
  150.6939  135.0090  154.7749 C   0  0  0  0  0  0  0  0  0  0  0  0
  151.6516  141.5381  158.0325 C   0  0  0  0  0  0  0  0  0  0  0  0
  152.4948  141.1946  159.0874 C   0  0  0  0  0  0  0  0  0  0  0  0
  152.6470  142.1368  160.1297 C   0  0  0  0  0  0  0  0  0  0  0  0
  153.5571  141.7867  161.2950 C   0  0  0  0  0  0  0  0  0  0  0  0
  151.5434  145.2839  161.0499 H   0  0  0  0  0  0  0  0  0  0  0  0
  153.1824  144.6911  161.3068 H   0  0  0  0  0  0  0  0  0  0  0  0
  151.8240  143.9554  162.1719 H   0  0  0  0  0  0  0  0  0  0  0  0
  150.5940  144.6606  158.9850 H   0  0  0  0  0  0  0  0  0  0  0  0
  149.9486  141.3772  155.2009 H   0  0  0  0  0  0  0  0  0  0  0  0
  152.7703  139.6675  156.1130 H   0  0  0  0  0  0  0  0  0  0  0  0
  151.9567  138.9867  157.4959 H   0  0  0  0  0  0  0  0  0  0  0  0
  149.8480  138.8672  155.9312 H   0  0  0  0  0  0  0  0  0  0  0  0
  151.0178  138.6104  153.6815 H   0  0  0  0  0  0  0  0  0  0  0  0
  152.1285  137.1355  154.9000 H   0  0  0  0  0  0  0  0  0  0  0  0
  151.5275  136.8687  156.5087 H   0  0  0  0  0  0  0  0  0  0  0  0
  149.3294  135.9490  156.8724 H   0  0  0  0  0  0  0  0  0  0  0  0
  148.5768  137.2704  156.0087 H   0  0  0  0  0  0  0  0  0  0  0  0
  147.1224  135.2450  156.0400 H   0  0  0  0  0  0  0  0  0  0  0  0
  147.5290  135.7173  154.4003 H   0  0  0  0  0  0  0  0  0  0  0  0
  149.2807  134.4602  153.2450 H   0  0  0  0  0  0  0  0  0  0  0  0
  150.9125  132.5855  153.2833 H   0  0  0  0  0  0  0  0  0  0  0  0
  150.6063  132.3321  154.9841 H   0  0  0  0  0  0  0  0  0  0  0  0
  148.6250  132.3733  151.7480 H   0  0  0  0  0  0  0  0  0  0  0  0
  147.6065  133.0692  153.0141 H   0  0  0  0  0  0  0  0  0  0  0  0
  147.3370  131.4193  152.4879 H   0  0  0  0  0  0  0  0  0  0  0  0
  150.2025  130.3955  152.4362 H   0  0  0  0  0  0  0  0  0  0  0  0
  148.7929  129.6212  153.1708 H   0  0  0  0  0  0  0  0  0  0  0  0
  150.2243  129.9344  154.1437 H   0  0  0  0  0  0  0  0  0  0  0  0
  151.5361  135.0452  154.0824 H   0  0  0  0  0  0  0  0  0  0  0  0
  151.0780  134.5998  155.7108 H   0  0  0  0  0  0  0  0  0  0  0  0
  153.0119  140.2473  159.1188 H   0  0  0  0  0  0  0  0  0  0  0  0
  154.0077  140.8018  161.1685 H   0  0  0  0  0  0  0  0  0  0  0  0
  152.9963  141.7783  162.2298 H   0  0  0  0  0  0  0  0  0  0  0  0
  154.3655  142.5132  161.3818 H   0  0  0  0  0  0  0  0  0  0  0  0
  148.5269  131.5204  154.5582 H   0  0  0  0  0  0  0  0  0  0  0  0
  149.6260  143.5580  156.5161 H   0  0  0  0  0  0  0  0  0  0  0  0
  1  2  1  0  0  0  0
  1 26  1  0  0  0  0
  1 27  1  0  0  0  0
  1 28  1  0  0  0  0
  2 24  1  0  0  0  0
  2  3  2  0  0  0  0
  3  4  1  0  0  0  0
  3 29  1  0  0  0  0
  4 22  2  0  0  0  0
  4  5  1  0  0  0  0
  5  6  2  0  0  0  0
  5 57  1  0  0  0  0
  6  7  1  0  0  0  0
  6 30  1  0  0  0  0
  7  8  1  0  0  0  0
  7 22  1  0  0  0  0
  8  9  1  0  0  0  0
  8 31  1  0  0  0  0
  8 32  1  0  0  0  0
  9 10  1  0  0  0  0
  9 11  1  0  0  0  0
  9 33  1  0  0  0  0
 10 34  1  0  0  0  0
 11 12  1  0  0  0  0
 11 35  1  0  0  0  0
 11 36  1  0  0  0  0
 12 21  1  0  0  0  0
 12 13  1  0  0  0  0
 13 14  1  0  0  0  0
 13 37  1  0  0  0  0
 13 38  1  0  0  0  0
 14 15  1  0  0  0  0
 14 39  1  0  0  0  0
 14 40  1  0  0  0  0
 15 16  1  0  0  0  0
 16 17  1  0  0  0  0
 16 21  1  0  0  0  0
 16 41  1  0  0  0  0
 17 18  1  0  0  0  0
 17 42  1  0  0  0  0
 17 43  1  0  0  0  0
 18 19  1  0  0  0  0
 18 20  1  0  0  0  0
 18 56  1  0  0  0  0
 19 44  1  0  0  0  0
 19 45  1  0  0  0  0
 19 46  1  0  0  0  0
 20 47  1  0  0  0  0
 20 48  1  0  0  0  0
 20 49  1  0  0  0  0
 21 50  1  0  0  0  0
 21 51  1  0  0  0  0
 22 23  1  0  0  0  0
 23 24  2  0  0  0  0
 23 52  1  0  0  0  0
 24 25  1  0  0  0  0
 25 53  1  0  0  0  0
 25 54  1  0  0  0  0
 25 55  1  0  0  0  0
M  CHG  1   5   1
M  CHG  1  18   1
M  END
> <s_m_source_file>
AV-unprocessed.smi

> <i_m_source_file_index>
1005

> <i_lp_mmshare_version>
43012

> <i_f3d_flags>
0

> <s_epik_input>
W0NIM11jKFtjSF0xKWMoW0NIM10pW2NIXWMoYzEyKW4oW2NIXW4yKVtDSDJdW0NASF0oW09IXSlbQ0gyXU4zW0NIMl1bQ0gyXU9bQ0BIXShbQ0gyXTMpW0NIMl1OKFtDSDNdKVtDSDNd

> <s_epik_cmdline>
J2VwaWtfcHl0aG9uJywgJy1waCcsICc3LjAnLCAnLXRuJywgJzgnLCAnLW1hJywgJzIwMCcsICctbWV0YWxfYmluZGluZycsICctaW1hZScsICc8aW5maWxlLm1hZT4nLCAnLW9tYWUnLCAnPG91dGZpbGUubWFlPic=

> <r_epik_Ionization_Penalty>
1.3281

> <r_epik_Ionization_Penalty_Charging>
1.21988

> <r_epik_Ionization_Penalty_Neutral>
0.10822

> <r_epik_State_Penalty>
1.32886

> <r_epik_Charging_Adjusted_Penalty>
2.54875

> <i_epik_Tot_Q>
2

> <i_epik_Tot_abs_Q>
2

> <r_epik_Metal_State_Penalty>
5.33912

> <b_epik_Metal_Only>
0

> <s_lp_Force_Field>
OPLS_2005

> <r_lp_Energy>
45.9182

> <b_lp_Chiralities_Consistent>
1

> <s_lp_Variant>
AV-unprocessed.smi:1005-16

> <Gold.Version>
5.8.1

> <Gold.Id.Protein>
6NUR|6NUR_protein|mol2

> <Gold.PLP.Fitness>
55.8945

> <Gold.PLP.PLP>
-48.2235

> <Gold.PLP.part.hbond>
-1.9685

> <Gold.PLP.part.metal>
0.0000

> <Gold.PLP.part.buried>
-6.2713

> <Gold.PLP.part.nonpolar>
-40.4871

> <Gold.PLP.part.repulsive>
0.2797

> <Gold.PLP.ligand.clash>
0.0000

> <Gold.PLP.ligand.torsion>
0.7397

> <Gold.PLP.Chemscore.Hbond>
3.0000

> <Gold.PLP.Chemscore.CHOScore>
0.0000

> <Gold.PLP.Chemscore.Metal>
0.0000

> <Gold.Chemscore.Hbonds>
donor molecule, donor type, donor heavy atom, donor atom, acceptor molecule, acceptor atom, score
      L1  H     5    57       P1  8028  2.00
      P1  H  7989  7998       L1    10  1.00

> <Gold.PLP.Chemscore.Internal.Correction>
0.1503

> <Gold.Rescore>
     Score         DG    S(hbond)    S(metal)    S(lipo)     H(rot)  DE(clash)    DE(int)     intcor
     19.33     -20.49       1.92        0.00     127.85       2.49       0.38       0.79       ----

> <Gold.Chemscore.Fitness>
19.3293

> <Gold.Chemscore.DG>
-20.4943

> <Gold.Chemscore.ZeroCoef>
-5.4800

> <Gold.Chemscore.Hbond>
1.9249

> <Gold.Chemscore.Metal>
0.0000

> <Gold.Chemscore.Lipo>
127.8529

> <Gold.Chemscore.Internal_Hbond>
0.0000

> <Gold.Chemscore.DEClash>
0.3798

> <Gold.Chemscore.DEInternal>
0.7852

> <Gold.Chemscore.Rot>
2.4897

> <Gold.Chemscore.Internal.Correction>
   9.000000E+99

> <Gold.Chemscore.Hbonds>
donor molecule, donor type, donor heavy atom, donor atom, acceptor molecule, acceptor atom, score
      L1  H     5    57       P1  8028  0.99
      P1  H  7989  7998       L1    10  0.60

> <Gold.Chemscore.Hbond.Weighted>
-6.4292

> <Gold.Chemscore.Metal.Weighted>
-0.0000

> <Gold.Chemscore.Lipo.Weighted>
-14.9588

> <Gold.Chemscore.Internal_Hbond.Weighted>
0.0000

> <Gold.Chemscore.DEClash.Weighted>
0.3798

> <Gold.Chemscore.DEInternal.Weighted>
0.7852

> <Gold.Chemscore.Rot.Weighted>
6.3737

> <Gold.Chemscore.Internal.Correction.Weighted>
   9.000000E+99

> <Gold.Protein.RotatedTorsions>
[ 6907 6896 6895 6894 ] final   35.48 input  -60.11 | X-H torsion
[ 7974 7965 7964 7962 ] final -140.72 input  175.53 | X-H torsion
[ 8008 7997 7996 7995 ] final  140.67 input   59.86 | X-H torsion
[ 10167 10162 10161 10158 ] final   91.13 input  -65.29 | X-H torsion
[ 10718 10713 10712 10709 ] final  -37.49 input   66.30 | X-H torsion
[ 10763 10752 10751 10750 ] final   76.78 input  -60.55 | X-H torsion
[ 11005 11000 10999 10996 ] final  131.85 input  -57.11 | X-H torsion

> <Gold.Protein.ActiveResidues>
 VAL166  LYS551  ARG553  GLY616  TRP617  ASP618  TYR619  PRO620  LYS621  CYS622 
 ASP623  PHE694  ASN695  SER759  ASP760  ASP761  ALA762  ILE779  LEU786  VAL792 
 PHE793  MET794  SER795  GLU796  ALA797  LYS798  CYS799  TRP800  GLU811  SER814 

> <Gold.Protein.RotatedAtoms>
  152.1168  134.9235  160.0564 H   0  0  0  0  0  0  0  0  0  0  0  0  # atno 6907 bound_to 6896
  152.0391  133.3965  159.4337 H   0  0  0  0  0  0  0  0  0  0  0  0  # atno 6908 bound_to 6896
  150.6846  134.3356  159.4889 H   0  0  0  0  0  0  0  0  0  0  0  0  # atno 6909 bound_to 6896
  144.8575  140.6166  143.5350 H   0  0  0  0  0  0  0  0  0  0  0  0  # atno 7974 bound_to 7965
  156.2976  140.2335  156.4438 H   0  0  0  0  0  0  0  0  0  0  0  0  # atno 8008 bound_to 7997
  154.8162  140.0440  157.1398 H   0  0  0  0  0  0  0  0  0  0  0  0  # atno 8009 bound_to 7997
  154.9367  140.3024  155.5144 H   0  0  0  0  0  0  0  0  0  0  0  0  # atno 8010 bound_to 7997
  139.8405  144.6643  150.9289 H   0  0  0  0  0  0  0  0  0  0  0  0  # atno 10167 bound_to 10162
  156.3146  130.4257  149.8017 H   0  0  0  0  0  0  0  0  0  0  0  0  # atno 10718 bound_to 10713
  153.0750  135.4938  154.8386 H   0  0  0  0  0  0  0  0  0  0  0  0  # atno 10763 bound_to 10752
  154.7075  135.3013  154.9250 H   0  0  0  0  0  0  0  0  0  0  0  0  # atno 10764 bound_to 10752
  153.9954  135.6773  153.4809 H   0  0  0  0  0  0  0  0  0  0  0  0  # atno 10765 bound_to 10752
  139.9755  134.9565  156.9497 H   0  0  0  0  0  0  0  0  0  0  0  0  # atno 11005 bound_to 11000
  145.4377  139.1540  143.3987 LP  0  0  0  0  0  0  0  0  0  0  0  0  # atno 17320 bound_to 7965
  146.2835  140.4496  142.8767 LP  0  0  0  0  0  0  0  0  0  0  0  0  # atno 17321 bound_to 7965
  140.7798  143.3917  151.1298 LP  0  0  0  0  0  0  0  0  0  0  0  0  # atno 17342 bound_to 10162
  139.7564  143.8701  152.3089 LP  0  0  0  0  0  0  0  0  0  0  0  0  # atno 17343 bound_to 10162
  156.5348  130.8273  151.3249 LP  0  0  0  0  0  0  0  0  0  0  0  0  # atno 17370 bound_to 10713
  157.7399  130.9839  150.2341 LP  0  0  0  0  0  0  0  0  0  0  0  0  # atno 17371 bound_to 10713
  140.5205  134.0912  155.7291 LP  0  0  0  0  0  0  0  0  0  0  0  0  # atno 17394 bound_to 11000
  141.1432  133.9102  157.2278 LP  0  0  0  0  0  0  0  0  0  0  0  0  # atno 17395 bound_to 11000

$$$$
