#       Name:                AV-unprocessed.smi:2072
#       Creating user name   scv26
#       Creation time:       Fri Mar 27 11:14:24 2020


#       File generated by GOLD software.
#

@<TRIPOS>MOLECULE
AV-unprocessed.smi:2072
    43    45     1
SMALL
NO_CHARGES


@<TRIPOS>ATOM
      1 ****         1.6042   1.5182  -0.1674 O.2            1 S1                 0.0000
      2 ****         1.4227   0.4515  -0.7526 C.2            1 S1                 0.0000
      3 ****         2.3741  -0.4467  -1.0606 N.am           1 S1                 0.0000
      4 ****         3.7762  -0.3913  -0.8270 C.ar           1 S1                 0.0000
      5 ****         4.4812   0.7578  -0.3906 C.ar           1 S1                 0.0000
      6 ****         5.8752   0.6730  -0.2102 C.ar           1 S1                 0.0000
      7 ****         6.5158  -0.5521  -0.4768 C.ar           1 S1                 0.0000
      8 ****         5.8595  -1.6524  -0.9001 N.ar           1 S1                 0.0000
      9 ****         4.5233  -1.5639  -1.0700 C.ar           1 S1                 0.0000
     10 ****         0.2137   0.0314  -1.1530 N.am           1 S1                 0.0000
     11 ****        -1.0296   0.7872  -1.0093 C.3            1 S1                 0.0000
     12 ****        -2.0858   0.4203  -2.0684 C.3            1 S1                 0.0000
     13 ****        -3.4164   0.4485  -1.3097 C.3            1 S1                 0.0000
     14 ****        -3.0382  -0.0172   0.0293 N.4            1 S1                 1.0000
     15 ****        -4.0176   0.1050   1.1275 C.3            1 S1                 0.0000
     16 ****        -3.4574  -0.6368   2.3602 C.3            1 S1                 0.0000
     17 ****        -2.0254  -0.1790   2.7210 C.3            1 S1                 0.0000
     18 ****        -1.0862  -0.1989   1.4947 C.3            1 S1                 0.0000
     19 ****        -1.7403   0.5997   0.3531 C.3            1 S1                 0.0000
     20 ****         2.0509  -1.2945  -1.5031 H              1 S1                 0.0000
     21 ****         3.9957   1.7008  -0.1986 H              1 S1                 0.0000
     22 ****         6.4414   1.5306   0.1220 H              1 S1                 0.0000
     23 ****         7.5839  -0.6496  -0.3502 H              1 S1                 0.0000
     24 ****         4.0331  -2.4639  -1.4117 H              1 S1                 0.0000
     25 ****         0.1533  -0.8625  -1.6183 H              1 S1                 0.0000
     26 ****        -0.8036   1.8491  -1.1283 H              1 S1                 0.0000
     27 ****        -2.0781   1.0972  -2.9233 H              1 S1                 0.0000
     28 ****        -1.9091  -0.5884  -2.4453 H              1 S1                 0.0000
     29 ****        -3.8053   1.4663  -1.2517 H              1 S1                 0.0000
     30 ****        -4.1744  -0.1893  -1.7653 H              1 S1                 0.0000
     31 ****        -4.2012   1.1564   1.3538 H              1 S1                 0.0000
     32 ****        -4.9692  -0.3332   0.8247 H              1 S1                 0.0000
     33 ****        -4.1207  -0.4975   3.2143 H              1 S1                 0.0000
     34 ****        -3.4449  -1.7081   2.1548 H              1 S1                 0.0000
     35 ****        -2.0653   0.8334   3.1252 H              1 S1                 0.0000
     36 ****        -1.6200  -0.8086   3.5136 H              1 S1                 0.0000
     37 ****        -0.1232   0.2336   1.7660 H              1 S1                 0.0000
     38 ****        -0.8985  -1.2269   1.1820 H              1 S1                 0.0000
     39 ****        -1.9401   1.6061   0.7274 H              1 S1                 0.0000
     40 ****        -2.8540  -1.0045  -0.0766 H              1 S1                 0.0000
     41 ****         2.5250   1.7791   0.1224 LP             1 S1                 0.0000
     42 ****         0.8309   2.1244   0.0185 LP             1 S1                 0.0000
     43 ****         6.3474  -2.5061  -1.0822 LP             1 S1                 0.0000
@<TRIPOS>BOND
    1    1    2 2     
    2    2    3 am    
    3    2   10 am    
    4    3    4 1     
    5    3   20 1     
    6    4    9 ar    
    7    4    5 ar    
    8    5    6 ar    
    9    5   21 1     
   10    6    7 ar    
   11    6   22 1     
   12    7    8 ar    
   13    7   23 1     
   14    8    9 ar    
   15    9   24 1     
   16   10   11 1     
   17   10   25 1     
   18   11   19 1     
   19   11   12 1     
   20   11   26 1     
   21   12   13 1     
   22   12   27 1     
   23   12   28 1     
   24   13   14 1     
   25   13   29 1     
   26   13   30 1     
   27   14   19 1     
   28   14   15 1     
   29   14   40 1     
   30   15   16 1     
   31   15   31 1     
   32   15   32 1     
   33   16   17 1     
   34   16   33 1     
   35   16   34 1     
   36   17   18 1     
   37   17   35 1     
   38   17   36 1     
   39   18   19 1     
   40   18   37 1     
   41   18   38 1     
   42   19   39 1     
   43    1   41 1     
   44    1   42 1     
   45    8   43 1     
@<TRIPOS>SUBSTRUCTURE
      1 S1             1
@<TRIPOS>SET
LONE_PAIRS      STATIC     ATOMS    <user>   **** ""
3 41 42 43
DONOR_HYDROGENS      STATIC     ATOMS    <user>   **** ""
3 20 25 40
ATOM$BLUE        STATIC     ATOMS    COLORGROUP SYSTEM
3 41 42 43
ATOM$RED        STATIC     ATOMS    COLORGROUP SYSTEM
3 20 25 40
