#       Name:                AV-unprocessed.smi:234
#       Creating user name   scv26
#       Creation time:       Thu Mar 26 20:36:40 2020


#       File generated by GOLD software.
#

@<TRIPOS>MOLECULE
AV-unprocessed.smi:234
    69    72     1
SMALL
NO_CHARGES


@<TRIPOS>ATOM
      1 ****        -5.3750  -0.3710   0.3550 C.3            1 S1                 0.0000
      2 ****        -5.8119   0.5821  -0.7651 C.3            1 S1                 0.0000
      3 ****        -4.7358   0.9489  -1.6183 O.3            1 S1                 0.0000
      4 ****        -3.8616   1.9386  -1.0908 C.3            1 S1                 0.0000
      5 ****        -2.6867   1.4020  -0.2722 C.3            1 S1                 0.0000
      6 ****        -1.8542   2.5043  -0.9412 C.3            1 S1                 0.0000
      7 ****        -0.4768   2.1079  -1.2553 N.3            1 S1                 0.0000
      8 ****         0.2970   2.9674  -2.1451 C.3            1 S1                 0.0000
      9 ****         0.2836   1.6033  -0.2518 C.ar           1 S1                 0.0000
     10 ****         0.0791   2.0056   1.0312 N.ar           1 S1                 0.0000
     11 ****         0.8381   1.5187   2.0173 C.ar           1 S1                 0.0000
     12 ****         1.8380   0.6380   1.9438 N.ar           1 S1                 0.0000
     13 ****         2.0488   0.2341   0.6581 C.ar           1 S1                 0.0000
     14 ****         1.3285   0.6688  -0.4896 C.ar           1 S1                 0.0000
     15 ****         1.8261   0.0458  -1.6274 N.2            1 S1                 0.0000
     16 ****         2.7847  -0.7171  -1.1771 C.2            1 S1                 0.0000
     17 ****         2.9808  -0.6732   0.1852 N.pl3          1 S1                 0.0000
     18 ****         3.9671  -1.4238   0.9478 C.3            1 S1                 0.0000
     19 ****         3.4835  -2.8417   1.3516 C.3            1 S1                 0.0000
     20 ****         3.2447  -3.5728   0.1598 O.3            1 S1                 0.0000
     21 ****         2.1949  -2.8440   2.1679 C.3            1 S1                 0.0000
     22 ****         2.3007  -4.1354   2.9641 C.3            1 S1                 0.0000
     23 ****         3.6723  -4.1684   3.3186 O.3            1 S1                 0.0000
     24 ****         4.4539  -3.6815   2.2293 C.3            1 S1                 0.0000
     25 ****         5.6567  -2.9374   2.8302 C.3            1 S1                 0.0000
     26 ****        -2.8429   2.4508  -2.1406 C.3            1 S1                 0.0000
     27 ****        -2.5178   1.4704  -3.2825 C.3            1 S1                 0.0000
     28 ****        -3.2038   3.7894  -2.7860 C.3            1 S1                 0.0000
     29 ****        -6.2406  -0.7365   0.9076 H              1 S1                 0.0000
     30 ****        -4.7186   0.1200   1.0718 H              1 S1                 0.0000
     31 ****        -4.8493  -1.2359  -0.0501 H              1 S1                 0.0000
     32 ****        -6.5518   0.0734  -1.3833 H              1 S1                 0.0000
     33 ****        -6.3069   1.4651  -0.3591 H              1 S1                 0.0000
     34 ****        -4.3825   2.7615  -0.5952 H              1 S1                 0.0000
     35 ****        -2.7944   1.5116   0.8069 H              1 S1                 0.0000
     36 ****        -2.3926   0.3885  -0.5506 H              1 S1                 0.0000
     37 ****        -1.9238   3.4476  -0.3957 H              1 S1                 0.0000
     38 ****         1.1291   3.4447  -1.6246 H              1 S1                 0.0000
     39 ****        -0.3202   3.7599  -2.5658 H              1 S1                 0.0000
     40 ****         0.7020   2.3832  -2.9716 H              1 S1                 0.0000
     41 ****         0.6121   1.8882   3.0067 H              1 S1                 0.0000
     42 ****         3.3745  -1.3444  -1.8298 H              1 S1                 0.0000
     43 ****         4.8790  -1.4885   0.3526 H              1 S1                 0.0000
     44 ****         4.2161  -0.8364   1.8316 H              1 S1                 0.0000
     45 ****         2.9451  -4.4376   0.3950 H              1 S1                 0.0000
     46 ****         2.1904  -2.0045   2.8639 H              1 S1                 0.0000
     47 ****         1.2880  -2.7816   1.5646 H              1 S1                 0.0000
     48 ****         1.6570  -4.1442   3.8437 H              1 S1                 0.0000
     49 ****         2.0574  -5.0011   2.3463 H              1 S1                 0.0000
     50 ****         4.8266  -4.5427   1.6715 H              1 S1                 0.0000
     51 ****         6.3129  -2.5462   2.0526 H              1 S1                 0.0000
     52 ****         6.2518  -3.6075   3.4508 H              1 S1                 0.0000
     53 ****         5.3383  -2.1065   3.4603 H              1 S1                 0.0000
     54 ****        -1.6962   1.8298  -3.9022 H              1 S1                 0.0000
     55 ****        -3.3759   1.3269  -3.9397 H              1 S1                 0.0000
     56 ****        -2.2322   0.4859  -2.9115 H              1 S1                 0.0000
     57 ****        -2.4161   4.1477  -3.4486 H              1 S1                 0.0000
     58 ****        -3.3723   4.5629  -2.0362 H              1 S1                 0.0000
     59 ****        -4.1167   3.7096  -3.3770 H              1 S1                 0.0000
     60 ****        -5.1220   1.2990  -2.4717 LP             1 S1                 0.0000
     61 ****        -4.1969   0.1282  -1.8083 LP             1 S1                 0.0000
     62 ****        -0.7241   1.3164  -1.8143 LP             1 S1                 0.0000
     63 ****        -0.6414   2.6677   1.2372 LP             1 S1                 0.0000
     64 ****         2.3649   0.3156   2.7301 LP             1 S1                 0.0000
     65 ****         1.5204   0.1563  -2.5731 LP             1 S1                 0.0000
     66 ****         4.0902  -3.6408  -0.3698 LP             1 S1                 0.0000
     67 ****         2.5459  -3.1102  -0.3859 LP             1 S1                 0.0000
     68 ****         3.9405  -5.1088   3.5278 LP             1 S1                 0.0000
     69 ****         3.8234  -3.5922   4.1217 LP             1 S1                 0.0000
@<TRIPOS>BOND
    1    1    2 1     
    2    1   29 1     
    3    1   30 1     
    4    1   31 1     
    5    2    3 1     
    6    2   32 1     
    7    2   33 1     
    8    3    4 1     
    9    4   26 1     
   10    4    5 1     
   11    4   34 1     
   12    5    6 1     
   13    5   35 1     
   14    5   36 1     
   15    6    7 1     
   16    6   26 1     
   17    6   37 1     
   18    7    8 1     
   19    7    9 1     
   20    8   38 1     
   21    8   39 1     
   22    8   40 1     
   23    9   14 ar    
   24    9   10 ar    
   25   10   11 ar    
   26   11   12 ar    
   27   11   41 1     
   28   12   13 ar    
   29   13   17 1     
   30   13   14 ar    
   31   14   15 1     
   32   15   16 2     
   33   16   17 1     
   34   16   42 1     
   35   17   18 1     
   36   18   19 1     
   37   18   43 1     
   38   18   44 1     
   39   19   24 1     
   40   19   20 1     
   41   19   21 1     
   42   20   45 1     
   43   21   22 1     
   44   21   46 1     
   45   21   47 1     
   46   22   23 1     
   47   22   48 1     
   48   22   49 1     
   49   23   24 1     
   50   24   25 1     
   51   24   50 1     
   52   25   51 1     
   53   25   52 1     
   54   25   53 1     
   55   26   27 1     
   56   26   28 1     
   57   27   54 1     
   58   27   55 1     
   59   27   56 1     
   60   28   57 1     
   61   28   58 1     
   62   28   59 1     
   63    3   60 1     
   64    3   61 1     
   65    7   62 1     
   66   10   63 1     
   67   12   64 1     
   68   15   65 1     
   69   20   66 1     
   70   20   67 1     
   71   23   68 1     
   72   23   69 1     
@<TRIPOS>SUBSTRUCTURE
      1 S1             1
@<TRIPOS>SET
LONE_PAIRS      STATIC     ATOMS    <user>   **** ""
10 60 61 62 63 64 65 66 67 68 69
DONOR_HYDROGENS      STATIC     ATOMS    <user>   **** ""
1 45
ATOM$BLUE        STATIC     ATOMS    COLORGROUP SYSTEM
10 60 61 62 63 64 65 66 67 68 69
ATOM$RED        STATIC     ATOMS    COLORGROUP SYSTEM
1 45
