AV-unprocessed.smi:1005|AV-procd|sdf|4372|dock5
  -GOLD-   22720 2283D 1   1.00000     0.00000
 Structure written by MMmdl.
 57 59  0  0  0  0  0  0  0  0  3 V2000
  153.2417  142.1595  161.8076 C   0  0  0  0  0  0  0  0  0  0  0  0
  152.6159  142.0200  160.4310 C   0  0  0  0  0  0  0  0  0  0  0  0
  152.9321  140.8898  159.6437 C   0  0  0  0  0  0  0  0  0  0  0  0
  152.3743  140.7245  158.3571 C   0  0  0  0  0  0  0  0  0  0  0  0
  152.5479  139.7165  157.4241 N   0  0  0  0  0  0  0  0  0  0  0  0
  151.7685  140.1328  156.4304 C   0  0  0  0  0  0  0  0  0  0  0  0
  151.1109  141.2949  156.6076 N   0  0  0  0  0  0  0  0  0  0  0  0
  150.2146  141.9428  155.6663 C   0  0  0  0  0  0  0  0  0  0  0  0
  149.2791  140.9434  154.9585 C   0  0  2  0  0  0  0  0  0  0  0  0
  150.0084  140.2262  153.9806 O   0  0  0  0  0  0  0  0  0  0  0  0
  148.1006  141.6586  154.2676 C   0  0  0  0  0  0  0  0  0  0  0  0
  147.1388  142.2508  155.2326 N   0  3  2  0  0  0  0  0  0  0  0  0
  146.7563  141.3028  156.3052 C   0  0  0  0  0  0  0  0  0  0  0  0
  145.8201  141.9858  157.3152 C   0  0  0  0  0  0  0  0  0  0  0  0
  144.6802  142.5002  156.6365 O   0  0  0  0  0  0  0  0  0  0  0  0
  145.0240  143.4845  155.6664 C   0  0  2  0  0  0  0  0  0  0  0  0
  143.7205  144.0286  155.0517 C   0  0  0  0  0  0  0  0  0  0  0  0
  143.9033  145.3355  154.3689 N   0  3  0  0  0  0  0  0  0  0  0  0
  144.6453  145.2349  153.0904 C   0  0  0  0  0  0  0  0  0  0  0  0
  142.6219  146.0545  154.1935 C   0  0  0  0  0  0  0  0  0  0  0  0
  145.9265  142.8290  154.6013 C   0  0  0  0  0  0  0  0  0  0  0  0
  151.4807  141.7264  157.8774 C   0  0  0  0  0  0  0  0  0  0  0  0
  151.1559  142.8537  158.6526 C   0  0  0  0  0  0  0  0  0  0  0  0
  151.7269  143.0065  159.9333 C   0  0  0  0  0  0  0  0  0  0  0  0
  151.3785  144.2334  160.7574 C   0  0  0  0  0  0  0  0  0  0  0  0
  153.8696  141.3013  162.0484 H   0  0  0  0  0  0  0  0  0  0  0  0
  152.4698  142.2338  162.5737 H   0  0  0  0  0  0  0  0  0  0  0  0
  153.8644  143.0532  161.8547 H   0  0  0  0  0  0  0  0  0  0  0  0
  153.6104  140.1390  160.0218 H   0  0  0  0  0  0  0  0  0  0  0  0
  151.6717  139.5610  155.5189 H   0  0  0  0  0  0  0  0  0  0  0  0
  149.6282  142.6843  156.2108 H   0  0  0  0  0  0  0  0  0  0  0  0
  150.8125  142.4941  154.9393 H   0  0  0  0  0  0  0  0  0  0  0  0
  148.9117  140.2334  155.6989 H   0  0  0  0  0  0  0  0  0  0  0  0
  149.5545  140.2989  153.1539 H   0  0  0  0  0  0  0  0  0  0  0  0
  148.4651  142.4365  153.5951 H   0  0  0  0  0  0  0  0  0  0  0  0
  147.5790  140.9332  153.6408 H   0  0  0  0  0  0  0  0  0  0  0  0
  146.2644  140.4328  155.8669 H   0  0  0  0  0  0  0  0  0  0  0  0
  147.6481  140.9428  156.8197 H   0  0  0  0  0  0  0  0  0  0  0  0
  145.4908  141.2675  158.0661 H   0  0  0  0  0  0  0  0  0  0  0  0
  146.3360  142.7879  157.8458 H   0  0  0  0  0  0  0  0  0  0  0  0
  145.5780  144.2924  156.1453 H   0  0  0  0  0  0  0  0  0  0  0  0
  143.3012  143.3110  154.3448 H   0  0  0  0  0  0  0  0  0  0  0  0
  142.9847  144.1357  155.8506 H   0  0  0  0  0  0  0  0  0  0  0  0
  144.1174  144.5966  152.3807 H   0  0  0  0  0  0  0  0  0  0  0  0
  145.6458  144.8300  153.2358 H   0  0  0  0  0  0  0  0  0  0  0  0
  144.7613  146.2197  152.6363 H   0  0  0  0  0  0  0  0  0  0  0  0
  141.9451  145.4962  153.5451 H   0  0  0  0  0  0  0  0  0  0  0  0
  142.7875  147.0369  153.7499 H   0  0  0  0  0  0  0  0  0  0  0  0
  142.1279  146.2082  155.1536 H   0  0  0  0  0  0  0  0  0  0  0  0
  146.2055  143.5775  153.8607 H   0  0  0  0  0  0  0  0  0  0  0  0
  145.3814  142.0447  154.0733 H   0  0  0  0  0  0  0  0  0  0  0  0
  150.4769  143.5974  158.2622 H   0  0  0  0  0  0  0  0  0  0  0  0
  150.7266  144.9114  160.2056 H   0  0  0  0  0  0  0  0  0  0  0  0
  152.2808  144.7838  161.0247 H   0  0  0  0  0  0  0  0  0  0  0  0
  150.8641  143.9442  161.6740 H   0  0  0  0  0  0  0  0  0  0  0  0
  144.4585  145.9094  154.9883 H   0  0  0  0  0  0  0  0  0  0  0  0
  147.6309  143.0082  155.6859 H   0  0  0  0  0  0  0  0  0  0  0  0
  1  2  1  0  0  0  0
  1 26  1  0  0  0  0
  1 27  1  0  0  0  0
  1 28  1  0  0  0  0
  2 24  1  0  0  0  0
  2  3  2  0  0  0  0
  3  4  1  0  0  0  0
  3 29  1  0  0  0  0
  4 22  2  0  0  0  0
  4  5  1  0  0  0  0
  5  6  2  0  0  0  0
  6  7  1  0  0  0  0
  6 30  1  0  0  0  0
  7  8  1  0  0  0  0
  7 22  1  0  0  0  0
  8  9  1  0  0  0  0
  8 31  1  0  0  0  0
  8 32  1  0  0  0  0
  9 10  1  0  0  0  0
  9 11  1  0  0  0  0
  9 33  1  0  0  0  0
 10 34  1  0  0  0  0
 11 12  1  0  0  0  0
 11 35  1  0  0  0  0
 11 36  1  0  0  0  0
 12 21  1  0  0  0  0
 12 13  1  0  0  0  0
 12 57  1  0  0  0  0
 13 14  1  0  0  0  0
 13 37  1  0  0  0  0
 13 38  1  0  0  0  0
 14 15  1  0  0  0  0
 14 39  1  0  0  0  0
 14 40  1  0  0  0  0
 15 16  1  0  0  0  0
 16 17  1  0  0  0  0
 16 21  1  0  0  0  0
 16 41  1  0  0  0  0
 17 18  1  0  0  0  0
 17 42  1  0  0  0  0
 17 43  1  0  0  0  0
 18 19  1  0  0  0  0
 18 20  1  0  0  0  0
 18 56  1  0  0  0  0
 19 44  1  0  0  0  0
 19 45  1  0  0  0  0
 19 46  1  0  0  0  0
 20 47  1  0  0  0  0
 20 48  1  0  0  0  0
 20 49  1  0  0  0  0
 21 50  1  0  0  0  0
 21 51  1  0  0  0  0
 22 23  1  0  0  0  0
 23 24  2  0  0  0  0
 23 52  1  0  0  0  0
 24 25  1  0  0  0  0
 25 53  1  0  0  0  0
 25 54  1  0  0  0  0
 25 55  1  0  0  0  0
M  CHG  1  12   1
M  CHG  1  18   1
M  END
> <s_m_source_file>
AV-unprocessed.smi

> <i_m_source_file_index>
1005

> <i_lp_mmshare_version>
43012

> <i_f3d_flags>
0

> <s_epik_input>
W0NIM11jKFtjSF0xKWMoW0NIM10pW2NIXWMoYzEyKW4oW2NIXW4yKVtDSDJdW0NASF0oW09IXSlbQ0gyXU4zW0NIMl1bQ0gyXU9bQ0BIXShbQ0gyXTMpW0NIMl1OKFtDSDNdKVtDSDNd

> <s_epik_cmdline>
J2VwaWtfcHl0aG9uJywgJy1waCcsICc3LjAnLCAnLXRuJywgJzgnLCAnLW1hJywgJzIwMCcsICctbWV0YWxfYmluZGluZycsICctaW1hZScsICc8aW5maWxlLm1hZT4nLCAnLW9tYWUnLCAnPG91dGZpbGUubWFlPic=

> <r_epik_Ionization_Penalty>
1.0968

> <r_epik_Ionization_Penalty_Charging>
1.0096

> <r_epik_Ionization_Penalty_Neutral>
0.0871956

> <r_epik_State_Penalty>
1.31185

> <r_epik_Charging_Adjusted_Penalty>
2.32145

> <i_epik_Tot_Q>
2

> <i_epik_Tot_abs_Q>
2

> <r_epik_Metal_State_Penalty>
1.22442

> <b_epik_Metal_Only>
0

> <s_lp_Force_Field>
OPLS_2005

> <r_lp_Energy>
33.8105

> <b_lp_Chiralities_Consistent>
1

> <s_lp_Variant>
AV-unprocessed.smi:1005-11

> <Gold.Version>
5.8.1

> <Gold.Id.Protein>
6NUR|6NUR_protein|mol2

> <Gold.PLP.Fitness>
66.8798

> <Gold.PLP.PLP>
-53.7776

> <Gold.PLP.part.hbond>
-4.0000

> <Gold.PLP.part.metal>
0.0000

> <Gold.PLP.part.buried>
-6.8612

> <Gold.PLP.part.nonpolar>
-43.9247

> <Gold.PLP.part.repulsive>
0.2130

> <Gold.PLP.ligand.clash>
0.0000

> <Gold.PLP.ligand.torsion>
0.7514

> <Gold.PLP.Chemscore.Hbond>
4.7679

> <Gold.PLP.Chemscore.CHOScore>
0.0000

> <Gold.PLP.Chemscore.Metal>
0.0000

> <Gold.Chemscore.Hbonds>
donor molecule, donor type, donor heavy atom, donor atom, acceptor molecule, acceptor atom, score
      L1  H    10    34       P1  7957  0.94
      L1  H    12    57       P1  8028  1.69
      P1  H  7989  7998       L1    10  0.79
      P1  H  7997  8010       L1     5  1.00

> <Gold.PLP.Chemscore.Internal.Correction>
0.3013

> <Gold.Rescore>
     Score         DG    S(hbond)    S(metal)    S(lipo)     H(rot)  DE(clash)    DE(int)     intcor
     19.87     -22.82       2.29        0.00     136.99       2.48       1.10       1.85       ----

> <Gold.Chemscore.Fitness>
19.8720

> <Gold.Chemscore.DG>
-22.8194

> <Gold.Chemscore.ZeroCoef>
-5.4800

> <Gold.Chemscore.Hbond>
2.2947

> <Gold.Chemscore.Metal>
0.0000

> <Gold.Chemscore.Lipo>
136.9855

> <Gold.Chemscore.Internal_Hbond>
0.0000

> <Gold.Chemscore.DEClash>
1.0983

> <Gold.Chemscore.DEInternal>
1.8491

> <Gold.Chemscore.Rot>
2.4814

> <Gold.Chemscore.Internal.Correction>
   9.000000E+99

> <Gold.Chemscore.Hbonds>
donor molecule, donor type, donor heavy atom, donor atom, acceptor molecule, acceptor atom, score
      L1  H    10    34       P1  7957  0.87
      L1  H    12    57       P1  8028  0.27
      P1  H  7989  7998       L1    10  0.17
      P1  H  7997  8010       L1     5  0.11

> <Gold.Chemscore.Hbond.Weighted>
-7.6645

> <Gold.Chemscore.Metal.Weighted>
-0.0000

> <Gold.Chemscore.Lipo.Weighted>
-16.0273

> <Gold.Chemscore.Internal_Hbond.Weighted>
0.0000

> <Gold.Chemscore.DEClash.Weighted>
1.0983

> <Gold.Chemscore.DEInternal.Weighted>
1.8491

> <Gold.Chemscore.Rot.Weighted>
6.3524

> <Gold.Chemscore.Internal.Correction.Weighted>
   9.000000E+99

> <Gold.Protein.RotatedTorsions>
[ 6907 6896 6895 6894 ] final   88.66 input  -60.11 | X-H torsion
[ 7974 7965 7964 7962 ] final   23.68 input  175.53 | X-H torsion
[ 8008 7997 7996 7995 ] final   58.52 input   59.86 | X-H torsion
[ 10167 10162 10161 10158 ] final  -49.29 input  -65.29 | X-H torsion
[ 10718 10713 10712 10709 ] final  139.44 input   66.30 | X-H torsion
[ 10763 10752 10751 10750 ] final  164.31 input  -60.55 | X-H torsion
[ 11005 11000 10999 10996 ] final   39.18 input  -57.11 | X-H torsion

> <Gold.Protein.ActiveResidues>
 VAL166  LYS551  ARG553  GLY616  TRP617  ASP618  TYR619  PRO620  LYS621  CYS622 
 ASP623  PHE694  ASN695  SER759  ASP760  ASP761  ALA762  ILE779  LEU786  VAL792 
 PHE793  MET794  SER795  GLU796  ALA797  LYS798  CYS799  TRP800  GLU811  SER814 

> <Gold.Protein.RotatedAtoms>
  152.5428  134.2086  159.8740 H   0  0  0  0  0  0  0  0  0  0  0  0  # atno 6907 bound_to 6896
  151.2070  133.4571  159.2605 H   0  0  0  0  0  0  0  0  0  0  0  0  # atno 6908 bound_to 6896
  151.0933  134.9942  159.8469 H   0  0  0  0  0  0  0  0  0  0  0  0  # atno 6909 bound_to 6896
  146.1973  139.7711  142.8788 H   0  0  0  0  0  0  0  0  0  0  0  0  # atno 7974 bound_to 7965
  155.5513  140.3486  155.4469 H   0  0  0  0  0  0  0  0  0  0  0  0  # atno 8008 bound_to 7997
  156.0581  140.1333  156.9999 H   0  0  0  0  0  0  0  0  0  0  0  0  # atno 8009 bound_to 7997
  154.4466  140.0991  156.6461 H   0  0  0  0  0  0  0  0  0  0  0  0  # atno 8010 bound_to 7997
  140.6692  143.2704  151.4194 H   0  0  0  0  0  0  0  0  0  0  0  0  # atno 10167 bound_to 10162
  157.4144  131.1031  151.0420 H   0  0  0  0  0  0  0  0  0  0  0  0  # atno 10718 bound_to 10713
  154.3070  135.2758  155.2584 H   0  0  0  0  0  0  0  0  0  0  0  0  # atno 10763 bound_to 10752
  154.4995  135.5812  153.6524 H   0  0  0  0  0  0  0  0  0  0  0  0  # atno 10764 bound_to 10752
  152.9893  135.6154  154.3245 H   0  0  0  0  0  0  0  0  0  0  0  0  # atno 10765 bound_to 10752
  140.2053  134.3821  155.8075 H   0  0  0  0  0  0  0  0  0  0  0  0  # atno 11005 bound_to 11000
  145.3601  141.0324  143.3289 LP  0  0  0  0  0  0  0  0  0  0  0  0  # atno 17320 bound_to 7965
  144.8607  139.5181  143.6813 LP  0  0  0  0  0  0  0  0  0  0  0  0  # atno 17321 bound_to 7965
  139.5953  144.1412  152.2136 LP  0  0  0  0  0  0  0  0  0  0  0  0  # atno 17342 bound_to 10162
  140.0779  144.5725  150.7144 LP  0  0  0  0  0  0  0  0  0  0  0  0  # atno 17343 bound_to 10162
  157.1373  130.6128  149.5545 LP  0  0  0  0  0  0  0  0  0  0  0  0  # atno 17370 bound_to 10713
  155.9860  130.4893  150.7060 LP  0  0  0  0  0  0  0  0  0  0  0  0  # atno 17371 bound_to 10713
  141.2227  133.7115  156.8327 LP  0  0  0  0  0  0  0  0  0  0  0  0  # atno 17394 bound_to 11000
  140.2009  134.8897  157.3168 LP  0  0  0  0  0  0  0  0  0  0  0  0  # atno 17395 bound_to 11000

$$$$
