AV-unprocessed.smi:49|AV-procd|sdf|483|dock8
  -GOLD-   2262016343D 1   1.00000     0.00000
 Structure written by MMmdl.
 27 28  0  0  0  0  0  0  0  0  3 V2000
  149.4839  133.2808  154.0682 C   0  0  0  0  0  0  0  0  0  0  0  0
  149.8573  133.9981  155.3695 C   0  0  0  0  0  0  0  0  0  0  0  0
  150.0439  135.4858  155.1672 C   0  0  0  0  0  0  0  0  0  0  0  0
  149.1042  136.3437  154.7824 N   0  0  0  0  0  0  0  0  0  0  0  0
  149.6883  137.5492  154.7785 C   0  0  0  0  0  0  0  0  0  0  0  0
  148.9931  138.8310  154.3616 C   0  0  2  0  0  0  0  0  0  0  0  0
  147.7264  139.1009  155.1868 C   0  0  0  0  0  0  0  0  0  0  0  0
  146.5980  138.5865  154.2978 C   0  0  1  0  0  0  0  0  0  0  0  0
  145.3637  139.2063  154.5911 O   0  0  0  0  0  0  0  0  0  0  0  0
  147.0976  138.9250  152.8941 C   0  0  0  0  0  0  0  0  0  0  0  0
  148.5606  138.7505  152.9497 N   0  3  0  0  0  0  0  0  0  0  0  0
  150.9766  137.4531  155.1450 N   0  0  0  0  0  0  0  0  0  0  0  0
  151.1752  136.1762  155.3953 N   0  5  0  0  0  0  0  0  0  0  0  0
  149.6979  139.6556  154.4741 H   0  0  0  0  0  0  0  0  0  0  0  0
  146.5018  137.5054  154.4087 H   0  0  0  0  0  0  0  0  0  0  0  0
  149.3555  132.2115  154.2365 H   0  0  0  0  0  0  0  0  0  0  0  0
  150.2598  133.4095  153.3131 H   0  0  0  0  0  0  0  0  0  0  0  0
  148.5506  133.6696  153.6601 H   0  0  0  0  0  0  0  0  0  0  0  0
  149.0811  133.8391  156.1187 H   0  0  0  0  0  0  0  0  0  0  0  0
  150.7779  133.5785  155.7759 H   0  0  0  0  0  0  0  0  0  0  0  0
  147.7442  138.6462  156.1783 H   0  0  0  0  0  0  0  0  0  0  0  0
  147.6168  140.1783  155.3226 H   0  0  0  0  0  0  0  0  0  0  0  0
  145.0124  139.5702  153.7923 H   0  0  0  0  0  0  0  0  0  0  0  0
  146.6444  138.3045  152.1208 H   0  0  0  0  0  0  0  0  0  0  0  0
  146.8907  139.9695  152.6557 H   0  0  0  0  0  0  0  0  0  0  0  0
  149.0274  139.4471  152.3875 H   0  0  0  0  0  0  0  0  0  0  0  0
  148.7950  137.8274  152.6121 H   0  0  0  0  0  0  0  0  0  0  0  0
  1  2  1  0  0  0  0
  1 16  1  0  0  0  0
  1 17  1  0  0  0  0
  1 18  1  0  0  0  0
  2  3  1  0  0  0  0
  2 19  1  0  0  0  0
  2 20  1  0  0  0  0
  3 13  1  0  0  0  0
  3  4  2  0  0  0  0
  4  5  1  0  0  0  0
  5  6  1  0  0  0  0
  5 12  2  0  0  0  0
  6 14  1  0  0  0  0
  6 11  1  0  0  0  0
  6  7  1  0  0  0  0
  7  8  1  0  0  0  0
  7 21  1  0  0  0  0
  7 22  1  0  0  0  0
  8 15  1  0  0  0  0
  8  9  1  0  0  0  0
  8 10  1  0  0  0  0
  9 23  1  0  0  0  0
 10 11  1  0  0  0  0
 10 24  1  0  0  0  0
 10 25  1  0  0  0  0
 11 26  1  0  0  0  0
 11 27  1  0  0  0  0
 12 13  1  0  0  0  0
M  CHG  1  11   1
M  CHG  1  13  -1
M  END
> <s_m_source_file>
AV-unprocessed.smi

> <i_m_source_file_index>
49

> <i_lp_mmshare_version>
43012

> <i_f3d_flags>
0

> <s_epik_input>
W0NIM11bQ0gyXWMxbmMobltuSF0xKVtDQEBIXTJbQ0gyXVtDQEBIXShbT0hdKVtDSDJdW05IXTI=

> <s_epik_cmdline>
J2VwaWtfcHl0aG9uJywgJy1waCcsICc3LjAnLCAnLXRuJywgJzgnLCAnLW1hJywgJzIwMCcsICctbWV0YWxfYmluZGluZycsICctaW1hZScsICc8aW5maWxlLm1hZT4nLCAnLW9tYWUnLCAnPG91dGZpbGUubWFlPic=

> <r_lp_tautomer_probability>
0.948284

> <r_epik_Ionization_Penalty>
3.22013

> <r_epik_Ionization_Penalty_Charging>
3.22013

> <r_epik_Ionization_Penalty_Neutral>
3.9133e-08

> <r_epik_State_Penalty>
2.79459

> <r_epik_Charging_Adjusted_Penalty>
6.01472

> <i_epik_Tot_Q>
0

> <i_epik_Tot_abs_Q>
2

> <r_epik_Metal_State_Penalty>
0.589377

> <b_epik_Metal_Only>
1

> <s_lp_Force_Field>
OPLS_2005

> <r_lp_Energy>
10.361

> <b_lp_Chiralities_Consistent>
1

> <s_lp_Variant>
AV-unprocessed.smi:49-21

> <Gold.Version>
5.8.1

> <Gold.Id.Protein>
6NUR|6NUR_protein|mol2

> <Gold.PLP.Fitness>
33.6446

> <Gold.PLP.PLP>
-16.2866

> <Gold.PLP.part.hbond>
-3.6870

> <Gold.PLP.part.metal>
0.0000

> <Gold.PLP.part.buried>
-3.5452

> <Gold.PLP.part.nonpolar>
-11.2987

> <Gold.PLP.part.repulsive>
1.6301

> <Gold.PLP.ligand.clash>
0.0000

> <Gold.PLP.ligand.torsion>
0.0331

> <Gold.PLP.Chemscore.Hbond>
5.8038

> <Gold.PLP.Chemscore.CHOScore>
0.0000

> <Gold.PLP.Chemscore.Metal>
0.0000

> <Gold.Chemscore.Hbonds>
donor molecule, donor type, donor heavy atom, donor atom, acceptor molecule, acceptor atom, score
      L1  H     9    23       P1 10175  0.88
      L1  H    11    26       P1  7957  0.86
      L1  H    11    27       P1  7948  2.00
      P1  H 10752 10764       L1    13  2.00

> <Gold.PLP.Chemscore.Internal.Correction>
0.0130

> <Gold.Rescore>
     Score         DG    S(hbond)    S(metal)    S(lipo)     H(rot)  DE(clash)    DE(int)     intcor
     15.87     -16.01       3.59        0.00      28.25       1.86       0.07       0.08       ----

> <Gold.Chemscore.Fitness>
15.8661

> <Gold.Chemscore.DG>
-16.0122

> <Gold.Chemscore.ZeroCoef>
-5.4800

> <Gold.Chemscore.Hbond>
3.5870

> <Gold.Chemscore.Metal>
0.0000

> <Gold.Chemscore.Lipo>
28.2455

> <Gold.Chemscore.Internal_Hbond>
0.0000

> <Gold.Chemscore.DEClash>
0.0650

> <Gold.Chemscore.DEInternal>
0.0810

> <Gold.Chemscore.Rot>
1.8567

> <Gold.Chemscore.Internal.Correction>
   9.000000E+99

> <Gold.Chemscore.Hbonds>
donor molecule, donor type, donor heavy atom, donor atom, acceptor molecule, acceptor atom, score
      L1  H     9    23       P1 10175  0.85
      L1  H    11    26       P1  7957  0.83
      L1  H    11    27       P1  7948  1.00
      P1  H 10752 10764       L1    13  0.77

> <Gold.Chemscore.Hbond.Weighted>
-11.9805

> <Gold.Chemscore.Metal.Weighted>
-0.0000

> <Gold.Chemscore.Lipo.Weighted>
-3.3047

> <Gold.Chemscore.Internal_Hbond.Weighted>
0.0000

> <Gold.Chemscore.DEClash.Weighted>
0.0650

> <Gold.Chemscore.DEInternal.Weighted>
0.0810

> <Gold.Chemscore.Rot.Weighted>
4.7531

> <Gold.Chemscore.Internal.Correction.Weighted>
   9.000000E+99

> <Gold.Protein.RotatedTorsions>
[ 6907 6896 6895 6894 ] final -120.57 input  -60.11 | X-H torsion
[ 7974 7965 7964 7962 ] final  -20.77 input  175.53 | X-H torsion
[ 8008 7997 7996 7995 ] final  -65.09 input   59.86 | X-H torsion
[ 10167 10162 10161 10158 ] final   65.94 input  -65.29 | X-H torsion
[ 10718 10713 10712 10709 ] final -171.97 input   66.30 | X-H torsion
[ 10763 10752 10751 10750 ] final  -49.48 input  -60.55 | X-H torsion
[ 11005 11000 10999 10996 ] final   59.41 input  -57.11 | X-H torsion

> <Gold.Protein.ActiveResidues>
 VAL166  LYS551  ARG553  GLY616  TRP617  ASP618  TYR619  PRO620  LYS621  CYS622 
 ASP623  PHE694  ASN695  SER759  ASP760  ASP761  ALA762  ILE779  LEU786  VAL792 
 PHE793  MET794  SER795  GLU796  ALA797  LYS798  CYS799  TRP800  GLU811  SER814 

> <Gold.Protein.RotatedAtoms>
  150.8405  133.7944  159.3062 H   0  0  0  0  0  0  0  0  0  0  0  0  # atno 6907 bound_to 6896
  151.5647  135.1063  159.9990 H   0  0  0  0  0  0  0  0  0  0  0  0  # atno 6908 bound_to 6896
  152.4469  133.7512  159.6751 H   0  0  0  0  0  0  0  0  0  0  0  0  # atno 6909 bound_to 6896
  146.1770  140.4248  142.8509 H   0  0  0  0  0  0  0  0  0  0  0  0  # atno 7974 bound_to 7965
  154.4650  140.0940  156.6997 H   0  0  0  0  0  0  0  0  0  0  0  0  # atno 8008 bound_to 7997
  155.4883  140.3470  155.4332 H   0  0  0  0  0  0  0  0  0  0  0  0  # atno 8009 bound_to 7997
  156.0940  140.1405  156.9543 H   0  0  0  0  0  0  0  0  0  0  0  0  # atno 8010 bound_to 7997
  140.1059  144.4862  150.7008 H   0  0  0  0  0  0  0  0  0  0  0  0  # atno 10167 bound_to 10162
  156.7487  130.9370  151.3113 H   0  0  0  0  0  0  0  0  0  0  0  0  # atno 10718 bound_to 10713
  154.0947  135.6572  153.4858 H   0  0  0  0  0  0  0  0  0  0  0  0  # atno 10763 bound_to 10752
  153.0309  135.5211  154.7345 H   0  0  0  0  0  0  0  0  0  0  0  0  # atno 10764 bound_to 10752
  154.6480  135.2997  154.9991 H   0  0  0  0  0  0  0  0  0  0  0  0  # atno 10765 bound_to 10752
  140.0306  134.6017  155.9512 H   0  0  0  0  0  0  0  0  0  0  0  0  # atno 11005 bound_to 11000
  144.8252  140.6617  143.6327 LP  0  0  0  0  0  0  0  0  0  0  0  0  # atno 17320 bound_to 7965
  145.4184  139.1568  143.4088 LP  0  0  0  0  0  0  0  0  0  0  0  0  # atno 17321 bound_to 7965
  140.6952  143.2400  151.5019 LP  0  0  0  0  0  0  0  0  0  0  0  0  # atno 17342 bound_to 10162
  139.5646  144.2074  152.1744 LP  0  0  0  0  0  0  0  0  0  0  0  0  # atno 17343 bound_to 10162
  157.6786  130.9118  150.0212 LP  0  0  0  0  0  0  0  0  0  0  0  0  # atno 17370 bound_to 10713
  156.1416  130.3642  149.9574 LP  0  0  0  0  0  0  0  0  0  0  0  0  # atno 17371 bound_to 10713
  141.1829  133.6550  156.5094 LP  0  0  0  0  0  0  0  0  0  0  0  0  # atno 17394 bound_to 11000
  140.4232  134.7169  157.4901 LP  0  0  0  0  0  0  0  0  0  0  0  0  # atno 17395 bound_to 11000

$$$$
