#       Name:                AV-unprocessed.smi:3181
#       Creating user name   scv26
#       Creation time:       Fri Mar 27 17:58:01 2020


#       File generated by GOLD software.
#

@<TRIPOS>MOLECULE
AV-unprocessed.smi:3181
    44    45     1
SMALL
NO_CHARGES


@<TRIPOS>ATOM
      1 ****        -1.7463  -1.3235  -2.5808 C.3            1 S1                 0.0000
      2 ****        -1.2978  -0.5339  -1.3400 C.3            1 S1                 0.0000
      3 ****        -1.8203  -1.1454  -0.0223 C.3            1 S1                 0.0000
      4 ****        -3.2686  -1.2164   0.0281 N.pl3          1 S1                 0.0000
      5 ****        -4.1755  -0.2635   0.2501 C.2            1 S1                 0.0000
      6 ****        -5.4269  -0.6991   0.2208 N.2            1 S1                 0.0000
      7 ****        -5.2028  -2.0221  -0.0365 C.2            1 S1                 0.0000
      8 ****        -3.9256  -2.3845  -0.1606 N.2            1 S1                 0.0000
      9 ****         0.1808  -0.4589  -1.3126 N.4            1 S1                 1.0000
     10 ****         0.7681   0.8983  -1.1967 C.3            1 S1                 0.0000
     11 ****         2.2799   0.8560  -1.4749 C.3            1 S1                 0.0000
     12 ****         3.0563   0.1714  -0.3386 C.3            1 S1                 0.0000
     13 ****         2.7856   0.8255   1.0318 C.3            1 S1                 0.0000
     14 ****         3.5924   0.1014   2.1242 C.3            1 S1                 0.0000
     15 ****         1.2636   0.8634   1.3299 C.3            1 S1                 0.0000
     16 ****         0.9299   1.5602   2.6609 C.3            1 S1                 0.0000
     17 ****         0.5003   1.5495   0.1761 C.3            1 S1                 0.0000
     18 ****        -2.8320  -1.3326  -2.6800 H              1 S1                 0.0000
     19 ****        -1.4078  -2.3592  -2.5371 H              1 S1                 0.0000
     20 ****        -1.3452  -0.8800  -3.4928 H              1 S1                 0.0000
     21 ****        -1.7049   0.4737  -1.4384 H              1 S1                 0.0000
     22 ****        -1.4134  -2.1485   0.1167 H              1 S1                 0.0000
     23 ****        -1.4886  -0.5586   0.8343 H              1 S1                 0.0000
     24 ****        -3.9157   0.7689   0.4332 H              1 S1                 0.0000
     25 ****        -6.0043  -2.7393  -0.1357 H              1 S1                 0.0000
     26 ****         0.5268  -1.0354  -0.5587 H              1 S1                 0.0000
     27 ****         0.3089   1.5135  -1.9720 H              1 S1                 0.0000
     28 ****         2.4777   0.3511  -2.4214 H              1 S1                 0.0000
     29 ****         2.6509   1.8751  -1.5935 H              1 S1                 0.0000
     30 ****         2.7924  -0.8864  -0.3003 H              1 S1                 0.0000
     31 ****         4.1233   0.2088  -0.5621 H              1 S1                 0.0000
     32 ****         3.1479   1.8537   0.9848 H              1 S1                 0.0000
     33 ****         3.2314  -0.9163   2.2763 H              1 S1                 0.0000
     34 ****         3.5402   0.6230   3.0795 H              1 S1                 0.0000
     35 ****         4.6475   0.0411   1.8558 H              1 S1                 0.0000
     36 ****         0.9075  -0.1648   1.4055 H              1 S1                 0.0000
     37 ****         1.3320   2.5733   2.6911 H              1 S1                 0.0000
     38 ****         1.3300   1.0146   3.5150 H              1 S1                 0.0000
     39 ****        -0.1485   1.6280   2.8074 H              1 S1                 0.0000
     40 ****         0.8053   2.5959   0.1282 H              1 S1                 0.0000
     41 ****        -0.5688   1.5711   0.3873 H              1 S1                 0.0000
     42 ****         0.5123  -0.8498  -2.1829 H              1 S1                 0.0000
     43 ****        -6.2857  -0.2033   0.3496 LP             1 S1                 0.0000
     44 ****        -3.5479  -3.2916  -0.3464 LP             1 S1                 0.0000
@<TRIPOS>BOND
    1    1    2 1     
    2    1   18 1     
    3    1   19 1     
    4    1   20 1     
    5    2    3 1     
    6    2    9 1     
    7    2   21 1     
    8    3    4 1     
    9    3   22 1     
   10    3   23 1     
   11    4    8 1     
   12    4    5 1     
   13    5    6 2     
   14    5   24 1     
   15    6    7 1     
   16    7    8 2     
   17    7   25 1     
   18    9   10 1     
   19    9   26 1     
   20    9   42 1     
   21   10   17 1     
   22   10   11 1     
   23   10   27 1     
   24   11   12 1     
   25   11   28 1     
   26   11   29 1     
   27   12   13 1     
   28   12   30 1     
   29   12   31 1     
   30   13   14 1     
   31   13   15 1     
   32   13   32 1     
   33   14   33 1     
   34   14   34 1     
   35   14   35 1     
   36   15   16 1     
   37   15   17 1     
   38   15   36 1     
   39   16   37 1     
   40   16   38 1     
   41   16   39 1     
   42   17   40 1     
   43   17   41 1     
   44    6   43 1     
   45    8   44 1     
@<TRIPOS>SUBSTRUCTURE
      1 S1             1
@<TRIPOS>SET
LONE_PAIRS      STATIC     ATOMS    <user>   **** ""
2 43 44
DONOR_HYDROGENS      STATIC     ATOMS    <user>   **** ""
2 26 42
ATOM$BLUE        STATIC     ATOMS    COLORGROUP SYSTEM
2 43 44
ATOM$RED        STATIC     ATOMS    COLORGROUP SYSTEM
2 26 42
