AV-unprocessed.smi:35|AV-procd|sdf|261|dock9
  -GOLD-   2262016 23D 1   1.00000     0.00000
 Structure written by MMmdl.
 29 30  0  0  0  0  0  0  0  0  1 V2000
  152.6329  137.7432  157.7801 O   0  0  0  0  0  0  0  0  0  0  0  0
  151.6176  138.2232  157.2807 C   0  0  0  0  0  0  0  0  0  0  0  0
  150.4429  138.3265  158.0313 N   0  0  0  0  0  0  0  0  0  0  0  0
  149.2324  138.8540  157.5764 C   0  0  0  0  0  0  0  0  0  0  0  0
  148.2647  138.9111  158.3337 O   0  0  0  0  0  0  0  0  0  0  0  0
  149.1914  139.3148  156.2410 N   0  0  0  0  0  0  0  0  0  0  0  0
  147.9104  139.9083  155.6934 C   0  0  2  0  0  0  0  0  0  0  0  0
  147.5661  139.2206  154.5286 O   0  0  0  0  0  0  0  0  0  0  0  0
  147.0920  140.1424  153.5527 C   0  0  2  0  0  0  0  0  0  0  0  0
  147.1962  139.5554  152.1339 C   0  0  0  0  0  0  0  0  0  0  0  0
  146.8781  138.1801  152.1523 O   0  0  0  0  0  0  0  0  0  0  0  0
  147.9355  141.3983  153.8125 C   0  0  2  0  0  0  0  0  0  0  0  0
  149.1985  141.3050  153.1736 O   0  0  0  0  0  0  0  0  0  0  0  0
  148.0467  141.4041  155.3340 C   0  0  2  0  0  0  0  0  0  0  0  0
  149.2177  142.0498  155.8057 O   0  0  0  0  0  0  0  0  0  0  0  0
  150.3360  139.2383  155.4588 C   0  0  0  0  0  0  0  0  0  0  0  0
  151.5027  138.7268  155.9164 C   0  0  0  0  0  0  0  0  0  0  0  0
  153.0206  138.7097  154.6439 Br  0  0  0  0  0  0  0  0  0  0  0  0
  150.4738  137.9955  158.9846 H   0  0  0  0  0  0  0  0  0  0  0  0
  147.1296  139.7225  156.4329 H   0  0  0  0  0  0  0  0  0  0  0  0
  146.0521  140.3819  153.7844 H   0  0  0  0  0  0  0  0  0  0  0  0
  146.4822  140.0454  151.4714 H   0  0  0  0  0  0  0  0  0  0  0  0
  148.1899  139.7084  151.7118 H   0  0  0  0  0  0  0  0  0  0  0  0
  147.6804  137.6854  152.0837 H   0  0  0  0  0  0  0  0  0  0  0  0
  147.4388  142.2969  153.4452 H   0  0  0  0  0  0  0  0  0  0  0  0
  149.1771  140.5721  152.5771 H   0  0  0  0  0  0  0  0  0  0  0  0
  147.1786  141.9159  155.7512 H   0  0  0  0  0  0  0  0  0  0  0  0
  149.1001  142.9824  155.7059 H   0  0  0  0  0  0  0  0  0  0  0  0
  150.3076  139.6014  154.4422 H   0  0  0  0  0  0  0  0  0  0  0  0
  1  2  2  0  0  0  0
  2 17  1  0  0  0  0
  2  3  1  0  0  0  0
  3 19  1  0  0  0  0
  3  4  1  0  0  0  0
  4  5  2  0  0  0  0
  4  6  1  0  0  0  0
  6  7  1  0  0  0  0
  6 16  1  0  0  0  0
  7 14  1  0  0  0  0
  7  8  1  0  0  0  0
  7 20  1  0  0  0  0
  8  9  1  0  0  0  0
  9 10  1  0  0  0  0
  9 12  1  0  0  0  0
  9 21  1  0  0  0  0
 10 11  1  0  0  0  0
 10 22  1  0  0  0  0
 10 23  1  0  0  0  0
 11 24  1  0  0  0  0
 12 13  1  0  0  0  0
 12 14  1  0  0  0  0
 12 25  1  0  0  0  0
 13 26  1  0  0  0  0
 14 15  1  0  0  0  0
 14 27  1  0  0  0  0
 15 28  1  0  0  0  0
 16 17  2  0  0  0  0
 16 29  1  0  0  0  0
 17 18  1  0  0  0  0
M  END
> <s_m_source_file>
AV-unprocessed.smi

> <i_m_source_file_index>
35

> <i_lp_mmshare_version>
43012

> <i_f3d_flags>
0

> <s_epik_input>
Tz1jMVtuSF1jKD1PKW4oW2NIXWMxQnIpW0NAQEhdMk9bQ0BASF0oW0NIMl1bT0hdKVtDQEBIXShbT0hdKVtDQEhdMltPSF0=

> <s_epik_cmdline>
J2VwaWtfcHl0aG9uJywgJy1waCcsICc3LjAnLCAnLXRuJywgJzgnLCAnLW1hJywgJzIwMCcsICctbWV0YWxfYmluZGluZycsICctaW1hZScsICc8aW5maWxlLm1hZT4nLCAnLW9tYWUnLCAnPG91dGZpbGUubWFlPic=

> <r_lp_tautomer_probability>
0.999537

> <r_epik_Ionization_Penalty>
0.10812

> <r_epik_Ionization_Penalty_Charging>
0.108119

> <r_epik_Ionization_Penalty_Neutral>
4.93006e-07

> <r_epik_State_Penalty>
0.0979238

> <r_epik_Charging_Adjusted_Penalty>
0.206043

> <i_epik_Tot_Q>
0

> <i_epik_Tot_abs_Q>
0

> <r_epik_Metal_State_Penalty>
3.07911

> <b_epik_Metal_Only>
0

> <s_epik_Chemistry_Notes>
This compound contains an acetal/aminal-like group ( X-CH(R)-Y where X, Y are N, S, or O) that may be acid/base labile, releasing an aldehyde.

> <s_lp_Force_Field>
OPLS_2005

> <r_lp_Energy>
38.5572

> <b_lp_Chiralities_Consistent>
1

> <s_lp_Variant>
AV-unprocessed.smi:35-15

> <Gold.Version>
5.8.1

> <Gold.Id.Protein>
6NUR|6NUR_protein|mol2

> <Gold.PLP.Fitness>
34.5302

> <Gold.PLP.PLP>
-23.3834

> <Gold.PLP.part.hbond>
-5.4670

> <Gold.PLP.part.metal>
0.0000

> <Gold.PLP.part.buried>
-0.6607

> <Gold.PLP.part.nonpolar>
-17.1842

> <Gold.PLP.part.repulsive>
0.1942

> <Gold.PLP.ligand.clash>
0.0000

> <Gold.PLP.ligand.torsion>
0.2884

> <Gold.PLP.Chemscore.Hbond>
3.9033

> <Gold.PLP.Chemscore.CHOScore>
0.0000

> <Gold.PLP.Chemscore.Metal>
0.0000

> <Gold.Chemscore.Hbonds>
donor molecule, donor type, donor heavy atom, donor atom, acceptor molecule, acceptor atom, score
      L1  H    11    24       P1  7948  1.00
      L1  H    13    26       P1  7957  0.90
      L1  H    15    28       P1  8028  1.00
      P1  H  8011  8017       L1    13  0.96

> <Gold.PLP.Chemscore.Internal.Correction>
0.0138

> <Gold.Rescore>
     Score         DG    S(hbond)    S(metal)    S(lipo)     H(rot)  DE(clash)    DE(int)     intcor
     12.16     -13.03       3.37        0.00      48.69       3.67       0.50       0.37       ----

> <Gold.Chemscore.Fitness>
12.1642

> <Gold.Chemscore.DG>
-13.0292

> <Gold.Chemscore.ZeroCoef>
-5.4800

> <Gold.Chemscore.Hbond>
3.3676

> <Gold.Chemscore.Metal>
0.0000

> <Gold.Chemscore.Lipo>
48.6915

> <Gold.Chemscore.Internal_Hbond>
0.0000

> <Gold.Chemscore.DEClash>
0.4975

> <Gold.Chemscore.DEInternal>
0.3675

> <Gold.Chemscore.Rot>
3.6701

> <Gold.Chemscore.Internal.Correction>
   9.000000E+99

> <Gold.Chemscore.Hbonds>
donor molecule, donor type, donor heavy atom, donor atom, acceptor molecule, acceptor atom, score
      L1  H    11    24       P1  7948  0.99
      L1  H    13    26       P1  7957  0.85
      L1  H    15    28       P1  8028  1.00
      P1  H  8011  8017       L1    13  0.35

> <Gold.Chemscore.Hbond.Weighted>
-11.2477

> <Gold.Chemscore.Metal.Weighted>
-0.0000

> <Gold.Chemscore.Lipo.Weighted>
-5.6969

> <Gold.Chemscore.Internal_Hbond.Weighted>
0.0000

> <Gold.Chemscore.DEClash.Weighted>
0.4975

> <Gold.Chemscore.DEInternal.Weighted>
0.3675

> <Gold.Chemscore.Rot.Weighted>
9.3955

> <Gold.Chemscore.Internal.Correction.Weighted>
   9.000000E+99

> <Gold.Protein.RotatedTorsions>
[ 6907 6896 6895 6894 ] final  -92.97 input  -60.11 | X-H torsion
[ 7974 7965 7964 7962 ] final   47.11 input  175.53 | X-H torsion
[ 8008 7997 7996 7995 ] final    2.57 input   59.86 | X-H torsion
[ 10167 10162 10161 10158 ] final   71.13 input  -65.29 | X-H torsion
[ 10718 10713 10712 10709 ] final  -94.05 input   66.30 | X-H torsion
[ 10763 10752 10751 10750 ] final -133.97 input  -60.55 | X-H torsion
[ 11005 11000 10999 10996 ] final  162.63 input  -57.11 | X-H torsion

> <Gold.Protein.ActiveResidues>
 VAL166  LYS551  ARG553  GLY616  TRP617  ASP618  TYR619  PRO620  LYS621  CYS622 
 ASP623  PHE694  ASN695  SER759  ASP760  ASP761  ALA762  ILE779  LEU786  VAL792 
 PHE793  MET794  SER795  GLU796  ALA797  LYS798  CYS799  TRP800  GLU811  SER814 

> <Gold.Protein.RotatedAtoms>
  150.6915  134.2039  159.4332 H   0  0  0  0  0  0  0  0  0  0  0  0  # atno 6907 bound_to 6896
  152.0004  134.9929  160.0574 H   0  0  0  0  0  0  0  0  0  0  0  0  # atno 6908 bound_to 6896
  152.1584  133.4531  159.4885 H   0  0  0  0  0  0  0  0  0  0  0  0  # atno 6909 bound_to 6896
  146.0328  139.4784  142.9827 H   0  0  0  0  0  0  0  0  0  0  0  0  # atno 7974 bound_to 7965
  154.6932  140.2657  155.6792 H   0  0  0  0  0  0  0  0  0  0  0  0  # atno 8008 bound_to 7997
  156.2739  140.2787  156.1441 H   0  0  0  0  0  0  0  0  0  0  0  0  # atno 8009 bound_to 7997
  155.0868  140.0373  157.2646 H   0  0  0  0  0  0  0  0  0  0  0  0  # atno 8010 bound_to 7997
  140.0494  144.5324  150.7374 H   0  0  0  0  0  0  0  0  0  0  0  0  # atno 10167 bound_to 10162
  156.0021  130.5052  150.5869 H   0  0  0  0  0  0  0  0  0  0  0  0  # atno 10718 bound_to 10713
  154.8726  135.3749  154.4660 H   0  0  0  0  0  0  0  0  0  0  0  0  # atno 10763 bound_to 10752
  153.5324  135.7027  153.5682 H   0  0  0  0  0  0  0  0  0  0  0  0  # atno 10764 bound_to 10752
  153.3880  135.3979  155.1868 H   0  0  0  0  0  0  0  0  0  0  0  0  # atno 10765 bound_to 10752
  140.2276  134.8148  157.3285 H   0  0  0  0  0  0  0  0  0  0  0  0  # atno 11005 bound_to 11000
  145.7013  141.0135  143.1503 LP  0  0  0  0  0  0  0  0  0  0  0  0  # atno 17320 bound_to 7965
  144.7038  139.8647  143.7436 LP  0  0  0  0  0  0  0  0  0  0  0  0  # atno 17321 bound_to 7965
  140.7224  143.2601  151.4236 LP  0  0  0  0  0  0  0  0  0  0  0  0  # atno 17342 bound_to 10162
  139.5963  144.1391  152.2147 LP  0  0  0  0  0  0  0  0  0  0  0  0  # atno 17343 bound_to 10162
  157.3740  131.0770  151.1534 LP  0  0  0  0  0  0  0  0  0  0  0  0  # atno 17370 bound_to 10713
  157.2278  130.6511  149.5837 LP  0  0  0  0  0  0  0  0  0  0  0  0  # atno 17371 bound_to 10713
  140.1784  134.4521  155.7787 LP  0  0  0  0  0  0  0  0  0  0  0  0  # atno 17394 bound_to 11000
  141.2219  133.6972  156.7826 LP  0  0  0  0  0  0  0  0  0  0  0  0  # atno 17395 bound_to 11000

$$$$
