AV-unprocessed.smi:2754|AV-procd|sdf|10616|dock6
  -GOLD-   2272015 63D 1   1.00000     0.00000
 Structure written by MMmdl.
 28 29  0  0  0  0  0  0  0  0  2 V2000
  147.2109  135.4386  155.2844 N   0  0  0  0  0  0  0  0  0  0  0  0
  146.6233  135.9696  154.1630 C   0  0  0  0  0  0  0  0  0  0  0  0
  146.3368  137.2723  154.1983 N   0  0  0  0  0  0  0  0  0  0  0  0
  145.7606  137.7985  153.0959 C   0  0  0  0  0  0  0  0  0  0  0  0
  145.4721  137.0122  151.9615 C   0  0  0  0  0  0  0  0  0  0  0  0
  145.8195  135.6461  152.0424 C   0  0  0  0  0  0  0  0  0  0  0  0
  145.5566  134.6926  150.8854 C   0  0  1  0  0  0  0  0  0  0  0  0
  145.9686  133.2448  151.2172 C   0  0  0  0  0  0  0  0  0  0  0  0
  145.6792  132.3170  150.0270 C   0  0  0  0  0  0  0  0  0  0  0  0
  144.2105  132.4304  149.5857 C   0  0  0  0  0  0  0  0  0  0  0  0
  143.8671  133.8335  149.2672 N   0  3  0  0  0  0  0  0  0  0  0  0
  144.0923  134.7566  150.4015 C   0  0  0  0  0  0  0  0  0  0  0  0
  146.3974  135.1283  153.1515 N   0  0  0  0  0  0  0  0  0  0  0  0
  147.4501  134.4581  155.3167 H   0  0  0  0  0  0  0  0  0  0  0  0
  147.3078  135.9939  156.1219 H   0  0  0  0  0  0  0  0  0  0  0  0
  145.5271  138.8527  153.1193 H   0  0  0  0  0  0  0  0  0  0  0  0
  145.0112  137.4403  151.0835 H   0  0  0  0  0  0  0  0  0  0  0  0
  146.1841  135.0226  150.0557 H   0  0  0  0  0  0  0  0  0  0  0  0
  147.0277  133.2025  151.4733 H   0  0  0  0  0  0  0  0  0  0  0  0
  145.4219  132.8897  152.0920 H   0  0  0  0  0  0  0  0  0  0  0  0
  146.3340  132.5742  149.1933 H   0  0  0  0  0  0  0  0  0  0  0  0
  145.9101  131.2854  150.2943 H   0  0  0  0  0  0  0  0  0  0  0  0
  144.0309  131.8118  148.7060 H   0  0  0  0  0  0  0  0  0  0  0  0
  143.5475  132.0671  150.3722 H   0  0  0  0  0  0  0  0  0  0  0  0
  144.4369  134.1343  148.4893 H   0  0  0  0  0  0  0  0  0  0  0  0
  143.4064  134.4952  151.2085 H   0  0  0  0  0  0  0  0  0  0  0  0
  143.8411  135.7695  150.0853 H   0  0  0  0  0  0  0  0  0  0  0  0
  142.8952  133.8799  148.9958 H   0  0  0  0  0  0  0  0  0  0  0  0
  1  2  1  0  0  0  0
  1 14  1  0  0  0  0
  1 15  1  0  0  0  0
  2 13  1  0  0  0  0
  2  3  2  0  0  0  0
  3  4  1  0  0  0  0
  4  5  2  0  0  0  0
  4 16  1  0  0  0  0
  5  6  1  0  0  0  0
  5 17  1  0  0  0  0
  6  7  1  0  0  0  0
  6 13  2  0  0  0  0
  7 12  1  0  0  0  0
  7  8  1  0  0  0  0
  7 18  1  0  0  0  0
  8  9  1  0  0  0  0
  8 19  1  0  0  0  0
  8 20  1  0  0  0  0
  9 10  1  0  0  0  0
  9 21  1  0  0  0  0
  9 22  1  0  0  0  0
 10 11  1  0  0  0  0
 10 23  1  0  0  0  0
 10 24  1  0  0  0  0
 11 12  1  0  0  0  0
 11 25  1  0  0  0  0
 11 28  1  0  0  0  0
 12 26  1  0  0  0  0
 12 27  1  0  0  0  0
M  CHG  1  11   1
M  END
> <s_m_source_file>
AV-unprocessed.smi

> <i_m_source_file_index>
2754

> <i_lp_mmshare_version>
43012

> <i_f3d_flags>
0

> <s_epik_input>
W05IMl1jMW5bY0hdW2NIXWMobjEpW0NAQEhdMltDSDJdW0NIMl1bQ0gyXVtOSF1bQ0gyXTI=

> <s_epik_cmdline>
J2VwaWtfcHl0aG9uJywgJy1waCcsICc3LjAnLCAnLXRuJywgJzgnLCAnLW1hJywgJzIwMCcsICctbWV0YWxfYmluZGluZycsICctaW1hZScsICc8aW5maWxlLm1hZT4nLCAnLW9tYWUnLCAnPG91dGZpbGUubWFlPic=

> <r_lp_tautomer_probability>
1

> <r_epik_Ionization_Penalty>
0.000528025

> <r_epik_Ionization_Penalty_Charging>
0.000372054

> <r_epik_Ionization_Penalty_Neutral>
0.000155972

> <r_epik_State_Penalty>
-0

> <r_epik_Charging_Adjusted_Penalty>
0.000372054

> <i_epik_Tot_Q>
1

> <i_epik_Tot_abs_Q>
1

> <r_epik_Metal_State_Penalty>
-0

> <b_epik_Metal_Only>
0

> <s_lp_Force_Field>
OPLS_2005

> <r_lp_Energy>
4.9837

> <b_lp_Chiralities_Consistent>
1

> <s_lp_Variant>
AV-unprocessed.smi:2754-2

> <Gold.Version>
5.8.1

> <Gold.Id.Protein>
6NUR|6NUR_protein|mol2

> <Gold.PLP.Fitness>
31.4416

> <Gold.PLP.PLP>
-19.9681

> <Gold.PLP.part.hbond>
-2.0000

> <Gold.PLP.part.metal>
0.0000

> <Gold.PLP.part.buried>
-1.2686

> <Gold.PLP.part.nonpolar>
-17.4799

> <Gold.PLP.part.repulsive>
0.8331

> <Gold.PLP.ligand.clash>
0.0000

> <Gold.PLP.ligand.torsion>
0.0657

> <Gold.PLP.Chemscore.Hbond>
2.8880

> <Gold.PLP.Chemscore.CHOScore>
0.9686

> <Gold.PLP.Chemscore.Metal>
0.0000

> <Gold.Chemscore.Hbonds>
donor molecule, donor type, donor heavy atom, donor atom, acceptor molecule, acceptor atom, score
      L1  H    11    25       P1  7921  1.00
      L1  H    11    28       P1 10186  1.84
      L1  C     4    16       P1 10175  0.98

> <Gold.PLP.Chemscore.Internal.Correction>
0.0351

> <Gold.Rescore>
     Score         DG    S(hbond)    S(metal)    S(lipo)     H(rot)  DE(clash)    DE(int)     intcor
     15.84     -15.90       1.90        0.00      56.81       1.00       0.01       0.05       ----

> <Gold.Chemscore.Fitness>
15.8359

> <Gold.Chemscore.DG>
-15.8973

> <Gold.Chemscore.ZeroCoef>
-5.4800

> <Gold.Chemscore.Hbond>
1.8953

> <Gold.Chemscore.Metal>
0.0000

> <Gold.Chemscore.Lipo>
56.8106

> <Gold.Chemscore.Internal_Hbond>
0.0000

> <Gold.Chemscore.DEClash>
0.0131

> <Gold.Chemscore.DEInternal>
0.0482

> <Gold.Chemscore.Rot>
1.0000

> <Gold.Chemscore.Internal.Correction>
   9.000000E+99

> <Gold.Chemscore.Hbonds>
donor molecule, donor type, donor heavy atom, donor atom, acceptor molecule, acceptor atom, score
      L1  H    11    25       P1  7921  0.93
      L1  H    11    28       P1 10186  0.84

> <Gold.Chemscore.Hbond.Weighted>
-6.3304

> <Gold.Chemscore.Metal.Weighted>
-0.0000

> <Gold.Chemscore.Lipo.Weighted>
-6.6468

> <Gold.Chemscore.Internal_Hbond.Weighted>
0.0000

> <Gold.Chemscore.DEClash.Weighted>
0.0131

> <Gold.Chemscore.DEInternal.Weighted>
0.0482

> <Gold.Chemscore.Rot.Weighted>
2.5600

> <Gold.Chemscore.Internal.Correction.Weighted>
   9.000000E+99

> <Gold.Protein.RotatedTorsions>
[ 6907 6896 6895 6894 ] final -129.39 input  -60.11 | X-H torsion
[ 7974 7965 7964 7962 ] final  -41.34 input  175.53 | X-H torsion
[ 8008 7997 7996 7995 ] final  -30.31 input   59.86 | X-H torsion
[ 10167 10162 10161 10158 ] final  179.56 input  -65.29 | X-H torsion
[ 10718 10713 10712 10709 ] final  -55.69 input   66.30 | X-H torsion
[ 10763 10752 10751 10750 ] final  112.75 input  -60.55 | X-H torsion
[ 11005 11000 10999 10996 ] final  171.15 input  -57.11 | X-H torsion

> <Gold.Protein.ActiveResidues>
 VAL166  LYS551  ARG553  GLY616  TRP617  ASP618  TYR619  PRO620  LYS621  CYS622 
 ASP623  PHE694  ASN695  SER759  ASP760  ASP761  ALA762  ILE779  LEU786  VAL792 
 PHE793  MET794  SER795  GLU796  ALA797  LYS798  CYS799  TRP800  GLU811  SER814 

> <Gold.Protein.RotatedAtoms>
  150.9282  133.6798  159.2816 H   0  0  0  0  0  0  0  0  0  0  0  0  # atno 6907 bound_to 6896
  151.4229  135.0999  159.9629 H   0  0  0  0  0  0  0  0  0  0  0  0  # atno 6908 bound_to 6896
  152.5013  133.8730  159.7363 H   0  0  0  0  0  0  0  0  0  0  0  0  # atno 6909 bound_to 6896
  146.0220  140.6838  142.9174 H   0  0  0  0  0  0  0  0  0  0  0  0  # atno 7974 bound_to 7965
  154.4255  140.1794  156.1387 H   0  0  0  0  0  0  0  0  0  0  0  0  # atno 8008 bound_to 7997
  156.0009  140.3360  155.6820 H   0  0  0  0  0  0  0  0  0  0  0  0  # atno 8009 bound_to 7997
  155.6244  140.0663  157.2659 H   0  0  0  0  0  0  0  0  0  0  0  0  # atno 8010 bound_to 7997
  139.5342  144.2546  152.0757 H   0  0  0  0  0  0  0  0  0  0  0  0  # atno 10167 bound_to 10162
  156.1348  130.4157  150.0204 H   0  0  0  0  0  0  0  0  0  0  0  0  # atno 10718 bound_to 10713
  153.4825  135.3676  155.2449 H   0  0  0  0  0  0  0  0  0  0  0  0  # atno 10763 bound_to 10752
  154.8755  135.3957  154.3684 H   0  0  0  0  0  0  0  0  0  0  0  0  # atno 10764 bound_to 10752
  153.4290  135.7082  153.6309 H   0  0  0  0  0  0  0  0  0  0  0  0  # atno 10765 bound_to 10752
  140.3159  134.7477  157.4027 H   0  0  0  0  0  0  0  0  0  0  0  0  # atno 11005 bound_to 11000
  144.6994  140.3583  143.7169 LP  0  0  0  0  0  0  0  0  0  0  0  0  # atno 17320 bound_to 7965
  145.7178  139.1701  143.2502 LP  0  0  0  0  0  0  0  0  0  0  0  0  # atno 17321 bound_to 7965
  140.2014  144.4654  150.6430 LP  0  0  0  0  0  0  0  0  0  0  0  0  # atno 17342 bound_to 10162
  140.6539  143.2232  151.6015 LP  0  0  0  0  0  0  0  0  0  0  0  0  # atno 17343 bound_to 10162
  156.8106  130.9323  151.3644 LP  0  0  0  0  0  0  0  0  0  0  0  0  # atno 17370 bound_to 10713
  157.6522  130.8894  149.9656 LP  0  0  0  0  0  0  0  0  0  0  0  0  # atno 17371 bound_to 10713
  140.0984  134.5506  155.8377 LP  0  0  0  0  0  0  0  0  0  0  0  0  # atno 17394 bound_to 11000
  141.2097  133.6687  156.6461 LP  0  0  0  0  0  0  0  0  0  0  0  0  # atno 17395 bound_to 11000

$$$$
