AV-unprocessed.smi:3202|AV-procd|sdf|12241|dock7
  -GOLD-   2272018 73D 1   1.00000     0.00000
 Structure written by MMmdl.
 43 44  0  0  0  0  0  0  0  0  2 V2000
  146.8804  138.6722  153.1383 C   0  0  0  0  0  0  0  0  0  0  0  0
  148.0561  139.3743  153.7279 C   0  0  0  0  0  0  0  0  0  0  0  0
  148.1438  140.4889  154.5133 C   0  0  0  0  0  0  0  0  0  0  0  0
  149.5417  140.6496  154.7438 C   0  0  0  0  0  0  0  0  0  0  0  0
  150.2250  141.7258  155.5436 C   0  0  0  0  0  0  0  0  0  0  0  0
  149.9862  141.6067  157.0669 C   0  0  2  0  0  0  0  0  0  0  0  0
  148.9396  140.5385  157.4248 C   0  0  0  0  0  0  0  0  0  0  0  0
  149.5542  142.9054  157.6329 N   0  3  0  0  0  0  0  0  0  0  0  0
  150.2692  143.3570  158.8509 C   0  0  2  0  0  0  0  0  0  0  0  0
  149.8207  144.7407  159.3428 C   0  0  0  0  0  0  0  0  0  0  0  0
  151.0223  145.3164  160.1034 C   0  0  0  0  0  0  0  0  0  0  0  0
  152.1883  144.3454  159.8665 C   0  0  0  0  0  0  0  0  0  0  0  0
  151.7958  143.4801  158.6554 C   0  0  0  0  0  0  0  0  0  0  0  0
  152.4910  142.1068  158.7043 C   0  0  0  0  0  0  0  0  0  0  0  0
  152.1791  144.2074  157.3454 C   0  0  0  0  0  0  0  0  0  0  0  0
  150.2625  139.7094  154.1489 N   0  0  0  0  0  0  0  0  0  0  0  0
  149.3466  138.9396  153.5325 N   0  0  0  0  0  0  0  0  0  0  0  0
  149.6127  138.1293  152.9906 H   0  0  0  0  0  0  0  0  0  0  0  0
  145.9477  139.1361  153.4597 H   0  0  0  0  0  0  0  0  0  0  0  0
  146.8586  137.6263  153.4450 H   0  0  0  0  0  0  0  0  0  0  0  0
  146.9153  138.7061  152.0493 H   0  0  0  0  0  0  0  0  0  0  0  0
  147.3288  141.1009  154.8708 H   0  0  0  0  0  0  0  0  0  0  0  0
  151.2921  141.6885  155.3276 H   0  0  0  0  0  0  0  0  0  0  0  0
  149.8945  142.7076  155.2005 H   0  0  0  0  0  0  0  0  0  0  0  0
  150.9202  141.3140  157.5471 H   0  0  0  0  0  0  0  0  0  0  0  0
  149.2691  139.5400  157.1375 H   0  0  0  0  0  0  0  0  0  0  0  0
  147.9876  140.7321  156.9294 H   0  0  0  0  0  0  0  0  0  0  0  0
  148.7562  140.5147  158.4994 H   0  0  0  0  0  0  0  0  0  0  0  0
  149.6553  143.6092  156.9157 H   0  0  0  0  0  0  0  0  0  0  0  0
  150.0919  142.6422  159.6550 H   0  0  0  0  0  0  0  0  0  0  0  0
  149.5802  145.3885  158.4985 H   0  0  0  0  0  0  0  0  0  0  0  0
  148.9320  144.6832  159.9720 H   0  0  0  0  0  0  0  0  0  0  0  0
  151.2637  146.3103  159.7249 H   0  0  0  0  0  0  0  0  0  0  0  0
  150.8120  145.4169  161.1688 H   0  0  0  0  0  0  0  0  0  0  0  0
  153.1373  144.8648  159.7284 H   0  0  0  0  0  0  0  0  0  0  0  0
  152.3000  143.7160  160.7508 H   0  0  0  0  0  0  0  0  0  0  0  0
  153.5752  142.2129  158.6552 H   0  0  0  0  0  0  0  0  0  0  0  0
  152.1834  141.4767  157.8690 H   0  0  0  0  0  0  0  0  0  0  0  0
  152.2568  141.5687  159.6236 H   0  0  0  0  0  0  0  0  0  0  0  0
  153.2554  144.3748  157.2931 H   0  0  0  0  0  0  0  0  0  0  0  0
  151.6973  145.1816  157.2594 H   0  0  0  0  0  0  0  0  0  0  0  0
  151.9044  143.6258  156.4651 H   0  0  0  0  0  0  0  0  0  0  0  0
  148.5751  142.8347  157.8709 H   0  0  0  0  0  0  0  0  0  0  0  0
  1  2  1  0  0  0  0
  1 19  1  0  0  0  0
  1 20  1  0  0  0  0
  1 21  1  0  0  0  0
  2 17  1  0  0  0  0
  2  3  2  0  0  0  0
  3  4  1  0  0  0  0
  3 22  1  0  0  0  0
  4  5  1  0  0  0  0
  4 16  2  0  0  0  0
  5  6  1  0  0  0  0
  5 23  1  0  0  0  0
  5 24  1  0  0  0  0
  6  7  1  0  0  0  0
  6  8  1  0  0  0  0
  6 25  1  0  0  0  0
  7 26  1  0  0  0  0
  7 27  1  0  0  0  0
  7 28  1  0  0  0  0
  8  9  1  0  0  0  0
  8 29  1  0  0  0  0
  8 43  1  0  0  0  0
  9 13  1  0  0  0  0
  9 10  1  0  0  0  0
  9 30  1  0  0  0  0
 10 11  1  0  0  0  0
 10 31  1  0  0  0  0
 10 32  1  0  0  0  0
 11 12  1  0  0  0  0
 11 33  1  0  0  0  0
 11 34  1  0  0  0  0
 12 13  1  0  0  0  0
 12 35  1  0  0  0  0
 12 36  1  0  0  0  0
 13 14  1  0  0  0  0
 13 15  1  0  0  0  0
 14 37  1  0  0  0  0
 14 38  1  0  0  0  0
 14 39  1  0  0  0  0
 15 40  1  0  0  0  0
 15 41  1  0  0  0  0
 15 42  1  0  0  0  0
 16 17  1  0  0  0  0
 17 18  1  0  0  0  0
M  CHG  1   8   1
M  END
> <s_m_source_file>
AV-unprocessed.smi

> <i_m_source_file_index>
3202

> <i_lp_mmshare_version>
43012

> <i_f3d_flags>
0

> <s_epik_input>
W0NIM11jMVtjSF1jKG5bbkhdMSlbQ0gyXVtDQEhdKFtDSDNdKVtOSF1bQ0BASF0oQzIoW0NIM10pW0NIM10pW0NIMl1bQ0gyXVtDSDJdMg==

> <s_epik_cmdline>
J2VwaWtfcHl0aG9uJywgJy1waCcsICc3LjAnLCAnLXRuJywgJzgnLCAnLW1hJywgJzIwMCcsICctbWV0YWxfYmluZGluZycsICctaW1hZScsICc8aW5maWxlLm1hZT4nLCAnLW9tYWUnLCAnPG91dGZpbGUubWFlPic=

> <r_lp_tautomer_probability>
0.5

> <r_epik_Ionization_Penalty>
0.000341671

> <r_epik_Ionization_Penalty_Charging>
0.000281809

> <r_epik_Ionization_Penalty_Neutral>
5.9862e-05

> <r_epik_State_Penalty>
0.41068

> <r_epik_Charging_Adjusted_Penalty>
0.410962

> <i_epik_Tot_Q>
1

> <i_epik_Tot_abs_Q>
1

> <r_epik_Metal_State_Penalty>
0.410672

> <b_epik_Metal_Only>
0

> <s_lp_Force_Field>
OPLS_2005

> <r_lp_Energy>
28.8614

> <b_lp_Chiralities_Consistent>
1

> <s_lp_Variant>
AV-unprocessed.smi:3202-1

> <Gold.Version>
5.8.1

> <Gold.Id.Protein>
6NUR|6NUR_protein|mol2

> <Gold.PLP.Fitness>
42.5886

> <Gold.PLP.PLP>
-35.3376

> <Gold.PLP.part.hbond>
-3.4611

> <Gold.PLP.part.metal>
0.0000

> <Gold.PLP.part.buried>
-4.2606

> <Gold.PLP.part.nonpolar>
-27.5617

> <Gold.PLP.part.repulsive>
1.0423

> <Gold.PLP.ligand.clash>
0.0000

> <Gold.PLP.ligand.torsion>
1.4631

> <Gold.PLP.Chemscore.Hbond>
3.3900

> <Gold.PLP.Chemscore.CHOScore>
0.0000

> <Gold.PLP.Chemscore.Metal>
0.0000

> <Gold.Chemscore.Hbonds>
donor molecule, donor type, donor heavy atom, donor atom, acceptor molecule, acceptor atom, score
      L1  H     8    29       P1  8028  1.98
      L1  H    17    18       P1  7948  0.42
      P1  H  7989  7998       L1    16  0.85

> <Gold.PLP.Chemscore.Internal.Correction>
0.0072

> <Gold.Rescore>
     Score         DG    S(hbond)    S(metal)    S(lipo)     H(rot)  DE(clash)    DE(int)     intcor
     17.22     -20.95       1.87        0.00     110.79       1.46       1.27       2.46       ----

> <Gold.Chemscore.Fitness>
17.2249

> <Gold.Chemscore.DG>
-20.9513

> <Gold.Chemscore.ZeroCoef>
-5.4800

> <Gold.Chemscore.Hbond>
1.8697

> <Gold.Chemscore.Metal>
0.0000

> <Gold.Chemscore.Lipo>
110.7942

> <Gold.Chemscore.Internal_Hbond>
0.0000

> <Gold.Chemscore.DEClash>
1.2690

> <Gold.Chemscore.DEInternal>
2.4574

> <Gold.Chemscore.Rot>
1.4596

> <Gold.Chemscore.Internal.Correction>
   9.000000E+99

> <Gold.Chemscore.Hbonds>
donor molecule, donor type, donor heavy atom, donor atom, acceptor molecule, acceptor atom, score
      L1  H     8    29       P1  8028  0.91
      L1  H    17    18       P1  7948  0.30
      P1  H  7989  7998       L1    16  0.14

> <Gold.Chemscore.Hbond.Weighted>
-6.2449

> <Gold.Chemscore.Metal.Weighted>
-0.0000

> <Gold.Chemscore.Lipo.Weighted>
-12.9629

> <Gold.Chemscore.Internal_Hbond.Weighted>
0.0000

> <Gold.Chemscore.DEClash.Weighted>
1.2690

> <Gold.Chemscore.DEInternal.Weighted>
2.4574

> <Gold.Chemscore.Rot.Weighted>
3.7365

> <Gold.Chemscore.Internal.Correction.Weighted>
   9.000000E+99

> <Gold.Protein.RotatedTorsions>
[ 6907 6896 6895 6894 ] final -160.93 input  -60.11 | X-H torsion
[ 7974 7965 7964 7962 ] final  108.51 input  175.53 | X-H torsion
[ 8008 7997 7996 7995 ] final   89.18 input   59.86 | X-H torsion
[ 10167 10162 10161 10158 ] final   39.06 input  -65.29 | X-H torsion
[ 10718 10713 10712 10709 ] final  -50.01 input   66.30 | X-H torsion
[ 10763 10752 10751 10750 ] final -165.96 input  -60.55 | X-H torsion
[ 11005 11000 10999 10996 ] final   44.14 input  -57.11 | X-H torsion

> <Gold.Protein.ActiveResidues>
 VAL166  LYS551  ARG553  GLY616  TRP617  ASP618  TYR619  PRO620  LYS621  CYS622 
 ASP623  PHE694  ASN695  SER759  ASP760  ASP761  ALA762  ILE779  LEU786  VAL792 
 PHE793  MET794  SER795  GLU796  ALA797  LYS798  CYS799  TRP800  GLU811  SER814 

> <Gold.Protein.RotatedAtoms>
  151.3567  133.3904  159.2685 H   0  0  0  0  0  0  0  0  0  0  0  0  # atno 6907 bound_to 6896
  150.9758  134.9123  159.7825 H   0  0  0  0  0  0  0  0  0  0  0  0  # atno 6908 bound_to 6896
  152.5200  134.3530  159.9310 H   0  0  0  0  0  0  0  0  0  0  0  0  # atno 6909 bound_to 6896
  145.2797  139.2637  143.3922 H   0  0  0  0  0  0  0  0  0  0  0  0  # atno 7974 bound_to 7965
  155.9968  140.3363  155.6806 H   0  0  0  0  0  0  0  0  0  0  0  0  # atno 8008 bound_to 7997
  155.6346  140.0688  157.2656 H   0  0  0  0  0  0  0  0  0  0  0  0  # atno 8009 bound_to 7997
  154.4236  140.1753  156.1495 H   0  0  0  0  0  0  0  0  0  0  0  0  # atno 8010 bound_to 7997
  140.3876  144.1895  150.6130 H   0  0  0  0  0  0  0  0  0  0  0  0  # atno 10167 bound_to 10162
  156.1840  130.4151  149.9466 H   0  0  0  0  0  0  0  0  0  0  0  0  # atno 10718 bound_to 10713
  154.6880  135.2966  154.9520 H   0  0  0  0  0  0  0  0  0  0  0  0  # atno 10763 bound_to 10752
  154.0492  135.6647  153.4802 H   0  0  0  0  0  0  0  0  0  0  0  0  # atno 10764 bound_to 10752
  153.0592  135.5126  154.7958 H   0  0  0  0  0  0  0  0  0  0  0  0  # atno 10765 bound_to 10752
  140.1579  134.4379  155.8337 H   0  0  0  0  0  0  0  0  0  0  0  0  # atno 11005 bound_to 11000
  146.3220  140.3261  142.8637 LP  0  0  0  0  0  0  0  0  0  0  0  0  # atno 17320 bound_to 7965
  144.9264  140.7926  143.5716 LP  0  0  0  0  0  0  0  0  0  0  0  0  # atno 17321 bound_to 7965
  140.4873  143.2359  151.8870 LP  0  0  0  0  0  0  0  0  0  0  0  0  # atno 17342 bound_to 10162
  139.4791  144.5205  151.8808 LP  0  0  0  0  0  0  0  0  0  0  0  0  # atno 17343 bound_to 10162
  156.7227  130.9013  151.3619 LP  0  0  0  0  0  0  0  0  0  0  0  0  # atno 17370 bound_to 10713
  157.6887  130.9211  150.0454 LP  0  0  0  0  0  0  0  0  0  0  0  0  # atno 17371 bound_to 10713
  141.2206  133.6900  156.7540 LP  0  0  0  0  0  0  0  0  0  0  0  0  # atno 17394 bound_to 11000
  140.2525  134.8529  157.3681 LP  0  0  0  0  0  0  0  0  0  0  0  0  # atno 17395 bound_to 11000

$$$$
