AV-unprocessed.smi:2059|AV-procd|sdf|8350|dock5
  -GOLD-   2272011 23D 1   1.00000     0.00000
 Structure written by MMmdl.
 29 30  0  0  0  0  0  0  0  0  2 V2000
  145.3328  134.7049  162.6567 C   0  0  0  0  0  0  0  0  0  0  0  0
  146.3692  135.2164  161.7154 C   0  0  0  0  0  0  0  0  0  0  0  0
  147.2397  134.5939  160.8665 C   0  0  0  0  0  0  0  0  0  0  0  0
  147.9408  135.6761  160.2681 C   0  0  0  0  0  0  0  0  0  0  0  0
  148.9111  135.5695  159.3432 N   0  5  0  0  0  0  0  0  0  0  0  0
  149.1793  136.5493  158.4396 C   0  0  0  0  0  0  0  0  0  0  0  0
  148.8502  137.7240  158.6005 O   0  0  0  0  0  0  0  0  0  0  0  0
  149.8395  136.2063  157.3168 N   0  0  0  0  0  0  0  0  0  0  0  0
  150.2091  137.1029  156.2264 C   0  0  2  0  0  0  0  0  0  0  0  0
  149.5264  136.6782  154.9133 C   0  0  0  0  0  0  0  0  0  0  0  0
  150.2068  137.4047  153.7468 C   0  0  0  0  0  0  0  0  0  0  0  0
  151.9549  137.6396  154.2468 S   0  0  0  0  0  0  0  0  0  0  0  0
  152.8013  136.6553  153.5550 O   0  0  0  0  0  0  0  0  0  0  0  0
  152.2735  139.0748  154.2017 O   0  0  0  0  0  0  0  0  0  0  0  0
  151.7274  137.1166  155.9874 C   0  0  0  0  0  0  0  0  0  0  0  0
  147.5257  136.8523  160.7081 N   0  0  0  0  0  0  0  0  0  0  0  0
  146.5215  136.5661  161.6407 O   0  0  0  0  0  0  0  0  0  0  0  0
  144.4754  134.3143  162.1084 H   0  0  0  0  0  0  0  0  0  0  0  0
  144.9787  135.4949  163.3195 H   0  0  0  0  0  0  0  0  0  0  0  0
  145.7343  133.9014  163.2741 H   0  0  0  0  0  0  0  0  0  0  0  0
  147.3579  133.5340  160.6990 H   0  0  0  0  0  0  0  0  0  0  0  0
  150.1023  135.2369  157.2150 H   0  0  0  0  0  0  0  0  0  0  0  0
  149.8807  138.1172  156.4605 H   0  0  0  0  0  0  0  0  0  0  0  0
  149.6541  135.6033  154.7754 H   0  0  0  0  0  0  0  0  0  0  0  0
  148.4531  136.8702  154.9335 H   0  0  0  0  0  0  0  0  0  0  0  0
  150.1526  136.8501  152.8101 H   0  0  0  0  0  0  0  0  0  0  0  0
  149.7653  138.3900  153.5961 H   0  0  0  0  0  0  0  0  0  0  0  0
  152.2571  137.7935  156.6579 H   0  0  0  0  0  0  0  0  0  0  0  0
  152.1524  136.1181  156.0952 H   0  0  0  0  0  0  0  0  0  0  0  0
  1  2  1  0  0  0  0
  1 18  1  0  0  0  0
  1 19  1  0  0  0  0
  1 20  1  0  0  0  0
  2 17  1  0  0  0  0
  2  3  2  0  0  0  0
  3  4  1  0  0  0  0
  3 21  1  0  0  0  0
  4  5  1  0  0  0  0
  4 16  2  0  0  0  0
  5  6  1  0  0  0  0
  6  7  2  0  0  0  0
  6  8  1  0  0  0  0
  8  9  1  0  0  0  0
  8 22  1  0  0  0  0
  9 15  1  0  0  0  0
  9 10  1  0  0  0  0
  9 23  1  0  0  0  0
 10 11  1  0  0  0  0
 10 24  1  0  0  0  0
 10 25  1  0  0  0  0
 11 12  1  0  0  0  0
 11 26  1  0  0  0  0
 11 27  1  0  0  0  0
 12 13  2  0  0  0  0
 12 14  2  0  0  0  0
 12 15  1  0  0  0  0
 15 28  1  0  0  0  0
 15 29  1  0  0  0  0
 16 17  1  0  0  0  0
M  CHG  1   5  -1
M  END
> <s_m_source_file>
AV-unprocessed.smi

> <i_m_source_file_index>
2059

> <i_lp_mmshare_version>
43012

> <i_f3d_flags>
0

> <s_epik_input>
W0NIM11jMVtjSF1jKG5vMSlbTkhdQyg9TylbTkhdW0NAQEhdKFtDSDJdMilbQ0gyXVtDSDJdUzIoPU8pPU8=

> <s_epik_cmdline>
J2VwaWtfcHl0aG9uJywgJy1waCcsICc3LjAnLCAnLXRuJywgJzgnLCAnLW1hJywgJzIwMCcsICctbWV0YWxfYmluZGluZycsICctaW1hZScsICc8aW5maWxlLm1hZT4nLCAnLW9tYWUnLCAnPG91dGZpbGUubWFlPic=

> <r_lp_tautomer_probability>
1

> <r_epik_Ionization_Penalty>
6.15571

> <r_epik_Ionization_Penalty_Charging>
6.1556

> <r_epik_Ionization_Penalty_Neutral>
0.000110918

> <r_epik_State_Penalty>
6.15558

> <r_epik_Charging_Adjusted_Penalty>
12.3112

> <i_epik_Tot_Q>
-1

> <i_epik_Tot_abs_Q>
1

> <r_epik_Metal_State_Penalty>
2.1059

> <b_epik_Metal_Only>
1

> <s_lp_Force_Field>
OPLS_2005

> <r_lp_Energy>
-1.67492

> <b_lp_Chiralities_Consistent>
1

> <s_lp_Variant>
AV-unprocessed.smi:2059-3

> <Gold.Version>
5.8.1

> <Gold.Id.Protein>
6NUR|6NUR_protein|mol2

> <Gold.PLP.Fitness>
42.4779

> <Gold.PLP.PLP>
-26.6719

> <Gold.PLP.part.hbond>
-7.6026

> <Gold.PLP.part.metal>
0.0000

> <Gold.PLP.part.buried>
-3.3900

> <Gold.PLP.part.nonpolar>
-16.5206

> <Gold.PLP.part.repulsive>
0.1641

> <Gold.PLP.ligand.clash>
0.0000

> <Gold.PLP.ligand.torsion>
0.2466

> <Gold.PLP.Chemscore.Hbond>
5.4329

> <Gold.PLP.Chemscore.CHOScore>
0.0000

> <Gold.PLP.Chemscore.Metal>
0.0000

> <Gold.Chemscore.Hbonds>
donor molecule, donor type, donor heavy atom, donor atom, acceptor molecule, acceptor atom, score
      P1  H  6896  6908       L1     5  1.98
      P1  H  6931  6943       L1    16  0.12
      P1  H  6934  6947       L1    16  0.33
      P1  H  7989  7998       L1    14  0.67

> <Gold.PLP.Chemscore.Internal.Correction>
0.0005

> <Gold.Rescore>
     Score         DG    S(hbond)    S(metal)    S(lipo)     H(rot)  DE(clash)    DE(int)     intcor
     16.03     -17.99       3.01        0.00      42.84       1.00       0.05       1.91       ----

> <Gold.Chemscore.Fitness>
16.0306

> <Gold.Chemscore.DG>
-17.9939

> <Gold.Chemscore.ZeroCoef>
-5.4800

> <Gold.Chemscore.Hbond>
3.0125

> <Gold.Chemscore.Metal>
0.0000

> <Gold.Chemscore.Lipo>
42.8382

> <Gold.Chemscore.Internal_Hbond>
0.0000

> <Gold.Chemscore.DEClash>
0.0532

> <Gold.Chemscore.DEInternal>
1.9102

> <Gold.Chemscore.Rot>
1.0000

> <Gold.Chemscore.Internal.Correction>
   9.000000E+99

> <Gold.Chemscore.Hbonds>
donor molecule, donor type, donor heavy atom, donor atom, acceptor molecule, acceptor atom, score
      P1  H  6896  6908       L1     5  0.36
      P1  H  6931  6943       L1    16  0.06
      P1  H  6934  6947       L1    16  0.02
      P1  H  7989  7998       L1    14  0.65
      P1  H 10752 10765       L1    13  0.04

> <Gold.Chemscore.Hbond.Weighted>
-10.0618

> <Gold.Chemscore.Metal.Weighted>
-0.0000

> <Gold.Chemscore.Lipo.Weighted>
-5.0121

> <Gold.Chemscore.Internal_Hbond.Weighted>
0.0000

> <Gold.Chemscore.DEClash.Weighted>
0.0532

> <Gold.Chemscore.DEInternal.Weighted>
1.9102

> <Gold.Chemscore.Rot.Weighted>
2.5600

> <Gold.Chemscore.Internal.Correction.Weighted>
   9.000000E+99

> <Gold.Protein.RotatedTorsions>
[ 6907 6896 6895 6894 ] final -178.37 input  -60.11 | X-H torsion
[ 7974 7965 7964 7962 ] final -177.35 input  175.53 | X-H torsion
[ 8008 7997 7996 7995 ] final  -31.43 input   59.86 | X-H torsion
[ 10167 10162 10161 10158 ] final    7.87 input  -65.29 | X-H torsion
[ 10718 10713 10712 10709 ] final  122.76 input   66.30 | X-H torsion
[ 10763 10752 10751 10750 ] final  104.98 input  -60.55 | X-H torsion
[ 11005 11000 10999 10996 ] final   15.48 input  -57.11 | X-H torsion

> <Gold.Protein.ActiveResidues>
 VAL166  LYS551  ARG553  GLY616  TRP617  ASP618  TYR619  PRO620  LYS621  CYS622 
 ASP623  PHE694  ASN695  SER759  ASP760  ASP761  ALA762  ILE779  LEU786  VAL792 
 PHE793  MET794  SER795  GLU796  ALA797  LYS798  CYS799  TRP800  GLU811  SER814 

> <Gold.Protein.RotatedAtoms>
  151.6361  133.3329  159.3119 H   0  0  0  0  0  0  0  0  0  0  0  0  # atno 6907 bound_to 6896
  150.8031  134.7143  159.6631 H   0  0  0  0  0  0  0  0  0  0  0  0  # atno 6908 bound_to 6896
  152.4125  134.6103  160.0075 H   0  0  0  0  0  0  0  0  0  0  0  0  # atno 6909 bound_to 6896
  144.7127  140.1033  143.6415 H   0  0  0  0  0  0  0  0  0  0  0  0  # atno 7974 bound_to 7965
  154.4214  140.1764  156.1566 H   0  0  0  0  0  0  0  0  0  0  0  0  # atno 8008 bound_to 7997
  155.9872  140.3372  155.6694 H   0  0  0  0  0  0  0  0  0  0  0  0  # atno 8009 bound_to 7997
  155.6421  140.0681  157.2606 H   0  0  0  0  0  0  0  0  0  0  0  0  # atno 8010 bound_to 7997
  140.6347  143.7914  150.7343 H   0  0  0  0  0  0  0  0  0  0  0  0  # atno 10167 bound_to 10162
  157.5717  131.1082  150.8354 H   0  0  0  0  0  0  0  0  0  0  0  0  # atno 10718 bound_to 10713
  153.3732  135.3925  155.1804 H   0  0  0  0  0  0  0  0  0  0  0  0  # atno 10763 bound_to 10752
  154.8697  135.3707  154.4951 H   0  0  0  0  0  0  0  0  0  0  0  0  # atno 10764 bound_to 10752
  153.5421  135.7084  153.5692 H   0  0  0  0  0  0  0  0  0  0  0  0  # atno 10765 bound_to 10752
  140.4578  134.1158  155.7712 H   0  0  0  0  0  0  0  0  0  0  0  0  # atno 11005 bound_to 11000
  145.9519  139.2739  143.1207 LP  0  0  0  0  0  0  0  0  0  0  0  0  # atno 17320 bound_to 7965
  145.9314  140.9046  143.0354 LP  0  0  0  0  0  0  0  0  0  0  0  0  # atno 17321 bound_to 7965
  140.1532  143.4339  152.2117 LP  0  0  0  0  0  0  0  0  0  0  0  0  # atno 17342 bound_to 10162
  139.5558  144.7372  151.4298 LP  0  0  0  0  0  0  0  0  0  0  0  0  # atno 17343 bound_to 10162
  156.8824  130.5184  149.5290 LP  0  0  0  0  0  0  0  0  0  0  0  0  # atno 17370 bound_to 10713
  156.0762  130.5784  150.9479 LP  0  0  0  0  0  0  0  0  0  0  0  0  # atno 17371 bound_to 10713
  141.1635  133.8748  157.1781 LP  0  0  0  0  0  0  0  0  0  0  0  0  # atno 17394 bound_to 11000
  139.9965  135.0045  157.0093 LP  0  0  0  0  0  0  0  0  0  0  0  0  # atno 17395 bound_to 11000

$$$$
