AV-unprocessed.smi:2304|AV-procd|sdf|9244|dock8
  -GOLD-   2272012463D 1   1.00000     0.00000
 Structure written by MMmdl.
 37 38  0  0  0  0  0  0  0  0  1 V2000
  150.9154  137.9959  154.3854 C   0  0  0  0  0  0  0  0  0  0  0  0
  150.7981  139.3963  154.5628 O   0  0  0  0  0  0  0  0  0  0  0  0
  149.4538  139.8140  154.7377 C   0  0  0  0  0  0  0  0  0  0  0  0
  149.2820  141.2779  154.2958 C   0  0  2  0  0  0  0  0  0  0  0  0
  149.4917  142.1383  155.4567 N   0  0  0  0  0  0  0  0  0  0  0  0
  150.4587  141.9890  156.3737 C   0  0  0  0  0  0  0  0  0  0  0  0
  151.2910  141.0821  156.3438 O   0  0  0  0  0  0  0  0  0  0  0  0
  150.3912  142.9519  157.3099 N   0  0  0  0  0  0  0  0  0  0  0  0
  151.2340  143.1409  158.4376 C   0  0  0  0  0  0  0  0  0  0  0  0
  151.1108  144.3966  159.0742 C   0  0  0  0  0  0  0  0  0  0  0  0
  151.9033  144.6818  160.2028 C   0  0  0  0  0  0  0  0  0  0  0  0
  152.7999  143.7033  160.6677 C   0  0  0  0  0  0  0  0  0  0  0  0
  152.8618  142.4777  159.9762 C   0  0  0  0  0  0  0  0  0  0  0  0
  153.8054  141.3795  160.4195 C   0  0  0  0  0  0  0  0  0  0  0  0
  152.1026  142.2041  158.8935 N   0  0  0  0  0  0  0  0  0  0  0  0
  147.9440  141.5103  153.6092 C   0  0  0  0  0  0  0  0  0  0  0  0
  146.6350  141.2394  154.3143 C   0  0  0  0  0  0  0  0  0  0  0  0
  147.0747  140.3546  153.1711 C   0  0  0  0  0  0  0  0  0  0  0  0
  151.9648  137.7312  154.2554 H   0  0  0  0  0  0  0  0  0  0  0  0
  150.3719  137.6630  153.5001 H   0  0  0  0  0  0  0  0  0  0  0  0
  150.5367  137.4551  155.2537 H   0  0  0  0  0  0  0  0  0  0  0  0
  148.7969  139.1699  154.1504 H   0  0  0  0  0  0  0  0  0  0  0  0
  149.1651  139.7046  155.7846 H   0  0  0  0  0  0  0  0  0  0  0  0
  150.0669  141.4826  153.5646 H   0  0  0  0  0  0  0  0  0  0  0  0
  148.8528  142.9123  155.5644 H   0  0  0  0  0  0  0  0  0  0  0  0
  149.6517  143.6302  157.2028 H   0  0  0  0  0  0  0  0  0  0  0  0
  150.4165  145.1375  158.7046 H   0  0  0  0  0  0  0  0  0  0  0  0
  151.8238  145.6358  160.7027 H   0  0  0  0  0  0  0  0  0  0  0  0
  153.4217  143.8912  161.5308 H   0  0  0  0  0  0  0  0  0  0  0  0
  154.2927  141.6326  161.3617 H   0  0  0  0  0  0  0  0  0  0  0  0
  154.5787  141.2193  159.6677 H   0  0  0  0  0  0  0  0  0  0  0  0
  153.2623  140.4444  160.5593 H   0  0  0  0  0  0  0  0  0  0  0  0
  147.9458  142.3739  152.9467 H   0  0  0  0  0  0  0  0  0  0  0  0
  146.6749  140.8180  155.3169 H   0  0  0  0  0  0  0  0  0  0  0  0
  145.8146  141.9301  154.1308 H   0  0  0  0  0  0  0  0  0  0  0  0
  146.5484  140.4545  152.2241 H   0  0  0  0  0  0  0  0  0  0  0  0
  147.4010  139.3465  153.4191 H   0  0  0  0  0  0  0  0  0  0  0  0
  1  2  1  0  0  0  0
  1 19  1  0  0  0  0
  1 20  1  0  0  0  0
  1 21  1  0  0  0  0
  2  3  1  0  0  0  0
  3  4  1  0  0  0  0
  3 22  1  0  0  0  0
  3 23  1  0  0  0  0
  4  5  1  0  0  0  0
  4 16  1  0  0  0  0
  4 24  1  0  0  0  0
  5  6  1  0  0  0  0
  5 25  1  0  0  0  0
  6  7  2  0  0  0  0
  6  8  1  0  0  0  0
  8  9  1  0  0  0  0
  8 26  1  0  0  0  0
  9 15  1  0  0  0  0
  9 10  2  0  0  0  0
 10 11  1  0  0  0  0
 10 27  1  0  0  0  0
 11 12  2  0  0  0  0
 11 28  1  0  0  0  0
 12 13  1  0  0  0  0
 12 29  1  0  0  0  0
 13 14  1  0  0  0  0
 13 15  2  0  0  0  0
 14 30  1  0  0  0  0
 14 31  1  0  0  0  0
 14 32  1  0  0  0  0
 16 18  1  0  0  0  0
 16 17  1  0  0  0  0
 16 33  1  0  0  0  0
 17 18  1  0  0  0  0
 17 34  1  0  0  0  0
 17 35  1  0  0  0  0
 18 36  1  0  0  0  0
 18 37  1  0  0  0  0
M  END
> <s_m_source_file>
AV-unprocessed.smi

> <i_m_source_file_index>
2304

> <i_lp_mmshare_version>
43012

> <i_f3d_flags>
0

> <s_epik_input>
W0NIM11PW0NIMl1bQ0BASF0oW0NIXTFbQ0gyXVtDSDJdMSlbTkhdQyg9TylbTkhdYzJbY0hdW2NIXVtjSF1jKG4yKVtDSDNd

> <s_epik_cmdline>
J2VwaWtfcHl0aG9uJywgJy1waCcsICc3LjAnLCAnLXRuJywgJzgnLCAnLW1hJywgJzIwMCcsICctbWV0YWxfYmluZGluZycsICctaW1hZScsICc8aW5maWxlLm1hZT4nLCAnLW9tYWUnLCAnPG91dGZpbGUubWFlPic=

> <r_lp_tautomer_probability>
1

> <r_epik_Ionization_Penalty>
8.58396e-05

> <r_epik_Ionization_Penalty_Charging>
0

> <r_epik_Ionization_Penalty_Neutral>
8.58396e-05

> <r_epik_State_Penalty>
-0

> <r_epik_Charging_Adjusted_Penalty>
0

> <i_epik_Tot_Q>
0

> <i_epik_Tot_abs_Q>
0

> <r_epik_Metal_State_Penalty>
-0

> <b_epik_Metal_Only>
0

> <s_lp_Force_Field>
OPLS_2005

> <r_lp_Energy>
16.2574

> <b_lp_Chiralities_Consistent>
1

> <s_lp_Variant>
AV-unprocessed.smi:2304-1

> <Gold.Version>
5.8.1

> <Gold.Id.Protein>
6NUR|6NUR_protein|mol2

> <Gold.PLP.Fitness>
47.3569

> <Gold.PLP.PLP>
-41.6506

> <Gold.PLP.part.hbond>
-3.0000

> <Gold.PLP.part.metal>
0.0000

> <Gold.PLP.part.buried>
-3.3029

> <Gold.PLP.part.nonpolar>
-33.7510

> <Gold.PLP.part.repulsive>
0.3236

> <Gold.PLP.ligand.clash>
0.0000

> <Gold.PLP.ligand.torsion>
1.4861

> <Gold.PLP.Chemscore.Hbond>
2.5360

> <Gold.PLP.Chemscore.CHOScore>
0.0000

> <Gold.PLP.Chemscore.Metal>
0.0000

> <Gold.Chemscore.Hbonds>
donor molecule, donor type, donor heavy atom, donor atom, acceptor molecule, acceptor atom, score
      L1  H     5    25       P1  8028  0.80
      L1  H     8    26       P1  8028  0.74
      P1  H  7989  7998       L1     2  1.00

> <Gold.PLP.Chemscore.Internal.Correction>
1.0706

> <Gold.Rescore>
     Score         DG    S(hbond)    S(metal)    S(lipo)     H(rot)  DE(clash)    DE(int)     intcor
     13.37     -19.47       1.90        0.00     100.72       1.61       0.04       6.05       ----

> <Gold.Chemscore.Fitness>
13.3732

> <Gold.Chemscore.DG>
-19.4662

> <Gold.Chemscore.ZeroCoef>
-5.4800

> <Gold.Chemscore.Hbond>
1.8966

> <Gold.Chemscore.Metal>
0.0000

> <Gold.Chemscore.Lipo>
100.7164

> <Gold.Chemscore.Internal_Hbond>
0.0000

> <Gold.Chemscore.DEClash>
0.0427

> <Gold.Chemscore.DEInternal>
6.0504

> <Gold.Chemscore.Rot>
1.6142

> <Gold.Chemscore.Internal.Correction>
   9.000000E+99

> <Gold.Chemscore.Hbonds>
donor molecule, donor type, donor heavy atom, donor atom, acceptor molecule, acceptor atom, score
      L1  H     5    25       P1  8028  0.80
      L1  H     8    26       P1  8028  0.57
      P1  H  7989  7998       L1     2  0.43

> <Gold.Chemscore.Hbond.Weighted>
-6.3347

> <Gold.Chemscore.Metal.Weighted>
-0.0000

> <Gold.Chemscore.Lipo.Weighted>
-11.7838

> <Gold.Chemscore.Internal_Hbond.Weighted>
0.0000

> <Gold.Chemscore.DEClash.Weighted>
0.0427

> <Gold.Chemscore.DEInternal.Weighted>
6.0504

> <Gold.Chemscore.Rot.Weighted>
4.1323

> <Gold.Chemscore.Internal.Correction.Weighted>
   9.000000E+99

> <Gold.Protein.RotatedTorsions>
[ 6907 6896 6895 6894 ] final  118.49 input  -60.11 | X-H torsion
[ 7974 7965 7964 7962 ] final  -21.63 input  175.53 | X-H torsion
[ 8008 7997 7996 7995 ] final -155.45 input   59.86 | X-H torsion
[ 10167 10162 10161 10158 ] final  -91.11 input  -65.29 | X-H torsion
[ 10718 10713 10712 10709 ] final -124.75 input   66.30 | X-H torsion
[ 10763 10752 10751 10750 ] final -156.71 input  -60.55 | X-H torsion
[ 11005 11000 10999 10996 ] final  -22.02 input  -57.11 | X-H torsion

> <Gold.Protein.ActiveResidues>
 VAL166  LYS551  ARG553  GLY616  TRP617  ASP618  TYR619  PRO620  LYS621  CYS622 
 ASP623  PHE694  ASN695  SER759  ASP760  ASP761  ALA762  ILE779  LEU786  VAL792 
 PHE793  MET794  SER795  GLU796  ALA797  LYS798  CYS799  TRP800  GLU811  SER814 

> <Gold.Protein.RotatedAtoms>
  152.4539  133.7684  159.6785 H   0  0  0  0  0  0  0  0  0  0  0  0  # atno 6907 bound_to 6896
  150.8459  133.7851  159.3049 H   0  0  0  0  0  0  0  0  0  0  0  0  # atno 6908 bound_to 6896
  151.5462  135.1071  159.9990 H   0  0  0  0  0  0  0  0  0  0  0  0  # atno 6909 bound_to 6896
  146.1722  140.4368  142.8528 H   0  0  0  0  0  0  0  0  0  0  0  0  # atno 7974 bound_to 7965
  155.7021  140.0768  157.2406 H   0  0  0  0  0  0  0  0  0  0  0  0  # atno 8008 bound_to 7997
  154.4071  140.1645  156.2255 H   0  0  0  0  0  0  0  0  0  0  0  0  # atno 8009 bound_to 7997
  155.9359  140.3388  155.6290 H   0  0  0  0  0  0  0  0  0  0  0  0  # atno 8010 bound_to 7997
  140.3482  143.2905  151.9757 H   0  0  0  0  0  0  0  0  0  0  0  0  # atno 10167 bound_to 10162
  156.1615  130.6605  151.0055 H   0  0  0  0  0  0  0  0  0  0  0  0  # atno 10718 bound_to 10713
  154.7692  135.3140  154.8224 H   0  0  0  0  0  0  0  0  0  0  0  0  # atno 10763 bound_to 10752
  153.8964  135.6820  153.4762 H   0  0  0  0  0  0  0  0  0  0  0  0  # atno 10764 bound_to 10752
  153.1303  135.4783  154.9272 H   0  0  0  0  0  0  0  0  0  0  0  0  # atno 10765 bound_to 10752
  140.8617  133.7783  156.0082 H   0  0  0  0  0  0  0  0  0  0  0  0  # atno 11005 bound_to 11000
  144.8180  140.6501  143.6371 LP  0  0  0  0  0  0  0  0  0  0  0  0  # atno 17320 bound_to 7965
  145.4310  139.1549  143.4022 LP  0  0  0  0  0  0  0  0  0  0  0  0  # atno 17321 bound_to 7965
  139.4830  144.6099  151.7454 LP  0  0  0  0  0  0  0  0  0  0  0  0  # atno 17342 bound_to 10162
  140.5244  144.0828  150.6033 LP  0  0  0  0  0  0  0  0  0  0  0  0  # atno 17343 bound_to 10162
  157.6736  131.0856  150.7552 LP  0  0  0  0  0  0  0  0  0  0  0  0  # atno 17370 bound_to 10713
  156.7614  130.4800  149.5436 LP  0  0  0  0  0  0  0  0  0  0  0  0  # atno 17371 bound_to 10713
  140.8675  134.2766  157.5206 LP  0  0  0  0  0  0  0  0  0  0  0  0  # atno 17394 bound_to 11000
  139.8707  134.9550  156.4193 LP  0  0  0  0  0  0  0  0  0  0  0  0  # atno 17395 bound_to 11000

$$$$
