AV-unprocessed.smi:529|AV-procd|sdf|2841|dock3
  -GOLD-   2262023333D 1   1.00000     0.00000
 Structure written by MMmdl.
 30 31  0  0  0  0  0  0  0  0  1 V2000
  150.9548  145.6526  159.7539 N   0  0  0  0  0  0  0  0  0  0  0  0
  151.6223  144.5886  160.0328 C   0  0  0  0  0  0  0  0  0  0  0  0
  152.2581  144.0999  161.6749 S   0  0  0  0  0  0  0  0  0  0  0  0
  152.9189  142.6379  160.9740 C   0  0  0  0  0  0  0  0  0  0  0  0
  152.6799  142.5551  159.6663 C   0  0  0  0  0  0  0  0  0  0  0  0
  151.9786  143.6045  159.1081 N   0  0  0  0  0  0  0  0  0  0  0  0
  151.5927  143.6287  157.6968 C   0  0  0  0  0  0  0  0  0  0  0  0
  150.9166  142.3326  157.2297 C   0  0  0  0  0  0  0  0  0  0  0  0
  151.3701  141.2303  157.5416 O   0  0  0  0  0  0  0  0  0  0  0  0
  149.8296  142.4863  156.4587 N   0  0  0  0  0  0  0  0  0  0  0  0
  149.0297  141.3953  155.9088 C   0  0  0  0  0  0  0  0  0  0  0  0
  149.2091  141.2619  154.3816 C   0  0  0  0  0  0  0  0  0  0  0  0
  147.7990  141.2053  153.7916 C   0  0  0  0  0  0  0  0  0  0  0  0
  146.9477  142.0057  154.7716 C   0  0  0  0  0  0  0  0  0  0  0  0
  147.5301  141.6556  156.1411 C   0  0  0  0  0  0  0  0  0  0  0  0
  150.7260  145.6733  158.7704 H   0  0  0  0  0  0  0  0  0  0  0  0
  153.4482  141.9164  161.5786 H   0  0  0  0  0  0  0  0  0  0  0  0
  152.9792  141.7515  159.0095 H   0  0  0  0  0  0  0  0  0  0  0  0
  150.9323  144.4755  157.5028 H   0  0  0  0  0  0  0  0  0  0  0  0
  152.4793  143.7935  157.0832 H   0  0  0  0  0  0  0  0  0  0  0  0
  149.5279  143.4260  156.2457 H   0  0  0  0  0  0  0  0  0  0  0  0
  149.3062  140.4627  156.4046 H   0  0  0  0  0  0  0  0  0  0  0  0
  149.7281  142.1321  153.9761 H   0  0  0  0  0  0  0  0  0  0  0  0
  149.7979  140.3844  154.1131 H   0  0  0  0  0  0  0  0  0  0  0  0
  147.7530  141.5975  152.7753 H   0  0  0  0  0  0  0  0  0  0  0  0
  147.4530  140.1711  153.7657 H   0  0  0  0  0  0  0  0  0  0  0  0
  147.0725  143.0723  154.5804 H   0  0  0  0  0  0  0  0  0  0  0  0
  145.8852  141.7739  154.6943 H   0  0  0  0  0  0  0  0  0  0  0  0
  147.0603  140.7411  156.5057 H   0  0  0  0  0  0  0  0  0  0  0  0
  147.3330  142.4321  156.8816 H   0  0  0  0  0  0  0  0  0  0  0  0
  1  2  2  0  0  0  0
  1 16  1  0  0  0  0
  2  6  1  0  0  0  0
  2  3  1  0  0  0  0
  3  4  1  0  0  0  0
  4  5  2  0  0  0  0
  4 17  1  0  0  0  0
  5  6  1  0  0  0  0
  5 18  1  0  0  0  0
  6  7  1  0  0  0  0
  7  8  1  0  0  0  0
  7 19  1  0  0  0  0
  7 20  1  0  0  0  0
  8  9  2  0  0  0  0
  8 10  1  0  0  0  0
 10 11  1  0  0  0  0
 10 21  1  0  0  0  0
 11 15  1  0  0  0  0
 11 12  1  0  0  0  0
 11 22  1  0  0  0  0
 12 13  1  0  0  0  0
 12 23  1  0  0  0  0
 12 24  1  0  0  0  0
 13 14  1  0  0  0  0
 13 25  1  0  0  0  0
 13 26  1  0  0  0  0
 14 15  1  0  0  0  0
 14 27  1  0  0  0  0
 14 28  1  0  0  0  0
 15 29  1  0  0  0  0
 15 30  1  0  0  0  0
M  END
> <s_m_source_file>
AV-unprocessed.smi

> <i_m_source_file_index>
529

> <i_lp_mmshare_version>
43012

> <i_f3d_flags>
0

> <s_epik_input>
W0hdL049YzFcc1tjSF1bY0hdbjFbQ0gyXUMoPU8pW05IXVtDSF0yW0NIMl1bQ0gyXVtDSDJdW0NIMl0y

> <s_epik_cmdline>
J2VwaWtfcHl0aG9uJywgJy1waCcsICc3LjAnLCAnLXRuJywgJzgnLCAnLW1hJywgJzIwMCcsICctbWV0YWxfYmluZGluZycsICctaW1hZScsICc8aW5maWxlLm1hZT4nLCAnLW9tYWUnLCAnPG91dGZpbGUubWFlPic=

> <r_epik_Ionization_Penalty>
2.18041

> <r_epik_Ionization_Penalty_Charging>
2.18041

> <r_epik_Ionization_Penalty_Neutral>
1.25369e-07

> <r_epik_State_Penalty>
2.33404

> <r_epik_Charging_Adjusted_Penalty>
4.51444

> <i_epik_Tot_Q>
0

> <i_epik_Tot_abs_Q>
0

> <r_epik_Metal_State_Penalty>
2.33404

> <b_epik_Metal_Only>
0

> <s_lp_Force_Field>
OPLS_2005

> <r_lp_Energy>
18.55

> <b_lp_Chiralities_Consistent>
1

> <s_lp_Variant>
AV-unprocessed.smi:529-3

> <Gold.Version>
5.8.1

> <Gold.Id.Protein>
6NUR|6NUR_protein|mol2

> <Gold.PLP.Fitness>
41.8667

> <Gold.PLP.PLP>
-39.6781

> <Gold.PLP.part.hbond>
-2.3516

> <Gold.PLP.part.metal>
0.0000

> <Gold.PLP.part.buried>
-4.6518

> <Gold.PLP.part.nonpolar>
-33.7413

> <Gold.PLP.part.repulsive>
0.0821

> <Gold.PLP.ligand.clash>
0.0000

> <Gold.PLP.ligand.torsion>
0.4111

> <Gold.PLP.Chemscore.Hbond>
1.0000

> <Gold.PLP.Chemscore.CHOScore>
0.0000

> <Gold.PLP.Chemscore.Metal>
0.0000

> <Gold.Chemscore.Hbonds>
donor molecule, donor type, donor heavy atom, donor atom, acceptor molecule, acceptor atom, score
      L1  H    10    21       P1  8028  1.00

> <Gold.PLP.Chemscore.Internal.Correction>
0.0108

> <Gold.Rescore>
     Score         DG    S(hbond)    S(metal)    S(lipo)     H(rot)  DE(clash)    DE(int)     intcor
     12.40     -14.12       1.00        0.00      79.65       1.56       0.12       1.60       ----

> <Gold.Chemscore.Fitness>
12.4007

> <Gold.Chemscore.DG>
-14.1248

> <Gold.Chemscore.ZeroCoef>
-5.4800

> <Gold.Chemscore.Hbond>
0.9966

> <Gold.Chemscore.Metal>
0.0000

> <Gold.Chemscore.Lipo>
79.6480

> <Gold.Chemscore.Internal_Hbond>
0.0000

> <Gold.Chemscore.DEClash>
0.1198

> <Gold.Chemscore.DEInternal>
1.6043

> <Gold.Chemscore.Rot>
1.5635

> <Gold.Chemscore.Internal.Correction>
   9.000000E+99

> <Gold.Chemscore.Hbonds>
donor molecule, donor type, donor heavy atom, donor atom, acceptor molecule, acceptor atom, score
      L1  H    10    21       P1  8028  0.96

> <Gold.Chemscore.Hbond.Weighted>
-3.3285

> <Gold.Chemscore.Metal.Weighted>
-0.0000

> <Gold.Chemscore.Lipo.Weighted>
-9.3188

> <Gold.Chemscore.Internal_Hbond.Weighted>
0.0000

> <Gold.Chemscore.DEClash.Weighted>
0.1198

> <Gold.Chemscore.DEInternal.Weighted>
1.6043

> <Gold.Chemscore.Rot.Weighted>
4.0025

> <Gold.Chemscore.Internal.Correction.Weighted>
   9.000000E+99

> <Gold.Protein.RotatedTorsions>
[ 6907 6896 6895 6894 ] final  -17.89 input  -60.11 | X-H torsion
[ 7974 7965 7964 7962 ] final  101.18 input  175.53 | X-H torsion
[ 8008 7997 7996 7995 ] final -179.53 input   59.86 | X-H torsion
[ 10167 10162 10161 10158 ] final  156.63 input  -65.29 | X-H torsion
[ 10718 10713 10712 10709 ] final  104.15 input   66.30 | X-H torsion
[ 10763 10752 10751 10750 ] final  -90.92 input  -60.55 | X-H torsion
[ 11005 11000 10999 10996 ] final  -76.59 input  -57.11 | X-H torsion

> <Gold.Protein.ActiveResidues>
 VAL166  LYS551  ARG553  GLY616  TRP617  ASP618  TYR619  PRO620  LYS621  CYS622 
 ASP623  PHE694  ASN695  SER759  ASP760  ASP761  ALA762  ILE779  LEU786  VAL792 
 PHE793  MET794  SER795  GLU796  ALA797  LYS798  CYS799  TRP800  GLU811  SER814 

> <Gold.Protein.RotatedAtoms>
  151.2865  135.0729  159.9188 H   0  0  0  0  0  0  0  0  0  0  0  0  # atno 6907 bound_to 6896
  152.5324  133.9976  159.7890 H   0  0  0  0  0  0  0  0  0  0  0  0  # atno 6908 bound_to 6896
  151.0239  133.5801  159.2699 H   0  0  0  0  0  0  0  0  0  0  0  0  # atno 6909 bound_to 6896
  145.3757  139.2389  143.3431 H   0  0  0  0  0  0  0  0  0  0  0  0  # atno 7974 bound_to 7965
  156.0316  140.1283  157.0252 H   0  0  0  0  0  0  0  0  0  0  0  0  # atno 8008 bound_to 7997
  154.4352  140.1048  156.6178 H   0  0  0  0  0  0  0  0  0  0  0  0  # atno 8009 bound_to 7997
  155.5798  140.3468  155.4539 H   0  0  0  0  0  0  0  0  0  0  0  0  # atno 8010 bound_to 7997
  139.4821  144.4991  151.8195 H   0  0  0  0  0  0  0  0  0  0  0  0  # atno 10167 bound_to 10162
  157.6749  131.0796  150.5663 H   0  0  0  0  0  0  0  0  0  0  0  0  # atno 10718 bound_to 10713
  154.6708  135.5287  153.8135 H   0  0  0  0  0  0  0  0  0  0  0  0  # atno 10763 bound_to 10752
  153.0500  135.6528  154.0728 H   0  0  0  0  0  0  0  0  0  0  0  0  # atno 10764 bound_to 10752
  154.0627  135.2960  155.3302 H   0  0  0  0  0  0  0  0  0  0  0  0  # atno 10765 bound_to 10752
  141.1655  133.6989  156.7692 H   0  0  0  0  0  0  0  0  0  0  0  0  # atno 11005 bound_to 11000
  146.2865  140.4416  142.8756 LP  0  0  0  0  0  0  0  0  0  0  0  0  # atno 17320 bound_to 7965
  144.8544  140.7048  143.6148 LP  0  0  0  0  0  0  0  0  0  0  0  0  # atno 17321 bound_to 7965
  140.4482  144.1892  150.5895 LP  0  0  0  0  0  0  0  0  0  0  0  0  # atno 17342 bound_to 10162
  140.4612  143.2448  151.9217 LP  0  0  0  0  0  0  0  0  0  0  0  0  # atno 17343 bound_to 10162
  156.5965  130.4343  149.5915 LP  0  0  0  0  0  0  0  0  0  0  0  0  # atno 17370 bound_to 10713
  156.2541  130.6924  151.1672 LP  0  0  0  0  0  0  0  0  0  0  0  0  # atno 17371 bound_to 10713
  140.2477  134.8565  157.3636 LP  0  0  0  0  0  0  0  0  0  0  0  0  # atno 17394 bound_to 11000
  140.1734  134.4580  155.7817 LP  0  0  0  0  0  0  0  0  0  0  0  0  # atno 17395 bound_to 11000

$$$$
