AV-unprocessed.smi:38|AV-procd|sdf|345|dock3
  -GOLD-   2262016183D 1   1.00000     0.00000
 Structure written by MMmdl.
 27 28  0  0  0  0  0  0  0  0  2 V2000
  153.0040  141.1569  158.9969 O   0  0  0  0  0  0  0  0  0  0  0  0
  152.2776  141.0865  158.0066 C   0  0  0  0  0  0  0  0  0  0  0  0
  152.4804  140.1821  157.0047 N   0  5  0  0  0  0  0  0  0  0  0  0
  151.6751  140.1073  155.9044 C   0  0  0  0  0  0  0  0  0  0  0  0
  151.8360  139.2785  155.0082 O   0  0  0  0  0  0  0  0  0  0  0  0
  150.5924  141.0198  155.7845 N   0  0  0  0  0  0  0  0  0  0  0  0
  149.6840  140.9437  154.5813 C   0  0  1  0  0  0  0  0  0  0  0  0
  149.0881  139.5484  154.4291 C   0  0  0  0  0  0  0  0  0  0  0  0
  147.7247  139.8424  153.8111 C   0  0  1  0  0  0  0  0  0  0  0  0
  146.7141  139.1394  154.5103 O   0  0  0  0  0  0  0  0  0  0  0  0
  147.5806  141.3821  153.8701 C   0  0  1  0  0  0  0  0  0  0  0  0
  146.2163  141.9212  154.3394 C   0  0  0  0  0  0  0  0  0  0  0  0
  146.3245  143.2858  154.6846 O   0  0  0  0  0  0  0  0  0  0  0  0
  148.6030  141.7951  154.7675 O   0  0  0  0  0  0  0  0  0  0  0  0
  150.3495  141.9351  156.7945 C   0  0  0  0  0  0  0  0  0  0  0  0
  151.1428  142.0000  157.8833 C   0  0  0  0  0  0  0  0  0  0  0  0
  150.8820  142.8978  158.8493 F   0  0  0  0  0  0  0  0  0  0  0  0
  150.2538  141.2799  153.7129 H   0  0  0  0  0  0  0  0  0  0  0  0
  147.7023  139.5150  152.7711 H   0  0  0  0  0  0  0  0  0  0  0  0
  147.8170  141.7796  152.8808 H   0  0  0  0  0  0  0  0  0  0  0  0
  149.7277  138.9204  153.8079 H   0  0  0  0  0  0  0  0  0  0  0  0
  148.9888  139.0884  155.4143 H   0  0  0  0  0  0  0  0  0  0  0  0
  146.0061  138.9564  153.9119 H   0  0  0  0  0  0  0  0  0  0  0  0
  145.4838  141.8568  153.5347 H   0  0  0  0  0  0  0  0  0  0  0  0
  145.8309  141.3452  155.1813 H   0  0  0  0  0  0  0  0  0  0  0  0
  147.2384  143.4934  154.8053 H   0  0  0  0  0  0  0  0  0  0  0  0
  149.5085  142.6085  156.7208 H   0  0  0  0  0  0  0  0  0  0  0  0
  1  2  2  0  0  0  0
  2 16  1  0  0  0  0
  2  3  1  0  0  0  0
  3  4  1  0  0  0  0
  4  5  2  0  0  0  0
  4  6  1  0  0  0  0
  6  7  1  0  0  0  0
  6 15  1  0  0  0  0
  7 18  1  0  0  0  0
  7 14  1  0  0  0  0
  7  8  1  0  0  0  0
  8  9  1  0  0  0  0
  8 21  1  0  0  0  0
  8 22  1  0  0  0  0
  9 19  1  0  0  0  0
  9 10  1  0  0  0  0
  9 11  1  0  0  0  0
 10 23  1  0  0  0  0
 11 20  1  0  0  0  0
 11 12  1  0  0  0  0
 11 14  1  0  0  0  0
 12 13  1  0  0  0  0
 12 24  1  0  0  0  0
 12 25  1  0  0  0  0
 13 26  1  0  0  0  0
 15 16  2  0  0  0  0
 15 27  1  0  0  0  0
 16 17  1  0  0  0  0
M  CHG  1   3  -1
M  END
> <s_m_source_file>
AV-unprocessed.smi

> <i_m_source_file_index>
38

> <i_lp_mmshare_version>
43012

> <i_f3d_flags>
0

> <s_epik_input>
Tz1jMVtuSF1jKD1PKW4oW2NIXWMxRilbQ0BIXTJbQ0gyXVtDQEhdKFtPSF0pW0NASF0oTzIpW0NIMl1bT0hd

> <s_epik_cmdline>
J2VwaWtfcHl0aG9uJywgJy1waCcsICc3LjAnLCAnLXRuJywgJzgnLCAnLW1hJywgJzIwMCcsICctbWV0YWxfYmluZGluZycsICctaW1hZScsICc8aW5maWxlLm1hZT4nLCAnLW9tYWUnLCAnPG91dGZpbGUubWFlPic=

> <r_epik_Ionization_Penalty>
1.68146

> <r_epik_Ionization_Penalty_Charging>
3.4211e-08

> <r_epik_Ionization_Penalty_Neutral>
1.68146

> <r_epik_State_Penalty>
1.78593

> <r_epik_Charging_Adjusted_Penalty>
1.78593

> <i_epik_Tot_Q>
-1

> <i_epik_Tot_abs_Q>
1

> <r_epik_Metal_State_Penalty>
0.0113696

> <b_epik_Metal_Only>
0

> <s_epik_Chemistry_Notes>
This compound contains an acetal/aminal-like group ( X-CH(R)-Y where X, Y are N, S, or O) that may be acid/base labile, releasing an aldehyde.

> <s_lp_Force_Field>
OPLS_2005

> <r_lp_Energy>
42.0277

> <b_lp_Chiralities_Consistent>
1

> <s_lp_Variant>
AV-unprocessed.smi:38-11

> <Gold.Version>
5.8.1

> <Gold.Id.Protein>
6NUR|6NUR_protein|mol2

> <Gold.PLP.Fitness>
39.1135

> <Gold.PLP.PLP>
-27.6134

> <Gold.PLP.part.hbond>
-2.7714

> <Gold.PLP.part.metal>
0.0000

> <Gold.PLP.part.buried>
-0.6691

> <Gold.PLP.part.nonpolar>
-23.7248

> <Gold.PLP.part.repulsive>
0.6913

> <Gold.PLP.ligand.clash>
0.0000

> <Gold.PLP.ligand.torsion>
0.1647

> <Gold.PLP.Chemscore.Hbond>
2.9360

> <Gold.PLP.Chemscore.CHOScore>
1.0000

> <Gold.PLP.Chemscore.Metal>
0.0000

> <Gold.Chemscore.Hbonds>
donor molecule, donor type, donor heavy atom, donor atom, acceptor molecule, acceptor atom, score
      L1  H    13    26       P1  8028  0.42
      P1  H  7989  7998       L1     5  0.33
      P1  H  7997  8009       L1     3  2.00
      L1  C    15    27       P1  8028  1.00

> <Gold.PLP.Chemscore.Internal.Correction>
0.0216

> <Gold.Rescore>
     Score         DG    S(hbond)    S(metal)    S(lipo)     H(rot)  DE(clash)    DE(int)     intcor
      3.34      -5.04       0.68        0.00      39.97       2.88       0.23       1.47       ----

> <Gold.Chemscore.Fitness>
3.3448

> <Gold.Chemscore.DG>
-5.0433

> <Gold.Chemscore.ZeroCoef>
-5.4800

> <Gold.Chemscore.Hbond>
0.6777

> <Gold.Chemscore.Metal>
0.0000

> <Gold.Chemscore.Lipo>
39.9674

> <Gold.Chemscore.Internal_Hbond>
0.0000

> <Gold.Chemscore.DEClash>
0.2255

> <Gold.Chemscore.DEInternal>
1.4730

> <Gold.Chemscore.Rot>
2.8815

> <Gold.Chemscore.Internal.Correction>
   9.000000E+99

> <Gold.Chemscore.Hbonds>
donor molecule, donor type, donor heavy atom, donor atom, acceptor molecule, acceptor atom, score
      L1  H    13    26       P1  8028  0.03
      P1  H  7989  7998       L1     5  0.02
      P1  H  7997  8009       L1     3  0.58

> <Gold.Chemscore.Hbond.Weighted>
-2.2637

> <Gold.Chemscore.Metal.Weighted>
-0.0000

> <Gold.Chemscore.Lipo.Weighted>
-4.6762

> <Gold.Chemscore.Internal_Hbond.Weighted>
0.0000

> <Gold.Chemscore.DEClash.Weighted>
0.2255

> <Gold.Chemscore.DEInternal.Weighted>
1.4730

> <Gold.Chemscore.Rot.Weighted>
7.3765

> <Gold.Chemscore.Internal.Correction.Weighted>
   9.000000E+99

> <Gold.Protein.RotatedTorsions>
[ 6907 6896 6895 6894 ] final -170.09 input  -60.11 | X-H torsion
[ 7974 7965 7964 7962 ] final   90.87 input  175.53 | X-H torsion
[ 8008 7997 7996 7995 ] final -176.42 input   59.86 | X-H torsion
[ 10167 10162 10161 10158 ] final   93.06 input  -65.29 | X-H torsion
[ 10718 10713 10712 10709 ] final   53.41 input   66.30 | X-H torsion
[ 10763 10752 10751 10750 ] final -168.15 input  -60.55 | X-H torsion
[ 11005 11000 10999 10996 ] final -146.45 input  -57.11 | X-H torsion

> <Gold.Protein.ActiveResidues>
 VAL166  LYS551  ARG553  GLY616  TRP617  ASP618  TYR619  PRO620  LYS621  CYS622 
 ASP623  PHE694  ASN695  SER759  ASP760  ASP761  ALA762  ILE779  LEU786  VAL792 
 PHE793  MET794  SER795  GLU796  ALA797  LYS798  CYS799  TRP800  GLU811  SER814 

> <Gold.Protein.RotatedAtoms>
  151.5021  133.3502  159.2870 H   0  0  0  0  0  0  0  0  0  0  0  0  # atno 6907 bound_to 6896
  150.8766  134.8152  159.7205 H   0  0  0  0  0  0  0  0  0  0  0  0  # atno 6908 bound_to 6896
  152.4735  134.4913  159.9748 H   0  0  0  0  0  0  0  0  0  0  0  0  # atno 6909 bound_to 6896
  145.5133  139.2277  143.2712 H   0  0  0  0  0  0  0  0  0  0  0  0  # atno 7974 bound_to 7965
  155.9946  140.1208  157.0606 H   0  0  0  0  0  0  0  0  0  0  0  0  # atno 8008 bound_to 7997
  154.4222  140.1119  156.5681 H   0  0  0  0  0  0  0  0  0  0  0  0  # atno 8009 bound_to 7997
  155.6296  140.3473  155.4681 H   0  0  0  0  0  0  0  0  0  0  0  0  # atno 8010 bound_to 7997
  139.8216  144.6728  150.9511 H   0  0  0  0  0  0  0  0  0  0  0  0  # atno 10167 bound_to 10162
  157.5164  130.8535  149.8501 H   0  0  0  0  0  0  0  0  0  0  0  0  # atno 10718 bound_to 10713
  154.6658  135.2932  154.9807 H   0  0  0  0  0  0  0  0  0  0  0  0  # atno 10763 bound_to 10752
  154.0851  135.6599  153.4847 H   0  0  0  0  0  0  0  0  0  0  0  0  # atno 10764 bound_to 10752
  153.0457  135.5206  154.7631 H   0  0  0  0  0  0  0  0  0  0  0  0  # atno 10765 bound_to 10752
  140.7819  134.3069  157.5043 H   0  0  0  0  0  0  0  0  0  0  0  0  # atno 11005 bound_to 11000
  146.2153  140.5941  142.9041 LP  0  0  0  0  0  0  0  0  0  0  0  0  # atno 17320 bound_to 7965
  144.7715  140.5649  143.6666 LP  0  0  0  0  0  0  0  0  0  0  0  0  # atno 17321 bound_to 7965
  140.7813  143.4086  151.1030 LP  0  0  0  0  0  0  0  0  0  0  0  0  # atno 17342 bound_to 10162
  139.7746  143.8444  152.3127 LP  0  0  0  0  0  0  0  0  0  0  0  0  # atno 17343 bound_to 10162
  156.0323  130.3761  150.1653 LP  0  0  0  0  0  0  0  0  0  0  0  0  # atno 17370 bound_to 10713
  156.9842  130.9873  151.3430 LP  0  0  0  0  0  0  0  0  0  0  0  0  # atno 17371 bound_to 10713
  139.8741  134.9323  156.3551 LP  0  0  0  0  0  0  0  0  0  0  0  0  # atno 17394 bound_to 11000
  140.9474  133.7473  156.0227 LP  0  0  0  0  0  0  0  0  0  0  0  0  # atno 17395 bound_to 11000

$$$$
