#       Name:                AV-unprocessed.smi:1897
#       Creating user name   scv26
#       Creation time:       Fri Mar 27 09:42:53 2020


#       File generated by GOLD software.
#

@<TRIPOS>MOLECULE
AV-unprocessed.smi:1897
    43    45     1
SMALL
NO_CHARGES


@<TRIPOS>ATOM
      1 ****         1.4876   7.7538  -2.4627 C.3            1 S1                 0.0000
      2 ****         1.6468   6.3016  -2.1677 C.2            1 S1                 0.0000
      3 ****         2.8319   5.7447  -1.8902 N.2            1 S1                 0.0000
      4 ****         2.7298   4.3811  -1.6587 N.2            1 S1                 0.0000
      5 ****         1.4643   3.9471  -1.7551 C.2            1 S1                 0.0000
      6 ****         1.0656   2.5885  -1.5920 N.am           1 S1                 0.0000
      7 ****         1.7565   1.5057  -1.1775 C.2            1 S1                 0.0000
      8 ****         2.9414   1.5895  -0.8601 O.2            1 S1                 0.0000
      9 ****         1.0720   0.3502  -1.1362 N.am           1 S1                 0.0000
     10 ****         1.5847  -0.9342  -0.6654 C.3            1 S1                 0.0000
     11 ****         0.9763  -2.1306  -1.4231 C.3            1 S1                 0.0000
     12 ****         0.6642  -3.1653  -0.3368 C.3            1 S1                 0.0000
     13 ****         0.3321  -2.3330   0.8252 N.4            1 S1                 1.0000
     14 ****         0.2152  -2.9834   2.1462 C.3            1 S1                 0.0000
     15 ****        -0.3084  -1.9430   3.1592 C.3            1 S1                 0.0000
     16 ****         0.5364  -0.6488   3.1585 C.3            1 S1                 0.0000
     17 ****         0.7259  -0.0897   1.7319 C.3            1 S1                 0.0000
     18 ****         1.2796  -1.2051   0.8263 C.3            1 S1                 0.0000
     19 ****         0.2886   5.1832  -2.1700 S.3            1 S1                 0.0000
     20 ****         2.2785   8.3305  -1.9821 H              1 S1                 0.0000
     21 ****         0.5253   8.1092  -2.0939 H              1 S1                 0.0000
     22 ****         1.5350   7.9215  -3.5390 H              1 S1                 0.0000
     23 ****         0.1324   2.3886  -1.9220 H              1 S1                 0.0000
     24 ****         0.1038   0.3740  -1.4238 H              1 S1                 0.0000
     25 ****         2.6673  -0.9629  -0.8053 H              1 S1                 0.0000
     26 ****         0.0475  -1.8356  -1.9145 H              1 S1                 0.0000
     27 ****         1.6429  -2.5233  -2.1916 H              1 S1                 0.0000
     28 ****        -0.1550  -3.8309  -0.6107 H              1 S1                 0.0000
     29 ****         1.5451  -3.7707  -0.1168 H              1 S1                 0.0000
     30 ****        -0.4738  -3.8265   2.0819 H              1 S1                 0.0000
     31 ****         1.1835  -3.3778   2.4577 H              1 S1                 0.0000
     32 ****        -1.3410  -1.6926   2.9116 H              1 S1                 0.0000
     33 ****        -0.3305  -2.3744   4.1605 H              1 S1                 0.0000
     34 ****         0.0713   0.1027   3.7971 H              1 S1                 0.0000
     35 ****         1.5139  -0.8590   3.5949 H              1 S1                 0.0000
     36 ****        -0.2262   0.2780   1.3463 H              1 S1                 0.0000
     37 ****         1.4096   0.7594   1.7554 H              1 S1                 0.0000
     38 ****         2.2123  -1.5620   1.2691 H              1 S1                 0.0000
     39 ****        -0.5732  -1.9349   0.6203 H              1 S1                 0.0000
     40 ****         3.6921   6.2533  -1.8539 LP             1 S1                 0.0000
     41 ****         3.5081   3.7908  -1.4450 LP             1 S1                 0.0000
     42 ****         3.4103   2.4715  -0.9066 LP             1 S1                 0.0000
     43 ****         3.4362   0.7756  -0.5555 LP             1 S1                 0.0000
@<TRIPOS>BOND
    1    1    2 1     
    2    1   20 1     
    3    1   21 1     
    4    1   22 1     
    5    2   19 1     
    6    2    3 2     
    7    3    4 1     
    8    4    5 2     
    9    5    6 1     
   10    5   19 1     
   11    6    7 am    
   12    6   23 1     
   13    7    8 2     
   14    7    9 am    
   15    9   10 1     
   16    9   24 1     
   17   10   18 1     
   18   10   11 1     
   19   10   25 1     
   20   11   12 1     
   21   11   26 1     
   22   11   27 1     
   23   12   13 1     
   24   12   28 1     
   25   12   29 1     
   26   13   18 1     
   27   13   14 1     
   28   13   39 1     
   29   14   15 1     
   30   14   30 1     
   31   14   31 1     
   32   15   16 1     
   33   15   32 1     
   34   15   33 1     
   35   16   17 1     
   36   16   34 1     
   37   16   35 1     
   38   17   18 1     
   39   17   36 1     
   40   17   37 1     
   41   18   38 1     
   42    3   40 1     
   43    4   41 1     
   44    8   42 1     
   45    8   43 1     
@<TRIPOS>SUBSTRUCTURE
      1 S1             1
@<TRIPOS>SET
LONE_PAIRS      STATIC     ATOMS    <user>   **** ""
4 40 41 42 43
DONOR_HYDROGENS      STATIC     ATOMS    <user>   **** ""
3 23 24 39
ATOM$BLUE        STATIC     ATOMS    COLORGROUP SYSTEM
4 40 41 42 43
ATOM$RED        STATIC     ATOMS    COLORGROUP SYSTEM
3 23 24 39
