AV-unprocessed.smi:3181|AV-procd|sdf|12150|dock7
  -GOLD-   2272017583D 1   1.00000     0.00000
 Structure written by MMmdl.
 42 43  0  0  0  0  0  0  0  0  2 V2000
  149.5838  141.5872  154.6239 C   0  0  0  0  0  0  0  0  0  0  0  0
  150.4164  141.5616  155.9162 C   0  0  1  0  0  0  0  0  0  0  0  0
  151.6165  140.5937  155.8380 C   0  0  0  0  0  0  0  0  0  0  0  0
  151.2182  139.2199  155.5934 N   0  0  0  0  0  0  0  0  0  0  0  0
  151.1996  138.1647  156.4093 C   0  0  0  0  0  0  0  0  0  0  0  0
  150.7667  137.0517  155.8342 N   0  0  0  0  0  0  0  0  0  0  0  0
  150.5242  137.5240  154.5752 C   0  0  0  0  0  0  0  0  0  0  0  0
  150.7795  138.8177  154.3779 N   0  0  0  0  0  0  0  0  0  0  0  0
  150.8937  142.9298  156.2201 N   0  3  0  0  0  0  0  0  0  0  0  0
  151.6572  143.0934  157.4787 C   0  0  1  0  0  0  0  0  0  0  0  0
  151.6153  144.5469  157.9936 C   0  0  0  0  0  0  0  0  0  0  0  0
  152.3482  144.6936  159.3366 C   0  0  0  0  0  0  0  0  0  0  0  0
  151.7897  143.7248  160.3973 C   0  0  2  0  0  0  0  0  0  0  0  0
  152.4620  143.9257  161.7654 C   0  0  0  0  0  0  0  0  0  0  0  0
  151.8272  142.2559  159.9033 C   0  0  2  0  0  0  0  0  0  0  0  0
  153.2402  141.6408  159.8482 C   0  0  0  0  0  0  0  0  0  0  0  0
  151.0992  142.1329  158.5481 C   0  0  0  0  0  0  0  0  0  0  0  0
  149.1413  140.6136  154.4117 H   0  0  0  0  0  0  0  0  0  0  0  0
  150.1924  141.8711  153.7649 H   0  0  0  0  0  0  0  0  0  0  0  0
  148.7634  142.3016  154.7016 H   0  0  0  0  0  0  0  0  0  0  0  0
  149.7536  141.2267  156.7157 H   0  0  0  0  0  0  0  0  0  0  0  0
  152.3024  140.9053  155.0483 H   0  0  0  0  0  0  0  0  0  0  0  0
  152.1876  140.6145  156.7665 H   0  0  0  0  0  0  0  0  0  0  0  0
  151.5066  138.2118  157.4438 H   0  0  0  0  0  0  0  0  0  0  0  0
  150.1491  136.8960  153.7805 H   0  0  0  0  0  0  0  0  0  0  0  0
  151.4503  143.2648  155.4468 H   0  0  0  0  0  0  0  0  0  0  0  0
  152.6922  142.8168  157.2736 H   0  0  0  0  0  0  0  0  0  0  0  0
  152.0690  145.2246  157.2702 H   0  0  0  0  0  0  0  0  0  0  0  0
  150.5792  144.8675  158.1099 H   0  0  0  0  0  0  0  0  0  0  0  0
  153.4152  144.5204  159.1935 H   0  0  0  0  0  0  0  0  0  0  0  0
  152.2529  145.7217  159.6879 H   0  0  0  0  0  0  0  0  0  0  0  0
  150.7383  143.9813  160.5367 H   0  0  0  0  0  0  0  0  0  0  0  0
  153.5410  143.7800  161.7118 H   0  0  0  0  0  0  0  0  0  0  0  0
  152.0653  143.2296  162.5047 H   0  0  0  0  0  0  0  0  0  0  0  0
  152.2889  144.9351  162.1397 H   0  0  0  0  0  0  0  0  0  0  0  0
  151.2630  141.6576  160.6204 H   0  0  0  0  0  0  0  0  0  0  0  0
  153.9126  142.2065  159.2042 H   0  0  0  0  0  0  0  0  0  0  0  0
  153.2042  140.6193  159.4686 H   0  0  0  0  0  0  0  0  0  0  0  0
  153.6933  141.5927  160.8382 H   0  0  0  0  0  0  0  0  0  0  0  0
  150.0389  142.3424  158.6985 H   0  0  0  0  0  0  0  0  0  0  0  0
  151.1523  141.1033  158.1915 H   0  0  0  0  0  0  0  0  0  0  0  0
  150.0752  143.5170  156.2947 H   0  0  0  0  0  0  0  0  0  0  0  0
  1  2  1  0  0  0  0
  1 18  1  0  0  0  0
  1 19  1  0  0  0  0
  1 20  1  0  0  0  0
  2  3  1  0  0  0  0
  2  9  1  0  0  0  0
  2 21  1  0  0  0  0
  3  4  1  0  0  0  0
  3 22  1  0  0  0  0
  3 23  1  0  0  0  0
  4  8  1  0  0  0  0
  4  5  1  0  0  0  0
  5  6  2  0  0  0  0
  5 24  1  0  0  0  0
  6  7  1  0  0  0  0
  7  8  2  0  0  0  0
  7 25  1  0  0  0  0
  9 10  1  0  0  0  0
  9 26  1  0  0  0  0
  9 42  1  0  0  0  0
 10 17  1  0  0  0  0
 10 11  1  0  0  0  0
 10 27  1  0  0  0  0
 11 12  1  0  0  0  0
 11 28  1  0  0  0  0
 11 29  1  0  0  0  0
 12 13  1  0  0  0  0
 12 30  1  0  0  0  0
 12 31  1  0  0  0  0
 13 14  1  0  0  0  0
 13 15  1  0  0  0  0
 13 32  1  0  0  0  0
 14 33  1  0  0  0  0
 14 34  1  0  0  0  0
 14 35  1  0  0  0  0
 15 16  1  0  0  0  0
 15 17  1  0  0  0  0
 15 36  1  0  0  0  0
 16 37  1  0  0  0  0
 16 38  1  0  0  0  0
 16 39  1  0  0  0  0
 17 40  1  0  0  0  0
 17 41  1  0  0  0  0
M  CHG  1   9   1
M  END
> <s_m_source_file>
AV-unprocessed.smi

> <i_m_source_file_index>
3181

> <i_lp_mmshare_version>
43012

> <i_f3d_flags>
0

> <s_epik_input>
bjFbY0hdbltjSF1uMVtDSDJdW0NAQEhdKFtDSDNdKVtOSF1bQ0BASF0yW0NIMl1bQ0gyXVtDQEBIXShbQ0gzXSlbQ0BASF0oW0NIM10pW0NIMl0y

> <s_epik_cmdline>
J2VwaWtfcHl0aG9uJywgJy1waCcsICc3LjAnLCAnLXRuJywgJzgnLCAnLW1hJywgJzIwMCcsICctbWV0YWxfYmluZGluZycsICctaW1hZScsICc8aW5maWxlLm1hZT4nLCAnLW9tYWUnLCAnPG91dGZpbGUubWFlPic=

> <r_lp_tautomer_probability>
1

> <r_epik_Ionization_Penalty>
0.000617007

> <r_epik_Ionization_Penalty_Charging>
0.000616215

> <r_epik_Ionization_Penalty_Neutral>
7.92544e-07

> <r_epik_State_Penalty>
0.000388807

> <r_epik_Charging_Adjusted_Penalty>
0.00100502

> <i_epik_Tot_Q>
1

> <i_epik_Tot_abs_Q>
1

> <r_epik_Metal_State_Penalty>
-0

> <b_epik_Metal_Only>
0

> <s_lp_Force_Field>
OPLS_2005

> <r_lp_Energy>
21.8546

> <b_lp_Chiralities_Consistent>
1

> <s_lp_Variant>
AV-unprocessed.smi:3181-16

> <Gold.Version>
5.8.1

> <Gold.Id.Protein>
6NUR|6NUR_protein|mol2

> <Gold.PLP.Fitness>
47.5161

> <Gold.PLP.PLP>
-39.2134

> <Gold.PLP.part.hbond>
-1.0000

> <Gold.PLP.part.metal>
0.0000

> <Gold.PLP.part.buried>
-3.5572

> <Gold.PLP.part.nonpolar>
-33.8692

> <Gold.PLP.part.repulsive>
0.3146

> <Gold.PLP.ligand.clash>
0.0000

> <Gold.PLP.ligand.torsion>
0.4273

> <Gold.PLP.Chemscore.Hbond>
1.9840

> <Gold.PLP.Chemscore.CHOScore>
1.0591

> <Gold.PLP.Chemscore.Metal>
0.0000

> <Gold.Chemscore.Hbonds>
donor molecule, donor type, donor heavy atom, donor atom, acceptor molecule, acceptor atom, score
      L1  H     9    42       P1  8028  2.00
      P1  H  7989  7998       L1     8  0.05
      L1  C     7    25       P1  7948  0.96
      L1  C     7    25       P1  7949  0.10

> <Gold.PLP.Chemscore.Internal.Correction>
0.0280

> <Gold.Rescore>
     Score         DG    S(hbond)    S(metal)    S(lipo)     H(rot)  DE(clash)    DE(int)     intcor
     15.10     -15.78       0.97        0.00     106.56       2.11       0.08       0.61       ----

> <Gold.Chemscore.Fitness>
15.0990

> <Gold.Chemscore.DG>
-15.7846

> <Gold.Chemscore.ZeroCoef>
-5.4800

> <Gold.Chemscore.Hbond>
0.9693

> <Gold.Chemscore.Metal>
0.0000

> <Gold.Chemscore.Lipo>
106.5607

> <Gold.Chemscore.Internal_Hbond>
0.0000

> <Gold.Chemscore.DEClash>
0.0758

> <Gold.Chemscore.DEInternal>
0.6099

> <Gold.Chemscore.Rot>
2.1095

> <Gold.Chemscore.Internal.Correction>
   9.000000E+99

> <Gold.Chemscore.Hbonds>
donor molecule, donor type, donor heavy atom, donor atom, acceptor molecule, acceptor atom, score
      L1  H     9    42       P1  8028  0.97

> <Gold.Chemscore.Hbond.Weighted>
-3.2373

> <Gold.Chemscore.Metal.Weighted>
-0.0000

> <Gold.Chemscore.Lipo.Weighted>
-12.4676

> <Gold.Chemscore.Internal_Hbond.Weighted>
0.0000

> <Gold.Chemscore.DEClash.Weighted>
0.0758

> <Gold.Chemscore.DEInternal.Weighted>
0.6099

> <Gold.Chemscore.Rot.Weighted>
5.4003

> <Gold.Chemscore.Internal.Correction.Weighted>
   9.000000E+99

> <Gold.Protein.RotatedTorsions>
[ 6907 6896 6895 6894 ] final -165.32 input  -60.11 | X-H torsion
[ 7974 7965 7964 7962 ] final  -32.35 input  175.53 | X-H torsion
[ 8008 7997 7996 7995 ] final  -11.93 input   59.86 | X-H torsion
[ 10167 10162 10161 10158 ] final    5.81 input  -65.29 | X-H torsion
[ 10718 10713 10712 10709 ] final  -12.10 input   66.30 | X-H torsion
[ 10763 10752 10751 10750 ] final -127.45 input  -60.55 | X-H torsion
[ 11005 11000 10999 10996 ] final    2.22 input  -57.11 | X-H torsion

> <Gold.Protein.ActiveResidues>
 VAL166  LYS551  ARG553  GLY616  TRP617  ASP618  TYR619  PRO620  LYS621  CYS622 
 ASP623  PHE694  ASN695  SER759  ASP760  ASP761  ALA762  ILE779  LEU786  VAL792 
 PHE793  MET794  SER795  GLU796  ALA797  LYS798  CYS799  TRP800  GLU811  SER814 

> <Gold.Protein.RotatedAtoms>
  151.4259  133.3684  159.2761 H   0  0  0  0  0  0  0  0  0  0  0  0  # atno 6907 bound_to 6896
  150.9260  134.8678  159.7531 H   0  0  0  0  0  0  0  0  0  0  0  0  # atno 6908 bound_to 6896
  152.5005  134.4200  159.9529 H   0  0  0  0  0  0  0  0  0  0  0  0  # atno 6909 bound_to 6896
  146.0996  140.5782  142.8827 H   0  0  0  0  0  0  0  0  0  0  0  0  # atno 7974 bound_to 7965
  154.5421  140.2289  155.8623 H   0  0  0  0  0  0  0  0  0  0  0  0  # atno 8008 bound_to 7997
  156.1869  140.3087  155.9217 H   0  0  0  0  0  0  0  0  0  0  0  0  # atno 8009 bound_to 7997
  155.3236  140.0442  157.3031 H   0  0  0  0  0  0  0  0  0  0  0  0  # atno 8010 bound_to 7997
  140.6462  143.7656  150.7503 H   0  0  0  0  0  0  0  0  0  0  0  0  # atno 10167 bound_to 10162
  156.6494  130.4950  149.6067 H   0  0  0  0  0  0  0  0  0  0  0  0  # atno 10718 bound_to 10713
  154.8752  135.3961  154.3595 H   0  0  0  0  0  0  0  0  0  0  0  0  # atno 10763 bound_to 10752
  153.4369  135.7026  153.6199 H   0  0  0  0  0  0  0  0  0  0  0  0  # atno 10764 bound_to 10752
  153.4797  135.3772  155.2404 H   0  0  0  0  0  0  0  0  0  0  0  0  # atno 10765 bound_to 10752
  140.6067  133.9786  155.8157 H   0  0  0  0  0  0  0  0  0  0  0  0  # atno 11005 bound_to 11000
  144.7422  140.4974  143.6861 LP  0  0  0  0  0  0  0  0  0  0  0  0  # atno 17320 bound_to 7965
  145.5880  139.1493  143.3198 LP  0  0  0  0  0  0  0  0  0  0  0  0  # atno 17321 bound_to 7965
  140.1298  143.4536  152.2261 LP  0  0  0  0  0  0  0  0  0  0  0  0  # atno 17342 bound_to 10162
  139.5673  144.7442  151.3987 LP  0  0  0  0  0  0  0  0  0  0  0  0  # atno 17343 bound_to 10162
  156.2096  130.6671  151.1255 LP  0  0  0  0  0  0  0  0  0  0  0  0  # atno 17370 bound_to 10713
  157.7146  131.0717  150.6376 LP  0  0  0  0  0  0  0  0  0  0  0  0  # atno 17371 bound_to 10713
  141.0836  134.0025  157.3348 LP  0  0  0  0  0  0  0  0  0  0  0  0  # atno 17394 bound_to 11000
  139.9209  135.0200  156.8061 LP  0  0  0  0  0  0  0  0  0  0  0  0  # atno 17395 bound_to 11000

$$$$
