AV-unprocessed.smi:2124|AV-procd|sdf|8651|dock2
  -GOLD-   2272011403D 1   1.00000     0.00000
 Structure written by MMmdl.
 47 49  0  0  0  0  0  0  0  0  1 V2000
  152.4518  142.5696  159.5329 C   0  0  0  0  0  0  0  0  0  0  0  0
  151.6677  141.3849  159.0090 C   0  0  0  0  0  0  0  0  0  0  0  0
  152.1907  140.2318  158.7501 N   0  0  0  0  0  0  0  0  0  0  0  0
  151.3625  139.2070  158.2713 C   0  0  0  0  0  0  0  0  0  0  0  0
  152.0545  137.8821  158.0002 C   0  0  0  0  0  0  0  0  0  0  0  0
  150.0249  139.4019  158.0746 C   0  0  0  0  0  0  0  0  0  0  0  0
  149.0855  138.3163  157.5483 C   0  0  0  0  0  0  0  0  0  0  0  0
  148.8747  137.0998  158.4550 C   0  0  0  0  0  0  0  0  0  0  0  0
  149.7988  136.7014  159.1628 O   0  0  0  0  0  0  0  0  0  0  0  0
  147.6673  136.5141  158.4157 N   0  0  0  0  0  0  0  0  0  0  0  0
  147.2529  135.3413  159.1809 C   0  0  1  0  0  0  0  0  0  0  0  0
  147.7122  134.0767  158.4383 C   0  0  0  0  0  0  0  0  0  0  0  0
  147.8311  135.4213  160.6135 C   0  0  2  0  0  0  0  0  0  0  0  0
  147.6218  134.1534  161.4721 C   0  0  0  0  0  0  0  0  0  0  0  0
  147.0416  134.7140  162.7843 C   0  0  2  0  0  0  0  0  0  0  0  0
  145.5806  135.1376  162.5476 C   0  0  0  0  0  0  0  0  0  0  0  0
  145.7327  136.4118  161.6976 C   0  0  0  0  0  0  0  0  0  0  0  0
  147.2619  136.5331  161.5317 C   0  0  1  0  0  0  0  0  0  0  0  0
  147.7451  136.0615  162.8995 C   0  0  0  0  0  0  0  0  0  0  0  0
  149.4397  140.7242  158.3686 C   0  0  0  0  0  0  0  0  0  0  0  0
  148.2528  141.0090  158.2177 O   0  0  0  0  0  0  0  0  0  0  0  0
  150.3116  141.6497  158.8274 N   0  0  0  0  0  0  0  0  0  0  0  0
  149.9587  142.5705  159.0443 H   0  0  0  0  0  0  0  0  0  0  0  0
  151.8158  143.4450  159.6714 H   0  0  0  0  0  0  0  0  0  0  0  0
  153.2463  142.8327  158.8343 H   0  0  0  0  0  0  0  0  0  0  0  0
  152.9061  142.3234  160.4928 H   0  0  0  0  0  0  0  0  0  0  0  0
  151.6880  137.1145  158.6820 H   0  0  0  0  0  0  0  0  0  0  0  0
  153.1333  137.9633  158.1388 H   0  0  0  0  0  0  0  0  0  0  0  0
  151.8773  137.5506  156.9777 H   0  0  0  0  0  0  0  0  0  0  0  0
  148.1043  138.7454  157.3480 H   0  0  0  0  0  0  0  0  0  0  0  0
  149.4389  137.9741  156.5744 H   0  0  0  0  0  0  0  0  0  0  0  0
  146.9756  136.9139  157.7981 H   0  0  0  0  0  0  0  0  0  0  0  0
  146.1648  135.3023  159.2465 H   0  0  0  0  0  0  0  0  0  0  0  0
  147.3966  133.1725  158.9588 H   0  0  0  0  0  0  0  0  0  0  0  0
  148.7980  134.0437  158.3433 H   0  0  0  0  0  0  0  0  0  0  0  0
  147.2893  134.0382  157.4338 H   0  0  0  0  0  0  0  0  0  0  0  0
  148.9054  135.5958  160.5265 H   0  0  0  0  0  0  0  0  0  0  0  0
  146.9475  133.4304  161.0113 H   0  0  0  0  0  0  0  0  0  0  0  0
  148.5737  133.6508  161.6478 H   0  0  0  0  0  0  0  0  0  0  0  0
  147.1704  134.0497  163.6391 H   0  0  0  0  0  0  0  0  0  0  0  0
  145.0020  134.3651  162.0396 H   0  0  0  0  0  0  0  0  0  0  0  0
  145.0821  135.3635  163.4909 H   0  0  0  0  0  0  0  0  0  0  0  0
  145.1961  136.3545  160.7512 H   0  0  0  0  0  0  0  0  0  0  0  0
  145.3403  137.2741  162.2381 H   0  0  0  0  0  0  0  0  0  0  0  0
  147.5913  137.5364  161.2600 H   0  0  0  0  0  0  0  0  0  0  0  0
  147.3763  136.6737  163.7247 H   0  0  0  0  0  0  0  0  0  0  0  0
  148.8310  135.9788  162.9733 H   0  0  0  0  0  0  0  0  0  0  0  0
  1  2  1  0  0  0  0
  1 24  1  0  0  0  0
  1 25  1  0  0  0  0
  1 26  1  0  0  0  0
  2 22  1  0  0  0  0
  2  3  2  0  0  0  0
  3  4  1  0  0  0  0
  4  5  1  0  0  0  0
  4  6  2  0  0  0  0
  5 27  1  0  0  0  0
  5 28  1  0  0  0  0
  5 29  1  0  0  0  0
  6  7  1  0  0  0  0
  6 20  1  0  0  0  0
  7  8  1  0  0  0  0
  7 30  1  0  0  0  0
  7 31  1  0  0  0  0
  8  9  2  0  0  0  0
  8 10  1  0  0  0  0
 10 11  1  0  0  0  0
 10 32  1  0  0  0  0
 11 12  1  0  0  0  0
 11 13  1  0  0  0  0
 11 33  1  0  0  0  0
 12 34  1  0  0  0  0
 12 35  1  0  0  0  0
 12 36  1  0  0  0  0
 13 18  1  0  0  0  0
 13 14  1  0  0  0  0
 13 37  1  0  0  0  0
 14 15  1  0  0  0  0
 14 38  1  0  0  0  0
 14 39  1  0  0  0  0
 15 19  1  0  0  0  0
 15 16  1  0  0  0  0
 15 40  1  0  0  0  0
 16 17  1  0  0  0  0
 16 41  1  0  0  0  0
 16 42  1  0  0  0  0
 17 18  1  0  0  0  0
 17 43  1  0  0  0  0
 17 44  1  0  0  0  0
 18 19  1  0  0  0  0
 18 45  1  0  0  0  0
 19 46  1  0  0  0  0
 19 47  1  0  0  0  0
 20 21  2  0  0  0  0
 20 22  1  0  0  0  0
 22 23  1  0  0  0  0
M  END
> <s_m_source_file>
AV-unprocessed.smi

> <i_m_source_file_index>
2124

> <i_lp_mmshare_version>
43012

> <i_f3d_flags>
0

> <s_epik_input>
W0NIM11jMW5jKFtDSDNdKWMoYyg9TylbbkhdMSlbQ0gyXUMoPU8pW05IXVtDQEhdKFtDSDNdKVtDQEhdKFtDSDJdW0NASF0yMylbQ0BIXShbQ0gyXTMpW0NIMl1bQ0gyXTI=

> <s_epik_cmdline>
J2VwaWtfcHl0aG9uJywgJy1waCcsICc3LjAnLCAnLXRuJywgJzgnLCAnLW1hJywgJzIwMCcsICctbWV0YWxfYmluZGluZycsICctaW1hZScsICc8aW5maWxlLm1hZT4nLCAnLW9tYWUnLCAnPG91dGZpbGUubWFlPic=

> <r_lp_tautomer_probability>
0.839158

> <r_epik_Ionization_Penalty>
0.000383628

> <r_epik_Ionization_Penalty_Charging>
0.00035045

> <r_epik_Ionization_Penalty_Neutral>
3.31781e-05

> <r_epik_State_Penalty>
0.09125

> <r_epik_Charging_Adjusted_Penalty>
0.0916005

> <i_epik_Tot_Q>
0

> <i_epik_Tot_abs_Q>
0

> <r_epik_Metal_State_Penalty>
0.255229

> <b_epik_Metal_Only>
0

> <s_lp_Force_Field>
OPLS_2005

> <r_lp_Energy>
53.2281

> <b_lp_Chiralities_Consistent>
1

> <s_lp_Variant>
AV-unprocessed.smi:2124-2

> <Gold.Version>
5.8.1

> <Gold.Id.Protein>
6NUR|6NUR_protein|mol2

> <Gold.PLP.Fitness>
37.9152

> <Gold.PLP.PLP>
-36.4211

> <Gold.PLP.part.hbond>
-1.0047

> <Gold.PLP.part.metal>
0.0000

> <Gold.PLP.part.buried>
-6.2477

> <Gold.PLP.part.nonpolar>
-29.2779

> <Gold.PLP.part.repulsive>
0.2697

> <Gold.PLP.ligand.clash>
0.0000

> <Gold.PLP.ligand.torsion>
0.7790

> <Gold.PLP.Chemscore.Hbond>
1.0000

> <Gold.PLP.Chemscore.CHOScore>
0.0000

> <Gold.PLP.Chemscore.Metal>
0.0000

> <Gold.Chemscore.Hbonds>
donor molecule, donor type, donor heavy atom, donor atom, acceptor molecule, acceptor atom, score
      P1  H  6896  6909       L1     9  0.60

> <Gold.PLP.Chemscore.Internal.Correction>
0.0522

> <Gold.Rescore>
     Score         DG    S(hbond)    S(metal)    S(lipo)     H(rot)  DE(clash)    DE(int)     intcor
     11.94     -15.34       0.99        0.00      92.16       1.65       0.02       3.38       ----

> <Gold.Chemscore.Fitness>
11.9436

> <Gold.Chemscore.DG>
-15.3431

> <Gold.Chemscore.ZeroCoef>
-5.4800

> <Gold.Chemscore.Hbond>
0.9920

> <Gold.Chemscore.Metal>
0.0000

> <Gold.Chemscore.Lipo>
92.1567

> <Gold.Chemscore.Internal_Hbond>
0.0000

> <Gold.Chemscore.DEClash>
0.0185

> <Gold.Chemscore.DEInternal>
3.3810

> <Gold.Chemscore.Rot>
1.6534

> <Gold.Chemscore.Internal.Correction>
   9.000000E+99

> <Gold.Chemscore.Hbonds>
donor molecule, donor type, donor heavy atom, donor atom, acceptor molecule, acceptor atom, score
      P1  H  6896  6909       L1     9  0.60

> <Gold.Chemscore.Hbond.Weighted>
-3.3133

> <Gold.Chemscore.Metal.Weighted>
-0.0000

> <Gold.Chemscore.Lipo.Weighted>
-10.7823

> <Gold.Chemscore.Internal_Hbond.Weighted>
0.0000

> <Gold.Chemscore.DEClash.Weighted>
0.0185

> <Gold.Chemscore.DEInternal.Weighted>
3.3810

> <Gold.Chemscore.Rot.Weighted>
4.2326

> <Gold.Chemscore.Internal.Correction.Weighted>
   9.000000E+99

> <Gold.Protein.RotatedTorsions>
[ 6907 6896 6895 6894 ] final   66.24 input  -60.11 | X-H torsion
[ 7974 7965 7964 7962 ] final  -33.87 input  175.53 | X-H torsion
[ 8008 7997 7996 7995 ] final  -95.76 input   59.86 | X-H torsion
[ 10167 10162 10161 10158 ] final  -77.51 input  -65.29 | X-H torsion
[ 10718 10713 10712 10709 ] final   89.81 input   66.30 | X-H torsion
[ 10763 10752 10751 10750 ] final -167.78 input  -60.55 | X-H torsion
[ 11005 11000 10999 10996 ] final   49.49 input  -57.11 | X-H torsion

> <Gold.Protein.ActiveResidues>
 VAL166  LYS551  ARG553  GLY616  TRP617  ASP618  TYR619  PRO620  LYS621  CYS622 
 ASP623  PHE694  ASN695  SER759  ASP760  ASP761  ALA762  ILE779  LEU786  VAL792 
 PHE793  MET794  SER795  GLU796  ALA797  LYS798  CYS799  TRP800  GLU811  SER814 

> <Gold.Protein.RotatedAtoms>
  152.4466  134.5481  159.9858 H   0  0  0  0  0  0  0  0  0  0  0  0  # atno 6907 bound_to 6896
  151.5564  133.3404  159.2971 H   0  0  0  0  0  0  0  0  0  0  0  0  # atno 6908 bound_to 6896
  150.8384  134.7699  159.6976 H   0  0  0  0  0  0  0  0  0  0  0  0  # atno 6909 bound_to 6896
  146.0875  140.5969  142.8879 H   0  0  0  0  0  0  0  0  0  0  0  0  # atno 7974 bound_to 7965
  154.7656  140.0477  157.1009 H   0  0  0  0  0  0  0  0  0  0  0  0  # atno 8008 bound_to 7997
  154.9884  140.3110  155.4897 H   0  0  0  0  0  0  0  0  0  0  0  0  # atno 8009 bound_to 7997
  156.2912  140.2223  156.4987 H   0  0  0  0  0  0  0  0  0  0  0  0  # atno 8010 bound_to 7997
  140.4764  143.2413  151.8126 H   0  0  0  0  0  0  0  0  0  0  0  0  # atno 10167 bound_to 10162
  157.6957  131.0347  150.3482 H   0  0  0  0  0  0  0  0  0  0  0  0  # atno 10718 bound_to 10713
  154.6696  135.2937  154.9759 H   0  0  0  0  0  0  0  0  0  0  0  0  # atno 10763 bound_to 10752
  154.0790  135.6607  153.4839 H   0  0  0  0  0  0  0  0  0  0  0  0  # atno 10764 bound_to 10752
  153.0479  135.5193  154.7686 H   0  0  0  0  0  0  0  0  0  0  0  0  # atno 10765 bound_to 10752
  140.1099  134.4969  155.8687 H   0  0  0  0  0  0  0  0  0  0  0  0  # atno 11005 bound_to 11000
  144.7336  140.4745  143.6920 LP  0  0  0  0  0  0  0  0  0  0  0  0  # atno 17320 bound_to 7965
  145.6101  139.1512  143.3080 LP  0  0  0  0  0  0  0  0  0  0  0  0  # atno 17321 bound_to 7965
  139.4826  144.4828  151.9285 LP  0  0  0  0  0  0  0  0  0  0  0  0  # atno 17342 bound_to 10162
  140.3913  144.2612  150.5899 LP  0  0  0  0  0  0  0  0  0  0  0  0  # atno 17343 bound_to 10162
  156.3934  130.3902  149.7013 LP  0  0  0  0  0  0  0  0  0  0  0  0  # atno 17370 bound_to 10713
  156.4355  130.7836  151.2856 LP  0  0  0  0  0  0  0  0  0  0  0  0  # atno 17371 bound_to 10713
  141.2127  133.6724  156.6684 LP  0  0  0  0  0  0  0  0  0  0  0  0  # atno 17394 bound_to 11000
  140.3105  134.8090  157.4172 LP  0  0  0  0  0  0  0  0  0  0  0  0  # atno 17395 bound_to 11000

$$$$
