AV-unprocessed.smi:1770|AV-procd|sdf|7155|dock3
  -GOLD-   22720 8393D 1   1.00000     0.00000
 Structure written by MMmdl.
 37 38  0  0  0  0  0  0  0  0  1 V2000
  153.5827  138.8396  159.5262 C   0  0  0  0  0  0  0  0  0  0  0  0
  154.5473  138.7662  158.4916 O   0  0  0  0  0  0  0  0  0  0  0  0
  154.3279  137.6652  157.6191 C   0  0  0  0  0  0  0  0  0  0  0  0
  153.0780  137.9047  156.7661 C   0  0  0  0  0  0  0  0  0  0  0  0
  152.5169  136.9393  156.2505 O   0  0  0  0  0  0  0  0  0  0  0  0
  152.6600  139.1803  156.6652 N   0  0  0  0  0  0  0  0  0  0  0  0
  151.5420  139.7291  155.9719 C   0  0  0  0  0  0  0  0  0  0  0  0
  150.9124  139.0884  154.8763 C   0  0  0  0  0  0  0  0  0  0  0  0
  149.8088  139.7064  154.2612 C   0  0  0  0  0  0  0  0  0  0  0  0
  149.3738  140.9472  154.7583 C   0  0  0  0  0  0  0  0  0  0  0  0
  149.9702  141.5783  155.7895 N   0  0  0  0  0  0  0  0  0  0  0  0
  151.0369  140.9921  156.3855 C   0  0  0  0  0  0  0  0  0  0  0  0
  151.6513  141.6935  157.4421 N   0  0  0  0  0  0  0  0  0  0  0  0
  151.3661  143.1271  157.4421 C   0  0  0  0  0  0  0  0  0  0  0  0
  152.3456  143.8757  158.3617 C   0  0  0  0  0  0  0  0  0  0  0  0
  152.3422  143.2730  159.7761 C   0  0  0  0  0  0  0  0  0  0  0  0
  152.6138  141.7607  159.7129 C   0  0  0  0  0  0  0  0  0  0  0  0
  151.6271  141.0624  158.7611 C   0  0  0  0  0  0  0  0  0  0  0  0
  153.7958  139.6968  160.1650 H   0  0  0  0  0  0  0  0  0  0  0  0
  153.6015  137.9431  160.1471 H   0  0  0  0  0  0  0  0  0  0  0  0
  152.5781  138.9637  159.1202 H   0  0  0  0  0  0  0  0  0  0  0  0
  155.1891  137.5266  156.9637 H   0  0  0  0  0  0  0  0  0  0  0  0
  154.1921  136.7474  158.1931 H   0  0  0  0  0  0  0  0  0  0  0  0
  153.1926  139.8482  157.2042 H   0  0  0  0  0  0  0  0  0  0  0  0
  151.2544  138.1435  154.4858 H   0  0  0  0  0  0  0  0  0  0  0  0
  149.3086  139.2395  153.4258 H   0  0  0  0  0  0  0  0  0  0  0  0
  148.5291  141.4505  154.3116 H   0  0  0  0  0  0  0  0  0  0  0  0
  151.4243  143.5360  156.4331 H   0  0  0  0  0  0  0  0  0  0  0  0
  150.3421  143.2816  157.7841 H   0  0  0  0  0  0  0  0  0  0  0  0
  153.3515  143.8211  157.9425 H   0  0  0  0  0  0  0  0  0  0  0  0
  152.0843  144.9333  158.4041 H   0  0  0  0  0  0  0  0  0  0  0  0
  153.0907  143.7654  160.3976 H   0  0  0  0  0  0  0  0  0  0  0  0
  151.3758  143.4526  160.2488 H   0  0  0  0  0  0  0  0  0  0  0  0
  153.6345  141.5880  159.3690 H   0  0  0  0  0  0  0  0  0  0  0  0
  152.5446  141.3242  160.7095 H   0  0  0  0  0  0  0  0  0  0  0  0
  150.6175  141.1154  159.1708 H   0  0  0  0  0  0  0  0  0  0  0  0
  151.8844  140.0062  158.6710 H   0  0  0  0  0  0  0  0  0  0  0  0
  1  2  1  0  0  0  0
  1 19  1  0  0  0  0
  1 20  1  0  0  0  0
  1 21  1  0  0  0  0
  2  3  1  0  0  0  0
  3  4  1  0  0  0  0
  3 22  1  0  0  0  0
  3 23  1  0  0  0  0
  4  5  2  0  0  0  0
  4  6  1  0  0  0  0
  6  7  1  0  0  0  0
  6 24  1  0  0  0  0
  7 12  1  0  0  0  0
  7  8  2  0  0  0  0
  8  9  1  0  0  0  0
  8 25  1  0  0  0  0
  9 10  2  0  0  0  0
  9 26  1  0  0  0  0
 10 11  1  0  0  0  0
 10 27  1  0  0  0  0
 11 12  2  0  0  0  0
 12 13  1  0  0  0  0
 13 18  1  0  0  0  0
 13 14  1  0  0  0  0
 14 15  1  0  0  0  0
 14 28  1  0  0  0  0
 14 29  1  0  0  0  0
 15 16  1  0  0  0  0
 15 30  1  0  0  0  0
 15 31  1  0  0  0  0
 16 17  1  0  0  0  0
 16 32  1  0  0  0  0
 16 33  1  0  0  0  0
 17 18  1  0  0  0  0
 17 34  1  0  0  0  0
 17 35  1  0  0  0  0
 18 36  1  0  0  0  0
 18 37  1  0  0  0  0
M  END
> <s_m_source_file>
AV-unprocessed.smi

> <i_m_source_file_index>
1770

> <i_lp_mmshare_version>
43012

> <i_f3d_flags>
0

> <s_epik_input>
W0NIM11PW0NIMl1DKD1PKVtOSF1jMVtjSF1bY0hdW2NIXW5jMU4yW0NIMl1bQ0gyXVtDSDJdW0NIMl1bQ0gyXTI=

> <s_epik_cmdline>
J2VwaWtfcHl0aG9uJywgJy1waCcsICc3LjAnLCAnLXRuJywgJzgnLCAnLW1hJywgJzIwMCcsICctbWV0YWxfYmluZGluZycsICctaW1hZScsICc8aW5maWxlLm1hZT4nLCAnLW9tYWUnLCAnPG91dGZpbGUubWFlPic=

> <r_lp_tautomer_probability>
1

> <r_epik_Ionization_Penalty>
0.0272113

> <r_epik_Ionization_Penalty_Charging>
0

> <r_epik_Ionization_Penalty_Neutral>
0.0272113

> <r_epik_State_Penalty>
0.0213264

> <r_epik_Charging_Adjusted_Penalty>
0.0213264

> <i_epik_Tot_Q>
0

> <i_epik_Tot_abs_Q>
0

> <r_epik_Metal_State_Penalty>
0.0203232

> <b_epik_Metal_Only>
0

> <s_lp_Force_Field>
OPLS_2005

> <r_lp_Energy>
23.4593

> <b_lp_Chiralities_Consistent>
1

> <s_lp_Variant>
AV-unprocessed.smi:1770-1

> <Gold.Version>
5.8.1

> <Gold.Id.Protein>
6NUR|6NUR_protein|mol2

> <Gold.PLP.Fitness>
38.7315

> <Gold.PLP.PLP>
-33.8966

> <Gold.PLP.part.hbond>
-2.0000

> <Gold.PLP.part.metal>
0.0000

> <Gold.PLP.part.buried>
-1.9268

> <Gold.PLP.part.nonpolar>
-30.5173

> <Gold.PLP.part.repulsive>
0.9331

> <Gold.PLP.ligand.clash>
0.0000

> <Gold.PLP.ligand.torsion>
0.7243

> <Gold.PLP.Chemscore.Hbond>
1.9920

> <Gold.PLP.Chemscore.CHOScore>
0.0000

> <Gold.PLP.Chemscore.Metal>
0.0000

> <Gold.Chemscore.Hbonds>
donor molecule, donor type, donor heavy atom, donor atom, acceptor molecule, acceptor atom, score
      P1  H  7997  8008       L1     2  1.00
      P1  H 10752 10765       L1     5  0.94

> <Gold.PLP.Chemscore.Internal.Correction>
0.3075

> <Gold.Rescore>
     Score         DG    S(hbond)    S(metal)    S(lipo)     H(rot)  DE(clash)    DE(int)     intcor
     15.44     -18.22       1.81        0.00      87.61       1.39       0.06       2.71       ----

> <Gold.Chemscore.Fitness>
15.4425

> <Gold.Chemscore.DG>
-18.2157

> <Gold.Chemscore.ZeroCoef>
-5.4800

> <Gold.Chemscore.Hbond>
1.8124

> <Gold.Chemscore.Metal>
0.0000

> <Gold.Chemscore.Lipo>
87.6068

> <Gold.Chemscore.Internal_Hbond>
0.0000

> <Gold.Chemscore.DEClash>
0.0643

> <Gold.Chemscore.DEInternal>
2.7089

> <Gold.Chemscore.Rot>
1.3937

> <Gold.Chemscore.Internal.Correction>
   9.000000E+99

> <Gold.Chemscore.Hbonds>
donor molecule, donor type, donor heavy atom, donor atom, acceptor molecule, acceptor atom, score
      P1  H  7997  8008       L1     2  0.30
      P1  H 10752 10765       L1     5  0.89

> <Gold.Chemscore.Hbond.Weighted>
-6.0535

> <Gold.Chemscore.Metal.Weighted>
-0.0000

> <Gold.Chemscore.Lipo.Weighted>
-10.2500

> <Gold.Chemscore.Internal_Hbond.Weighted>
0.0000

> <Gold.Chemscore.DEClash.Weighted>
0.0643

> <Gold.Chemscore.DEInternal.Weighted>
2.7089

> <Gold.Chemscore.Rot.Weighted>
3.5678

> <Gold.Chemscore.Internal.Correction.Weighted>
   9.000000E+99

> <Gold.Protein.RotatedTorsions>
[ 6907 6896 6895 6894 ] final -162.37 input  -60.11 | X-H torsion
[ 7974 7965 7964 7962 ] final  -36.75 input  175.53 | X-H torsion
[ 8008 7997 7996 7995 ] final -124.49 input   59.86 | X-H torsion
[ 10167 10162 10161 10158 ] final   94.63 input  -65.29 | X-H torsion
[ 10718 10713 10712 10709 ] final  143.29 input   66.30 | X-H torsion
[ 10763 10752 10751 10750 ] final -149.31 input  -60.55 | X-H torsion
[ 11005 11000 10999 10996 ] final   -8.10 input  -57.11 | X-H torsion

> <Gold.Protein.ActiveResidues>
 VAL166  LYS551  ARG553  GLY616  TRP617  ASP618  TYR619  PRO620  LYS621  CYS622 
 ASP623  PHE694  ASN695  SER759  ASP760  ASP761  ALA762  ILE779  LEU786  VAL792 
 PHE793  MET794  SER795  GLU796  ALA797  LYS798  CYS799  TRP800  GLU811  SER814 

> <Gold.Protein.RotatedAtoms>
  151.3792  133.3827  159.2707 H   0  0  0  0  0  0  0  0  0  0  0  0  # atno 6907 bound_to 6896
  150.9591  134.8982  159.7730 H   0  0  0  0  0  0  0  0  0  0  0  0  # atno 6908 bound_to 6896
  152.5142  134.3750  159.9383 H   0  0  0  0  0  0  0  0  0  0  0  0  # atno 6909 bound_to 6896
  146.0634  140.6315  142.8986 H   0  0  0  0  0  0  0  0  0  0  0  0  # atno 7974 bound_to 7965
  155.1977  140.0415  157.2912 H   0  0  0  0  0  0  0  0  0  0  0  0  # atno 8008 bound_to 7997
  154.6095  140.2473  155.7658 H   0  0  0  0  0  0  0  0  0  0  0  0  # atno 8009 bound_to 7997
  156.2371  140.2917  156.0351 H   0  0  0  0  0  0  0  0  0  0  0  0  # atno 8010 bound_to 7997
  139.8065  144.6792  150.9696 H   0  0  0  0  0  0  0  0  0  0  0  0  # atno 10167 bound_to 10162
  157.3707  131.0978  151.0831 H   0  0  0  0  0  0  0  0  0  0  0  0  # atno 10718 bound_to 10713
  154.8184  135.3312  154.7109 H   0  0  0  0  0  0  0  0  0  0  0  0  # atno 10763 bound_to 10752
  153.7746  135.6923  153.4904 H   0  0  0  0  0  0  0  0  0  0  0  0  # atno 10764 bound_to 10752
  153.2021  135.4512  155.0227 H   0  0  0  0  0  0  0  0  0  0  0  0  # atno 10765 bound_to 10752
  140.7198  133.8838  155.8812 H   0  0  0  0  0  0  0  0  0  0  0  0  # atno 11005 bound_to 11000
  144.7188  140.4303  143.7024 LP  0  0  0  0  0  0  0  0  0  0  0  0  # atno 17320 bound_to 7965
  145.6519  139.1566  143.2857 LP  0  0  0  0  0  0  0  0  0  0  0  0  # atno 17321 bound_to 7965
  140.7819  143.4228  151.0814 LP  0  0  0  0  0  0  0  0  0  0  0  0  # atno 17342 bound_to 10162
  139.7897  143.8236  152.3150 LP  0  0  0  0  0  0  0  0  0  0  0  0  # atno 17343 bound_to 10162
  157.1936  130.6363  149.5713 LP  0  0  0  0  0  0  0  0  0  0  0  0  # atno 17370 bound_to 10713
  155.9755  130.4714  150.6463 LP  0  0  0  0  0  0  0  0  0  0  0  0  # atno 17371 bound_to 10713
  141.0013  134.1146  157.4314 LP  0  0  0  0  0  0  0  0  0  0  0  0  # atno 17394 bound_to 11000
  139.8851  135.0069  156.6411 LP  0  0  0  0  0  0  0  0  0  0  0  0  # atno 17395 bound_to 11000

$$$$
