AV-unprocessed.smi:371|AV-procd|sdf|2441|dock9
  -GOLD-   2262022383D 1   1.00000     0.00000
 Structure written by MMmdl.
 39 40  0  0  0  0  0  0  0  0  1 V2000
  149.7860  140.5585  154.8806 C   0  0  0  0  0  0  0  0  0  0  0  0
  149.6225  139.0488  155.0093 C   0  0  0  0  0  0  0  0  0  0  0  0
  148.3127  138.4883  154.7719 C   0  0  0  0  0  0  0  0  0  0  0  0
  148.0813  137.1744  154.9226 C   0  0  0  0  0  0  0  0  0  0  0  0
  146.6904  136.5980  154.6826 C   0  0  0  0  0  0  0  0  0  0  0  0
  149.1338  136.2944  155.2981 N   0  0  0  0  0  0  0  0  0  0  0  0
  148.8529  134.8495  155.4760 C   0  0  0  0  0  0  0  0  0  0  0  0
  149.3291  134.0078  154.2676 C   0  0  2  0  0  0  0  0  0  0  0  0
  148.4196  134.1772  153.1980 O   0  0  0  0  0  0  0  0  0  0  0  0
  149.4547  132.5357  154.6400 C   0  0  0  0  0  0  0  0  0  0  0  0
  148.6897  131.5656  153.9535 C   0  0  0  0  0  0  0  0  0  0  0  0
  148.7973  130.2026  154.2905 C   0  0  0  0  0  0  0  0  0  0  0  0
  149.6693  129.7987  155.3186 C   0  0  0  0  0  0  0  0  0  0  0  0
  150.4320  130.7591  156.0096 C   0  0  0  0  0  0  0  0  0  0  0  0
  150.3273  132.1232  155.6738 C   0  0  0  0  0  0  0  0  0  0  0  0
  151.0724  133.0296  156.3509 F   0  0  0  0  0  0  0  0  0  0  0  0
  150.4178  136.7371  155.4925 C   0  0  0  0  0  0  0  0  0  0  0  0
  151.3234  135.9333  155.7368 O   0  0  0  0  0  0  0  0  0  0  0  0
  150.6281  138.2063  155.3700 C   0  0  0  0  0  0  0  0  0  0  0  0
  151.9936  138.7034  155.6326 C   0  0  0  0  0  0  0  0  0  0  0  0
  152.7759  137.8772  156.3407 N   0  0  0  0  0  0  0  0  0  0  0  0
  152.4083  139.8179  155.3181 O   0  0  0  0  0  0  0  0  0  0  0  0
  148.8201  141.0513  154.7669 H   0  0  0  0  0  0  0  0  0  0  0  0
  150.3881  140.8054  154.0059 H   0  0  0  0  0  0  0  0  0  0  0  0
  150.2632  140.9791  155.7663 H   0  0  0  0  0  0  0  0  0  0  0  0
  147.5026  139.1403  154.4782 H   0  0  0  0  0  0  0  0  0  0  0  0
  145.9478  137.3945  154.6250 H   0  0  0  0  0  0  0  0  0  0  0  0
  146.3730  135.9333  155.4837 H   0  0  0  0  0  0  0  0  0  0  0  0
  146.6603  136.0554  153.7375 H   0  0  0  0  0  0  0  0  0  0  0  0
  149.3395  134.4945  156.3832 H   0  0  0  0  0  0  0  0  0  0  0  0
  147.8015  134.6456  155.6872 H   0  0  0  0  0  0  0  0  0  0  0  0
  150.2962  134.3717  153.9208 H   0  0  0  0  0  0  0  0  0  0  0  0
  148.5526  135.0352  152.8248 H   0  0  0  0  0  0  0  0  0  0  0  0
  148.0160  131.8656  153.1642 H   0  0  0  0  0  0  0  0  0  0  0  0
  148.2105  129.4673  153.7599 H   0  0  0  0  0  0  0  0  0  0  0  0
  149.7532  128.7535  155.5773 H   0  0  0  0  0  0  0  0  0  0  0  0
  151.1003  130.4489  156.7993 H   0  0  0  0  0  0  0  0  0  0  0  0
  153.7171  138.1548  156.5791 H   0  0  0  0  0  0  0  0  0  0  0  0
  152.4138  136.9874  156.6513 H   0  0  0  0  0  0  0  0  0  0  0  0
  1  2  1  0  0  0  0
  1 23  1  0  0  0  0
  1 24  1  0  0  0  0
  1 25  1  0  0  0  0
  2 19  2  0  0  0  0
  2  3  1  0  0  0  0
  3  4  2  0  0  0  0
  3 26  1  0  0  0  0
  4  5  1  0  0  0  0
  4  6  1  0  0  0  0
  5 27  1  0  0  0  0
  5 28  1  0  0  0  0
  5 29  1  0  0  0  0
  6  7  1  0  0  0  0
  6 17  1  0  0  0  0
  7  8  1  0  0  0  0
  7 30  1  0  0  0  0
  7 31  1  0  0  0  0
  8  9  1  0  0  0  0
  8 10  1  0  0  0  0
  8 32  1  0  0  0  0
  9 33  1  0  0  0  0
 10 15  1  0  0  0  0
 10 11  2  0  0  0  0
 11 12  1  0  0  0  0
 11 34  1  0  0  0  0
 12 13  2  0  0  0  0
 12 35  1  0  0  0  0
 13 14  1  0  0  0  0
 13 36  1  0  0  0  0
 14 15  2  0  0  0  0
 14 37  1  0  0  0  0
 15 16  1  0  0  0  0
 17 18  2  0  0  0  0
 17 19  1  0  0  0  0
 19 20  1  0  0  0  0
 20 21  1  0  0  0  0
 20 22  2  0  0  0  0
 21 38  1  0  0  0  0
 21 39  1  0  0  0  0
M  END
> <s_m_source_file>
AV-unprocessed.smi

> <i_m_source_file_index>
371

> <i_lp_mmshare_version>
43012

> <i_f3d_flags>
0

> <s_epik_input>
W0NIM11jMVtjSF1jKFtDSDNdKW4oYyg9TyljMUMoPU8pW05IMl0pW0NIMl1bQ0BIXShbT0hdKWMyW2NIXVtjSF1bY0hdW2NIXWMyRg==

> <s_epik_cmdline>
J2VwaWtfcHl0aG9uJywgJy1waCcsICc3LjAnLCAnLXRuJywgJzgnLCAnLW1hJywgJzIwMCcsICctbWV0YWxfYmluZGluZycsICctaW1hZScsICc8aW5maWxlLm1hZT4nLCAnLW9tYWUnLCAnPG91dGZpbGUubWFlPic=

> <r_lp_tautomer_probability>
1

> <r_epik_Ionization_Penalty>
3.46512e-07

> <r_epik_Ionization_Penalty_Charging>
1.35363e-07

> <r_epik_Ionization_Penalty_Neutral>
2.11149e-07

> <r_epik_State_Penalty>
-0

> <r_epik_Charging_Adjusted_Penalty>
1.35363e-07

> <i_epik_Tot_Q>
0

> <i_epik_Tot_abs_Q>
0

> <r_epik_Metal_State_Penalty>
-0

> <b_epik_Metal_Only>
0

> <s_lp_Force_Field>
OPLS_2005

> <r_lp_Energy>
40.8148

> <b_lp_Chiralities_Consistent>
1

> <s_lp_Variant>
AV-unprocessed.smi:371-1

> <Gold.Version>
5.8.1

> <Gold.Id.Protein>
6NUR|6NUR_protein|mol2

> <Gold.PLP.Fitness>
40.1059

> <Gold.PLP.PLP>
-31.5569

> <Gold.PLP.part.hbond>
-3.6041

> <Gold.PLP.part.metal>
0.0000

> <Gold.PLP.part.buried>
-1.9724

> <Gold.PLP.part.nonpolar>
-26.7370

> <Gold.PLP.part.repulsive>
0.2737

> <Gold.PLP.ligand.clash>
0.6503

> <Gold.PLP.ligand.torsion>
0.5153

> <Gold.PLP.Chemscore.Hbond>
3.3068

> <Gold.PLP.Chemscore.CHOScore>
0.0000

> <Gold.PLP.Chemscore.Metal>
0.0000

> <Gold.Chemscore.Hbonds>
donor molecule, donor type, donor heavy atom, donor atom, acceptor molecule, acceptor atom, score
      L1  H     9    33       P1  7948  1.00
      P1  H  7989  7998       L1    22  0.37
      P1  H  7997  8010       L1    22  0.73
      P1  H 10752 10764       L1    18  1.00

> <Gold.PLP.Chemscore.Internal.Correction>
0.3097

> <Gold.Rescore>
     Score         DG    S(hbond)    S(metal)    S(lipo)     H(rot)  DE(clash)    DE(int)     intcor
     14.66     -17.46       3.04        0.00      60.38       2.04       0.19       2.62       ----

> <Gold.Chemscore.Fitness>
14.6582

> <Gold.Chemscore.DG>
-17.4623

> <Gold.Chemscore.ZeroCoef>
-5.4800

> <Gold.Chemscore.Hbond>
3.0357

> <Gold.Chemscore.Metal>
0.0000

> <Gold.Chemscore.Lipo>
60.3795

> <Gold.Chemscore.Internal_Hbond>
0.0000

> <Gold.Chemscore.DEClash>
0.1872

> <Gold.Chemscore.DEInternal>
2.6169

> <Gold.Chemscore.Rot>
2.0396

> <Gold.Chemscore.Internal.Correction>
   9.000000E+99

> <Gold.Chemscore.Hbonds>
donor molecule, donor type, donor heavy atom, donor atom, acceptor molecule, acceptor atom, score
      L1  H     9    33       P1  7948  0.52
      P1  H  7989  7998       L1    22  0.35
      P1  H  7997  8010       L1    22  0.62
      P1  H 10752 10764       L1    18  0.98

> <Gold.Chemscore.Hbond.Weighted>
-10.1393

> <Gold.Chemscore.Metal.Weighted>
-0.0000

> <Gold.Chemscore.Lipo.Weighted>
-7.0644

> <Gold.Chemscore.Internal_Hbond.Weighted>
0.0000

> <Gold.Chemscore.DEClash.Weighted>
0.1872

> <Gold.Chemscore.DEInternal.Weighted>
2.6169

> <Gold.Chemscore.Rot.Weighted>
5.2214

> <Gold.Chemscore.Internal.Correction.Weighted>
   9.000000E+99

> <Gold.Protein.RotatedTorsions>
[ 6907 6896 6895 6894 ] final  -40.20 input  -60.11 | X-H torsion
[ 7974 7965 7964 7962 ] final   70.17 input  175.53 | X-H torsion
[ 8008 7997 7996 7995 ] final   98.79 input   59.86 | X-H torsion
[ 10167 10162 10161 10158 ] final   57.41 input  -65.29 | X-H torsion
[ 10718 10713 10712 10709 ] final  161.20 input   66.30 | X-H torsion
[ 10763 10752 10751 10750 ] final  -54.18 input  -60.55 | X-H torsion
[ 11005 11000 10999 10996 ] final  -25.99 input  -57.11 | X-H torsion

> <Gold.Protein.ActiveResidues>
 VAL166  LYS551  ARG553  GLY616  TRP617  ASP618  TYR619  PRO620  LYS621  CYS622 
 ASP623  PHE694  ASN695  SER759  ASP760  ASP761  ALA762  ILE779  LEU786  VAL792 
 PHE793  MET794  SER795  GLU796  ALA797  LYS798  CYS799  TRP800  GLU811  SER814 

> <Gold.Protein.RotatedAtoms>
  150.9813  134.9167  159.7845 H   0  0  0  0  0  0  0  0  0  0  0  0  # atno 6907 bound_to 6896
  152.5222  134.3407  159.9226 H   0  0  0  0  0  0  0  0  0  0  0  0  # atno 6908 bound_to 6896
  151.3414  133.3920  159.2706 H   0  0  0  0  0  0  0  0  0  0  0  0  # atno 6909 bound_to 6896
  145.7814  139.2889  143.1263 H   0  0  0  0  0  0  0  0  0  0  0  0  # atno 7974 bound_to 7965
  156.1040  140.3238  155.7980 H   0  0  0  0  0  0  0  0  0  0  0  0  # atno 8008 bound_to 7997
  155.4788  140.0552  157.2987 H   0  0  0  0  0  0  0  0  0  0  0  0  # atno 8009 bound_to 7997
  154.4715  140.2013  155.9998 H   0  0  0  0  0  0  0  0  0  0  0  0  # atno 8010 bound_to 7997
  140.1983  144.4014  150.6540 H   0  0  0  0  0  0  0  0  0  0  0  0  # atno 10167 bound_to 10162
  157.1398  131.0538  151.2332 H   0  0  0  0  0  0  0  0  0  0  0  0  # atno 10718 bound_to 10713
  154.1708  135.6459  153.5009 H   0  0  0  0  0  0  0  0  0  0  0  0  # atno 10763 bound_to 10752
  153.0085  135.5383  154.6615 H   0  0  0  0  0  0  0  0  0  0  0  0  # atno 10764 bound_to 10752
  154.5953  135.2938  155.0564 H   0  0  0  0  0  0  0  0  0  0  0  0  # atno 10765 bound_to 10752
  140.8988  133.7538  156.0516 H   0  0  0  0  0  0  0  0  0  0  0  0  # atno 11005 bound_to 11000
  146.0070  140.8470  142.9990 LP  0  0  0  0  0  0  0  0  0  0  0  0  # atno 17320 bound_to 7965
  144.6796  140.2434  143.7341 LP  0  0  0  0  0  0  0  0  0  0  0  0  # atno 17321 bound_to 7965
  140.6408  143.2203  151.6294 LP  0  0  0  0  0  0  0  0  0  0  0  0  # atno 17342 bound_to 10162
  139.5227  144.3154  152.0957 LP  0  0  0  0  0  0  0  0  0  0  0  0  # atno 17343 bound_to 10162
  157.4317  130.7494  149.6995 LP  0  0  0  0  0  0  0  0  0  0  0  0  # atno 17370 bound_to 10713
  155.9791  130.4044  150.3609 LP  0  0  0  0  0  0  0  0  0  0  0  0  # atno 17371 bound_to 10713
  140.8256  134.3239  157.5367 LP  0  0  0  0  0  0  0  0  0  0  0  0  # atno 17394 bound_to 11000
  139.8739  134.9334  156.3579 LP  0  0  0  0  0  0  0  0  0  0  0  0  # atno 17395 bound_to 11000

$$$$
