#       Name:                AV-unprocessed.smi:3116
#       Creating user name   scv26
#       Creation time:       Fri Mar 27 17:26:08 2020


#       File generated by GOLD software.
#

@<TRIPOS>MOLECULE
AV-unprocessed.smi:3116
    37    37     1
SMALL
NO_CHARGES


@<TRIPOS>ATOM
      1 ****        -3.7063   0.7723   0.2848 C.3            1 S1                 0.0000
      2 ****        -2.1915   0.9818   0.4364 C.3            1 S1                 0.0000
      3 ****        -1.4958  -0.3087   0.2823 N.3            1 S1                 0.0000
      4 ****        -0.0346  -0.2426   0.2670 C.3            1 S1                 0.0000
      5 ****         0.4844  -0.8731   1.5752 C.3            1 S1                 0.0000
      6 ****         0.4754  -0.9664  -1.0074 C.3            1 S1                 0.0000
      7 ****         0.0918  -0.2286  -2.3038 C.3            1 S1                 0.0000
      8 ****         1.9181  -1.1715  -0.9721 N.pl3          1 S1                 0.0000
      9 ****         2.9231  -0.2255  -0.9265 C.2            1 S1                 0.0000
     10 ****         4.1133  -0.8940  -0.9092 C.2            1 S1                 0.0000
     11 ****         3.7310  -2.2637  -0.9496 C.2            1 S1                 0.0000
     12 ****         2.4187  -2.4264  -0.9886 N.2            1 S1                 0.0000
     13 ****        -1.8741   1.6913   1.7633 C.2            1 S1                 0.0000
     14 ****        -1.1660   2.8215   1.6978 N.am           1 S1                 0.0000
     15 ****        -2.2475   1.2153   2.8338 O.2            1 S1                 0.0000
     16 ****        -4.2487   1.7139   0.3782 H              1 S1                 0.0000
     17 ****        -4.0962   0.0868   1.0387 H              1 S1                 0.0000
     18 ****        -3.9453   0.3557  -0.6942 H              1 S1                 0.0000
     19 ****        -1.8721   1.6303  -0.3818 H              1 S1                 0.0000
     20 ****        -1.8099  -0.9933   0.9556 H              1 S1                 0.0000
     21 ****         0.3051   0.7932   0.2221 H              1 S1                 0.0000
     22 ****         1.5674  -0.7862   1.6617 H              1 S1                 0.0000
     23 ****         0.2326  -1.9327   1.6307 H              1 S1                 0.0000
     24 ****         0.0602  -0.3870   2.4535 H              1 S1                 0.0000
     25 ****         0.0102  -1.9540  -1.0430 H              1 S1                 0.0000
     26 ****        -0.9897  -0.1542  -2.4168 H              1 S1                 0.0000
     27 ****         0.4727  -0.7555  -3.1793 H              1 S1                 0.0000
     28 ****         0.4967   0.7835  -2.3223 H              1 S1                 0.0000
     29 ****         2.7089   0.8329  -0.9084 H              1 S1                 0.0000
     30 ****         5.1056  -0.4697  -0.8739 H              1 S1                 0.0000
     31 ****         4.3634  -3.1392  -0.9523 H              1 S1                 0.0000
     32 ****        -0.9328   3.3200   2.5441 H              1 S1                 0.0000
     33 ****        -0.8646   3.1724   0.8003 H              1 S1                 0.0000
     34 ****        -1.7571  -0.6025  -0.6372 LP             1 S1                 0.0000
     35 ****         1.9103  -3.2869  -1.0227 LP             1 S1                 0.0000
     36 ****        -2.7630   0.3585   2.8473 LP             1 S1                 0.0000
     37 ****        -2.0357   1.6849   3.6908 LP             1 S1                 0.0000
@<TRIPOS>BOND
    1    1    2 1     
    2    1   16 1     
    3    1   17 1     
    4    1   18 1     
    5    2    3 1     
    6    2   13 1     
    7    2   19 1     
    8    3    4 1     
    9    3   20 1     
   10    4    5 1     
   11    4    6 1     
   12    4   21 1     
   13    5   22 1     
   14    5   23 1     
   15    5   24 1     
   16    6    7 1     
   17    6    8 1     
   18    6   25 1     
   19    7   26 1     
   20    7   27 1     
   21    7   28 1     
   22    8   12 1     
   23    8    9 1     
   24    9   10 2     
   25    9   29 1     
   26   10   11 1     
   27   10   30 1     
   28   11   12 2     
   29   11   31 1     
   30   13   14 am    
   31   13   15 2     
   32   14   32 1     
   33   14   33 1     
   34    3   34 1     
   35   12   35 1     
   36   15   36 1     
   37   15   37 1     
@<TRIPOS>SUBSTRUCTURE
      1 S1             1
@<TRIPOS>SET
LONE_PAIRS      STATIC     ATOMS    <user>   **** ""
4 34 35 36 37
DONOR_HYDROGENS      STATIC     ATOMS    <user>   **** ""
3 20 32 33
ATOM$BLUE        STATIC     ATOMS    COLORGROUP SYSTEM
4 34 35 36 37
ATOM$RED        STATIC     ATOMS    COLORGROUP SYSTEM
3 20 32 33
