AV-unprocessed.smi:2955|AV-procd|sdf|11303|dock6
  -GOLD-   2272016203D 1   1.00000     0.00000
 Structure written by MMmdl.
 46 48  0  0  0  0  0  0  0  0  2 V2000
  147.7104  132.2713  160.7517 C   0  0  0  0  0  0  0  0  0  0  0  0
  147.4530  133.6792  161.2478 C   0  0  0  0  0  0  0  0  0  0  0  0
  146.7401  133.8933  162.4445 C   0  0  0  0  0  0  0  0  0  0  0  0
  146.5073  135.2045  162.8981 C   0  0  0  0  0  0  0  0  0  0  0  0
  146.9860  136.3016  162.1574 C   0  0  0  0  0  0  0  0  0  0  0  0
  147.7000  136.1058  160.9575 C   0  0  0  0  0  0  0  0  0  0  0  0
  148.1303  137.2356  160.2953 O   0  0  0  0  0  0  0  0  0  0  0  0
  148.7884  137.0728  159.0477 C   0  0  0  0  0  0  0  0  0  0  0  0
  147.8961  137.6579  157.9477 C   0  0  0  0  0  0  0  0  0  0  0  0
  148.5909  137.7061  156.6540 N   0  0  0  0  0  0  0  0  0  0  0  0
  148.2965  137.0990  155.4668 C   0  0  0  0  0  0  0  0  0  0  0  0
  147.1272  136.2042  155.1731 C   0  0  2  0  0  0  0  0  0  0  0  0
  147.1150  134.9862  156.1084 C   0  0  0  0  0  0  0  0  0  0  0  0
  147.1272  135.7594  153.7852 N   0  0  0  0  0  0  0  0  0  0  0  0
  146.1889  134.9695  153.2486 C   0  0  0  0  0  0  0  0  0  0  0  0
  145.2293  134.5407  153.8835 O   0  0  0  0  0  0  0  0  0  0  0  0
  149.2529  137.4841  154.5733 N   0  3  0  0  0  0  0  0  0  0  0  0
  150.1779  138.3205  155.1983 C   0  0  0  0  0  0  0  0  0  0  0  0
  151.3184  138.9467  154.7054 C   0  0  0  0  0  0  0  0  0  0  0  0
  152.0507  139.7356  155.6168 C   0  0  0  0  0  0  0  0  0  0  0  0
  151.6419  139.8772  156.9588 C   0  0  0  0  0  0  0  0  0  0  0  0
  150.4826  139.2383  157.4463 C   0  0  0  0  0  0  0  0  0  0  0  0
  149.7623  138.4629  156.5376 C   0  0  0  0  0  0  0  0  0  0  0  0
  147.9311  134.7806  160.5081 C   0  0  0  0  0  0  0  0  0  0  0  0
  147.2087  131.5308  161.3754 H   0  0  0  0  0  0  0  0  0  0  0  0
  148.7795  132.0579  160.7620 H   0  0  0  0  0  0  0  0  0  0  0  0
  147.3466  132.1571  159.7303 H   0  0  0  0  0  0  0  0  0  0  0  0
  146.3704  133.0559  163.0179 H   0  0  0  0  0  0  0  0  0  0  0  0
  145.9611  135.3694  163.8151 H   0  0  0  0  0  0  0  0  0  0  0  0
  146.8018  137.3047  162.5133 H   0  0  0  0  0  0  0  0  0  0  0  0
  149.7512  137.5863  159.0568 H   0  0  0  0  0  0  0  0  0  0  0  0
  148.9663  136.0140  158.8512 H   0  0  0  0  0  0  0  0  0  0  0  0
  146.9988  137.0516  157.8258 H   0  0  0  0  0  0  0  0  0  0  0  0
  147.5510  138.6581  158.2102 H   0  0  0  0  0  0  0  0  0  0  0  0
  146.2056  136.7589  155.3543 H   0  0  0  0  0  0  0  0  0  0  0  0
  147.0780  135.2968  157.1530 H   0  0  0  0  0  0  0  0  0  0  0  0
  148.0023  134.3659  155.9763 H   0  0  0  0  0  0  0  0  0  0  0  0
  146.2425  134.3589  155.9222 H   0  0  0  0  0  0  0  0  0  0  0  0
  147.8871  136.0686  153.1965 H   0  0  0  0  0  0  0  0  0  0  0  0
  146.3867  134.7590  152.1857 H   0  0  0  0  0  0  0  0  0  0  0  0
  151.6343  138.8383  153.6781 H   0  0  0  0  0  0  0  0  0  0  0  0
  152.9443  140.2411  155.2802 H   0  0  0  0  0  0  0  0  0  0  0  0
  152.2291  140.4887  157.6286 H   0  0  0  0  0  0  0  0  0  0  0  0
  150.1807  139.3529  158.4768 H   0  0  0  0  0  0  0  0  0  0  0  0
  148.4747  134.5836  159.5966 H   0  0  0  0  0  0  0  0  0  0  0  0
  149.2700  137.1897  153.6054 H   0  0  0  0  0  0  0  0  0  0  0  0
  1  2  1  0  0  0  0
  1 25  1  0  0  0  0
  1 26  1  0  0  0  0
  1 27  1  0  0  0  0
  2 24  1  0  0  0  0
  2  3  2  0  0  0  0
  3  4  1  0  0  0  0
  3 28  1  0  0  0  0
  4  5  2  0  0  0  0
  4 29  1  0  0  0  0
  5  6  1  0  0  0  0
  5 30  1  0  0  0  0
  6  7  1  0  0  0  0
  6 24  2  0  0  0  0
  7  8  1  0  0  0  0
  8  9  1  0  0  0  0
  8 31  1  0  0  0  0
  8 32  1  0  0  0  0
  9 10  1  0  0  0  0
  9 33  1  0  0  0  0
  9 34  1  0  0  0  0
 10 23  1  0  0  0  0
 10 11  1  0  0  0  0
 11 12  1  0  0  0  0
 11 17  2  0  0  0  0
 12 13  1  0  0  0  0
 12 14  1  0  0  0  0
 12 35  1  0  0  0  0
 13 36  1  0  0  0  0
 13 37  1  0  0  0  0
 13 38  1  0  0  0  0
 14 15  1  0  0  0  0
 14 39  1  0  0  0  0
 15 16  2  0  0  0  0
 15 40  1  0  0  0  0
 17 18  1  0  0  0  0
 17 46  1  0  0  0  0
 18 23  2  0  0  0  0
 18 19  1  0  0  0  0
 19 20  2  0  0  0  0
 19 41  1  0  0  0  0
 20 21  1  0  0  0  0
 20 42  1  0  0  0  0
 21 22  2  0  0  0  0
 21 43  1  0  0  0  0
 22 23  1  0  0  0  0
 22 44  1  0  0  0  0
 24 45  1  0  0  0  0
M  CHG  1  17   1
M  END
> <s_m_source_file>
AV-unprocessed.smi

> <i_m_source_file_index>
2955

> <i_lp_mmshare_version>
43012

> <i_f3d_flags>
0

> <s_epik_input>
W0NIM11jMVtjSF1bY0hdW2NIXWMoW2NIXTEpT1tDSDJdW0NIMl1uKGMobjIpW0NASF0oW0NIM10pW05IXVtDSF09TyljKGMyMylbY0hdW2NIXVtjSF1bY0hdMw==

> <s_epik_cmdline>
J2VwaWtfcHl0aG9uJywgJy1waCcsICc3LjAnLCAnLXRuJywgJzgnLCAnLW1hJywgJzIwMCcsICctbWV0YWxfYmluZGluZycsICctaW1hZScsICc8aW5maWxlLm1hZT4nLCAnLW9tYWUnLCAnPG91dGZpbGUubWFlPic=

> <r_lp_tautomer_probability>
1

> <r_epik_Ionization_Penalty>
1.15027

> <r_epik_Ionization_Penalty_Charging>
1.15027

> <r_epik_Ionization_Penalty_Neutral>
5.5802e-08

> <r_epik_State_Penalty>
1.21159

> <r_epik_Charging_Adjusted_Penalty>
2.36186

> <i_epik_Tot_Q>
1

> <i_epik_Tot_abs_Q>
1

> <r_epik_Metal_State_Penalty>
1.29223

> <b_epik_Metal_Only>
0

> <s_lp_Force_Field>
OPLS_2005

> <r_lp_Energy>
18.7975

> <b_lp_Chiralities_Consistent>
1

> <s_lp_Variant>
AV-unprocessed.smi:2955-3

> <Gold.Version>
5.8.1

> <Gold.Id.Protein>
6NUR|6NUR_protein|mol2

> <Gold.PLP.Fitness>
48.4211

> <Gold.PLP.PLP>
-36.6278

> <Gold.PLP.part.hbond>
-4.0000

> <Gold.PLP.part.metal>
0.0000

> <Gold.PLP.part.buried>
-3.9598

> <Gold.PLP.part.nonpolar>
-29.9577

> <Gold.PLP.part.repulsive>
0.0794

> <Gold.PLP.ligand.clash>
0.0000

> <Gold.PLP.ligand.torsion>
0.4048

> <Gold.PLP.Chemscore.Hbond>
4.1560

> <Gold.PLP.Chemscore.CHOScore>
0.0000

> <Gold.PLP.Chemscore.Metal>
0.0000

> <Gold.Chemscore.Hbonds>
donor molecule, donor type, donor heavy atom, donor atom, acceptor molecule, acceptor atom, score
      L1  H    14    39       P1  7948  1.00
      L1  H    17    46       P1  7948  2.00
      P1  H  6931  6943       L1     7  0.56
      P1  H  6934  6947       L1     7  0.55

> <Gold.PLP.Chemscore.Internal.Correction>
0.1349

> <Gold.Rescore>
     Score         DG    S(hbond)    S(metal)    S(lipo)     H(rot)  DE(clash)    DE(int)     intcor
     18.77     -19.20       2.83        0.00      87.32       2.32       0.01       0.42       ----

> <Gold.Chemscore.Fitness>
18.7677

> <Gold.Chemscore.DG>
-19.1988

> <Gold.Chemscore.ZeroCoef>
-5.4800

> <Gold.Chemscore.Hbond>
2.8285

> <Gold.Chemscore.Metal>
0.0000

> <Gold.Chemscore.Lipo>
87.3213

> <Gold.Chemscore.Internal_Hbond>
0.0000

> <Gold.Chemscore.DEClash>
0.0126

> <Gold.Chemscore.DEInternal>
0.4185

> <Gold.Chemscore.Rot>
2.3223

> <Gold.Chemscore.Internal.Correction>
   9.000000E+99

> <Gold.Chemscore.Hbonds>
donor molecule, donor type, donor heavy atom, donor atom, acceptor molecule, acceptor atom, score
      L1  H    14    39       P1  7948  1.00
      L1  H    17    46       P1  7948  0.95
      P1  H  6931  6943       L1     7  0.14
      P1  H  6934  6947       L1     7  0.48

> <Gold.Chemscore.Hbond.Weighted>
-9.4473

> <Gold.Chemscore.Metal.Weighted>
-0.0000

> <Gold.Chemscore.Lipo.Weighted>
-10.2166

> <Gold.Chemscore.Internal_Hbond.Weighted>
0.0000

> <Gold.Chemscore.DEClash.Weighted>
0.0126

> <Gold.Chemscore.DEInternal.Weighted>
0.4185

> <Gold.Chemscore.Rot.Weighted>
5.9450

> <Gold.Chemscore.Internal.Correction.Weighted>
   9.000000E+99

> <Gold.Protein.RotatedTorsions>
[ 6907 6896 6895 6894 ] final  106.64 input  -60.11 | X-H torsion
[ 7974 7965 7964 7962 ] final  131.19 input  175.53 | X-H torsion
[ 8008 7997 7996 7995 ] final -102.53 input   59.86 | X-H torsion
[ 10167 10162 10161 10158 ] final  -27.03 input  -65.29 | X-H torsion
[ 10718 10713 10712 10709 ] final  -34.07 input   66.30 | X-H torsion
[ 10763 10752 10751 10750 ] final   40.68 input  -60.55 | X-H torsion
[ 11005 11000 10999 10996 ] final -110.94 input  -57.11 | X-H torsion

> <Gold.Protein.ActiveResidues>
 VAL166  LYS551  ARG553  GLY616  TRP617  ASP618  TYR619  PRO620  LYS621  CYS622 
 ASP623  PHE694  ASN695  SER759  ASP760  ASP761  ALA762  ILE779  LEU786  VAL792 
 PHE793  MET794  SER795  GLU796  ALA797  LYS798  CYS799  TRP800  GLU811  SER814 

> <Gold.Protein.RotatedAtoms>
  152.5186  133.9351  159.7599 H   0  0  0  0  0  0  0  0  0  0  0  0  # atno 6907 bound_to 6896
  150.9693  133.6353  159.2747 H   0  0  0  0  0  0  0  0  0  0  0  0  # atno 6908 bound_to 6896
  151.3570  135.0902  159.9475 H   0  0  0  0  0  0  0  0  0  0  0  0  # atno 6909 bound_to 6896
  145.0099  139.4230  143.5250 H   0  0  0  0  0  0  0  0  0  0  0  0  # atno 7974 bound_to 7965
  154.8580  140.0428  157.1647 H   0  0  0  0  0  0  0  0  0  0  0  0  # atno 8008 bound_to 7997
  154.8871  140.2981  155.5371 H   0  0  0  0  0  0  0  0  0  0  0  0  # atno 8009 bound_to 7997
  156.2998  140.2400  156.3882 H   0  0  0  0  0  0  0  0  0  0  0  0  # atno 8010 bound_to 7997
  140.7280  143.4128  151.1077 H   0  0  0  0  0  0  0  0  0  0  0  0  # atno 10167 bound_to 10162
  156.3550  130.4314  149.7672 H   0  0  0  0  0  0  0  0  0  0  0  0  # atno 10718 bound_to 10713
  152.9929  135.6184  154.2665 H   0  0  0  0  0  0  0  0  0  0  0  0  # atno 10763 bound_to 10752
  154.2399  135.2789  155.2859 H   0  0  0  0  0  0  0  0  0  0  0  0  # atno 10764 bound_to 10752
  154.5378  135.5769  153.6871 H   0  0  0  0  0  0  0  0  0  0  0  0  # atno 10765 bound_to 10752
  141.0763  133.9296  157.2383 H   0  0  0  0  0  0  0  0  0  0  0  0  # atno 11005 bound_to 11000
  146.3468  139.9537  142.8726 LP  0  0  0  0  0  0  0  0  0  0  0  0  # atno 17320 bound_to 7965
  145.2037  140.9865  143.4141 LP  0  0  0  0  0  0  0  0  0  0  0  0  # atno 17321 bound_to 7965
  139.7764  143.8420  152.3130 LP  0  0  0  0  0  0  0  0  0  0  0  0  # atno 17342 bound_to 10162
  139.8356  144.7234  150.9396 LP  0  0  0  0  0  0  0  0  0  0  0  0  # atno 17343 bound_to 10162
  156.4857  130.8062  151.3074 LP  0  0  0  0  0  0  0  0  0  0  0  0  # atno 17370 bound_to 10713
  157.7466  130.9991  150.2878 LP  0  0  0  0  0  0  0  0  0  0  0  0  # atno 17371 bound_to 10713
  139.9575  135.0162  156.9169 LP  0  0  0  0  0  0  0  0  0  0  0  0  # atno 17394 bound_to 11000
  140.5566  134.0575  155.7385 LP  0  0  0  0  0  0  0  0  0  0  0  0  # atno 17395 bound_to 11000

$$$$
