AV-unprocessed.smi:1874|AV-procd|sdf|7611|dock3
  -GOLD-   22720 9333D 1   1.00000     0.00000
 Structure written by MMmdl.
 45 46  0  0  0  0  0  0  0  0  1 V2000
  152.4427  143.5223  160.8413 C   0  0  0  0  0  0  0  0  0  0  0  0
  153.0263  142.1084  160.8902 C   0  0  0  0  0  0  0  0  0  0  0  0
  153.4877  141.7103  161.9598 O   0  0  0  0  0  0  0  0  0  0  0  0
  153.0198  141.3496  159.7678 N   0  0  0  0  0  0  0  0  0  0  0  0
  153.4696  139.9546  159.6820 C   0  0  0  0  0  0  0  0  0  0  0  0
  152.2395  139.0474  159.5020 C   0  0  0  0  0  0  0  0  0  0  0  0
  151.4053  139.4678  158.2695 C   0  0  0  0  0  0  0  0  0  0  0  0
  150.1441  138.7344  158.2303 N   0  0  0  0  0  0  0  0  0  0  0  0
  150.0227  137.3988  158.2559 C   0  0  0  0  0  0  0  0  0  0  0  0
  150.9886  136.6350  158.2998 O   0  0  0  0  0  0  0  0  0  0  0  0
  148.5863  136.8557  158.2124 C   0  0  0  0  0  0  0  0  0  0  0  0
  148.1997  136.1253  159.4287 N   0  0  0  0  0  0  0  0  0  0  0  0
  147.6307  136.9200  160.4051 N   0  0  0  0  0  0  0  0  0  0  0  0
  147.2092  136.4191  161.5194 C   0  0  0  0  0  0  0  0  0  0  0  0
  146.6024  137.3805  162.5057 C   0  0  0  0  0  0  0  0  0  0  0  0
  147.3356  134.9855  161.7616 C   0  0  0  0  0  0  0  0  0  0  0  0
  146.8163  134.4511  163.0894 C   0  0  0  0  0  0  0  0  0  0  0  0
  147.9089  134.2176  160.8015 C   0  0  0  0  0  0  0  0  0  0  0  0
  148.0795  132.8086  160.9520 C   0  0  0  0  0  0  0  0  0  0  0  0
  148.1991  131.6626  161.0637 N   0  0  0  0  0  0  0  0  0  0  0  0
  148.3915  134.7788  159.5375 C   0  0  0  0  0  0  0  0  0  0  0  0
  148.9173  134.1107  158.6457 O   0  0  0  0  0  0  0  0  0  0  0  0
  151.1215  140.9854  158.2710 C   0  0  0  0  0  0  0  0  0  0  0  0
  152.4072  141.7966  158.5118 C   0  0  0  0  0  0  0  0  0  0  0  0
  152.9676  144.1330  160.1060 H   0  0  0  0  0  0  0  0  0  0  0  0
  152.5413  144.0117  161.8109 H   0  0  0  0  0  0  0  0  0  0  0  0
  151.3824  143.4941  160.5895 H   0  0  0  0  0  0  0  0  0  0  0  0
  154.1387  139.8460  158.8272 H   0  0  0  0  0  0  0  0  0  0  0  0
  154.0479  139.6277  160.5447 H   0  0  0  0  0  0  0  0  0  0  0  0
  152.5580  138.0088  159.4053 H   0  0  0  0  0  0  0  0  0  0  0  0
  151.6237  139.0985  160.4013 H   0  0  0  0  0  0  0  0  0  0  0  0
  151.9813  139.2416  157.3700 H   0  0  0  0  0  0  0  0  0  0  0  0
  149.2992  139.2856  158.1879 H   0  0  0  0  0  0  0  0  0  0  0  0
  147.8929  137.6804  158.0364 H   0  0  0  0  0  0  0  0  0  0  0  0
  148.4962  136.2072  157.3389 H   0  0  0  0  0  0  0  0  0  0  0  0
  147.0954  137.3067  163.4754 H   0  0  0  0  0  0  0  0  0  0  0  0
  145.5423  137.1692  162.6473 H   0  0  0  0  0  0  0  0  0  0  0  0
  146.6904  138.4154  162.1708 H   0  0  0  0  0  0  0  0  0  0  0  0
  146.8581  133.3636  163.1408 H   0  0  0  0  0  0  0  0  0  0  0  0
  145.7768  134.7424  163.2432 H   0  0  0  0  0  0  0  0  0  0  0  0
  147.4098  134.8441  163.9152 H   0  0  0  0  0  0  0  0  0  0  0  0
  150.6660  141.2823  157.3256 H   0  0  0  0  0  0  0  0  0  0  0  0
  150.3982  141.2264  159.0518 H   0  0  0  0  0  0  0  0  0  0  0  0
  152.1793  142.8633  158.5091 H   0  0  0  0  0  0  0  0  0  0  0  0
  153.1087  141.6417  157.6908 H   0  0  0  0  0  0  0  0  0  0  0  0
  1  2  1  0  0  0  0
  1 25  1  0  0  0  0
  1 26  1  0  0  0  0
  1 27  1  0  0  0  0
  2  3  2  0  0  0  0
  2  4  1  0  0  0  0
  4 24  1  0  0  0  0
  4  5  1  0  0  0  0
  5  6  1  0  0  0  0
  5 28  1  0  0  0  0
  5 29  1  0  0  0  0
  6  7  1  0  0  0  0
  6 30  1  0  0  0  0
  6 31  1  0  0  0  0
  7  8  1  0  0  0  0
  7 23  1  0  0  0  0
  7 32  1  0  0  0  0
  8  9  1  0  0  0  0
  8 33  1  0  0  0  0
  9 10  2  0  0  0  0
  9 11  1  0  0  0  0
 11 12  1  0  0  0  0
 11 34  1  0  0  0  0
 11 35  1  0  0  0  0
 12 21  1  0  0  0  0
 12 13  1  0  0  0  0
 13 14  2  0  0  0  0
 14 15  1  0  0  0  0
 14 16  1  0  0  0  0
 15 36  1  0  0  0  0
 15 37  1  0  0  0  0
 15 38  1  0  0  0  0
 16 17  1  0  0  0  0
 16 18  2  0  0  0  0
 17 39  1  0  0  0  0
 17 40  1  0  0  0  0
 17 41  1  0  0  0  0
 18 19  1  0  0  0  0
 18 21  1  0  0  0  0
 19 20  3  0  0  0  0
 21 22  2  0  0  0  0
 23 24  1  0  0  0  0
 23 42  1  0  0  0  0
 23 43  1  0  0  0  0
 24 44  1  0  0  0  0
 24 45  1  0  0  0  0
M  END
> <s_m_source_file>
AV-unprocessed.smi

> <i_m_source_file_index>
1874

> <i_lp_mmshare_version>
43012

> <i_f3d_flags>
0

> <s_epik_input>
W0NIM11DKD1PKU4xW0NIMl1bQ0gyXVtDSF0oW0NIMl1bQ0gyXTEpW05IXUMoPU8pW0NIMl1uMm5jKFtDSDNdKWMoW0NIM10pYyhDI04pYzI9Tw==

> <s_epik_cmdline>
J2VwaWtfcHl0aG9uJywgJy1waCcsICc3LjAnLCAnLXRuJywgJzgnLCAnLW1hJywgJzIwMCcsICctbWV0YWxfYmluZGluZycsICctaW1hZScsICc8aW5maWxlLm1hZT4nLCAnLW9tYWUnLCAnPG91dGZpbGUubWFlPic=

> <r_lp_tautomer_probability>
1

> <r_epik_Ionization_Penalty>
1.12408e-06

> <r_epik_Ionization_Penalty_Charging>
2.25008e-11

> <r_epik_Ionization_Penalty_Neutral>
1.12405e-06

> <r_epik_State_Penalty>
-0

> <r_epik_Charging_Adjusted_Penalty>
2.25008e-11

> <i_epik_Tot_Q>
0

> <i_epik_Tot_abs_Q>
0

> <r_epik_Metal_State_Penalty>
-0

> <b_epik_Metal_Only>
0

> <s_lp_Force_Field>
OPLS_2005

> <r_lp_Energy>
36.4073

> <b_lp_Chiralities_Consistent>
1

> <s_lp_Variant>
AV-unprocessed.smi:1874-1

> <Gold.Version>
5.8.1

> <Gold.Id.Protein>
6NUR|6NUR_protein|mol2

> <Gold.PLP.Fitness>
46.9916

> <Gold.PLP.PLP>
-41.5306

> <Gold.PLP.part.hbond>
-3.7478

> <Gold.PLP.part.metal>
0.0000

> <Gold.PLP.part.buried>
-2.7520

> <Gold.PLP.part.nonpolar>
-34.7953

> <Gold.PLP.part.repulsive>
0.1711

> <Gold.PLP.ligand.clash>
0.0000

> <Gold.PLP.ligand.torsion>
0.4157

> <Gold.PLP.Chemscore.Hbond>
2.0913

> <Gold.PLP.Chemscore.CHOScore>
0.0000

> <Gold.PLP.Chemscore.Metal>
0.0000

> <Gold.Chemscore.Hbonds>
donor molecule, donor type, donor heavy atom, donor atom, acceptor molecule, acceptor atom, score
      P1  H  6896  6908       L1    22  1.00
      P1  H  6896  6909       L1    10  0.07
      P1  H  6934  6947       L1    13  0.44

> <Gold.PLP.Chemscore.Internal.Correction>
0.0186

> <Gold.Rescore>
     Score         DG    S(hbond)    S(metal)    S(lipo)     H(rot)  DE(clash)    DE(int)     intcor
     14.75     -16.80       1.50        0.00      88.45       1.58       0.77       1.28       ----

> <Gold.Chemscore.Fitness>
14.7493

> <Gold.Chemscore.DG>
-16.7987

> <Gold.Chemscore.ZeroCoef>
-5.4800

> <Gold.Chemscore.Hbond>
1.5021

> <Gold.Chemscore.Metal>
0.0000

> <Gold.Chemscore.Lipo>
88.4501

> <Gold.Chemscore.Internal_Hbond>
0.0000

> <Gold.Chemscore.DEClash>
0.7728

> <Gold.Chemscore.DEInternal>
1.2765

> <Gold.Chemscore.Rot>
1.5808

> <Gold.Chemscore.Internal.Correction>
   9.000000E+99

> <Gold.Chemscore.Hbonds>
donor molecule, donor type, donor heavy atom, donor atom, acceptor molecule, acceptor atom, score
      P1  H  6896  6908       L1    22  0.30
      P1  H  6896  6909       L1    10  0.08
      P1  H  6934  6947       L1    13  0.06

> <Gold.Chemscore.Hbond.Weighted>
-5.0169

> <Gold.Chemscore.Metal.Weighted>
-0.0000

> <Gold.Chemscore.Lipo.Weighted>
-10.3487

> <Gold.Chemscore.Internal_Hbond.Weighted>
0.0000

> <Gold.Chemscore.DEClash.Weighted>
0.7728

> <Gold.Chemscore.DEInternal.Weighted>
1.2765

> <Gold.Chemscore.Rot.Weighted>
4.0469

> <Gold.Chemscore.Internal.Correction.Weighted>
   9.000000E+99

> <Gold.Protein.RotatedTorsions>
[ 6907 6896 6895 6894 ] final  129.18 input  -60.11 | X-H torsion
[ 7974 7965 7964 7962 ] final -179.24 input  175.53 | X-H torsion
[ 8008 7997 7996 7995 ] final  -45.79 input   59.86 | X-H torsion
[ 10167 10162 10161 10158 ] final  -81.91 input  -65.29 | X-H torsion
[ 10718 10713 10712 10709 ] final   18.74 input   66.30 | X-H torsion
[ 10763 10752 10751 10750 ] final  102.62 input  -60.55 | X-H torsion
[ 11005 11000 10999 10996 ] final   63.21 input  -57.11 | X-H torsion

> <Gold.Protein.ActiveResidues>
 VAL166  LYS551  ARG553  GLY616  TRP617  ASP618  TYR619  PRO620  LYS621  CYS622 
 ASP623  PHE694  ASN695  SER759  ASP760  ASP761  ALA762  ILE779  LEU786  VAL792 
 PHE793  MET794  SER795  GLU796  ALA797  LYS798  CYS799  TRP800  GLU811  SER814 

> <Gold.Protein.RotatedAtoms>
  152.3648  133.6343  159.6042 H   0  0  0  0  0  0  0  0  0  0  0  0  # atno 6907 bound_to 6896
  150.7626  133.9365  159.3452 H   0  0  0  0  0  0  0  0  0  0  0  0  # atno 6908 bound_to 6896
  151.7197  135.0897  160.0333 H   0  0  0  0  0  0  0  0  0  0  0  0  # atno 6909 bound_to 6896
  144.7135  140.0747  143.6428 H   0  0  0  0  0  0  0  0  0  0  0  0  # atno 7974 bound_to 7965
  154.4003  140.1388  156.3904 H   0  0  0  0  0  0  0  0  0  0  0  0  # atno 8008 bound_to 7997
  155.7919  140.3478  155.5334 H   0  0  0  0  0  0  0  0  0  0  0  0  # atno 8009 bound_to 7997
  155.8570  140.0950  157.1628 H   0  0  0  0  0  0  0  0  0  0  0  0  # atno 8010 bound_to 7997
  140.4368  143.2528  151.8682 H   0  0  0  0  0  0  0  0  0  0  0  0  # atno 10167 bound_to 10162
  157.1006  130.6466  149.5871 H   0  0  0  0  0  0  0  0  0  0  0  0  # atno 10718 bound_to 10713
  153.3419  135.4004  155.1578 H   0  0  0  0  0  0  0  0  0  0  0  0  # atno 10763 bound_to 10752
  154.8645  135.3635  154.5334 H   0  0  0  0  0  0  0  0  0  0  0  0  # atno 10764 bound_to 10752
  153.5780  135.7077  153.5535 H   0  0  0  0  0  0  0  0  0  0  0  0  # atno 10765 bound_to 10752
  140.0040  134.6399  155.9885 H   0  0  0  0  0  0  0  0  0  0  0  0  # atno 11005 bound_to 11000
  145.9753  139.2900  143.1074 LP  0  0  0  0  0  0  0  0  0  0  0  0  # atno 17320 bound_to 7965
  145.9071  140.9204  143.0473 LP  0  0  0  0  0  0  0  0  0  0  0  0  # atno 17321 bound_to 7965
  139.4787  144.5273  151.8716 LP  0  0  0  0  0  0  0  0  0  0  0  0  # atno 17342 bound_to 10162
  140.4364  144.2046  150.5889 LP  0  0  0  0  0  0  0  0  0  0  0  0  # atno 17343 bound_to 10162
  155.9875  130.4914  150.7126 LP  0  0  0  0  0  0  0  0  0  0  0  0  # atno 17370 bound_to 10713
  157.4644  131.0886  151.0710 LP  0  0  0  0  0  0  0  0  0  0  0  0  # atno 17371 bound_to 10713
  141.1663  133.6537  156.4491 LP  0  0  0  0  0  0  0  0  0  0  0  0  # atno 17394 bound_to 11000
  140.4676  134.6783  157.5114 LP  0  0  0  0  0  0  0  0  0  0  0  0  # atno 17395 bound_to 11000

$$$$
