AV-unprocessed.smi:649|AV-procd|sdf|3180|dock5
  -GOLD-   22720 0103D 1   1.00000     0.00000
 Structure written by MMmdl.
 34 35  0  0  0  0  0  0  0  0  2 V2000
  154.3373  142.3688  163.4086 C   0  0  0  0  0  0  0  0  0  0  0  0
  153.4872  142.7602  162.2179 C   0  0  0  0  0  0  0  0  0  0  0  0
  152.9554  144.0584  162.1184 C   0  0  0  0  0  0  0  0  0  0  0  0
  152.1529  144.4050  161.0169 C   0  0  0  0  0  0  0  0  0  0  0  0
  151.8675  143.4637  160.0039 C   0  0  0  0  0  0  0  0  0  0  0  0
  150.9763  143.9061  158.8548 C   0  0  0  0  0  0  0  0  0  0  0  0
  152.4075  142.1498  160.0960 C   0  0  0  0  0  0  0  0  0  0  0  0
  152.1384  141.0473  159.0660 C   0  0  2  0  0  0  0  0  0  0  0  0
  150.7662  140.7753  158.8685 O   0  0  0  0  0  0  0  0  0  0  0  0
  152.8984  139.7251  159.3298 C   0  0  0  0  0  0  0  0  0  0  0  0
  152.4098  138.6161  158.4945 N   0  0  0  0  0  0  0  0  0  0  0  0
  152.2852  138.8649  157.1175 C   0  0  0  0  0  0  0  0  0  0  0  0
  151.8809  137.9161  156.2514 C   0  0  0  0  0  0  0  0  0  0  0  0
  151.7468  138.2509  154.5619 Cl  0  0  0  0  0  0  0  0  0  0  0  0
  151.5629  136.5930  156.7839 C   0  0  0  0  0  0  0  0  0  0  0  0
  151.1930  135.7022  156.0202 O   0  0  0  0  0  0  0  0  0  0  0  0
  151.6933  136.4032  158.1294 N   0  5  0  0  0  0  0  0  0  0  0  0
  152.1094  137.3793  158.9941 C   0  0  0  0  0  0  0  0  0  0  0  0
  152.2268  137.1766  160.2026 O   0  0  0  0  0  0  0  0  0  0  0  0
  153.2140  141.8179  161.2088 C   0  0  0  0  0  0  0  0  0  0  0  0
  154.7323  143.2487  163.9174 H   0  0  0  0  0  0  0  0  0  0  0  0
  155.1801  141.7533  163.0930 H   0  0  0  0  0  0  0  0  0  0  0  0
  153.7419  141.7979  164.1215 H   0  0  0  0  0  0  0  0  0  0  0  0
  153.1542  144.7904  162.8873 H   0  0  0  0  0  0  0  0  0  0  0  0
  151.7472  145.4042  160.9584 H   0  0  0  0  0  0  0  0  0  0  0  0
  151.5561  144.0116  157.9381 H   0  0  0  0  0  0  0  0  0  0  0  0
  150.5142  144.8709  159.0643 H   0  0  0  0  0  0  0  0  0  0  0  0
  150.1699  143.1966  158.6817 H   0  0  0  0  0  0  0  0  0  0  0  0
  152.4811  141.4244  158.1014 H   0  0  0  0  0  0  0  0  0  0  0  0
  150.3021  141.0006  159.6601 H   0  0  0  0  0  0  0  0  0  0  0  0
  153.9702  139.8676  159.1976 H   0  0  0  0  0  0  0  0  0  0  0  0
  152.7918  139.4500  160.3802 H   0  0  0  0  0  0  0  0  0  0  0  0
  152.5458  139.8679  156.8123 H   0  0  0  0  0  0  0  0  0  0  0  0
  153.6172  140.8199  161.3010 H   0  0  0  0  0  0  0  0  0  0  0  0
  1  2  1  0  0  0  0
  1 21  1  0  0  0  0
  1 22  1  0  0  0  0
  1 23  1  0  0  0  0
  2 20  1  0  0  0  0
  2  3  2  0  0  0  0
  3  4  1  0  0  0  0
  3 24  1  0  0  0  0
  4  5  2  0  0  0  0
  4 25  1  0  0  0  0
  5  6  1  0  0  0  0
  5  7  1  0  0  0  0
  6 26  1  0  0  0  0
  6 27  1  0  0  0  0
  6 28  1  0  0  0  0
  7  8  1  0  0  0  0
  7 20  2  0  0  0  0
  8  9  1  0  0  0  0
  8 10  1  0  0  0  0
  8 29  1  0  0  0  0
  9 30  1  0  0  0  0
 10 11  1  0  0  0  0
 10 31  1  0  0  0  0
 10 32  1  0  0  0  0
 11 18  1  0  0  0  0
 11 12  1  0  0  0  0
 12 13  2  0  0  0  0
 12 33  1  0  0  0  0
 13 14  1  0  0  0  0
 13 15  1  0  0  0  0
 15 16  2  0  0  0  0
 15 17  1  0  0  0  0
 17 18  1  0  0  0  0
 18 19  2  0  0  0  0
 20 34  1  0  0  0  0
M  CHG  1  17  -1
M  END
> <s_m_source_file>
AV-unprocessed.smi

> <i_m_source_file_index>
649

> <i_lp_mmshare_version>
43012

> <i_f3d_flags>
0

> <s_epik_input>
W0NIM11jMVtjSF1bY0hdYyhbQ0gzXSljKFtjSF0xKVtDQEhdKFtPSF0pW0NIMl1uMltjSF1jKENsKWMoPU8pW25IXWMyPU8=

> <s_epik_cmdline>
J2VwaWtfcHl0aG9uJywgJy1waCcsICc3LjAnLCAnLXRuJywgJzgnLCAnLW1hJywgJzIwMCcsICctbWV0YWxfYmluZGluZycsICctaW1hZScsICc8aW5maWxlLm1hZT4nLCAnLW9tYWUnLCAnPG91dGZpbGUubWFlPic=

> <r_epik_Ionization_Penalty>
1.7979

> <r_epik_Ionization_Penalty_Charging>
3.23819e-08

> <r_epik_Ionization_Penalty_Neutral>
1.7979

> <r_epik_State_Penalty>
1.91135

> <r_epik_Charging_Adjusted_Penalty>
1.91135

> <i_epik_Tot_Q>
-1

> <i_epik_Tot_abs_Q>
1

> <r_epik_Metal_State_Penalty>
0.014155

> <b_epik_Metal_Only>
0

> <s_lp_Force_Field>
OPLS_2005

> <r_lp_Energy>
21.5696

> <b_lp_Chiralities_Consistent>
1

> <s_lp_Variant>
AV-unprocessed.smi:649-3

> <Gold.Version>
5.8.1

> <Gold.Id.Protein>
6NUR|6NUR_protein|mol2

> <Gold.PLP.Fitness>
47.1905

> <Gold.PLP.PLP>
-42.0454

> <Gold.PLP.part.hbond>
-2.5916

> <Gold.PLP.part.metal>
0.0000

> <Gold.PLP.part.buried>
-5.4006

> <Gold.PLP.part.nonpolar>
-32.6495

> <Gold.PLP.part.repulsive>
0.0540

> <Gold.PLP.ligand.clash>
0.0000

> <Gold.PLP.ligand.torsion>
0.2826

> <Gold.PLP.Chemscore.Hbond>
1.8775

> <Gold.PLP.Chemscore.CHOScore>
0.0000

> <Gold.PLP.Chemscore.Metal>
0.0000

> <Gold.Chemscore.Hbonds>
donor molecule, donor type, donor heavy atom, donor atom, acceptor molecule, acceptor atom, score
      P1  H  6896  6909       L1    19  0.60
      P1  H 10752 10764       L1    16  0.57

> <Gold.PLP.Chemscore.Internal.Correction>
0.0777

> <Gold.Rescore>
     Score         DG    S(hbond)    S(metal)    S(lipo)     H(rot)  DE(clash)    DE(int)     intcor
     17.12     -18.36       1.13        0.00     123.40       2.09       1.04       0.21       ----

> <Gold.Chemscore.Fitness>
17.1190

> <Gold.Chemscore.DG>
-18.3624

> <Gold.Chemscore.ZeroCoef>
-5.4800

> <Gold.Chemscore.Hbond>
1.1337

> <Gold.Chemscore.Metal>
0.0000

> <Gold.Chemscore.Lipo>
123.4028

> <Gold.Chemscore.Internal_Hbond>
0.0000

> <Gold.Chemscore.DEClash>
1.0378

> <Gold.Chemscore.DEInternal>
0.2056

> <Gold.Chemscore.Rot>
2.0868

> <Gold.Chemscore.Internal.Correction>
   9.000000E+99

> <Gold.Chemscore.Hbonds>
donor molecule, donor type, donor heavy atom, donor atom, acceptor molecule, acceptor atom, score
      P1  H  6896  6909       L1    19  0.06
      P1  H 10752 10764       L1    16  0.10

> <Gold.Chemscore.Hbond.Weighted>
-3.7866

> <Gold.Chemscore.Metal.Weighted>
-0.0000

> <Gold.Chemscore.Lipo.Weighted>
-14.4381

> <Gold.Chemscore.Internal_Hbond.Weighted>
0.0000

> <Gold.Chemscore.DEClash.Weighted>
1.0378

> <Gold.Chemscore.DEInternal.Weighted>
0.2056

> <Gold.Chemscore.Rot.Weighted>
5.3423

> <Gold.Chemscore.Internal.Correction.Weighted>
   9.000000E+99

> <Gold.Protein.RotatedTorsions>
[ 6907 6896 6895 6894 ] final  129.99 input  -60.11 | X-H torsion
[ 7974 7965 7964 7962 ] final    2.40 input  175.53 | X-H torsion
[ 8008 7997 7996 7995 ] final  -37.44 input   59.86 | X-H torsion
[ 10167 10162 10161 10158 ] final -176.80 input  -65.29 | X-H torsion
[ 10718 10713 10712 10709 ] final -104.45 input   66.30 | X-H torsion
[ 10763 10752 10751 10750 ] final  -38.68 input  -60.55 | X-H torsion
[ 11005 11000 10999 10996 ] final   97.49 input  -57.11 | X-H torsion

> <Gold.Protein.ActiveResidues>
 VAL166  LYS551  ARG553  GLY616  TRP617  ASP618  TYR619  PRO620  LYS621  CYS622 
 ASP623  PHE694  ASN695  SER759  ASP760  ASP761  ALA762  ILE779  LEU786  VAL792 
 PHE793  MET794  SER795  GLU796  ALA797  LYS798  CYS799  TRP800  GLU811  SER814 

> <Gold.Protein.RotatedAtoms>
  152.3570  133.6249  159.5986 H   0  0  0  0  0  0  0  0  0  0  0  0  # atno 6907 bound_to 6896
  150.7575  133.9484  159.3487 H   0  0  0  0  0  0  0  0  0  0  0  0  # atno 6908 bound_to 6896
  151.7328  135.0872  160.0354 H   0  0  0  0  0  0  0  0  0  0  0  0  # atno 6909 bound_to 6896
  146.2443  140.0841  142.8355 H   0  0  0  0  0  0  0  0  0  0  0  0  # atno 7974 bound_to 7965
  154.4053  140.1604  156.2537 H   0  0  0  0  0  0  0  0  0  0  0  0  # atno 8008 bound_to 7997
  155.9097  140.3428  155.6066 H   0  0  0  0  0  0  0  0  0  0  0  0  # atno 8009 bound_to 7997
  155.7351  140.0785  157.2262 H   0  0  0  0  0  0  0  0  0  0  0  0  # atno 8010 bound_to 7997
  139.5512  144.2106  152.1079 H   0  0  0  0  0  0  0  0  0  0  0  0  # atno 10167 bound_to 10162
  156.0305  130.5516  150.7398 H   0  0  0  0  0  0  0  0  0  0  0  0  # atno 10718 bound_to 10713
  153.9168  135.6786  153.4749 H   0  0  0  0  0  0  0  0  0  0  0  0  # atno 10763 bound_to 10752
  153.1049  135.4810  154.8931 H   0  0  0  0  0  0  0  0  0  0  0  0  # atno 10764 bound_to 10752
  154.7498  135.3182  154.8534 H   0  0  0  0  0  0  0  0  0  0  0  0  # atno 10765 bound_to 10752
  139.8776  134.9003  156.4315 H   0  0  0  0  0  0  0  0  0  0  0  0  # atno 11005 bound_to 11000
  145.0707  140.9153  143.4883 LP  0  0  0  0  0  0  0  0  0  0  0  0  # atno 17320 bound_to 7965
  145.0974  139.2846  143.5703 LP  0  0  0  0  0  0  0  0  0  0  0  0  # atno 17321 bound_to 7965
  140.1601  144.5033  150.6637 LP  0  0  0  0  0  0  0  0  0  0  0  0  # atno 17342 bound_to 10162
  140.6774  143.2311  151.5471 LP  0  0  0  0  0  0  0  0  0  0  0  0  # atno 17343 bound_to 10162
  157.4969  131.0915  151.0360 LP  0  0  0  0  0  0  0  0  0  0  0  0  # atno 17370 bound_to 10713
  157.0752  130.5880  149.5410 LP  0  0  0  0  0  0  0  0  0  0  0  0  # atno 17371 bound_to 10713
  140.9063  133.7743  155.9739 LP  0  0  0  0  0  0  0  0  0  0  0  0  # atno 17394 bound_to 11000
  140.8596  134.2857  157.5240 LP  0  0  0  0  0  0  0  0  0  0  0  0  # atno 17395 bound_to 11000

$$$$
