#       Name:                AV-unprocessed.smi:1795
#       Creating user name   scv26
#       Creation time:       Fri Mar 27 08:49:43 2020


#       File generated by GOLD software.
#

@<TRIPOS>MOLECULE
AV-unprocessed.smi:1795
    54    55     1
SMALL
NO_CHARGES


@<TRIPOS>ATOM
      1 ****        -5.4603  -0.3964   2.1223 C.3            1 S1                 0.0000
      2 ****        -4.1057  -0.7580   1.5037 C.3            1 S1                 0.0000
      3 ****        -2.9260  -0.3155   2.3926 C.3            1 S1                 0.0000
      4 ****        -1.6216  -0.7196   1.8004 N.4            1 S1                 1.0000
      5 ****        -1.1144   0.0809   0.6350 C.3            1 S1                 0.0000
      6 ****        -1.5173   1.5746   0.6910 C.3            1 S1                 0.0000
      7 ****         0.4257  -0.0486   0.5364 C.3            1 S1                 0.0000
      8 ****         0.9629   0.6267  -0.6389 N.am           1 S1                 0.0000
      9 ****         2.2630   0.6575  -0.9638 C.2            1 S1                 0.0000
     10 ****         3.1355   0.1084  -0.2897 O.2            1 S1                 0.0000
     11 ****         2.6151   1.4050  -2.2580 C.3            1 S1                 0.0000
     12 ****         4.0401   1.7610  -2.3587 N.am           1 S1                 0.0000
     13 ****         4.8707   0.8810  -3.0809 C.2            1 S1                 0.0000
     14 ****         6.1847   1.1090  -3.2329 C.2            1 S1                 0.0000
     15 ****         6.7449   2.2973  -2.6341 C.2            1 S1                 0.0000
     16 ****         5.9605   3.1429  -1.9367 C.2            1 S1                 0.0000
     17 ****         4.5246   2.8939  -1.7623 C.2            1 S1                 0.0000
     18 ****         3.8015   3.6566  -1.1203 O.2            1 S1                 0.0000
     19 ****        -1.6389  -2.1900   1.5663 C.3            1 S1                 0.0000
     20 ****        -2.8606  -2.6215   0.7236 C.3            1 S1                 0.0000
     21 ****        -2.9457  -4.1445   0.5762 C.3            1 S1                 0.0000
     22 ****        -4.0540  -2.1727   1.3561 O.3            1 S1                 0.0000
     23 ****        -5.5574   0.6817   2.2521 H              1 S1                 0.0000
     24 ****        -5.5867  -0.8641   3.0993 H              1 S1                 0.0000
     25 ****        -6.2806  -0.7297   1.4861 H              1 S1                 0.0000
     26 ****        -4.0373  -0.2885   0.5211 H              1 S1                 0.0000
     27 ****        -2.9677   0.7485   2.6204 H              1 S1                 0.0000
     28 ****        -3.0143  -0.8077   3.3624 H              1 S1                 0.0000
     29 ****        -1.5495  -0.3243  -0.2782 H              1 S1                 0.0000
     30 ****        -1.1024   2.1380  -0.1444 H              1 S1                 0.0000
     31 ****        -1.1655   2.0479   1.6084 H              1 S1                 0.0000
     32 ****        -2.5967   1.7110   0.6275 H              1 S1                 0.0000
     33 ****         0.8896   0.3709   1.4310 H              1 S1                 0.0000
     34 ****         0.7374  -1.0909   0.4849 H              1 S1                 0.0000
     35 ****         0.3068   1.1007  -1.2428 H              1 S1                 0.0000
     36 ****         2.3202   0.7801  -3.1021 H              1 S1                 0.0000
     37 ****         1.9963   2.3008  -2.3374 H              1 S1                 0.0000
     38 ****         4.3754   0.0127  -3.4912 H              1 S1                 0.0000
     39 ****         6.8067   0.4198  -3.7849 H              1 S1                 0.0000
     40 ****         7.7982   2.5087  -2.7457 H              1 S1                 0.0000
     41 ****         6.3976   4.0267  -1.4954 H              1 S1                 0.0000
     42 ****        -0.7191  -2.5385   1.1005 H              1 S1                 0.0000
     43 ****        -1.6812  -2.6836   2.5384 H              1 S1                 0.0000
     44 ****        -2.8058  -2.1894  -0.2762 H              1 S1                 0.0000
     45 ****        -2.0608  -4.5403   0.0771 H              1 S1                 0.0000
     46 ****        -3.8153  -4.4312  -0.0157 H              1 S1                 0.0000
     47 ****        -3.0290  -4.6325   1.5479 H              1 S1                 0.0000
     48 ****        -0.9426  -0.5570   2.5306 H              1 S1                 0.0000
     49 ****         2.8864  -0.3886   0.5415 LP             1 S1                 0.0000
     50 ****         4.0930   0.1597  -0.5737 LP             1 S1                 0.0000
     51 ****         2.8266   3.4568  -1.0217 LP             1 S1                 0.0000
     52 ****         4.1892   4.4758  -0.6976 LP             1 S1                 0.0000
     53 ****        -4.8360  -2.4646   0.8053 LP             1 S1                 0.0000
     54 ****        -4.1107  -2.5902   2.2630 LP             1 S1                 0.0000
@<TRIPOS>BOND
    1    1    2 1     
    2    1   23 1     
    3    1   24 1     
    4    1   25 1     
    5    2   22 1     
    6    2    3 1     
    7    2   26 1     
    8    3    4 1     
    9    3   27 1     
   10    3   28 1     
   11    4    5 1     
   12    4   19 1     
   13    4   48 1     
   14    5    6 1     
   15    5    7 1     
   16    5   29 1     
   17    6   30 1     
   18    6   31 1     
   19    6   32 1     
   20    7    8 1     
   21    7   33 1     
   22    7   34 1     
   23    8    9 am    
   24    8   35 1     
   25    9   10 2     
   26    9   11 1     
   27   11   12 1     
   28   11   36 1     
   29   11   37 1     
   30   12   17 am    
   31   12   13 1     
   32   13   14 2     
   33   13   38 1     
   34   14   15 1     
   35   14   39 1     
   36   15   16 2     
   37   15   40 1     
   38   16   17 1     
   39   16   41 1     
   40   17   18 2     
   41   19   20 1     
   42   19   42 1     
   43   19   43 1     
   44   20   21 1     
   45   20   22 1     
   46   20   44 1     
   47   21   45 1     
   48   21   46 1     
   49   21   47 1     
   50   10   49 1     
   51   10   50 1     
   52   18   51 1     
   53   18   52 1     
   54   22   53 1     
   55   22   54 1     
@<TRIPOS>SUBSTRUCTURE
      1 S1             1
@<TRIPOS>SET
LONE_PAIRS      STATIC     ATOMS    <user>   **** ""
6 49 50 51 52 53 54
DONOR_HYDROGENS      STATIC     ATOMS    <user>   **** ""
2 48 35
ATOM$BLUE        STATIC     ATOMS    COLORGROUP SYSTEM
6 49 50 51 52 53 54
ATOM$RED        STATIC     ATOMS    COLORGROUP SYSTEM
2 48 35
