AV-unprocessed.smi:1306|AV-procd|sdf|5434|dock9
  -GOLD-   22720 4593D 1   1.00000     0.00000
 Structure written by MMmdl.
 39 40  0  0  0  0  0  0  0  0  1 V2000
  151.2170  139.1933  154.0750 O   0  0  0  0  0  0  0  0  0  0  0  0
  150.2684  139.3800  154.8387 C   0  0  0  0  0  0  0  0  0  0  0  0
  148.8418  138.9757  154.4393 C   0  0  0  0  0  0  0  0  0  0  0  0
  147.8820  140.0870  154.5137 N   0  0  0  0  0  0  0  0  0  0  0  0
  148.0389  141.2026  153.7034 C   0  0  0  0  0  0  0  0  0  0  0  0
  147.1899  142.2573  153.7138 C   0  0  0  0  0  0  0  0  0  0  0  0
  146.0355  142.2673  154.6057 C   0  0  0  0  0  0  0  0  0  0  0  0
  145.2118  143.1756  154.6894 O   0  0  0  0  0  0  0  0  0  0  0  0
  145.9101  141.1264  155.4030 N   0  0  0  0  0  0  0  0  0  0  0  0
  146.7802  140.0348  155.3957 C   0  0  0  0  0  0  0  0  0  0  0  0
  146.5745  139.0747  156.1371 O   0  0  0  0  0  0  0  0  0  0  0  0
  150.4004  139.9504  156.0456 N   0  0  0  0  0  0  0  0  0  0  0  0
  151.6606  140.3909  156.6344 C   0  0  0  0  0  0  0  0  0  0  0  0
  151.4601  141.0146  158.0252 C   0  0  0  0  0  0  0  0  0  0  0  0
  153.0377  141.3032  158.8774 S   0  0  0  0  0  0  0  0  0  0  0  0
  152.4528  142.1658  160.3642 C   0  0  0  0  0  0  0  0  0  0  0  0
  152.0282  143.6072  160.0738 C   0  0  0  0  0  0  0  0  0  0  0  0
  152.1793  144.3595  161.4033 C   0  0  0  0  0  0  0  0  0  0  0  0
  153.0311  143.4652  162.3168 C   0  0  0  0  0  0  0  0  0  0  0  0
  153.5316  142.3177  161.4368 C   0  0  0  0  0  0  0  0  0  0  0  0
  145.1239  141.0878  156.0351 H   0  0  0  0  0  0  0  0  0  0  0  0
  148.8491  138.5537  153.4320 H   0  0  0  0  0  0  0  0  0  0  0  0
  148.5254  138.1594  155.0902 H   0  0  0  0  0  0  0  0  0  0  0  0
  148.8784  141.2370  153.0235 H   0  0  0  0  0  0  0  0  0  0  0  0
  147.3654  143.0976  153.0578 H   0  0  0  0  0  0  0  0  0  0  0  0
  149.5699  140.0688  156.6074 H   0  0  0  0  0  0  0  0  0  0  0  0
  152.3527  139.5497  156.6973 H   0  0  0  0  0  0  0  0  0  0  0  0
  152.1204  141.1169  155.9636 H   0  0  0  0  0  0  0  0  0  0  0  0
  150.9162  141.9567  157.9483 H   0  0  0  0  0  0  0  0  0  0  0  0
  150.8524  140.3487  158.6377 H   0  0  0  0  0  0  0  0  0  0  0  0
  151.6021  141.6229  160.7789 H   0  0  0  0  0  0  0  0  0  0  0  0
  152.6979  144.0501  159.3349 H   0  0  0  0  0  0  0  0  0  0  0  0
  151.0156  143.6673  159.6741 H   0  0  0  0  0  0  0  0  0  0  0  0
  152.6517  145.3294  161.2439 H   0  0  0  0  0  0  0  0  0  0  0  0
  151.2057  144.5435  161.8586 H   0  0  0  0  0  0  0  0  0  0  0  0
  153.8532  144.0106  162.7817 H   0  0  0  0  0  0  0  0  0  0  0  0
  152.4083  143.0665  163.1188 H   0  0  0  0  0  0  0  0  0  0  0  0
  153.6951  141.4017  162.0050 H   0  0  0  0  0  0  0  0  0  0  0  0
  154.4799  142.5980  160.9761 H   0  0  0  0  0  0  0  0  0  0  0  0
  1  2  2  0  0  0  0
  2  3  1  0  0  0  0
  2 12  1  0  0  0  0
  3  4  1  0  0  0  0
  3 22  1  0  0  0  0
  3 23  1  0  0  0  0
  4 10  1  0  0  0  0
  4  5  1  0  0  0  0
  5  6  2  0  0  0  0
  5 24  1  0  0  0  0
  6  7  1  0  0  0  0
  6 25  1  0  0  0  0
  7  8  2  0  0  0  0
  7  9  1  0  0  0  0
  9 21  1  0  0  0  0
  9 10  1  0  0  0  0
 10 11  2  0  0  0  0
 12 13  1  0  0  0  0
 12 26  1  0  0  0  0
 13 14  1  0  0  0  0
 13 27  1  0  0  0  0
 13 28  1  0  0  0  0
 14 15  1  0  0  0  0
 14 29  1  0  0  0  0
 14 30  1  0  0  0  0
 15 16  1  0  0  0  0
 16 20  1  0  0  0  0
 16 17  1  0  0  0  0
 16 31  1  0  0  0  0
 17 18  1  0  0  0  0
 17 32  1  0  0  0  0
 17 33  1  0  0  0  0
 18 19  1  0  0  0  0
 18 34  1  0  0  0  0
 18 35  1  0  0  0  0
 19 20  1  0  0  0  0
 19 36  1  0  0  0  0
 19 37  1  0  0  0  0
 20 38  1  0  0  0  0
 20 39  1  0  0  0  0
M  END
> <s_m_source_file>
AV-unprocessed.smi

> <i_m_source_file_index>
1306

> <i_lp_mmshare_version>
43012

> <i_f3d_flags>
0

> <s_epik_input>
Tz1jMVtuSF1jKD1PKVtjSF1bY0hdbjFbQ0gyXUMoPU8pW05IXVtDSDJdW0NIMl1TW0NIXTJbQ0gyXVtDSDJdW0NIMl1bQ0gyXTI=

> <s_epik_cmdline>
J2VwaWtfcHl0aG9uJywgJy1waCcsICc3LjAnLCAnLXRuJywgJzgnLCAnLW1hJywgJzIwMCcsICctbWV0YWxfYmluZGluZycsICctaW1hZScsICc8aW5maWxlLm1hZT4nLCAnLW9tYWUnLCAnPG91dGZpbGUubWFlPic=

> <r_lp_tautomer_probability>
0.999537

> <r_epik_Ionization_Penalty>
0.00337646

> <r_epik_Ionization_Penalty_Charging>
0.00337644

> <r_epik_Ionization_Penalty_Neutral>
2.37506e-08

> <r_epik_State_Penalty>
0.00238979

> <r_epik_Charging_Adjusted_Penalty>
0.00576623

> <i_epik_Tot_Q>
0

> <i_epik_Tot_abs_Q>
0

> <r_epik_Metal_State_Penalty>
0.366399

> <b_epik_Metal_Only>
0

> <s_lp_Force_Field>
OPLS_2005

> <r_lp_Energy>
19.0409

> <b_lp_Chiralities_Consistent>
1

> <s_lp_Variant>
AV-unprocessed.smi:1306-1

> <Gold.Version>
5.8.1

> <Gold.Id.Protein>
6NUR|6NUR_protein|mol2

> <Gold.PLP.Fitness>
44.4529

> <Gold.PLP.PLP>
-38.7054

> <Gold.PLP.part.hbond>
-1.0000

> <Gold.PLP.part.metal>
0.0000

> <Gold.PLP.part.buried>
-3.9941

> <Gold.PLP.part.nonpolar>
-32.7855

> <Gold.PLP.part.repulsive>
0.4458

> <Gold.PLP.ligand.clash>
0.0000

> <Gold.PLP.ligand.torsion>
0.1401

> <Gold.PLP.Chemscore.Hbond>
1.0000

> <Gold.PLP.Chemscore.CHOScore>
1.0000

> <Gold.PLP.Chemscore.Metal>
0.0000

> <Gold.Chemscore.Hbonds>
donor molecule, donor type, donor heavy atom, donor atom, acceptor molecule, acceptor atom, score
      P1  H  7989  7998       L1     1  1.00
      L1  C     5    24       P1  7957  1.00

> <Gold.PLP.Chemscore.Internal.Correction>
0.0278

> <Gold.Rescore>
     Score         DG    S(hbond)    S(metal)    S(lipo)     H(rot)  DE(clash)    DE(int)     intcor
     13.48     -13.72       0.91        0.00      98.09       2.45       0.08       0.16       ----

> <Gold.Chemscore.Fitness>
13.4794

> <Gold.Chemscore.DG>
-13.7161

> <Gold.Chemscore.ZeroCoef>
-5.4800

> <Gold.Chemscore.Hbond>
0.9053

> <Gold.Chemscore.Metal>
0.0000

> <Gold.Chemscore.Lipo>
98.0898

> <Gold.Chemscore.Internal_Hbond>
0.0000

> <Gold.Chemscore.DEClash>
0.0778

> <Gold.Chemscore.DEInternal>
0.1590

> <Gold.Chemscore.Rot>
2.4469

> <Gold.Chemscore.Internal.Correction>
   9.000000E+99

> <Gold.Chemscore.Hbonds>
donor molecule, donor type, donor heavy atom, donor atom, acceptor molecule, acceptor atom, score
      P1  H  7989  7998       L1     1  0.49

> <Gold.Chemscore.Hbond.Weighted>
-3.0236

> <Gold.Chemscore.Metal.Weighted>
-0.0000

> <Gold.Chemscore.Lipo.Weighted>
-11.4765

> <Gold.Chemscore.Internal_Hbond.Weighted>
0.0000

> <Gold.Chemscore.DEClash.Weighted>
0.0778

> <Gold.Chemscore.DEInternal.Weighted>
0.1590

> <Gold.Chemscore.Rot.Weighted>
6.2640

> <Gold.Chemscore.Internal.Correction.Weighted>
   9.000000E+99

> <Gold.Protein.RotatedTorsions>
[ 6907 6896 6895 6894 ] final   47.62 input  -60.11 | X-H torsion
[ 7974 7965 7964 7962 ] final  142.82 input  175.53 | X-H torsion
[ 8008 7997 7996 7995 ] final  -49.55 input   59.86 | X-H torsion
[ 10167 10162 10161 10158 ] final  -57.07 input  -65.29 | X-H torsion
[ 10718 10713 10712 10709 ] final  175.24 input   66.30 | X-H torsion
[ 10763 10752 10751 10750 ] final  -88.06 input  -60.55 | X-H torsion
[ 11005 11000 10999 10996 ] final -113.50 input  -57.11 | X-H torsion

> <Gold.Protein.ActiveResidues>
 VAL166  LYS551  ARG553  GLY616  TRP617  ASP618  TYR619  PRO620  LYS621  CYS622 
 ASP623  PHE694  ASN695  SER759  ASP760  ASP761  ALA762  ILE779  LEU786  VAL792 
 PHE793  MET794  SER795  GLU796  ALA797  LYS798  CYS799  TRP800  GLU811  SER814 

> <Gold.Protein.RotatedAtoms>
  152.2702  134.7941  160.0415 H   0  0  0  0  0  0  0  0  0  0  0  0  # atno 6907 bound_to 6896
  151.8556  133.3442  159.3695 H   0  0  0  0  0  0  0  0  0  0  0  0  # atno 6908 bound_to 6896
  150.7149  134.5184  159.5686 H   0  0  0  0  0  0  0  0  0  0  0  0  # atno 6909 bound_to 6896
  144.8974  139.5471  143.5770 H   0  0  0  0  0  0  0  0  0  0  0  0  # atno 7974 bound_to 7965
  154.4046  140.1294  156.4520 H   0  0  0  0  0  0  0  0  0  0  0  0  # atno 8008 bound_to 7997
  155.7356  140.3490  155.5060 H   0  0  0  0  0  0  0  0  0  0  0  0  # atno 8009 bound_to 7997
  155.9086  140.1032  157.1286 H   0  0  0  0  0  0  0  0  0  0  0  0  # atno 8010 bound_to 7997
  140.6280  143.2446  151.5314 H   0  0  0  0  0  0  0  0  0  0  0  0  # atno 10167 bound_to 10162
  156.9378  130.9991  151.2974 H   0  0  0  0  0  0  0  0  0  0  0  0  # atno 10718 bound_to 10713
  154.6405  135.5390  153.7783 H   0  0  0  0  0  0  0  0  0  0  0  0  # atno 10763 bound_to 10752
  153.0331  135.6458  154.1167 H   0  0  0  0  0  0  0  0  0  0  0  0  # atno 10764 bound_to 10752
  154.1092  135.2928  155.3214 H   0  0  0  0  0  0  0  0  0  0  0  0  # atno 10765 bound_to 10752
  141.0611  133.9534  157.2666 H   0  0  0  0  0  0  0  0  0  0  0  0  # atno 11005 bound_to 11000
  146.3089  139.7676  142.9035 LP  0  0  0  0  0  0  0  0  0  0  0  0  # atno 17320 bound_to 7965
  145.3676  141.0337  143.3249 LP  0  0  0  0  0  0  0  0  0  0  0  0  # atno 17321 bound_to 7965
  139.5497  144.2426  152.1509 LP  0  0  0  0  0  0  0  0  0  0  0  0  # atno 17342 bound_to 10162
  140.1663  144.4978  150.6604 LP  0  0  0  0  0  0  0  0  0  0  0  0  # atno 17343 bound_to 10162
  157.5805  130.8373  149.8515 LP  0  0  0  0  0  0  0  0  0  0  0  0  # atno 17370 bound_to 10713
  156.0418  130.3737  150.1417 LP  0  0  0  0  0  0  0  0  0  0  0  0  # atno 17371 bound_to 10713
  139.9433  135.0188  156.8775 LP  0  0  0  0  0  0  0  0  0  0  0  0  # atno 17394 bound_to 11000
  140.5867  134.0300  155.7484 LP  0  0  0  0  0  0  0  0  0  0  0  0  # atno 17395 bound_to 11000

$$$$
