AV-unprocessed.smi:287|AV-procd|sdf|2189|dock9
  -GOLD-   2262021583D 1   1.00000     0.00000
 Structure written by MMmdl.
 55 58  0  0  0  0  0  0  0  0  1 V2000
  141.8060  134.5413  163.1893 C   0  0  0  0  0  0  0  0  0  0  0  0
  143.1803  134.3441  162.6480 C   0  0  0  0  0  0  0  0  0  0  0  0
  144.3576  135.0181  162.7925 C   0  0  0  0  0  0  0  0  0  0  0  0
  145.3357  134.3430  162.0027 C   0  0  0  0  0  0  0  0  0  0  0  0
  146.7962  134.7480  161.8518 C   0  0  1  0  0  0  0  0  0  0  0  0
  147.1237  135.8902  162.8277 C   0  0  0  0  0  0  0  0  0  0  0  0
  147.6932  133.7048  162.1807 O   0  0  0  0  0  0  0  0  0  0  0  0
  147.1438  135.1692  160.4050 C   0  0  0  0  0  0  0  0  0  0  0  0
  148.4710  135.7660  160.2901 N   0  0  0  0  0  0  0  0  0  0  0  0
  148.6918  136.7620  159.4073 C   0  0  0  0  0  0  0  0  0  0  0  0
  147.6618  137.3545  158.7504 N   0  0  0  0  0  0  0  0  0  0  0  0
  147.9067  138.3362  157.8794 C   0  0  0  0  0  0  0  0  0  0  0  0
  149.0808  138.8622  157.5255 N   0  0  0  0  0  0  0  0  0  0  0  0
  150.1245  138.2732  158.1800 C   0  0  0  0  0  0  0  0  0  0  0  0
  150.0056  137.2226  159.1344 C   0  0  0  0  0  0  0  0  0  0  0  0
  151.2603  136.8665  159.6054 N   0  0  0  0  0  0  0  0  0  0  0  0
  152.0717  137.6645  158.9672 C   0  0  0  0  0  0  0  0  0  0  0  0
  151.4817  138.5357  158.0765 N   0  0  0  0  0  0  0  0  0  0  0  0
  152.2019  139.5635  157.2458 C   0  0  2  0  0  0  0  0  0  0  0  0
  151.8885  140.8264  157.7404 O   0  0  0  0  0  0  0  0  0  0  0  0
  150.8528  141.3976  156.9584 C   0  0  1  0  0  0  0  0  0  0  0  0
  150.8461  142.9292  157.1092 C   0  0  0  0  0  0  0  0  0  0  0  0
  149.6309  143.4036  157.6527 O   0  0  0  0  0  0  0  0  0  0  0  0
  151.0538  140.8412  155.5383 C   0  0  2  0  0  0  0  0  0  0  0  0
  149.8006  140.5977  154.9316 O   0  0  0  0  0  0  0  0  0  0  0  0
  151.8194  139.5298  155.7524 C   0  0  1  0  0  0  0  0  0  0  0  0
  152.9735  139.5039  154.9366 O   0  0  0  0  0  0  0  0  0  0  0  0
  144.6635  133.2819  161.4446 C   0  0  0  0  0  0  0  0  0  0  0  0
  145.0572  132.1672  160.5323 C   0  0  0  0  0  0  0  0  0  0  0  0
  143.3561  133.2779  161.8280 O   0  0  0  0  0  0  0  0  0  0  0  0
  153.2558  139.3442  157.4234 H   0  0  0  0  0  0  0  0  0  0  0  0
  149.9185  141.0226  157.3758 H   0  0  0  0  0  0  0  0  0  0  0  0
  151.6276  141.5275  154.9149 H   0  0  0  0  0  0  0  0  0  0  0  0
  151.2298  138.6414  155.5262 H   0  0  0  0  0  0  0  0  0  0  0  0
  141.7448  135.4623  163.7693 H   0  0  0  0  0  0  0  0  0  0  0  0
  141.5240  133.7127  163.8390 H   0  0  0  0  0  0  0  0  0  0  0  0
  141.0772  134.6029  162.3810 H   0  0  0  0  0  0  0  0  0  0  0  0
  144.5013  135.9052  163.3915 H   0  0  0  0  0  0  0  0  0  0  0  0
  146.5034  136.7660  162.6333 H   0  0  0  0  0  0  0  0  0  0  0  0
  148.1651  136.2030  162.7432 H   0  0  0  0  0  0  0  0  0  0  0  0
  146.9513  135.5903  163.8623 H   0  0  0  0  0  0  0  0  0  0  0  0
  148.5716  133.9924  161.9841 H   0  0  0  0  0  0  0  0  0  0  0  0
  147.1380  134.2775  159.7762 H   0  0  0  0  0  0  0  0  0  0  0  0
  146.3864  135.8416  159.9989 H   0  0  0  0  0  0  0  0  0  0  0  0
  149.2085  135.3032  160.8028 H   0  0  0  0  0  0  0  0  0  0  0  0
  147.0388  138.7592  157.3951 H   0  0  0  0  0  0  0  0  0  0  0  0
  153.1394  137.6371  159.1306 H   0  0  0  0  0  0  0  0  0  0  0  0
  151.6535  143.2353  157.7745 H   0  0  0  0  0  0  0  0  0  0  0  0
  151.0261  143.4091  156.1471 H   0  0  0  0  0  0  0  0  0  0  0  0
  149.1742  143.8929  156.9855 H   0  0  0  0  0  0  0  0  0  0  0  0
  149.4903  141.4075  154.5545 H   0  0  0  0  0  0  0  0  0  0  0  0
  152.9729  138.6971  154.4438 H   0  0  0  0  0  0  0  0  0  0  0  0
  145.9173  131.6277  160.9296 H   0  0  0  0  0  0  0  0  0  0  0  0
  145.3219  132.5507  159.5467 H   0  0  0  0  0  0  0  0  0  0  0  0
  144.2430  131.4526  160.4071 H   0  0  0  0  0  0  0  0  0  0  0  0
  1  2  1  0  0  0  0
  1 35  1  0  0  0  0
  1 36  1  0  0  0  0
  1 37  1  0  0  0  0
  2 30  1  0  0  0  0
  2  3  2  0  0  0  0
  3  4  1  0  0  0  0
  3 38  1  0  0  0  0
  4  5  1  0  0  0  0
  4 28  2  0  0  0  0
  5  6  1  0  0  0  0
  5  7  1  0  0  0  0
  5  8  1  0  0  0  0
  6 39  1  0  0  0  0
  6 40  1  0  0  0  0
  6 41  1  0  0  0  0
  7 42  1  0  0  0  0
  8  9  1  0  0  0  0
  8 43  1  0  0  0  0
  8 44  1  0  0  0  0
  9 10  1  0  0  0  0
  9 45  1  0  0  0  0
 10 15  1  0  0  0  0
 10 11  2  0  0  0  0
 11 12  1  0  0  0  0
 12 13  2  0  0  0  0
 12 46  1  0  0  0  0
 13 14  1  0  0  0  0
 14 18  1  0  0  0  0
 14 15  2  0  0  0  0
 15 16  1  0  0  0  0
 16 17  2  0  0  0  0
 17 18  1  0  0  0  0
 17 47  1  0  0  0  0
 18 19  1  0  0  0  0
 19 31  1  0  0  0  0
 19 26  1  0  0  0  0
 19 20  1  0  0  0  0
 20 21  1  0  0  0  0
 21 32  1  0  0  0  0
 21 22  1  0  0  0  0
 21 24  1  0  0  0  0
 22 23  1  0  0  0  0
 22 48  1  0  0  0  0
 22 49  1  0  0  0  0
 23 50  1  0  0  0  0
 24 33  1  0  0  0  0
 24 25  1  0  0  0  0
 24 26  1  0  0  0  0
 25 51  1  0  0  0  0
 26 34  1  0  0  0  0
 26 27  1  0  0  0  0
 27 52  1  0  0  0  0
 28 29  1  0  0  0  0
 28 30  1  0  0  0  0
 29 53  1  0  0  0  0
 29 54  1  0  0  0  0
 29 55  1  0  0  0  0
M  END
> <s_m_source_file>
AV-unprocessed.smi

> <i_m_source_file_index>
287

> <i_lp_mmshare_version>
43012

> <i_f3d_flags>
0

> <s_epik_input>
W0NIM11jMVtjSF1jKGMobzEpW0NIM10pW0NAQF0oW0NIM10pKFtPSF0pW0NIMl1bTkhdYyhuW2NIXW4yKWMoYzIzKW5bY0hdbjNbQ0BASF00T1tDQEhdKFtDSDJdW09IXSlbQ0BASF0oW09IXSlbQ0BIXTRbT0hd

> <s_epik_cmdline>
J2VwaWtfcHl0aG9uJywgJy1waCcsICc3LjAnLCAnLXRuJywgJzgnLCAnLW1hJywgJzIwMCcsICctbWV0YWxfYmluZGluZycsICctaW1hZScsICc8aW5maWxlLm1hZT4nLCAnLW9tYWUnLCAnPG91dGZpbGUubWFlPic=

> <r_lp_tautomer_probability>
1

> <r_epik_Ionization_Penalty>
0.000992612

> <r_epik_Ionization_Penalty_Charging>
0

> <r_epik_Ionization_Penalty_Neutral>
0.000992612

> <r_epik_State_Penalty>
-0

> <r_epik_Charging_Adjusted_Penalty>
0

> <i_epik_Tot_Q>
0

> <i_epik_Tot_abs_Q>
0

> <r_epik_Metal_State_Penalty>
-0

> <b_epik_Metal_Only>
0

> <s_epik_Chemistry_Notes>
This compound contains an acetal/aminal-like group ( X-CH(R)-Y where X, Y are N, S, or O) that may be acid/base labile, releasing an aldehyde.

> <s_lp_Force_Field>
OPLS_2005

> <r_lp_Energy>
40.6201

> <b_lp_Chiralities_Consistent>
1

> <s_lp_Variant>
AV-unprocessed.smi:287-13

> <Gold.Version>
5.8.1

> <Gold.Id.Protein>
6NUR|6NUR_protein|mol2

> <Gold.PLP.Fitness>
53.4507

> <Gold.PLP.PLP>
-46.6346

> <Gold.PLP.part.hbond>
-4.4247

> <Gold.PLP.part.metal>
0.0000

> <Gold.PLP.part.buried>
-7.3326

> <Gold.PLP.part.nonpolar>
-35.3649

> <Gold.PLP.part.repulsive>
0.2517

> <Gold.PLP.ligand.clash>
0.0000

> <Gold.PLP.ligand.torsion>
1.2865

> <Gold.PLP.Chemscore.Hbond>
3.0898

> <Gold.PLP.Chemscore.CHOScore>
0.0000

> <Gold.PLP.Chemscore.Metal>
0.0000

> <Gold.Chemscore.Hbonds>
donor molecule, donor type, donor heavy atom, donor atom, acceptor molecule, acceptor atom, score
      L1  H    23    50       P1  8028  1.00
      P1  H  6896  6907       L1    16  1.00
      P1  H  7989  7998       L1    27  0.02
      P1  H  7997  8010       L1    27  1.00

> <Gold.PLP.Chemscore.Internal.Correction>
0.1198

> <Gold.Rescore>
     Score         DG    S(hbond)    S(metal)    S(lipo)     H(rot)  DE(clash)    DE(int)     intcor
      9.80     -12.18       2.71        0.00      95.31       5.27       0.49       1.89       ----

> <Gold.Chemscore.Fitness>
9.8024

> <Gold.Chemscore.DG>
-12.1825

> <Gold.Chemscore.ZeroCoef>
-5.4800

> <Gold.Chemscore.Hbond>
2.7050

> <Gold.Chemscore.Metal>
0.0000

> <Gold.Chemscore.Lipo>
95.3132

> <Gold.Chemscore.Internal_Hbond>
0.0000

> <Gold.Chemscore.DEClash>
0.4943

> <Gold.Chemscore.DEInternal>
1.8858

> <Gold.Chemscore.Rot>
5.2672

> <Gold.Chemscore.Internal.Correction>
   9.000000E+99

> <Gold.Chemscore.Hbonds>
donor molecule, donor type, donor heavy atom, donor atom, acceptor molecule, acceptor atom, score
      L1  H    23    50       P1  8028  0.43
      P1  H  6896  6907       L1    16  0.94
      P1  H  7997  8010       L1    27  0.78

> <Gold.Chemscore.Hbond.Weighted>
-9.0348

> <Gold.Chemscore.Metal.Weighted>
-0.0000

> <Gold.Chemscore.Lipo.Weighted>
-11.1516

> <Gold.Chemscore.Internal_Hbond.Weighted>
0.0000

> <Gold.Chemscore.DEClash.Weighted>
0.4943

> <Gold.Chemscore.DEInternal.Weighted>
1.8858

> <Gold.Chemscore.Rot.Weighted>
13.4839

> <Gold.Chemscore.Internal.Correction.Weighted>
   9.000000E+99

> <Gold.Protein.RotatedTorsions>
[ 6907 6896 6895 6894 ] final   -3.26 input  -60.11 | X-H torsion
[ 7974 7965 7964 7962 ] final   26.87 input  175.53 | X-H torsion
[ 8008 7997 7996 7995 ] final  106.37 input   59.86 | X-H torsion
[ 10167 10162 10161 10158 ] final  169.94 input  -65.29 | X-H torsion
[ 10718 10713 10712 10709 ] final   -6.27 input   66.30 | X-H torsion
[ 10763 10752 10751 10750 ] final -165.26 input  -60.55 | X-H torsion
[ 11005 11000 10999 10996 ] final   98.51 input  -57.11 | X-H torsion

> <Gold.Protein.ActiveResidues>
 VAL166  LYS551  ARG553  GLY616  TRP617  ASP618  TYR619  PRO620  LYS621  CYS622 
 ASP623  PHE694  ASN695  SER759  ASP760  ASP761  ALA762  ILE779  LEU786  VAL792 
 PHE793  MET794  SER795  GLU796  ALA797  LYS798  CYS799  TRP800  GLU811  SER814 

> <Gold.Protein.RotatedAtoms>
  151.5166  135.1066  159.9867 H   0  0  0  0  0  0  0  0  0  0  0  0  # atno 6907 bound_to 6896
  152.4638  133.7875  159.6895 H   0  0  0  0  0  0  0  0  0  0  0  0  # atno 6908 bound_to 6896
  150.8613  133.7576  159.3017 H   0  0  0  0  0  0  0  0  0  0  0  0  # atno 6909 bound_to 6896
  146.1814  139.7268  142.8897 H   0  0  0  0  0  0  0  0  0  0  0  0  # atno 7974 bound_to 7965
  156.1737  140.3114  155.9020 H   0  0  0  0  0  0  0  0  0  0  0  0  # atno 8008 bound_to 7997
  155.3532  140.0472  157.3063 H   0  0  0  0  0  0  0  0  0  0  0  0  # atno 8009 bound_to 7997
  154.5268  140.2217  155.8886 H   0  0  0  0  0  0  0  0  0  0  0  0  # atno 8010 bound_to 7997
  139.5005  144.3651  151.9784 H   0  0  0  0  0  0  0  0  0  0  0  0  # atno 10167 bound_to 10162
  156.7344  130.5190  149.5838 H   0  0  0  0  0  0  0  0  0  0  0  0  # atno 10718 bound_to 10713
  154.6949  135.2977  154.9426 H   0  0  0  0  0  0  0  0  0  0  0  0  # atno 10763 bound_to 10752
  154.0377  135.6661  153.4791 H   0  0  0  0  0  0  0  0  0  0  0  0  # atno 10764 bound_to 10752
  153.0639  135.5100  154.8062 H   0  0  0  0  0  0  0  0  0  0  0  0  # atno 10765 bound_to 10752
  139.8772  134.9052  156.4466 H   0  0  0  0  0  0  0  0  0  0  0  0  # atno 11005 bound_to 11000
  145.4064  141.0391  143.3042 LP  0  0  0  0  0  0  0  0  0  0  0  0  # atno 17320 bound_to 7965
  144.8322  139.5609  143.6938 LP  0  0  0  0  0  0  0  0  0  0  0  0  # atno 17321 bound_to 7965
  140.3087  144.3563  150.6040 LP  0  0  0  0  0  0  0  0  0  0  0  0  # atno 17342 bound_to 10162
  140.5816  143.2172  151.7418 LP  0  0  0  0  0  0  0  0  0  0  0  0  # atno 17343 bound_to 10162
  156.1507  130.6308  151.0591 LP  0  0  0  0  0  0  0  0  0  0  0  0  # atno 17370 bound_to 10713
  157.6845  131.0829  150.7280 LP  0  0  0  0  0  0  0  0  0  0  0  0  # atno 17371 bound_to 10713
  140.8961  133.7813  155.9627 LP  0  0  0  0  0  0  0  0  0  0  0  0  # atno 17394 bound_to 11000
  140.8701  134.2736  157.5194 LP  0  0  0  0  0  0  0  0  0  0  0  0  # atno 17395 bound_to 11000

$$$$
