AV-unprocessed.smi:2678|AV-procd|sdf|10367|dock10
  -GOLD-   2272014393D 1   1.00000     0.00000
 Structure written by MMmdl.
 46 47  0  0  0  0  0  0  0  0  1 V2000
  152.5224  142.1868  160.1250 C   0  0  0  0  0  0  0  0  0  0  0  0
  152.6032  142.6476  158.6608 C   0  0  0  0  0  0  0  0  0  0  0  0
  152.5894  144.1777  158.5478 C   0  0  0  0  0  0  0  0  0  0  0  0
  151.4941  142.0953  157.8886 N   0  0  0  0  0  0  0  0  0  0  0  0
  151.5195  140.9426  157.2008 C   0  0  0  0  0  0  0  0  0  0  0  0
  152.5062  140.2075  157.1489 O   0  0  0  0  0  0  0  0  0  0  0  0
  150.2303  140.5612  156.4611 C   0  0  1  0  0  0  0  0  0  0  0  0
  149.9165  141.5676  155.3341 C   0  0  0  0  0  0  0  0  0  0  0  0
  148.6342  141.1794  154.5807 C   0  0  0  0  0  0  0  0  0  0  0  0
  148.7217  139.7470  154.0306 C   0  0  0  0  0  0  0  0  0  0  0  0
  149.0308  138.7345  155.1487 C   0  0  1  0  0  0  0  0  0  0  0  0
  149.1459  137.3923  154.5741 N   0  0  0  0  0  0  0  0  0  0  0  0
  149.5017  136.2470  155.1852 C   0  0  0  0  0  0  0  0  0  0  0  0
  149.8043  136.2310  156.3761 O   0  0  0  0  0  0  0  0  0  0  0  0
  149.5127  135.1691  154.3762 N   0  0  0  0  0  0  0  0  0  0  0  0
  149.7877  133.8135  154.7004 C   0  0  0  0  0  0  0  0  0  0  0  0
  149.3578  132.7055  153.9306 C   0  0  0  0  0  0  0  0  0  0  0  0
  149.7145  131.4089  154.3482 C   0  0  0  0  0  0  0  0  0  0  0  0
  150.4924  131.2671  155.5138 C   0  0  0  0  0  0  0  0  0  0  0  0
  150.9203  132.3146  156.2495 N   0  0  0  0  0  0  0  0  0  0  0  0
  150.5753  133.5549  155.8423 C   0  0  0  0  0  0  0  0  0  0  0  0
  150.3255  139.1308  155.8901 C   0  0  0  0  0  0  0  0  0  0  0  0
  153.3489  142.5934  160.7086 H   0  0  0  0  0  0  0  0  0  0  0  0
  152.5715  141.1003  160.2027 H   0  0  0  0  0  0  0  0  0  0  0  0
  151.5929  142.5127  160.5934 H   0  0  0  0  0  0  0  0  0  0  0  0
  153.5436  142.2924  158.2353 H   0  0  0  0  0  0  0  0  0  0  0  0
  153.4286  144.6174  159.0875 H   0  0  0  0  0  0  0  0  0  0  0  0
  151.6718  144.5995  158.9593 H   0  0  0  0  0  0  0  0  0  0  0  0
  152.6653  144.4956  157.5074 H   0  0  0  0  0  0  0  0  0  0  0  0
  150.6396  142.6330  157.8752 H   0  0  0  0  0  0  0  0  0  0  0  0
  149.4060  140.5855  157.1764 H   0  0  0  0  0  0  0  0  0  0  0  0
  149.8064  142.5715  155.7468 H   0  0  0  0  0  0  0  0  0  0  0  0
  150.7466  141.6144  154.6272 H   0  0  0  0  0  0  0  0  0  0  0  0
  147.7773  141.2621  155.2504 H   0  0  0  0  0  0  0  0  0  0  0  0
  148.4571  141.8799  153.7642 H   0  0  0  0  0  0  0  0  0  0  0  0
  147.7845  139.4867  153.5374 H   0  0  0  0  0  0  0  0  0  0  0  0
  149.4972  139.7017  153.2644 H   0  0  0  0  0  0  0  0  0  0  0  0
  148.1951  138.7547  155.8505 H   0  0  0  0  0  0  0  0  0  0  0  0
  148.9378  137.3232  153.5883 H   0  0  0  0  0  0  0  0  0  0  0  0
  149.3315  135.3509  153.3999 H   0  0  0  0  0  0  0  0  0  0  0  0
  148.7795  132.8217  153.0273 H   0  0  0  0  0  0  0  0  0  0  0  0
  149.4020  130.5425  153.7841 H   0  0  0  0  0  0  0  0  0  0  0  0
  150.7841  130.2870  155.8609 H   0  0  0  0  0  0  0  0  0  0  0  0
  150.9387  134.3689  156.4527 H   0  0  0  0  0  0  0  0  0  0  0  0
  151.1722  139.0576  155.2050 H   0  0  0  0  0  0  0  0  0  0  0  0
  150.5257  138.4271  156.6992 H   0  0  0  0  0  0  0  0  0  0  0  0
  1  2  1  0  0  0  0
  1 23  1  0  0  0  0
  1 24  1  0  0  0  0
  1 25  1  0  0  0  0
  2  3  1  0  0  0  0
  2  4  1  0  0  0  0
  2 26  1  0  0  0  0
  3 27  1  0  0  0  0
  3 28  1  0  0  0  0
  3 29  1  0  0  0  0
  4  5  1  0  0  0  0
  4 30  1  0  0  0  0
  5  6  2  0  0  0  0
  5  7  1  0  0  0  0
  7 22  1  0  0  0  0
  7  8  1  0  0  0  0
  7 31  1  0  0  0  0
  8  9  1  0  0  0  0
  8 32  1  0  0  0  0
  8 33  1  0  0  0  0
  9 10  1  0  0  0  0
  9 34  1  0  0  0  0
  9 35  1  0  0  0  0
 10 11  1  0  0  0  0
 10 36  1  0  0  0  0
 10 37  1  0  0  0  0
 11 12  1  0  0  0  0
 11 22  1  0  0  0  0
 11 38  1  0  0  0  0
 12 13  1  0  0  0  0
 12 39  1  0  0  0  0
 13 14  2  0  0  0  0
 13 15  1  0  0  0  0
 15 16  1  0  0  0  0
 15 40  1  0  0  0  0
 16 21  1  0  0  0  0
 16 17  2  0  0  0  0
 17 18  1  0  0  0  0
 17 41  1  0  0  0  0
 18 19  2  0  0  0  0
 18 42  1  0  0  0  0
 19 20  1  0  0  0  0
 19 43  1  0  0  0  0
 20 21  2  0  0  0  0
 21 44  1  0  0  0  0
 22 45  1  0  0  0  0
 22 46  1  0  0  0  0
M  END
> <s_m_source_file>
AV-unprocessed.smi

> <i_m_source_file_index>
2678

> <i_lp_mmshare_version>
43012

> <i_f3d_flags>
0

> <s_epik_input>
W0NIM11bQ0hdKFtDSDNdKVtOSF1DKD1PKVtDQEBIXTFbQ0gyXVtDSDJdW0NIMl1bQ0BIXShbQ0gyXTEpW05IXUMoPU8pW05IXWMyW2NIXVtjSF1bY0hdbltjSF0y

> <s_epik_cmdline>
J2VwaWtfcHl0aG9uJywgJy1waCcsICc3LjAnLCAnLXRuJywgJzgnLCAnLW1hJywgJzIwMCcsICctbWV0YWxfYmluZGluZycsICctaW1hZScsICc8aW5maWxlLm1hZT4nLCAnLW9tYWUnLCAnPG91dGZpbGUubWFlPic=

> <r_epik_Ionization_Penalty>
0.00482944

> <r_epik_Ionization_Penalty_Charging>
0

> <r_epik_Ionization_Penalty_Neutral>
0.00482944

> <r_epik_State_Penalty>
0.00347168

> <r_epik_Charging_Adjusted_Penalty>
0.00347168

> <i_epik_Tot_Q>
0

> <i_epik_Tot_abs_Q>
0

> <r_epik_Metal_State_Penalty>
-0

> <b_epik_Metal_Only>
0

> <s_lp_Force_Field>
OPLS_2005

> <r_lp_Energy>
23.8457

> <b_lp_Chiralities_Consistent>
1

> <s_lp_Variant>
AV-unprocessed.smi:2678-2

> <Gold.Version>
5.8.1

> <Gold.Id.Protein>
6NUR|6NUR_protein|mol2

> <Gold.PLP.Fitness>
46.4546

> <Gold.PLP.PLP>
-38.7523

> <Gold.PLP.part.hbond>
-3.0000

> <Gold.PLP.part.metal>
0.0000

> <Gold.PLP.part.buried>
-2.4597

> <Gold.PLP.part.nonpolar>
-33.5510

> <Gold.PLP.part.repulsive>
0.1049

> <Gold.PLP.ligand.clash>
0.0000

> <Gold.PLP.ligand.torsion>
0.6098

> <Gold.PLP.Chemscore.Hbond>
2.9672

> <Gold.PLP.Chemscore.CHOScore>
0.0000

> <Gold.PLP.Chemscore.Metal>
0.0000

> <Gold.Chemscore.Hbonds>
donor molecule, donor type, donor heavy atom, donor atom, acceptor molecule, acceptor atom, score
      L1  H    12    39       P1  7948  0.98
      L1  H    15    40       P1  7948  0.90
      P1  H  7997  8009       L1     6  1.00

> <Gold.PLP.Chemscore.Internal.Correction>
0.0202

> <Gold.Rescore>
     Score         DG    S(hbond)    S(metal)    S(lipo)     H(rot)  DE(clash)    DE(int)     intcor
     18.89     -20.83       2.54        0.00      90.49       1.46       0.01       1.93       ----

> <Gold.Chemscore.Fitness>
18.8916

> <Gold.Chemscore.DG>
-20.8279

> <Gold.Chemscore.ZeroCoef>
-5.4800

> <Gold.Chemscore.Hbond>
2.5446

> <Gold.Chemscore.Metal>
0.0000

> <Gold.Chemscore.Lipo>
90.4881

> <Gold.Chemscore.Internal_Hbond>
0.0000

> <Gold.Chemscore.DEClash>
0.0077

> <Gold.Chemscore.DEInternal>
1.9286

> <Gold.Chemscore.Rot>
1.4603

> <Gold.Chemscore.Internal.Correction>
   9.000000E+99

> <Gold.Chemscore.Hbonds>
donor molecule, donor type, donor heavy atom, donor atom, acceptor molecule, acceptor atom, score
      L1  H    12    39       P1  7948  0.87
      L1  H    15    40       P1  7948  0.18
      P1  H  7997  8009       L1     6  0.96

> <Gold.Chemscore.Hbond.Weighted>
-8.4991

> <Gold.Chemscore.Metal.Weighted>
-0.0000

> <Gold.Chemscore.Lipo.Weighted>
-10.5871

> <Gold.Chemscore.Internal_Hbond.Weighted>
0.0000

> <Gold.Chemscore.DEClash.Weighted>
0.0077

> <Gold.Chemscore.DEInternal.Weighted>
1.9286

> <Gold.Chemscore.Rot.Weighted>
3.7383

> <Gold.Chemscore.Internal.Correction.Weighted>
   9.000000E+99

> <Gold.Protein.RotatedTorsions>
[ 6907 6896 6895 6894 ] final   17.54 input  -60.11 | X-H torsion
[ 7974 7965 7964 7962 ] final  129.03 input  175.53 | X-H torsion
[ 8008 7997 7996 7995 ] final -179.15 input   59.86 | X-H torsion
[ 10167 10162 10161 10158 ] final   93.05 input  -65.29 | X-H torsion
[ 10718 10713 10712 10709 ] final   -7.56 input   66.30 | X-H torsion
[ 10763 10752 10751 10750 ] final   19.76 input  -60.55 | X-H torsion
[ 11005 11000 10999 10996 ] final -126.97 input  -57.11 | X-H torsion

> <Gold.Protein.ActiveResidues>
 VAL166  LYS551  ARG553  GLY616  TRP617  ASP618  TYR619  PRO620  LYS621  CYS622 
 ASP623  PHE694  ASN695  SER759  ASP760  ASP761  ALA762  ILE779  LEU786  VAL792 
 PHE793  MET794  SER795  GLU796  ALA797  LYS798  CYS799  TRP800  GLU811  SER814 

> <Gold.Protein.RotatedAtoms>
  151.8512  135.0557  160.0458 H   0  0  0  0  0  0  0  0  0  0  0  0  # atno 6907 bound_to 6896
  152.2735  133.5399  159.5462 H   0  0  0  0  0  0  0  0  0  0  0  0  # atno 6908 bound_to 6896
  150.7161  134.0581  159.3864 H   0  0  0  0  0  0  0  0  0  0  0  0  # atno 6909 bound_to 6896
  145.0331  139.4029  143.5140 H   0  0  0  0  0  0  0  0  0  0  0  0  # atno 7974 bound_to 7965
  156.0271  140.1274  157.0297 H   0  0  0  0  0  0  0  0  0  0  0  0  # atno 8008 bound_to 7997
  154.4335  140.1057  156.6117 H   0  0  0  0  0  0  0  0  0  0  0  0  # atno 8009 bound_to 7997
  155.5861  140.3468  155.4555 H   0  0  0  0  0  0  0  0  0  0  0  0  # atno 8010 bound_to 7997
  139.8217  144.6728  150.9510 H   0  0  0  0  0  0  0  0  0  0  0  0  # atno 10167 bound_to 10162
  156.7154  130.5134  149.5881 H   0  0  0  0  0  0  0  0  0  0  0  0  # atno 10718 bound_to 10713
  153.1134  135.6702  153.9460 H   0  0  0  0  0  0  0  0  0  0  0  0  # atno 10763 bound_to 10752
  153.8996  135.3037  155.3450 H   0  0  0  0  0  0  0  0  0  0  0  0  # atno 10764 bound_to 10752
  154.7552  135.5015  153.9440 H   0  0  0  0  0  0  0  0  0  0  0  0  # atno 10765 bound_to 10752
  140.9638  134.0900  157.3941 H   0  0  0  0  0  0  0  0  0  0  0  0  # atno 11005 bound_to 11000
  146.3501  139.9891  142.8687 LP  0  0  0  0  0  0  0  0  0  0  0  0  # atno 17320 bound_to 7965
  145.1745  140.9737  143.4302 LP  0  0  0  0  0  0  0  0  0  0  0  0  # atno 17321 bound_to 7965
  140.7813  143.4085  151.1031 LP  0  0  0  0  0  0  0  0  0  0  0  0  # atno 17342 bound_to 10162
  139.7745  143.8445  152.3127 LP  0  0  0  0  0  0  0  0  0  0  0  0  # atno 17343 bound_to 10162
  156.1632  130.6388  151.0745 LP  0  0  0  0  0  0  0  0  0  0  0  0  # atno 17370 bound_to 10713
  157.6919  131.0807  150.7081 LP  0  0  0  0  0  0  0  0  0  0  0  0  # atno 17371 bound_to 10713
  139.8887  135.0100  156.6637 LP  0  0  0  0  0  0  0  0  0  0  0  0  # atno 17394 bound_to 11000
  140.7429  133.8962  155.8291 LP  0  0  0  0  0  0  0  0  0  0  0  0  # atno 17395 bound_to 11000

$$$$
