AV-unprocessed.smi:405|AV-procd|sdf|2498|dock4
  -GOLD-   2262022443D 1   1.00000     0.00000
 Structure written by MMmdl.
 46 47  0  0  0  0  0  0  0  0  1 V2000
  152.3797  143.1682  160.5129 C   0  0  0  0  0  0  0  0  0  0  0  0
  151.7488  144.1594  159.5122 C   0  0  0  0  0  0  0  0  0  0  0  0
  151.3849  145.4507  160.2703 C   0  0  0  0  0  0  0  0  0  0  0  0
  152.7843  144.5121  158.4231 C   0  0  0  0  0  0  0  0  0  0  0  0
  150.4432  143.5776  158.8991 C   0  0  0  0  0  0  0  0  0  0  0  0
  150.6177  142.3383  158.0106 C   0  0  0  0  0  0  0  0  0  0  0  0
  150.9473  141.2603  158.5046 O   0  0  0  0  0  0  0  0  0  0  0  0
  150.4251  142.5167  156.6952 N   0  0  0  0  0  0  0  0  0  0  0  0
  150.6005  141.4908  155.6733 C   0  0  0  0  0  0  0  0  0  0  0  0
  149.3071  141.1108  154.9598 C   0  0  0  0  0  0  0  0  0  0  0  0
  148.4154  142.1256  154.5522 C   0  0  0  0  0  0  0  0  0  0  0  0
  147.2250  141.7706  153.8921 C   0  0  0  0  0  0  0  0  0  0  0  0
  146.9706  140.4060  153.6634 C   0  0  0  0  0  0  0  0  0  0  0  0
  147.8124  139.4233  154.0451 N   0  0  0  0  0  0  0  0  0  0  0  0
  148.9601  139.7630  154.6810 C   0  0  0  0  0  0  0  0  0  0  0  0
  149.8130  138.7181  155.0697 N   0  0  0  0  0  0  0  0  0  0  0  0
  149.2114  137.3976  154.9372 C   0  0  0  0  0  0  0  0  0  0  0  0
  150.1423  136.3374  155.5491 C   0  0  0  0  0  0  0  0  0  0  0  0
  151.4263  136.4168  154.9350 O   0  0  0  0  0  0  0  0  0  0  0  0
  152.0359  137.6914  155.1236 C   0  0  0  0  0  0  0  0  0  0  0  0
  151.1517  138.7843  154.4991 C   0  0  0  0  0  0  0  0  0  0  0  0
  153.2499  143.6039  161.0049 H   0  0  0  0  0  0  0  0  0  0  0  0
  152.7132  142.2523  160.0241 H   0  0  0  0  0  0  0  0  0  0  0  0
  151.6706  142.8862  161.2919 H   0  0  0  0  0  0  0  0  0  0  0  0
  150.6681  145.2550  161.0686 H   0  0  0  0  0  0  0  0  0  0  0  0
  150.9395  146.1903  159.6039 H   0  0  0  0  0  0  0  0  0  0  0  0
  152.2637  145.9085  160.7260 H   0  0  0  0  0  0  0  0  0  0  0  0
  153.6479  145.0237  158.8495 H   0  0  0  0  0  0  0  0  0  0  0  0
  152.3548  145.1692  157.6661 H   0  0  0  0  0  0  0  0  0  0  0  0
  153.1622  143.6246  157.9154 H   0  0  0  0  0  0  0  0  0  0  0  0
  149.7368  143.3396  159.6963 H   0  0  0  0  0  0  0  0  0  0  0  0
  149.9520  144.3428  158.2962 H   0  0  0  0  0  0  0  0  0  0  0  0
  150.1600  143.4368  156.3751 H   0  0  0  0  0  0  0  0  0  0  0  0
  151.3505  141.8183  154.9516 H   0  0  0  0  0  0  0  0  0  0  0  0
  151.0080  140.5993  156.1505 H   0  0  0  0  0  0  0  0  0  0  0  0
  148.6371  143.1652  154.7445 H   0  0  0  0  0  0  0  0  0  0  0  0
  146.5238  142.5259  153.5697 H   0  0  0  0  0  0  0  0  0  0  0  0
  146.0672  140.0947  153.1601 H   0  0  0  0  0  0  0  0  0  0  0  0
  148.2413  137.3781  155.4351 H   0  0  0  0  0  0  0  0  0  0  0  0
  149.0375  137.1765  153.8831 H   0  0  0  0  0  0  0  0  0  0  0  0
  150.2337  136.4771  156.6274 H   0  0  0  0  0  0  0  0  0  0  0  0
  149.7321  135.3402  155.3899 H   0  0  0  0  0  0  0  0  0  0  0  0
  152.1899  137.8779  156.1876 H   0  0  0  0  0  0  0  0  0  0  0  0
  153.0197  137.6894  154.6545 H   0  0  0  0  0  0  0  0  0  0  0  0
  151.1012  138.6472  153.4181 H   0  0  0  0  0  0  0  0  0  0  0  0
  151.5836  139.7689  154.6819 H   0  0  0  0  0  0  0  0  0  0  0  0
  1  2  1  0  0  0  0
  1 22  1  0  0  0  0
  1 23  1  0  0  0  0
  1 24  1  0  0  0  0
  2  3  1  0  0  0  0
  2  4  1  0  0  0  0
  2  5  1  0  0  0  0
  3 25  1  0  0  0  0
  3 26  1  0  0  0  0
  3 27  1  0  0  0  0
  4 28  1  0  0  0  0
  4 29  1  0  0  0  0
  4 30  1  0  0  0  0
  5  6  1  0  0  0  0
  5 31  1  0  0  0  0
  5 32  1  0  0  0  0
  6  7  2  0  0  0  0
  6  8  1  0  0  0  0
  8  9  1  0  0  0  0
  8 33  1  0  0  0  0
  9 10  1  0  0  0  0
  9 34  1  0  0  0  0
  9 35  1  0  0  0  0
 10 15  1  0  0  0  0
 10 11  2  0  0  0  0
 11 12  1  0  0  0  0
 11 36  1  0  0  0  0
 12 13  2  0  0  0  0
 12 37  1  0  0  0  0
 13 14  1  0  0  0  0
 13 38  1  0  0  0  0
 14 15  2  0  0  0  0
 15 16  1  0  0  0  0
 16 21  1  0  0  0  0
 16 17  1  0  0  0  0
 17 18  1  0  0  0  0
 17 39  1  0  0  0  0
 17 40  1  0  0  0  0
 18 19  1  0  0  0  0
 18 41  1  0  0  0  0
 18 42  1  0  0  0  0
 19 20  1  0  0  0  0
 20 21  1  0  0  0  0
 20 43  1  0  0  0  0
 20 44  1  0  0  0  0
 21 45  1  0  0  0  0
 21 46  1  0  0  0  0
M  END
> <s_m_source_file>
AV-unprocessed.smi

> <i_m_source_file_index>
405

> <i_lp_mmshare_version>
43012

> <i_f3d_flags>
0

> <s_epik_input>
W0NIM11DKFtDSDNdKShbQ0gzXSlbQ0gyXUMoPU8pW05IXVtDSDJdYzFbY0hdW2NIXVtjSF1uYzFOMltDSDJdW0NIMl1PW0NIMl1bQ0gyXTI=

> <s_epik_cmdline>
J2VwaWtfcHl0aG9uJywgJy1waCcsICc3LjAnLCAnLXRuJywgJzgnLCAnLW1hJywgJzIwMCcsICctbWV0YWxfYmluZGluZycsICctaW1hZScsICc8aW5maWxlLm1hZT4nLCAnLW9tYWUnLCAnPG91dGZpbGUubWFlPic=

> <r_lp_tautomer_probability>
1

> <r_epik_Ionization_Penalty>
0.00557636

> <r_epik_Ionization_Penalty_Charging>
0

> <r_epik_Ionization_Penalty_Neutral>
0.00557636

> <r_epik_State_Penalty>
0.00408419

> <r_epik_Charging_Adjusted_Penalty>
0.00408419

> <i_epik_Tot_Q>
0

> <i_epik_Tot_abs_Q>
0

> <r_epik_Metal_State_Penalty>
-0

> <b_epik_Metal_Only>
0

> <s_lp_Force_Field>
OPLS_2005

> <r_lp_Energy>
19.7271

> <b_lp_Chiralities_Consistent>
1

> <s_lp_Variant>
AV-unprocessed.smi:405-1

> <Gold.Version>
5.8.1

> <Gold.Id.Protein>
6NUR|6NUR_protein|mol2

> <Gold.PLP.Fitness>
52.2792

> <Gold.PLP.PLP>
-44.0033

> <Gold.PLP.part.hbond>
-2.0000

> <Gold.PLP.part.metal>
0.0000

> <Gold.PLP.part.buried>
-3.2598

> <Gold.PLP.part.nonpolar>
-38.7192

> <Gold.PLP.part.repulsive>
0.4469

> <Gold.PLP.ligand.clash>
0.0000

> <Gold.PLP.ligand.torsion>
0.4418

> <Gold.PLP.Chemscore.Hbond>
2.0000

> <Gold.PLP.Chemscore.CHOScore>
1.0000

> <Gold.PLP.Chemscore.Metal>
0.0000

> <Gold.Chemscore.Hbonds>
donor molecule, donor type, donor heavy atom, donor atom, acceptor molecule, acceptor atom, score
      L1  H     8    33       P1  8028  1.00
      P1  H 10752 10764       L1    19  0.70
      L1  C    13    38       P1 10175  1.00

> <Gold.PLP.Chemscore.Internal.Correction>
0.1596

> <Gold.Rescore>
     Score         DG    S(hbond)    S(metal)    S(lipo)     H(rot)  DE(clash)    DE(int)     intcor
     19.83     -20.72       1.82        0.00     113.59       1.62       0.13       0.75       ----

> <Gold.Chemscore.Fitness>
19.8326

> <Gold.Chemscore.DG>
-20.7168

> <Gold.Chemscore.ZeroCoef>
-5.4800

> <Gold.Chemscore.Hbond>
1.8217

> <Gold.Chemscore.Metal>
0.0000

> <Gold.Chemscore.Lipo>
113.5938

> <Gold.Chemscore.Internal_Hbond>
0.0000

> <Gold.Chemscore.DEClash>
0.1327

> <Gold.Chemscore.DEInternal>
0.7515

> <Gold.Chemscore.Rot>
1.6164

> <Gold.Chemscore.Internal.Correction>
   9.000000E+99

> <Gold.Chemscore.Hbonds>
donor molecule, donor type, donor heavy atom, donor atom, acceptor molecule, acceptor atom, score
      L1  H     8    33       P1  8028  0.97
      P1  H 10752 10764       L1    19  0.07

> <Gold.Chemscore.Hbond.Weighted>
-6.0845

> <Gold.Chemscore.Metal.Weighted>
-0.0000

> <Gold.Chemscore.Lipo.Weighted>
-13.2905

> <Gold.Chemscore.Internal_Hbond.Weighted>
0.0000

> <Gold.Chemscore.DEClash.Weighted>
0.1327

> <Gold.Chemscore.DEInternal.Weighted>
0.7515

> <Gold.Chemscore.Rot.Weighted>
4.1381

> <Gold.Chemscore.Internal.Correction.Weighted>
   9.000000E+99

> <Gold.Protein.RotatedTorsions>
[ 6907 6896 6895 6894 ] final   94.77 input  -60.11 | X-H torsion
[ 7974 7965 7964 7962 ] final  -38.86 input  175.53 | X-H torsion
[ 8008 7997 7996 7995 ] final   50.39 input   59.86 | X-H torsion
[ 10167 10162 10161 10158 ] final   27.10 input  -65.29 | X-H torsion
[ 10718 10713 10712 10709 ] final  130.65 input   66.30 | X-H torsion
[ 10763 10752 10751 10750 ] final  -47.92 input  -60.55 | X-H torsion
[ 11005 11000 10999 10996 ] final   26.57 input  -57.11 | X-H torsion

> <Gold.Protein.ActiveResidues>
 VAL166  LYS551  ARG553  GLY616  TRP617  ASP618  TYR619  PRO620  LYS621  CYS622 
 ASP623  PHE694  ASN695  SER759  ASP760  ASP761  ALA762  ILE779  LEU786  VAL792 
 PHE793  MET794  SER795  GLU796  ALA797  LYS798  CYS799  TRP800  GLU811  SER814 

> <Gold.Protein.RotatedAtoms>
  152.5448  134.1142  159.8370 H   0  0  0  0  0  0  0  0  0  0  0  0  # atno 6907 bound_to 6896
  151.1205  133.5100  159.2609 H   0  0  0  0  0  0  0  0  0  0  0  0  # atno 6908 bound_to 6896
  151.1784  135.0359  159.8836 H   0  0  0  0  0  0  0  0  0  0  0  0  # atno 6909 bound_to 6896
  146.0449  140.6560  142.9069 H   0  0  0  0  0  0  0  0  0  0  0  0  # atno 7974 bound_to 7965
  155.4180  140.3445  155.4269 H   0  0  0  0  0  0  0  0  0  0  0  0  # atno 8008 bound_to 7997
  156.1410  140.1542  156.8952 H   0  0  0  0  0  0  0  0  0  0  0  0  # atno 8009 bound_to 7997
  154.4971  140.0825  156.7700 H   0  0  0  0  0  0  0  0  0  0  0  0  # atno 8010 bound_to 7997
  140.4967  144.0380  150.6317 H   0  0  0  0  0  0  0  0  0  0  0  0  # atno 10167 bound_to 10162
  157.5041  131.1095  150.9385 H   0  0  0  0  0  0  0  0  0  0  0  0  # atno 10718 bound_to 10713
  154.0693  135.6607  153.4822 H   0  0  0  0  0  0  0  0  0  0  0  0  # atno 10763 bound_to 10752
  153.0397  135.5153  154.7582 H   0  0  0  0  0  0  0  0  0  0  0  0  # atno 10764 bound_to 10752
  154.6643  135.3019  154.9793 H   0  0  0  0  0  0  0  0  0  0  0  0  # atno 10765 bound_to 10752
  140.3356  134.2390  155.7696 H   0  0  0  0  0  0  0  0  0  0  0  0  # atno 11005 bound_to 11000
  144.7093  140.3975  143.7093 LP  0  0  0  0  0  0  0  0  0  0  0  0  # atno 17320 bound_to 7965
  145.6823  139.1621  143.2694 LP  0  0  0  0  0  0  0  0  0  0  0  0  # atno 17321 bound_to 7965
  140.3665  143.2878  152.0326 LP  0  0  0  0  0  0  0  0  0  0  0  0  # atno 17342 bound_to 10162
  139.4863  144.6263  151.7158 LP  0  0  0  0  0  0  0  0  0  0  0  0  # atno 17343 bound_to 10162
  157.0046  130.5613  149.5315 LP  0  0  0  0  0  0  0  0  0  0  0  0  # atno 17370 bound_to 10713
  156.0247  130.5342  150.8375 LP  0  0  0  0  0  0  0  0  0  0  0  0  # atno 17371 bound_to 10713
  141.2052  133.7866  157.0245 LP  0  0  0  0  0  0  0  0  0  0  0  0  # atno 17394 bound_to 11000
  140.0824  134.9640  157.1646 LP  0  0  0  0  0  0  0  0  0  0  0  0  # atno 17395 bound_to 11000

$$$$
