#       Name:                AV-unprocessed.smi:1056
#       Creating user name   scv26
#       Creation time:       Fri Mar 27 03:14:51 2020


#       File generated by GOLD software.
#

@<TRIPOS>MOLECULE
AV-unprocessed.smi:1056
    50    52     1
SMALL
NO_CHARGES


@<TRIPOS>ATOM
      1 ****        -3.4065   3.6911  -2.0274 C.3            1 S1                 0.0000
      2 ****        -2.9362   2.5729  -1.1138 C.ar           1 S1                 0.0000
      3 ****        -2.8739   2.8040   0.2787 C.ar           1 S1                 0.0000
      4 ****        -2.4425   1.7911   1.1625 C.ar           1 S1                 0.0000
      5 ****        -2.3057   1.7993   2.5398 N.2            1 S1                 0.0000
      6 ****        -1.8624   0.5676   2.7725 C.2            1 S1                 0.0000
      7 ****        -1.6881  -0.2375   1.7064 N.pl3          1 S1                 0.0000
      8 ****        -1.2071  -1.6098   1.7153 C.3            1 S1                 0.0000
      9 ****         0.3331  -1.7269   1.7119 C.3            1 S1                 0.0000
     10 ****         0.8341  -1.2047   2.9280 O.3            1 S1                 0.0000
     11 ****         0.9978  -0.9806   0.5330 C.3            1 S1                 0.0000
     12 ****         2.4562  -1.2399   0.4236 N.4            1 S1                 1.0000
     13 ****         3.1668  -0.1756  -0.3318 C.3            1 S1                 0.0000
     14 ****         4.6909  -0.3180  -0.1565 C.3            1 S1                 0.0000
     15 ****         5.1012  -1.7104  -0.3715 N.pl3          1 S1                -1.0000
     16 ****         4.3076  -2.8198  -0.2507 C.2            1 S1                 0.0000
     17 ****         4.6988  -3.9840  -0.2907 O.2            1 S1                 0.0000
     18 ****         2.7783  -2.5983  -0.1019 C.3            1 S1                 0.0000
     19 ****        -2.0694   0.5307   0.6109 C.ar           1 S1                 0.0000
     20 ****        -2.1286   0.2882  -0.7731 C.ar           1 S1                 0.0000
     21 ****        -2.5629   1.3110  -1.6419 C.ar           1 S1                 0.0000
     22 ****        -2.6230   1.0393  -3.1347 C.3            1 S1                 0.0000
     23 ****        -3.6908   4.5771  -1.4588 H              1 S1                 0.0000
     24 ****        -4.2742   3.3742  -2.6063 H              1 S1                 0.0000
     25 ****        -2.6138   3.9774  -2.7189 H              1 S1                 0.0000
     26 ****        -3.1590   3.7650   0.6814 H              1 S1                 0.0000
     27 ****        -1.6442   0.2312   3.7757 H              1 S1                 0.0000
     28 ****        -1.6232  -2.1158   2.5878 H              1 S1                 0.0000
     29 ****        -1.6176  -2.1216   0.8441 H              1 S1                 0.0000
     30 ****         0.5774  -2.7877   1.6812 H              1 S1                 0.0000
     31 ****         1.7534  -1.4132   2.9962 H              1 S1                 0.0000
     32 ****         0.5200  -1.2549  -0.4084 H              1 S1                 0.0000
     33 ****         0.8302   0.0902   0.6582 H              1 S1                 0.0000
     34 ****         2.8940  -0.2335  -1.3870 H              1 S1                 0.0000
     35 ****         2.8640   0.8115   0.0198 H              1 S1                 0.0000
     36 ****         5.1981   0.3667  -0.8357 H              1 S1                 0.0000
     37 ****         4.9563   0.0099   0.8488 H              1 S1                 0.0000
     38 ****         2.3833  -3.3674   0.5610 H              1 S1                 0.0000
     39 ****         2.3121  -2.7408  -1.0780 H              1 S1                 0.0000
     40 ****        -1.8418  -0.6768  -1.1634 H              1 S1                 0.0000
     41 ****        -2.2797   0.0316  -3.3704 H              1 S1                 0.0000
     42 ****        -1.9920   1.7433  -3.6774 H              1 S1                 0.0000
     43 ****        -3.6457   1.1381  -3.4994 H              1 S1                 0.0000
     44 ****         2.8328  -1.1944   1.3592 H              1 S1                 0.0000
     45 ****        -2.4913   2.5371   3.1888 LP             1 S1                 0.0000
     46 ****         0.3401  -1.6113   3.6965 LP             1 S1                 0.0000
     47 ****         0.7134  -0.2121   2.9419 LP             1 S1                 0.0000
     48 ****         6.0544  -1.8643  -0.6319 LP             1 S1                 0.0000
     49 ****         5.6706  -4.1807  -0.4208 LP             1 S1                 0.0000
     50 ****         4.0454  -4.7347  -0.1931 LP             1 S1                 0.0000
@<TRIPOS>BOND
    1    1    2 1     
    2    1   23 1     
    3    1   24 1     
    4    1   25 1     
    5    2   21 ar    
    6    2    3 ar    
    7    3    4 ar    
    8    3   26 1     
    9    4   19 ar    
   10    4    5 1     
   11    5    6 2     
   12    6    7 1     
   13    6   27 1     
   14    7    8 1     
   15    7   19 1     
   16    8    9 1     
   17    8   28 1     
   18    8   29 1     
   19    9   10 1     
   20    9   11 1     
   21    9   30 1     
   22   10   31 1     
   23   11   12 1     
   24   11   32 1     
   25   11   33 1     
   26   12   18 1     
   27   12   13 1     
   28   12   44 1     
   29   13   14 1     
   30   13   34 1     
   31   13   35 1     
   32   14   15 1     
   33   14   36 1     
   34   14   37 1     
   35   15   16 1     
   36   16   17 2     
   37   16   18 1     
   38   18   38 1     
   39   18   39 1     
   40   19   20 ar    
   41   20   21 ar    
   42   20   40 1     
   43   21   22 1     
   44   22   41 1     
   45   22   42 1     
   46   22   43 1     
   47    5   45 1     
   48   10   46 1     
   49   10   47 1     
   50   15   48 1     
   51   17   49 1     
   52   17   50 1     
@<TRIPOS>SUBSTRUCTURE
      1 S1             1
@<TRIPOS>SET
LONE_PAIRS      STATIC     ATOMS    <user>   **** ""
6 45 46 47 48 49 50
DONOR_HYDROGENS      STATIC     ATOMS    <user>   **** ""
2 31 44
ATOM$BLUE        STATIC     ATOMS    COLORGROUP SYSTEM
6 45 46 47 48 49 50
ATOM$RED        STATIC     ATOMS    COLORGROUP SYSTEM
2 31 44
