AV-unprocessed.smi:392|AV-procd|sdf|2482|dock3
  -GOLD-   2262022423D 1   1.00000     0.00000
 Structure written by MMmdl.
 33 35  0  0  0  0  0  0  0  0  2 V2000
  152.8504  139.2849  156.8504 O   0  0  0  0  0  0  0  0  0  0  0  0
  151.7926  140.1564  157.1938 C   0  0  2  0  0  0  0  0  0  0  0  0
  151.2984  140.8394  155.9024 C   0  0  0  0  0  0  0  0  0  0  0  0
  150.4708  139.9524  155.0745 N   0  0  0  0  0  0  0  0  0  0  0  0
  150.7076  138.6823  154.6466 C   0  0  0  0  0  0  0  0  0  0  0  0
  149.6428  138.2991  153.8886 N   0  3  0  0  0  0  0  0  0  0  0  0
  148.7111  139.3383  153.8339 C   0  0  0  0  0  0  0  0  0  0  0  0
  147.4803  139.4277  153.1907 C   0  0  0  0  0  0  0  0  0  0  0  0
  146.7769  140.6417  153.3361 C   0  0  0  0  0  0  0  0  0  0  0  0
  147.2994  141.7073  154.0979 C   0  0  0  0  0  0  0  0  0  0  0  0
  148.5475  141.6050  154.7471 C   0  0  0  0  0  0  0  0  0  0  0  0
  149.2364  140.4026  154.5964 C   0  0  0  0  0  0  0  0  0  0  0  0
  152.1965  141.1681  158.2605 C   0  0  0  0  0  0  0  0  0  0  0  0
  151.9019  142.5397  158.0906 C   0  0  0  0  0  0  0  0  0  0  0  0
  152.2580  143.4731  159.0830 C   0  0  0  0  0  0  0  0  0  0  0  0
  152.9090  143.0421  160.2540 C   0  0  0  0  0  0  0  0  0  0  0  0
  153.2014  141.6768  160.4327 C   0  0  0  0  0  0  0  0  0  0  0  0
  152.8455  140.7410  159.4420 C   0  0  0  0  0  0  0  0  0  0  0  0
  153.1217  139.4291  159.6385 F   0  0  0  0  0  0  0  0  0  0  0  0
  152.6294  138.8486  156.0416 H   0  0  0  0  0  0  0  0  0  0  0  0
  151.0003  139.5210  157.5894 H   0  0  0  0  0  0  0  0  0  0  0  0
  150.7032  141.7227  156.1389 H   0  0  0  0  0  0  0  0  0  0  0  0
  152.1370  141.1842  155.2958 H   0  0  0  0  0  0  0  0  0  0  0  0
  151.5858  138.0904  154.8609 H   0  0  0  0  0  0  0  0  0  0  0  0
  147.0777  138.6135  152.6064 H   0  0  0  0  0  0  0  0  0  0  0  0
  145.8176  140.7584  152.8533 H   0  0  0  0  0  0  0  0  0  0  0  0
  146.7321  142.6225  154.1861 H   0  0  0  0  0  0  0  0  0  0  0  0
  148.9408  142.4264  155.3280 H   0  0  0  0  0  0  0  0  0  0  0  0
  151.3968  142.8816  157.1989 H   0  0  0  0  0  0  0  0  0  0  0  0
  152.0298  144.5200  158.9462 H   0  0  0  0  0  0  0  0  0  0  0  0
  153.1820  143.7580  161.0153 H   0  0  0  0  0  0  0  0  0  0  0  0
  153.6977  141.3457  161.3331 H   0  0  0  0  0  0  0  0  0  0  0  0
  149.5618  137.3951  153.4409 H   0  0  0  0  0  0  0  0  0  0  0  0
  1  2  1  0  0  0  0
  1 20  1  0  0  0  0
  2  3  1  0  0  0  0
  2 13  1  0  0  0  0
  2 21  1  0  0  0  0
  3  4  1  0  0  0  0
  3 22  1  0  0  0  0
  3 23  1  0  0  0  0
  4 12  1  0  0  0  0
  4  5  1  0  0  0  0
  5  6  2  0  0  0  0
  5 24  1  0  0  0  0
  6  7  1  0  0  0  0
  6 33  1  0  0  0  0
  7 12  2  0  0  0  0
  7  8  1  0  0  0  0
  8  9  2  0  0  0  0
  8 25  1  0  0  0  0
  9 10  1  0  0  0  0
  9 26  1  0  0  0  0
 10 11  2  0  0  0  0
 10 27  1  0  0  0  0
 11 12  1  0  0  0  0
 11 28  1  0  0  0  0
 13 18  1  0  0  0  0
 13 14  2  0  0  0  0
 14 15  1  0  0  0  0
 14 29  1  0  0  0  0
 15 16  2  0  0  0  0
 15 30  1  0  0  0  0
 16 17  1  0  0  0  0
 16 31  1  0  0  0  0
 17 18  2  0  0  0  0
 17 32  1  0  0  0  0
 18 19  1  0  0  0  0
M  CHG  1   6   1
M  END
> <s_m_source_file>
AV-unprocessed.smi

> <i_m_source_file_index>
392

> <i_lp_mmshare_version>
43012

> <i_f3d_flags>
0

> <s_epik_input>
RmMxW2NIXVtjSF1bY0hdW2NIXWMxW0NASF0oW09IXSlbQ0gyXW4oW2NIXW4yKWMoYzIzKVtjSF1bY0hdW2NIXVtjSF0z

> <s_epik_cmdline>
J2VwaWtfcHl0aG9uJywgJy1waCcsICc3LjAnLCAnLXRuJywgJzgnLCAnLW1hJywgJzIwMCcsICctbWV0YWxfYmluZGluZycsICctaW1hZScsICc8aW5maWxlLm1hZT4nLCAnLW9tYWUnLCAnPG91dGZpbGUubWFlPic=

> <r_epik_Ionization_Penalty>
1.3029

> <r_epik_Ionization_Penalty_Charging>
1.3029

> <r_epik_Ionization_Penalty_Neutral>
1.34362e-06

> <r_epik_State_Penalty>
1.377

> <r_epik_Charging_Adjusted_Penalty>
2.6799

> <i_epik_Tot_Q>
1

> <i_epik_Tot_abs_Q>
1

> <r_epik_Metal_State_Penalty>
5.40879

> <b_epik_Metal_Only>
0

> <s_lp_Force_Field>
OPLS_2005

> <r_lp_Energy>
17.8965

> <b_lp_Chiralities_Consistent>
1

> <s_lp_Variant>
AV-unprocessed.smi:392-3

> <Gold.Version>
5.8.1

> <Gold.Id.Protein>
6NUR|6NUR_protein|mol2

> <Gold.PLP.Fitness>
52.1578

> <Gold.PLP.PLP>
-44.0635

> <Gold.PLP.part.hbond>
-2.3275

> <Gold.PLP.part.metal>
0.0000

> <Gold.PLP.part.buried>
0.7031

> <Gold.PLP.part.nonpolar>
-41.7715

> <Gold.PLP.part.repulsive>
0.0464

> <Gold.PLP.ligand.clash>
0.0000

> <Gold.PLP.ligand.torsion>
0.4608

> <Gold.PLP.Chemscore.Hbond>
3.0000

> <Gold.PLP.Chemscore.CHOScore>
0.0000

> <Gold.PLP.Chemscore.Metal>
0.0000

> <Gold.Chemscore.Hbonds>
donor molecule, donor type, donor heavy atom, donor atom, acceptor molecule, acceptor atom, score
      L1  H     6    33       P1  7948  2.00
      P1  H  7997  8010       L1     1  1.00

> <Gold.PLP.Chemscore.Internal.Correction>
0.0159

> <Gold.Rescore>
     Score         DG    S(hbond)    S(metal)    S(lipo)     H(rot)  DE(clash)    DE(int)     intcor
     17.28     -19.43       1.75        0.00     112.37       1.97       0.62       1.54       ----

> <Gold.Chemscore.Fitness>
17.2787

> <Gold.Chemscore.DG>
-19.4349

> <Gold.Chemscore.ZeroCoef>
-5.4800

> <Gold.Chemscore.Hbond>
1.7500

> <Gold.Chemscore.Metal>
0.0000

> <Gold.Chemscore.Lipo>
112.3680

> <Gold.Chemscore.Internal_Hbond>
0.0000

> <Gold.Chemscore.DEClash>
0.6187

> <Gold.Chemscore.DEInternal>
1.5375

> <Gold.Chemscore.Rot>
1.9677

> <Gold.Chemscore.Internal.Correction>
   9.000000E+99

> <Gold.Chemscore.Hbonds>
donor molecule, donor type, donor heavy atom, donor atom, acceptor molecule, acceptor atom, score
      L1  H     6    33       P1  7948  0.79
      P1  H  7997  8010       L1     1  0.66

> <Gold.Chemscore.Hbond.Weighted>
-5.8450

> <Gold.Chemscore.Metal.Weighted>
-0.0000

> <Gold.Chemscore.Lipo.Weighted>
-13.1471

> <Gold.Chemscore.Internal_Hbond.Weighted>
0.0000

> <Gold.Chemscore.DEClash.Weighted>
0.6187

> <Gold.Chemscore.DEInternal.Weighted>
1.5375

> <Gold.Chemscore.Rot.Weighted>
5.0372

> <Gold.Chemscore.Internal.Correction.Weighted>
   9.000000E+99

> <Gold.Protein.RotatedTorsions>
[ 6907 6896 6895 6894 ] final  125.27 input  -60.11 | X-H torsion
[ 7974 7965 7964 7962 ] final -109.40 input  175.53 | X-H torsion
[ 8008 7997 7996 7995 ] final   54.94 input   59.86 | X-H torsion
[ 10167 10162 10161 10158 ] final   62.02 input  -65.29 | X-H torsion
[ 10718 10713 10712 10709 ] final  132.88 input   66.30 | X-H torsion
[ 10763 10752 10751 10750 ] final -111.92 input  -60.55 | X-H torsion
[ 11005 11000 10999 10996 ] final -119.99 input  -57.11 | X-H torsion

> <Gold.Protein.ActiveResidues>
 VAL166  LYS551  ARG553  GLY616  TRP617  ASP618  TYR619  PRO620  LYS621  CYS622 
 ASP623  PHE694  ASN695  SER759  ASP760  ASP761  ALA762  ILE779  LEU786  VAL792 
 PHE793  MET794  SER795  GLU796  ALA797  LYS798  CYS799  TRP800  GLU811  SER814 

> <Gold.Protein.RotatedAtoms>
  152.4007  133.6813  159.6313 H   0  0  0  0  0  0  0  0  0  0  0  0  # atno 6907 bound_to 6896
  150.7898  133.8796  159.3291 H   0  0  0  0  0  0  0  0  0  0  0  0  # atno 6908 bound_to 6896
  151.6563  135.0997  160.0222 H   0  0  0  0  0  0  0  0  0  0  0  0  # atno 6909 bound_to 6896
  145.1810  140.8971  143.3480 H   0  0  0  0  0  0  0  0  0  0  0  0  # atno 7974 bound_to 7965
  155.4929  140.3472  155.4358 H   0  0  0  0  0  0  0  0  0  0  0  0  # atno 8008 bound_to 7997
  156.0965  140.1424  156.9552 H   0  0  0  0  0  0  0  0  0  0  0  0  # atno 8009 bound_to 7997
  154.4666  140.0915  156.7015 H   0  0  0  0  0  0  0  0  0  0  0  0  # atno 8010 bound_to 7997
  140.1484  144.4486  150.6772 H   0  0  0  0  0  0  0  0  0  0  0  0  # atno 10167 bound_to 10162
  157.4828  131.1086  150.9660 H   0  0  0  0  0  0  0  0  0  0  0  0  # atno 10718 bound_to 10713
  154.8324  135.4509  154.1114 H   0  0  0  0  0  0  0  0  0  0  0  0  # atno 10763 bound_to 10752
  153.2375  135.6912  153.7826 H   0  0  0  0  0  0  0  0  0  0  0  0  # atno 10764 bound_to 10752
  153.7186  135.3345  155.3238 H   0  0  0  0  0  0  0  0  0  0  0  0  # atno 10765 bound_to 10752
  141.0176  134.0172  157.3328 H   0  0  0  0  0  0  0  0  0  0  0  0  # atno 11005 bound_to 11000
  145.0136  139.3487  143.6107 LP  0  0  0  0  0  0  0  0  0  0  0  0  # atno 17320 bound_to 7965
  146.3453  139.9408  142.8741 LP  0  0  0  0  0  0  0  0  0  0  0  0  # atno 17321 bound_to 7965
  140.6718  143.2288  151.5607 LP  0  0  0  0  0  0  0  0  0  0  0  0  # atno 17342 bound_to 10162
  139.5438  144.2577  152.1402 LP  0  0  0  0  0  0  0  0  0  0  0  0  # atno 17343 bound_to 10162
  157.0387  130.5740  149.5353 LP  0  0  0  0  0  0  0  0  0  0  0  0  # atno 17370 bound_to 10713
  156.0130  130.5223  150.8049 LP  0  0  0  0  0  0  0  0  0  0  0  0  # atno 17371 bound_to 10713
  139.9126  135.0192  156.7754 LP  0  0  0  0  0  0  0  0  0  0  0  0  # atno 17394 bound_to 11000
  140.6628  133.9630  155.7814 LP  0  0  0  0  0  0  0  0  0  0  0  0  # atno 17395 bound_to 11000

$$$$
