AV-unprocessed.smi:3165|AV-procd|sdf|12088|dock6
  -GOLD-   2272017523D 1   1.00000     0.00000
 Structure written by MMmdl.
 38 39  0  0  0  0  0  0  0  0  2 V2000
  147.0866  141.7356  155.7149 C   0  0  0  0  0  0  0  0  0  0  0  0
  148.5908  141.4330  155.6920 C   0  0  1  0  0  0  0  0  0  0  0  0
  149.1265  141.4272  154.2447 C   0  0  0  0  0  0  0  0  0  0  0  0
  150.3046  140.5944  154.0833 N   0  0  0  0  0  0  0  0  0  0  0  0
  150.4970  139.5387  153.2173 C   0  0  0  0  0  0  0  0  0  0  0  0
  151.7534  139.0536  153.4426 C   0  0  0  0  0  0  0  0  0  0  0  0
  152.2600  139.8912  154.4753 C   0  0  0  0  0  0  0  0  0  0  0  0
  151.3908  140.8135  154.8558 N   0  0  0  0  0  0  0  0  0  0  0  0
  149.3076  142.4293  156.5202 N   0  3  0  0  0  0  0  0  0  0  0  0
  149.7390  141.9414  157.8470 C   0  0  0  0  0  0  0  0  0  0  0  0
  150.9986  142.6779  158.3220 C   0  0  1  0  0  0  0  0  0  0  0  0
  150.7016  144.1476  158.6777 C   0  0  0  0  0  0  0  0  0  0  0  0
  151.9496  144.8277  159.2521 C   0  0  0  0  0  0  0  0  0  0  0  0
  152.4968  143.9994  160.4190 C   0  0  0  0  0  0  0  0  0  0  0  0
  152.7017  142.5394  159.9863 C   0  0  0  0  0  0  0  0  0  0  0  0
  151.4793  142.0071  159.4855 O   0  0  0  0  0  0  0  0  0  0  0  0
  146.5290  141.0008  155.1333 H   0  0  0  0  0  0  0  0  0  0  0  0
  146.8720  142.7208  155.2990 H   0  0  0  0  0  0  0  0  0  0  0  0
  146.6964  141.7112  156.7329 H   0  0  0  0  0  0  0  0  0  0  0  0
  148.7280  140.4401  156.1242 H   0  0  0  0  0  0  0  0  0  0  0  0
  148.3598  141.0543  153.5642 H   0  0  0  0  0  0  0  0  0  0  0  0
  149.3609  142.4421  153.9184 H   0  0  0  0  0  0  0  0  0  0  0  0
  149.7316  139.2213  152.5242 H   0  0  0  0  0  0  0  0  0  0  0  0
  152.2376  138.2264  152.9449 H   0  0  0  0  0  0  0  0  0  0  0  0
  153.2260  139.8567  154.9570 H   0  0  0  0  0  0  0  0  0  0  0  0
  150.1234  142.7346  156.0078 H   0  0  0  0  0  0  0  0  0  0  0  0
  148.9219  142.0971  158.5524 H   0  0  0  0  0  0  0  0  0  0  0  0
  149.9315  140.8687  157.8142 H   0  0  0  0  0  0  0  0  0  0  0  0
  151.7568  142.6389  157.5375 H   0  0  0  0  0  0  0  0  0  0  0  0
  150.3556  144.6888  157.7966 H   0  0  0  0  0  0  0  0  0  0  0  0
  149.8943  144.1935  159.4099 H   0  0  0  0  0  0  0  0  0  0  0  0
  152.7109  144.9178  158.4761 H   0  0  0  0  0  0  0  0  0  0  0  0
  151.7145  145.8401  159.5813 H   0  0  0  0  0  0  0  0  0  0  0  0
  153.4354  144.4239  160.7762 H   0  0  0  0  0  0  0  0  0  0  0  0
  151.7974  144.0364  161.2553 H   0  0  0  0  0  0  0  0  0  0  0  0
  153.4819  142.4639  159.2272 H   0  0  0  0  0  0  0  0  0  0  0  0
  153.0255  141.9384  160.8362 H   0  0  0  0  0  0  0  0  0  0  0  0
  148.7027  143.2253  156.6631 H   0  0  0  0  0  0  0  0  0  0  0  0
  1  2  1  0  0  0  0
  1 17  1  0  0  0  0
  1 18  1  0  0  0  0
  1 19  1  0  0  0  0
  2  3  1  0  0  0  0
  2  9  1  0  0  0  0
  2 20  1  0  0  0  0
  3  4  1  0  0  0  0
  3 21  1  0  0  0  0
  3 22  1  0  0  0  0
  4  8  1  0  0  0  0
  4  5  1  0  0  0  0
  5  6  2  0  0  0  0
  5 23  1  0  0  0  0
  6  7  1  0  0  0  0
  6 24  1  0  0  0  0
  7  8  2  0  0  0  0
  7 25  1  0  0  0  0
  9 10  1  0  0  0  0
  9 26  1  0  0  0  0
  9 38  1  0  0  0  0
 10 11  1  0  0  0  0
 10 27  1  0  0  0  0
 10 28  1  0  0  0  0
 11 16  1  0  0  0  0
 11 12  1  0  0  0  0
 11 29  1  0  0  0  0
 12 13  1  0  0  0  0
 12 30  1  0  0  0  0
 12 31  1  0  0  0  0
 13 14  1  0  0  0  0
 13 32  1  0  0  0  0
 13 33  1  0  0  0  0
 14 15  1  0  0  0  0
 14 34  1  0  0  0  0
 14 35  1  0  0  0  0
 15 16  1  0  0  0  0
 15 36  1  0  0  0  0
 15 37  1  0  0  0  0
M  CHG  1   9   1
M  END
> <s_m_source_file>
AV-unprocessed.smi

> <i_m_source_file_index>
3165

> <i_lp_mmshare_version>
43012

> <i_f3d_flags>
0

> <s_epik_input>
bjFbY0hdW2NIXVtjSF1uMVtDSDJdW0NAQEhdKFtDSDNdKVtOSF1bQ0gyXVtDQEBIXTJbQ0gyXVtDSDJdW0NIMl1bQ0gyXU8y

> <s_epik_cmdline>
J2VwaWtfcHl0aG9uJywgJy1waCcsICc3LjAnLCAnLXRuJywgJzgnLCAnLW1hJywgJzIwMCcsICctbWV0YWxfYmluZGluZycsICctaW1hZScsICc8aW5maWxlLm1hZT4nLCAnLW9tYWUnLCAnPG91dGZpbGUubWFlPic=

> <r_lp_tautomer_probability>
1

> <r_epik_Ionization_Penalty>
0.00849196

> <r_epik_Ionization_Penalty_Charging>
0.00848754

> <r_epik_Ionization_Penalty_Neutral>
4.42049e-06

> <r_epik_State_Penalty>
0.00639836

> <r_epik_Charging_Adjusted_Penalty>
0.0148859

> <i_epik_Tot_Q>
1

> <i_epik_Tot_abs_Q>
1

> <r_epik_Metal_State_Penalty>
0.00639878

> <b_epik_Metal_Only>
0

> <s_lp_Force_Field>
OPLS_2005

> <r_lp_Energy>
13.0452

> <b_lp_Chiralities_Consistent>
1

> <s_lp_Variant>
AV-unprocessed.smi:3165-4

> <Gold.Version>
5.8.1

> <Gold.Id.Protein>
6NUR|6NUR_protein|mol2

> <Gold.PLP.Fitness>
46.6216

> <Gold.PLP.PLP>
-38.4182

> <Gold.PLP.part.hbond>
-2.8337

> <Gold.PLP.part.metal>
0.0000

> <Gold.PLP.part.buried>
-1.2454

> <Gold.PLP.part.nonpolar>
-33.3871

> <Gold.PLP.part.repulsive>
0.0916

> <Gold.PLP.ligand.clash>
0.0000

> <Gold.PLP.ligand.torsion>
1.1579

> <Gold.PLP.Chemscore.Hbond>
2.0000

> <Gold.PLP.Chemscore.CHOScore>
1.4903

> <Gold.PLP.Chemscore.Metal>
0.0000

> <Gold.Chemscore.Hbonds>
donor molecule, donor type, donor heavy atom, donor atom, acceptor molecule, acceptor atom, score
      L1  H     9    38       P1  8028  0.86

> <Gold.PLP.Chemscore.Internal.Correction>
0.0484

> <Gold.Rescore>
     Score         DG    S(hbond)    S(metal)    S(lipo)     H(rot)  DE(clash)    DE(int)     intcor
     15.18     -16.86       0.98        0.00     105.32       1.64       0.10       1.58       ----

> <Gold.Chemscore.Fitness>
15.1816

> <Gold.Chemscore.DG>
-16.8617

> <Gold.Chemscore.ZeroCoef>
-5.4800

> <Gold.Chemscore.Hbond>
0.9789

> <Gold.Chemscore.Metal>
0.0000

> <Gold.Chemscore.Lipo>
105.3151

> <Gold.Chemscore.Internal_Hbond>
0.0000

> <Gold.Chemscore.DEClash>
0.1040

> <Gold.Chemscore.DEInternal>
1.5761

> <Gold.Chemscore.Rot>
1.6444

> <Gold.Chemscore.Internal.Correction>
   9.000000E+99

> <Gold.Chemscore.Hbonds>
donor molecule, donor type, donor heavy atom, donor atom, acceptor molecule, acceptor atom, score
      L1  H     9    38       P1  8028  0.35

> <Gold.Chemscore.Hbond.Weighted>
-3.2695

> <Gold.Chemscore.Metal.Weighted>
-0.0000

> <Gold.Chemscore.Lipo.Weighted>
-12.3219

> <Gold.Chemscore.Internal_Hbond.Weighted>
0.0000

> <Gold.Chemscore.DEClash.Weighted>
0.1040

> <Gold.Chemscore.DEInternal.Weighted>
1.5761

> <Gold.Chemscore.Rot.Weighted>
4.2097

> <Gold.Chemscore.Internal.Correction.Weighted>
   9.000000E+99

> <Gold.Protein.RotatedTorsions>
[ 6907 6896 6895 6894 ] final  138.06 input  -60.11 | X-H torsion
[ 7974 7965 7964 7962 ] final  174.29 input  175.53 | X-H torsion
[ 8008 7997 7996 7995 ] final -104.76 input   59.86 | X-H torsion
[ 10167 10162 10161 10158 ] final   92.22 input  -65.29 | X-H torsion
[ 10718 10713 10712 10709 ] final  178.09 input   66.30 | X-H torsion
[ 10763 10752 10751 10750 ] final   14.47 input  -60.55 | X-H torsion
[ 11005 11000 10999 10996 ] final -160.70 input  -57.11 | X-H torsion

> <Gold.Protein.ActiveResidues>
 VAL166  LYS551  ARG553  GLY616  TRP617  ASP618  TYR619  PRO620  LYS621  CYS622 
 ASP623  PHE694  ASN695  SER759  ASP760  ASP761  ALA762  ILE779  LEU786  VAL792 
 PHE793  MET794  SER795  GLU796  ALA797  LYS798  CYS799  TRP800  GLU811  SER814 

> <Gold.Protein.RotatedAtoms>
  152.2710  133.5382  159.5438 H   0  0  0  0  0  0  0  0  0  0  0  0  # atno 6907 bound_to 6896
  150.7159  134.0698  159.3869 H   0  0  0  0  0  0  0  0  0  0  0  0  # atno 6908 bound_to 6896
  151.8613  135.0523  160.0520 H   0  0  0  0  0  0  0  0  0  0  0  0  # atno 6909 bound_to 6896
  144.7225  139.9775  143.6438 H   0  0  0  0  0  0  0  0  0  0  0  0  # atno 7974 bound_to 7965
  154.8900  140.0416  157.1833 H   0  0  0  0  0  0  0  0  0  0  0  0  # atno 8008 bound_to 7997
  154.8551  140.2935  155.5553 H   0  0  0  0  0  0  0  0  0  0  0  0  # atno 8009 bound_to 7997
  156.2997  140.2457  156.3516 H   0  0  0  0  0  0  0  0  0  0  0  0  # atno 8010 bound_to 7997
  139.8297  144.6693  150.9415 H   0  0  0  0  0  0  0  0  0  0  0  0  # atno 10167 bound_to 10162
  156.8957  130.9862  151.3043 H   0  0  0  0  0  0  0  0  0  0  0  0  # atno 10718 bound_to 10713
  153.1619  135.6797  153.8730 H   0  0  0  0  0  0  0  0  0  0  0  0  # atno 10763 bound_to 10752
  153.8123  135.3141  155.3403 H   0  0  0  0  0  0  0  0  0  0  0  0  # atno 10764 bound_to 10752
  154.7938  135.4819  154.0203 H   0  0  0  0  0  0  0  0  0  0  0  0  # atno 10765 bound_to 10752
  140.6286  134.4675  157.5228 H   0  0  0  0  0  0  0  0  0  0  0  0  # atno 11005 bound_to 11000
  146.0514  139.3515  143.0637 LP  0  0  0  0  0  0  0  0  0  0  0  0  # atno 17320 bound_to 7965
  145.8210  140.9679  143.0899 LP  0  0  0  0  0  0  0  0  0  0  0  0  # atno 17321 bound_to 7965
  140.7807  143.4012  151.1146 LP  0  0  0  0  0  0  0  0  0  0  0  0  # atno 17342 bound_to 10162
  139.7667  143.8555  152.3112 LP  0  0  0  0  0  0  0  0  0  0  0  0  # atno 17343 bound_to 10162
  157.6057  130.8545  149.8871 LP  0  0  0  0  0  0  0  0  0  0  0  0  # atno 17370 bound_to 10713
  156.0607  130.3700  150.0989 LP  0  0  0  0  0  0  0  0  0  0  0  0  # atno 17371 bound_to 10713
  139.9125  134.8315  156.1480 LP  0  0  0  0  0  0  0  0  0  0  0  0  # atno 17394 bound_to 11000
  141.0691  133.6805  156.2104 LP  0  0  0  0  0  0  0  0  0  0  0  0  # atno 17395 bound_to 11000

$$$$
