#       Name:                AV-unprocessed.smi:859
#       Creating user name   scv26
#       Creation time:       Fri Mar 27 01:43:41 2020


#       File generated by GOLD software.
#

@<TRIPOS>MOLECULE
AV-unprocessed.smi:859
    38    39     1
SMALL
NO_CHARGES


@<TRIPOS>ATOM
      1 ****         0.8039   1.3457   0.3239 O.2            1 S1                 0.0000
      2 ****         0.4205   0.3003   0.8501 C.2            1 S1                 0.0000
      3 ****         1.2587  -0.6446   1.3052 N.am           1 S1                 0.0000
      4 ****         2.7155  -0.5939   1.2201 C.3            1 S1                 0.0000
      5 ****         3.2468  -1.2899  -0.0474 C.3            1 S1                 0.0000
      6 ****         2.8969  -0.5735  -1.2783 N.pl3          1 S1                 0.0000
      7 ****         3.4628   0.5806  -1.7563 C.2            1 S1                 0.0000
      8 ****         2.8043   0.8857  -2.9196 C.2            1 S1                 0.0000
      9 ****         1.8686  -0.0965  -3.1049 N.pl3          1 S1                 1.0000
     10 ****         1.9298  -0.9856  -2.1086 C.2            1 S1                 0.0000
     11 ****        -1.0789   0.0084   0.9864 C.3            1 S1                 0.0000
     12 ****        -1.7468  -0.0853  -0.4024 C.3            1 S1                 0.0000
     13 ****        -3.2515  -0.3750  -0.2791 C.3            1 S1                 0.0000
     14 ****        -3.9521   0.6797   0.5921 C.3            1 S1                 0.0000
     15 ****        -3.2865   0.7944   1.9729 C.3            1 S1                 0.0000
     16 ****        -1.7813   1.0814   1.8451 C.3            1 S1                 0.0000
     17 ****         0.8560  -1.4682   1.7292 H              1 S1                 0.0000
     18 ****         3.0775   0.4341   1.2778 H              1 S1                 0.0000
     19 ****         3.1114  -1.1030   2.0988 H              1 S1                 0.0000
     20 ****         4.3347  -1.3540  -0.0091 H              1 S1                 0.0000
     21 ****         2.8721  -2.3124  -0.1159 H              1 S1                 0.0000
     22 ****         4.2647   1.0902  -1.2418 H              1 S1                 0.0000
     23 ****         2.9261   1.7077  -3.6102 H              1 S1                 0.0000
     24 ****         1.3096  -1.8564  -1.9915 H              1 S1                 0.0000
     25 ****        -1.1966  -0.9553   1.4858 H              1 S1                 0.0000
     26 ****        -1.6057   0.8473  -0.9514 H              1 S1                 0.0000
     27 ****        -1.2724  -0.8675  -0.9967 H              1 S1                 0.0000
     28 ****        -3.7077  -0.4012  -1.2692 H              1 S1                 0.0000
     29 ****        -3.3985  -1.3646   0.1553 H              1 S1                 0.0000
     30 ****        -3.9199   1.6477   0.0902 H              1 S1                 0.0000
     31 ****        -5.0062   0.4261   0.7073 H              1 S1                 0.0000
     32 ****        -3.7672   1.5829   2.5528 H              1 S1                 0.0000
     33 ****        -3.4358  -0.1319   2.5289 H              1 S1                 0.0000
     34 ****        -1.3332   1.1216   2.8388 H              1 S1                 0.0000
     35 ****        -1.6413   2.0695   1.4036 H              1 S1                 0.0000
     36 ****         1.2202  -0.1431  -3.8808 H              1 S1                 0.0000
     37 ****         1.7825   1.5229   0.2188 LP             1 S1                 0.0000
     38 ****         0.1367   2.0172   0.0017 LP             1 S1                 0.0000
@<TRIPOS>BOND
    1    1    2 2     
    2    2    3 am    
    3    2   11 1     
    4    3    4 1     
    5    3   17 1     
    6    4    5 1     
    7    4   18 1     
    8    4   19 1     
    9    5    6 1     
   10    5   20 1     
   11    5   21 1     
   12    6   10 1     
   13    6    7 1     
   14    7    8 2     
   15    7   22 1     
   16    8    9 1     
   17    8   23 1     
   18    9   10 2     
   19    9   36 1     
   20   10   24 1     
   21   11   16 1     
   22   11   12 1     
   23   11   25 1     
   24   12   13 1     
   25   12   26 1     
   26   12   27 1     
   27   13   14 1     
   28   13   28 1     
   29   13   29 1     
   30   14   15 1     
   31   14   30 1     
   32   14   31 1     
   33   15   16 1     
   34   15   32 1     
   35   15   33 1     
   36   16   34 1     
   37   16   35 1     
   38    1   37 1     
   39    1   38 1     
@<TRIPOS>SUBSTRUCTURE
      1 S1             1
@<TRIPOS>SET
LONE_PAIRS      STATIC     ATOMS    <user>   **** ""
2 37 38
DONOR_HYDROGENS      STATIC     ATOMS    <user>   **** ""
2 17 36
ATOM$BLUE        STATIC     ATOMS    COLORGROUP SYSTEM
2 37 38
ATOM$RED        STATIC     ATOMS    COLORGROUP SYSTEM
2 17 36
