#       Name:                AV-unprocessed.smi:992
#       Creating user name   scv26
#       Creation time:       Fri Mar 27 02:23:36 2020


#       File generated by GOLD software.
#

@<TRIPOS>MOLECULE
AV-unprocessed.smi:992
    36    37     1
SMALL
NO_CHARGES


@<TRIPOS>ATOM
      1 ****        -2.9432  -1.6770   1.9110 C.3            1 S1                 0.0000
      2 ****        -2.3186  -0.9634   0.7074 C.3            1 S1                 0.0000
      3 ****        -0.7796  -0.9491   0.7770 C.3            1 S1                 0.0000
      4 ****        -0.2356  -0.1809  -0.3355 N.3            1 S1                 0.0000
      5 ****         1.1639  -0.2224  -0.4085 C.ar           1 S1                 0.0000
      6 ****         1.7730  -0.8615  -1.5093 C.ar           1 S1                 0.0000
      7 ****         3.1791  -0.9015  -1.5766 C.ar           1 S1                 0.0000
      8 ****         3.9247  -0.3026  -0.5423 C.ar           1 S1                 0.0000
      9 ****         5.3185  -0.3172  -0.5652 N.pl3          1 S1                 0.0000
     10 ****         3.2259   0.3119   0.5166 C.ar           1 S1                 0.0000
     11 ****         1.8784   0.3546   0.5879 N.ar           1 S1                 0.0000
     12 ****        -0.7830   1.1684  -0.3967 C.3            1 S1                 0.0000
     13 ****        -2.3217   1.1123  -0.4454 C.3            1 S1                 0.0000
     14 ****        -2.9509   2.5093  -0.4155 C.3            1 S1                 0.0000
     15 ****        -2.7967   0.3803   0.6830 O.3            1 S1                 0.0000
     16 ****        -2.6135  -2.7149   1.9651 H              1 S1                 0.0000
     17 ****        -4.0313  -1.6774   1.8430 H              1 S1                 0.0000
     18 ****        -2.6676  -1.1890   2.8462 H              1 S1                 0.0000
     19 ****        -2.6400  -1.4726  -0.2031 H              1 S1                 0.0000
     20 ****        -0.4530  -0.5100   1.7211 H              1 S1                 0.0000
     21 ****        -0.3922  -1.9683   0.7441 H              1 S1                 0.0000
     22 ****         1.1759  -1.3129  -2.2882 H              1 S1                 0.0000
     23 ****         3.6721  -1.3839  -2.4080 H              1 S1                 0.0000
     24 ****         5.8293  -0.7546  -1.3189 H              1 S1                 0.0000
     25 ****         5.8641   0.1043   0.1729 H              1 S1                 0.0000
     26 ****         3.7594   0.7824   1.3298 H              1 S1                 0.0000
     27 ****        -0.4584   1.7374   0.4760 H              1 S1                 0.0000
     28 ****        -0.3971   1.6815  -1.2784 H              1 S1                 0.0000
     29 ****        -2.6419   0.6073  -1.3585 H              1 S1                 0.0000
     30 ****        -2.6239   3.1042  -1.2684 H              1 S1                 0.0000
     31 ****        -2.6763   3.0468   0.4928 H              1 S1                 0.0000
     32 ****        -4.0388   2.4481  -0.4507 H              1 S1                 0.0000
     33 ****        -0.5457  -0.6400  -1.1681 LP             1 S1                 0.0000
     34 ****         1.4193   0.8006   1.3562 LP             1 S1                 0.0000
     35 ****        -2.4931   0.8433   1.5157 LP             1 S1                 0.0000
     36 ****        -3.7962   0.3640   0.6562 LP             1 S1                 0.0000
@<TRIPOS>BOND
    1    1    2 1     
    2    1   16 1     
    3    1   17 1     
    4    1   18 1     
    5    2   15 1     
    6    2    3 1     
    7    2   19 1     
    8    3    4 1     
    9    3   20 1     
   10    3   21 1     
   11    4    5 1     
   12    4   12 1     
   13    5   11 ar    
   14    5    6 ar    
   15    6    7 ar    
   16    6   22 1     
   17    7    8 ar    
   18    7   23 1     
   19    8    9 1     
   20    8   10 ar    
   21    9   24 1     
   22    9   25 1     
   23   10   11 ar    
   24   10   26 1     
   25   12   13 1     
   26   12   27 1     
   27   12   28 1     
   28   13   14 1     
   29   13   15 1     
   30   13   29 1     
   31   14   30 1     
   32   14   31 1     
   33   14   32 1     
   34    4   33 1     
   35   11   34 1     
   36   15   35 1     
   37   15   36 1     
@<TRIPOS>SUBSTRUCTURE
      1 S1             1
@<TRIPOS>SET
LONE_PAIRS      STATIC     ATOMS    <user>   **** ""
4 33 34 35 36
DONOR_HYDROGENS      STATIC     ATOMS    <user>   **** ""
2 24 25
ATOM$BLUE        STATIC     ATOMS    COLORGROUP SYSTEM
4 33 34 35 36
ATOM$RED        STATIC     ATOMS    COLORGROUP SYSTEM
2 24 25
