#       Name:                AV-unprocessed.smi:2703
#       Creating user name   scv26
#       Creation time:       Fri Mar 27 14:47:59 2020


#       File generated by GOLD software.
#

@<TRIPOS>MOLECULE
AV-unprocessed.smi:2703
    47    49     1
SMALL
NO_CHARGES


@<TRIPOS>ATOM
      1 ****        -2.9748   5.4024  -2.3918 C.3            1 S1                 0.0000
      2 ****        -2.4846   4.2699  -1.5069 C.ar           1 S1                 0.0000
      3 ****        -2.1912   4.5355  -0.1503 C.ar           1 S1                 0.0000
      4 ****        -1.7315   3.5106   0.7055 C.ar           1 S1                 0.0000
      5 ****        -1.3871   3.5464   2.0459 N.2            1 S1                 0.0000
      6 ****        -1.0377   2.2823   2.2662 C.2            1 S1                 0.0000
      7 ****        -1.1171   1.4298   1.2266 N.pl3          1 S1                 0.0000
      8 ****        -0.7895   0.0150   1.2323 C.3            1 S1                 0.0000
      9 ****         0.7169  -0.2431   1.0375 C.3            1 S1                 0.0000
     10 ****         1.1354   0.2897  -0.2051 O.3            1 S1                 0.0000
     11 ****         1.0533  -1.7426   1.0861 C.3            1 S1                 0.0000
     12 ****         2.8450  -2.0441   1.0485 S.3            1 S1                 0.0000
     13 ****         3.1152  -3.8003   1.0655 C.ar           1 S1                 0.0000
     14 ****         2.0509  -4.7235   1.1696 C.ar           1 S1                 0.0000
     15 ****         2.3222  -6.1005   1.1773 C.ar           1 S1                 0.0000
     16 ****         3.6543  -6.5290   1.0810 C.ar           1 S1                 0.0000
     17 ****         4.6835  -5.5737   0.9797 C.ar           1 S1                 0.0000
     18 ****         4.4186  -4.2310   0.9728 N.pl3          1 S1                 1.0000
     19 ****         5.3953  -3.3974   0.8784 O.2            1 S1                -1.0000
     20 ****        -1.5742   2.2014   0.1633 C.ar           1 S1                 0.0000
     21 ****        -1.8631   1.9249  -1.1847 C.ar           1 S1                 0.0000
     22 ****        -2.3191   2.9609  -2.0265 C.ar           1 S1                 0.0000
     23 ****        -2.6250   2.6527  -3.4815 C.3            1 S1                 0.0000
     24 ****        -3.0665   6.3339  -1.8324 H              1 S1                 0.0000
     25 ****        -3.9538   5.1654  -2.8090 H              1 S1                 0.0000
     26 ****        -2.2794   5.5728  -3.2138 H              1 S1                 0.0000
     27 ****        -2.3161   5.5326   0.2456 H              1 S1                 0.0000
     28 ****        -0.7033   1.9556   3.2402 H              1 S1                 0.0000
     29 ****        -1.1226  -0.4057   2.1821 H              1 S1                 0.0000
     30 ****        -1.3684  -0.4821   0.4529 H              1 S1                 0.0000
     31 ****         1.2689   0.2709   1.8258 H              1 S1                 0.0000
     32 ****         0.6791  -0.1631  -0.8975 H              1 S1                 0.0000
     33 ****         0.6572  -2.1777   2.0042 H              1 S1                 0.0000
     34 ****         0.5825  -2.2641   0.2519 H              1 S1                 0.0000
     35 ****         1.0271  -4.3925   1.2438 H              1 S1                 0.0000
     36 ****         1.5187  -6.8182   1.2556 H              1 S1                 0.0000
     37 ****         3.8896  -7.5832   1.0844 H              1 S1                 0.0000
     38 ****         5.7308  -5.8282   0.9022 H              1 S1                 0.0000
     39 ****        -1.7313   0.9241  -1.5679 H              1 S1                 0.0000
     40 ****        -2.4280   1.6065  -3.7167 H              1 S1                 0.0000
     41 ****        -2.0078   3.2646  -4.1396 H              1 S1                 0.0000
     42 ****        -3.6734   2.8537  -3.7022 H              1 S1                 0.0000
     43 ****        -1.3981   4.3188   2.6809 LP             1 S1                 0.0000
     44 ****         2.1214   0.1611  -0.3115 LP             1 S1                 0.0000
     45 ****         0.9205   1.2656  -0.2424 LP             1 S1                 0.0000
     46 ****         5.2144  -2.4140   0.8714 LP             1 S1                 0.0000
     47 ****         6.3348  -3.7335   0.8122 LP             1 S1                 0.0000
@<TRIPOS>BOND
    1    1    2 1     
    2    1   24 1     
    3    1   25 1     
    4    1   26 1     
    5    2   22 ar    
    6    2    3 ar    
    7    3    4 ar    
    8    3   27 1     
    9    4   20 ar    
   10    4    5 1     
   11    5    6 2     
   12    6    7 1     
   13    6   28 1     
   14    7    8 1     
   15    7   20 1     
   16    8    9 1     
   17    8   29 1     
   18    8   30 1     
   19    9   10 1     
   20    9   11 1     
   21    9   31 1     
   22   10   32 1     
   23   11   12 1     
   24   11   33 1     
   25   11   34 1     
   26   12   13 1     
   27   13   18 ar    
   28   13   14 ar    
   29   14   15 ar    
   30   14   35 1     
   31   15   16 ar    
   32   15   36 1     
   33   16   17 ar    
   34   16   37 1     
   35   17   18 ar    
   36   17   38 1     
   37   18   19 1     
   38   20   21 ar    
   39   21   22 ar    
   40   21   39 1     
   41   22   23 1     
   42   23   40 1     
   43   23   41 1     
   44   23   42 1     
   45    5   43 1     
   46   10   44 1     
   47   10   45 1     
   48   19   46 1     
   49   19   47 1     
@<TRIPOS>SUBSTRUCTURE
      1 S1             1
@<TRIPOS>SET
LONE_PAIRS      STATIC     ATOMS    <user>   **** ""
5 43 44 45 46 47
DONOR_HYDROGENS      STATIC     ATOMS    <user>   **** ""
1 32
ATOM$BLUE        STATIC     ATOMS    COLORGROUP SYSTEM
5 43 44 45 46 47
ATOM$RED        STATIC     ATOMS    COLORGROUP SYSTEM
1 32
