AV-unprocessed.smi:54|AV-procd|sdf|557|dock1
  -GOLD-   2262016453D 1   1.00000     0.00000
 Structure written by MMmdl.
 43 45  0  0  0  0  0  0  0  0  2 V2000
  150.9941  144.5449  160.2234 C   0  0  0  0  0  0  0  0  0  0  0  0
  151.9921  143.7101  159.4035 C   0  0  0  0  0  0  0  0  0  0  0  0
  152.7835  144.5913  158.4231 C   0  0  0  0  0  0  0  0  0  0  0  0
  151.2710  142.5791  158.6567 C   0  0  0  0  0  0  0  0  0  0  0  0
  150.0628  142.4123  158.8414 O   0  0  0  0  0  0  0  0  0  0  0  0
  152.0493  141.8406  157.8338 N   0  0  0  0  0  0  0  0  0  0  0  0
  151.6994  140.7464  157.0341 C   0  0  0  0  0  0  0  0  0  0  0  0
  150.4894  140.6519  156.5292 N   0  0  0  0  0  0  0  0  0  0  0  0
  150.3195  139.5046  155.7795 C   0  0  0  0  0  0  0  0  0  0  0  0
  151.2374  138.5219  155.5312 C   0  0  0  0  0  0  0  0  0  0  0  0
  150.7029  137.5176  154.7335 N   0  0  0  0  0  0  0  0  0  0  0  0
  149.4594  137.9525  154.5356 C   0  0  0  0  0  0  0  0  0  0  0  0
  149.1557  139.1314  155.1180 N   0  0  0  0  0  0  0  0  0  0  0  0
  147.8568  139.8794  155.0826 C   0  0  2  0  0  0  0  0  0  0  0  0
  146.8257  138.9377  155.1223 O   0  0  0  0  0  0  0  0  0  0  0  0
  146.0071  139.0199  153.9554 C   0  0  2  0  0  0  0  0  0  0  0  0
  145.4878  137.6296  153.5493 C   0  0  0  0  0  0  0  0  0  0  0  0
  144.6775  137.7328  152.3981 O   0  0  0  0  0  0  0  0  0  0  0  0
  146.8709  139.7405  152.9090 C   0  0  2  0  0  0  0  0  0  0  0  0
  147.6803  138.8322  152.1806 O   0  0  0  0  0  0  0  0  0  0  0  0
  147.6870  140.6836  153.7810 C   0  0  2  0  0  0  0  0  0  0  0  0
  148.8853  141.1229  153.1654 O   0  0  0  0  0  0  0  0  0  0  0  0
  152.5808  138.6953  156.1324 C   0  0  0  0  0  0  0  0  0  0  0  0
  153.4399  137.8381  155.9351 O   0  0  0  0  0  0  0  0  0  0  0  0
  152.7505  139.8299  156.8765 N   0  5  0  0  0  0  0  0  0  0  0  0
  147.8696  140.4959  155.9820 H   0  0  0  0  0  0  0  0  0  0  0  0
  145.1668  139.6754  154.1916 H   0  0  0  0  0  0  0  0  0  0  0  0
  146.2568  140.2886  152.1936 H   0  0  0  0  0  0  0  0  0  0  0  0
  147.0792  141.5570  154.0206 H   0  0  0  0  0  0  0  0  0  0  0  0
  150.4229  143.9184  160.9097 H   0  0  0  0  0  0  0  0  0  0  0  0
  150.2843  145.0680  159.5811 H   0  0  0  0  0  0  0  0  0  0  0  0
  151.5126  145.2953  160.8206 H   0  0  0  0  0  0  0  0  0  0  0  0
  152.7037  143.2639  160.1005 H   0  0  0  0  0  0  0  0  0  0  0  0
  153.4874  143.9985  157.8376 H   0  0  0  0  0  0  0  0  0  0  0  0
  153.3593  145.3471  158.9575 H   0  0  0  0  0  0  0  0  0  0  0  0
  152.1238  145.1103  157.7264 H   0  0  0  0  0  0  0  0  0  0  0  0
  153.0147  142.1313  157.7844 H   0  0  0  0  0  0  0  0  0  0  0  0
  148.7486  137.3938  153.9454 H   0  0  0  0  0  0  0  0  0  0  0  0
  146.3225  136.9735  153.3011 H   0  0  0  0  0  0  0  0  0  0  0  0
  144.9325  137.1589  154.3609 H   0  0  0  0  0  0  0  0  0  0  0  0
  144.3112  138.6032  152.3656 H   0  0  0  0  0  0  0  0  0  0  0  0
  148.2613  139.3309  151.6263 H   0  0  0  0  0  0  0  0  0  0  0  0
  149.2009  140.4343  152.5998 H   0  0  0  0  0  0  0  0  0  0  0  0
  1  2  1  0  0  0  0
  1 30  1  0  0  0  0
  1 31  1  0  0  0  0
  1 32  1  0  0  0  0
  2  3  1  0  0  0  0
  2  4  1  0  0  0  0
  2 33  1  0  0  0  0
  3 34  1  0  0  0  0
  3 35  1  0  0  0  0
  3 36  1  0  0  0  0
  4  5  2  0  0  0  0
  4  6  1  0  0  0  0
  6 37  1  0  0  0  0
  6  7  1  0  0  0  0
  7 25  1  0  0  0  0
  7  8  2  0  0  0  0
  8  9  1  0  0  0  0
  9 13  1  0  0  0  0
  9 10  2  0  0  0  0
 10 11  1  0  0  0  0
 10 23  1  0  0  0  0
 11 12  2  0  0  0  0
 12 13  1  0  0  0  0
 12 38  1  0  0  0  0
 13 14  1  0  0  0  0
 14 26  1  0  0  0  0
 14 21  1  0  0  0  0
 14 15  1  0  0  0  0
 15 16  1  0  0  0  0
 16 27  1  0  0  0  0
 16 17  1  0  0  0  0
 16 19  1  0  0  0  0
 17 18  1  0  0  0  0
 17 39  1  0  0  0  0
 17 40  1  0  0  0  0
 18 41  1  0  0  0  0
 19 28  1  0  0  0  0
 19 20  1  0  0  0  0
 19 21  1  0  0  0  0
 20 42  1  0  0  0  0
 21 29  1  0  0  0  0
 21 22  1  0  0  0  0
 22 43  1  0  0  0  0
 23 24  2  0  0  0  0
 23 25  1  0  0  0  0
M  CHG  1  25  -1
M  END
> <s_m_source_file>
AV-unprocessed.smi

> <i_m_source_file_index>
54

> <i_lp_mmshare_version>
43012

> <i_f3d_flags>
0

> <s_epik_input>
W0NIM11bQ0hdKFtDSDNdKUMoPU8pW05IXWMobjEpW25IXWMoPU8pYyhjMTIpbltjSF1uMltDQEBIXTNPW0NASF0oW0NIMl1bT0hdKVtDQEBIXShbT0hdKVtDQEhdM1tPSF0=

> <s_epik_cmdline>
J2VwaWtfcHl0aG9uJywgJy1waCcsICc3LjAnLCAnLXRuJywgJzgnLCAnLW1hJywgJzIwMCcsICctbWV0YWxfYmluZGluZycsICctaW1hZScsICc8aW5maWxlLm1hZT4nLCAnLW9tYWUnLCAnPG91dGZpbGUubWFlPic=

> <r_lp_tautomer_probability>
0.85571

> <r_epik_Ionization_Penalty>
1.75936

> <r_epik_Ionization_Penalty_Charging>
4.55893e-11

> <r_epik_Ionization_Penalty_Neutral>
1.75936

> <r_epik_State_Penalty>
1.72072

> <r_epik_Charging_Adjusted_Penalty>
1.72072

> <i_epik_Tot_Q>
-1

> <i_epik_Tot_abs_Q>
1

> <r_epik_Metal_State_Penalty>
0.400338

> <b_epik_Metal_Only>
1

> <s_epik_Chemistry_Notes>
This compound contains an acetal/aminal-like group ( X-CH(R)-Y where X, Y are N, S, or O) that may be acid/base labile, releasing an aldehyde.

> <s_lp_Force_Field>
OPLS_2005

> <r_lp_Energy>
61.4874

> <b_lp_Chiralities_Consistent>
1

> <s_lp_Variant>
AV-unprocessed.smi:54-29

> <Gold.Version>
5.8.1

> <Gold.Id.Protein>
6NUR|6NUR_protein|mol2

> <Gold.PLP.Fitness>
55.0119

> <Gold.PLP.PLP>
-36.3917

> <Gold.PLP.part.hbond>
-8.6031

> <Gold.PLP.part.metal>
0.0000

> <Gold.PLP.part.buried>
-2.2278

> <Gold.PLP.part.nonpolar>
-25.9445

> <Gold.PLP.part.repulsive>
0.3851

> <Gold.PLP.ligand.clash>
0.0000

> <Gold.PLP.ligand.torsion>
0.8936

> <Gold.PLP.Chemscore.Hbond>
5.6280

> <Gold.PLP.Chemscore.CHOScore>
1.0000

> <Gold.PLP.Chemscore.Metal>
0.0000

> <Gold.Chemscore.Hbonds>
donor molecule, donor type, donor heavy atom, donor atom, acceptor molecule, acceptor atom, score
      L1  H    18    41       P1 10175  1.00
      L1  H    20    42       P1  7957  1.00
      L1  H    22    43       P1  7957  0.91
      P1  H  7997  8008       L1    25  2.00
      P1  H  8011  8017       L1    22  0.70
      L1  C    12    38       P1  7948  1.00

> <Gold.PLP.Chemscore.Internal.Correction>
0.5234

> <Gold.Rescore>
     Score         DG    S(hbond)    S(metal)    S(lipo)     H(rot)  DE(clash)    DE(int)     intcor
     13.54     -16.43       4.14        0.00      63.20       4.02       0.09       2.80       ----

> <Gold.Chemscore.Fitness>
13.5387

> <Gold.Chemscore.DG>
-16.4283

> <Gold.Chemscore.ZeroCoef>
-5.4800

> <Gold.Chemscore.Hbond>
4.1446

> <Gold.Chemscore.Metal>
0.0000

> <Gold.Chemscore.Lipo>
63.2018

> <Gold.Chemscore.Internal_Hbond>
0.0000

> <Gold.Chemscore.DEClash>
0.0876

> <Gold.Chemscore.DEInternal>
2.8020

> <Gold.Chemscore.Rot>
4.0192

> <Gold.Chemscore.Internal.Correction>
   9.000000E+99

> <Gold.Chemscore.Hbonds>
donor molecule, donor type, donor heavy atom, donor atom, acceptor molecule, acceptor atom, score
      L1  H    18    41       P1 10175  0.99
      L1  H    20    42       P1  7957  0.93
      L1  H    22    43       P1  7957  0.83
      P1  H  7997  8008       L1    25  0.26
      P1  H  8011  8017       L1    22  0.07
      P1  H 10752 10765       L1    24  0.01

> <Gold.Chemscore.Hbond.Weighted>
-13.8429

> <Gold.Chemscore.Metal.Weighted>
-0.0000

> <Gold.Chemscore.Lipo.Weighted>
-7.3946

> <Gold.Chemscore.Internal_Hbond.Weighted>
0.0000

> <Gold.Chemscore.DEClash.Weighted>
0.0876

> <Gold.Chemscore.DEInternal.Weighted>
2.8020

> <Gold.Chemscore.Rot.Weighted>
10.2893

> <Gold.Chemscore.Internal.Correction.Weighted>
   9.000000E+99

> <Gold.Protein.RotatedTorsions>
[ 6907 6896 6895 6894 ] final    7.93 input  -60.11 | X-H torsion
[ 7974 7965 7964 7962 ] final -114.37 input  175.53 | X-H torsion
[ 8008 7997 7996 7995 ] final  -61.18 input   59.86 | X-H torsion
[ 10167 10162 10161 10158 ] final  124.55 input  -65.29 | X-H torsion
[ 10718 10713 10712 10709 ] final  -45.81 input   66.30 | X-H torsion
[ 10763 10752 10751 10750 ] final -149.64 input  -60.55 | X-H torsion
[ 11005 11000 10999 10996 ] final  -25.06 input  -57.11 | X-H torsion

> <Gold.Protein.ActiveResidues>
 VAL166  LYS551  ARG553  GLY616  TRP617  ASP618  TYR619  PRO620  LYS621  CYS622 
 ASP623  PHE694  ASN695  SER759  ASP760  ASP761  ALA762  ILE779  LEU786  VAL792 
 PHE793  MET794  SER795  GLU796  ALA797  LYS798  CYS799  TRP800  GLU811  SER814 

> <Gold.Protein.RotatedAtoms>
  151.6979  135.0935  160.0245 H   0  0  0  0  0  0  0  0  0  0  0  0  # atno 6907 bound_to 6896
  152.3739  133.6450  159.6116 H   0  0  0  0  0  0  0  0  0  0  0  0  # atno 6908 bound_to 6896
  150.7694  133.9142  159.3420 H   0  0  0  0  0  0  0  0  0  0  0  0  # atno 6909 bound_to 6896
  145.1209  140.8668  143.3814 H   0  0  0  0  0  0  0  0  0  0  0  0  # atno 7974 bound_to 7965
  154.4435  140.1023  156.6391 H   0  0  0  0  0  0  0  0  0  0  0  0  # atno 8008 bound_to 7997
  155.5521  140.3486  155.4452 H   0  0  0  0  0  0  0  0  0  0  0  0  # atno 8009 bound_to 7997
  156.0521  140.1306  157.0027 H   0  0  0  0  0  0  0  0  0  0  0  0  # atno 8010 bound_to 7997
  139.5735  144.6951  151.3715 H   0  0  0  0  0  0  0  0  0  0  0  0  # atno 10167 bound_to 10162
  156.2246  130.4168  149.8950 H   0  0  0  0  0  0  0  0  0  0  0  0  # atno 10718 bound_to 10713
  154.8165  135.3304  154.7160 H   0  0  0  0  0  0  0  0  0  0  0  0  # atno 10763 bound_to 10752
  153.7800  135.6919  153.4894 H   0  0  0  0  0  0  0  0  0  0  0  0  # atno 10764 bound_to 10752
  153.1986  135.4524  155.0187 H   0  0  0  0  0  0  0  0  0  0  0  0  # atno 10765 bound_to 10752
  140.8903  133.7593  156.0412 H   0  0  0  0  0  0  0  0  0  0  0  0  # atno 11005 bound_to 11000
  145.0741  139.3009  143.5817 LP  0  0  0  0  0  0  0  0  0  0  0  0  # atno 17320 bound_to 7965
  146.3521  140.0226  142.8657 LP  0  0  0  0  0  0  0  0  0  0  0  0  # atno 17321 bound_to 7965
  140.7019  143.7611  150.7417 LP  0  0  0  0  0  0  0  0  0  0  0  0  # atno 17342 bound_to 10162
  140.1124  143.4687  152.2362 LP  0  0  0  0  0  0  0  0  0  0  0  0  # atno 17343 bound_to 10162
  156.6585  130.8772  151.3543 LP  0  0  0  0  0  0  0  0  0  0  0  0  # atno 17370 bound_to 10713
  157.7104  130.9434  150.1070 LP  0  0  0  0  0  0  0  0  0  0  0  0  # atno 17371 bound_to 10713
  140.8355  134.3128  157.5333 LP  0  0  0  0  0  0  0  0  0  0  0  0  # atno 17394 bound_to 11000
  139.8729  134.9387  156.3721 LP  0  0  0  0  0  0  0  0  0  0  0  0  # atno 17395 bound_to 11000

$$$$
