#       Name:                AV-unprocessed.smi:72
#       Creating user name   scv26
#       Creation time:       Thu Mar 26 17:06:11 2020


#       File generated by GOLD software.
#

@<TRIPOS>MOLECULE
AV-unprocessed.smi:72
    41    42     1
SMALL
NO_CHARGES


@<TRIPOS>ATOM
      1 ****        -4.0571   2.9990   1.8621 N.2            1 S1                 0.0000
      2 ****        -3.1318   2.4210   1.2297 C.2            1 S1                 0.0000
      3 ****        -1.9326   2.0051   1.9235 N.2            1 S1                 0.0000
      4 ****        -1.0114   1.4056   1.2338 C.2            1 S1                 0.0000
      5 ****        -1.1630   1.1467  -0.1927 N.am           1 S1                 0.0000
      6 ****        -0.0907   0.4407  -1.0076 C.3            1 S1                 0.0000
      7 ****         1.1409   0.5151  -0.3460 O.3            1 S1                 0.0000
      8 ****         1.5059  -0.7659   0.1547 C.3            1 S1                 0.0000
      9 ****         3.0222  -0.8482   0.4033 C.3            1 S1                 0.0000
     10 ****         3.3587  -2.0897   0.9855 O.3            1 S1                 0.0000
     11 ****         0.9124  -1.7371  -0.8732 C.3            1 S1                 0.0000
     12 ****         1.7548  -1.8670  -2.0036 O.3            1 S1                 0.0000
     13 ****        -0.3960  -1.0585  -1.2588 C.3            1 S1                 0.0000
     14 ****        -1.4517  -1.5726  -0.4647 O.3            1 S1                 0.0000
     15 ****        -2.3500   1.5711  -0.8478 C.2            1 S1                 0.0000
     16 ****        -2.4613   1.3394  -2.0520 O.2            1 S1                 0.0000
     17 ****        -3.3093   2.2077  -0.1192 N.pl3          1 S1                -1.0000
     18 ****         0.0047   1.0183  -1.9284 H              1 S1                 0.0000
     19 ****         0.9851  -0.9084   1.1030 H              1 S1                 0.0000
     20 ****         0.7619  -2.7323  -0.4524 H              1 S1                 0.0000
     21 ****        -0.6519  -1.2129  -2.3080 H              1 S1                 0.0000
     22 ****        -4.8405   3.2404   1.2731 H              1 S1                 0.0000
     23 ****        -0.0780   1.0640   1.6800 H              1 S1                 0.0000
     24 ****         3.5893  -0.7063  -0.5168 H              1 S1                 0.0000
     25 ****         3.3273  -0.0554   1.0868 H              1 S1                 0.0000
     26 ****         4.2889  -2.1000   1.1534 H              1 S1                 0.0000
     27 ****         2.5697  -2.2553  -1.7245 H              1 S1                 0.0000
     28 ****        -1.2911  -1.3383   0.4364 H              1 S1                 0.0000
     29 ****        -4.0189   3.1969   2.8416 LP             1 S1                 0.0000
     30 ****        -1.8173   2.1740   2.9024 LP             1 S1                 0.0000
     31 ****         1.0689   1.1594   0.4154 LP             1 S1                 0.0000
     32 ****         1.8413   0.8319  -0.9856 LP             1 S1                 0.0000
     33 ****         3.1209  -2.8317   0.3588 LP             1 S1                 0.0000
     34 ****         2.8596  -2.2059   1.8443 LP             1 S1                 0.0000
     35 ****         1.9285  -0.9659  -2.4008 LP             1 S1                 0.0000
     36 ****         1.3173  -2.4532  -2.6854 LP             1 S1                 0.0000
     37 ****        -1.4863  -2.5681  -0.5532 LP             1 S1                 0.0000
     38 ****        -2.3213  -1.1808  -0.7651 LP             1 S1                 0.0000
     39 ****        -1.7283   0.8653  -2.5398 LP             1 S1                 0.0000
     40 ****        -3.2847   1.6253  -2.5421 LP             1 S1                 0.0000
     41 ****        -4.1468   2.5217  -0.5663 LP             1 S1                 0.0000
@<TRIPOS>BOND
    1    1    2 2     
    2    1   22 1     
    3    2   17 1     
    4    2    3 1     
    5    3    4 2     
    6    4    5 1     
    7    4   23 1     
    8    5    6 1     
    9    5   15 am    
   10    6   18 1     
   11    6   13 1     
   12    6    7 1     
   13    7    8 1     
   14    8   19 1     
   15    8    9 1     
   16    8   11 1     
   17    9   10 1     
   18    9   24 1     
   19    9   25 1     
   20   10   26 1     
   21   11   20 1     
   22   11   12 1     
   23   11   13 1     
   24   12   27 1     
   25   13   21 1     
   26   13   14 1     
   27   14   28 1     
   28   15   16 2     
   29   15   17 1     
   30    1   29 1     
   31    3   30 1     
   32    7   31 1     
   33    7   32 1     
   34   10   33 1     
   35   10   34 1     
   36   12   35 1     
   37   12   36 1     
   38   14   37 1     
   39   14   38 1     
   40   16   39 1     
   41   16   40 1     
   42   17   41 1     
@<TRIPOS>SUBSTRUCTURE
      1 S1             1
@<TRIPOS>SET
LONE_PAIRS      STATIC     ATOMS    <user>   **** ""
13 29 30 31 32 33 34 35 36 37 38 39 40 41
DONOR_HYDROGENS      STATIC     ATOMS    <user>   **** ""
4 22 26 27 28
ATOM$BLUE        STATIC     ATOMS    COLORGROUP SYSTEM
13 29 30 31 32 33 34 35 36 37 38 39 40 41
ATOM$RED        STATIC     ATOMS    COLORGROUP SYSTEM
4 22 26 27 28
