AV-unprocessed.smi:438|AV-procd|sdf|2569|dock3
  -GOLD-   2262022543D 1   1.00000     0.00000
 Structure written by MMmdl.
 48 49  0  0  0  0  0  0  0  0  1 V2000
  148.7904  133.6408  157.8438 C   0  0  0  0  0  0  0  0  0  0  0  0
  148.8761  134.9784  158.5580 C   0  0  0  0  0  0  0  0  0  0  0  0
  149.3413  136.0180  157.7726 N   0  0  0  0  0  0  0  0  0  0  0  0
  149.4694  137.2791  158.3344 C   0  0  0  0  0  0  0  0  0  0  0  0
  150.1131  138.4485  157.1026 S   0  0  0  0  0  0  0  0  0  0  0  0
  149.8562  140.0380  157.9416 C   0  0  0  0  0  0  0  0  0  0  0  0
  151.0596  140.9634  157.7982 C   0  0  0  0  0  0  0  0  0  0  0  0
  151.4972  141.2423  156.6823 O   0  0  0  0  0  0  0  0  0  0  0  0
  151.5843  141.4297  158.9412 N   0  0  0  0  0  0  0  0  0  0  0  0
  152.7299  142.3319  159.0524 C   0  0  2  0  0  0  0  0  0  0  0  0
  153.6904  141.8659  160.1677 C   0  0  0  0  0  0  0  0  0  0  0  0
  153.0802  142.0421  161.5687 C   0  0  0  0  0  0  0  0  0  0  0  0
  152.6301  143.4926  161.7990 C   0  0  0  0  0  0  0  0  0  0  0  0
  151.6583  143.9586  160.7029 C   0  0  0  0  0  0  0  0  0  0  0  0
  152.2659  143.7898  159.2945 C   0  0  2  0  0  0  0  0  0  0  0  0
  151.3106  144.3020  158.2024 C   0  0  0  0  0  0  0  0  0  0  0  0
  149.1626  137.5523  159.5680 N   0  0  0  0  0  0  0  0  0  0  0  0
  148.6711  136.5437  160.4096 C   0  0  0  0  0  0  0  0  0  0  0  0
  148.3604  136.7995  161.5722 O   0  0  0  0  0  0  0  0  0  0  0  0
  148.5425  135.1783  159.8566 C   0  0  0  0  0  0  0  0  0  0  0  0
  148.0170  134.0702  160.7694 C   0  0  0  0  0  0  0  0  0  0  0  0
  146.8003  134.4976  161.6089 C   0  0  0  0  0  0  0  0  0  0  0  0
  146.7552  133.7851  162.8273 O   0  0  0  0  0  0  0  0  0  0  0  0
  149.3862  132.8914  158.3655 H   0  0  0  0  0  0  0  0  0  0  0  0
  149.1587  133.7062  156.8192 H   0  0  0  0  0  0  0  0  0  0  0  0
  147.7569  133.2956  157.8052 H   0  0  0  0  0  0  0  0  0  0  0  0
  149.6553  139.8587  158.9984 H   0  0  0  0  0  0  0  0  0  0  0  0
  148.9759  140.5303  157.5259 H   0  0  0  0  0  0  0  0  0  0  0  0
  151.1538  141.1405  159.8075 H   0  0  0  0  0  0  0  0  0  0  0  0
  153.2714  142.3089  158.1047 H   0  0  0  0  0  0  0  0  0  0  0  0
  153.9781  140.8251  160.0144 H   0  0  0  0  0  0  0  0  0  0  0  0
  154.6135  142.4437  160.1071 H   0  0  0  0  0  0  0  0  0  0  0  0
  152.2295  141.3701  161.6892 H   0  0  0  0  0  0  0  0  0  0  0  0
  153.8077  141.7548  162.3283 H   0  0  0  0  0  0  0  0  0  0  0  0
  152.1577  143.5840  162.7773 H   0  0  0  0  0  0  0  0  0  0  0  0
  153.5024  144.1469  161.8153 H   0  0  0  0  0  0  0  0  0  0  0  0
  150.7271  143.3953  160.7777 H   0  0  0  0  0  0  0  0  0  0  0  0
  151.3965  145.0037  160.8722 H   0  0  0  0  0  0  0  0  0  0  0  0
  153.1561  144.4192  159.2510 H   0  0  0  0  0  0  0  0  0  0  0  0
  150.3640  143.7608  158.2048 H   0  0  0  0  0  0  0  0  0  0  0  0
  151.7538  144.1939  157.2121 H   0  0  0  0  0  0  0  0  0  0  0  0
  151.0845  145.3587  158.3468 H   0  0  0  0  0  0  0  0  0  0  0  0
  149.5832  135.8179  156.8128 H   0  0  0  0  0  0  0  0  0  0  0  0
  148.8030  133.7092  161.4317 H   0  0  0  0  0  0  0  0  0  0  0  0
  147.7493  133.2101  160.1543 H   0  0  0  0  0  0  0  0  0  0  0  0
  146.8220  135.5668  161.8198 H   0  0  0  0  0  0  0  0  0  0  0  0
  145.8803  134.3009  161.0582 H   0  0  0  0  0  0  0  0  0  0  0  0
  145.9428  133.9898  163.2646 H   0  0  0  0  0  0  0  0  0  0  0  0
  1 24  1  0  0  0  0
  1 25  1  0  0  0  0
  1 26  1  0  0  0  0
  1  2  1  0  0  0  0
  2 20  2  0  0  0  0
  2  3  1  0  0  0  0
  3  4  1  0  0  0  0
  3 43  1  0  0  0  0
  4  5  1  0  0  0  0
  4 17  2  0  0  0  0
  5  6  1  0  0  0  0
  6  7  1  0  0  0  0
  6 27  1  0  0  0  0
  6 28  1  0  0  0  0
  7  8  2  0  0  0  0
  7  9  1  0  0  0  0
  9 10  1  0  0  0  0
  9 29  1  0  0  0  0
 10 15  1  0  0  0  0
 10 11  1  0  0  0  0
 10 30  1  0  0  0  0
 11 12  1  0  0  0  0
 11 31  1  0  0  0  0
 11 32  1  0  0  0  0
 12 13  1  0  0  0  0
 12 33  1  0  0  0  0
 12 34  1  0  0  0  0
 13 14  1  0  0  0  0
 13 35  1  0  0  0  0
 13 36  1  0  0  0  0
 14 15  1  0  0  0  0
 14 37  1  0  0  0  0
 14 38  1  0  0  0  0
 15 16  1  0  0  0  0
 15 39  1  0  0  0  0
 16 40  1  0  0  0  0
 16 41  1  0  0  0  0
 16 42  1  0  0  0  0
 17 18  1  0  0  0  0
 18 19  2  0  0  0  0
 18 20  1  0  0  0  0
 20 21  1  0  0  0  0
 21 22  1  0  0  0  0
 21 44  1  0  0  0  0
 21 45  1  0  0  0  0
 22 23  1  0  0  0  0
 22 46  1  0  0  0  0
 22 47  1  0  0  0  0
 23 48  1  0  0  0  0
M  END
> <s_m_source_file>
AV-unprocessed.smi

> <i_m_source_file_index>
438

> <i_lp_mmshare_version>
43012

> <i_f3d_flags>
0

> <s_epik_input>
W09IXVtDSDJdW0NIMl1jMWMoW09IXSluYyhuYzFbQ0gzXSlTW0NIMl1DKD1PKVtOSF1bQ0BASF0yW0NIMl1bQ0gyXVtDSDJdW0NIMl1bQ0BIXTJbQ0gzXQ==

> <s_epik_cmdline>
J2VwaWtfcHl0aG9uJywgJy1waCcsICc3LjAnLCAnLXRuJywgJzgnLCAnLW1hJywgJzIwMCcsICctbWV0YWxfYmluZGluZycsICctaW1hZScsICc8aW5maWxlLm1hZT4nLCAnLW9tYWUnLCAnPG91dGZpbGUubWFlPic=

> <r_lp_tautomer_probability>
0.273662

> <r_epik_Ionization_Penalty>
0.0875285

> <r_epik_Ionization_Penalty_Charging>
0.0875254

> <r_epik_Ionization_Penalty_Neutral>
3.01536e-06

> <r_epik_State_Penalty>
0.985796

> <r_epik_Charging_Adjusted_Penalty>
1.07332

> <i_epik_Tot_Q>
0

> <i_epik_Tot_abs_Q>
0

> <r_epik_Metal_State_Penalty>
1.58101

> <b_epik_Metal_Only>
0

> <s_lp_Force_Field>
OPLS_2005

> <r_lp_Energy>
19.296

> <b_lp_Chiralities_Consistent>
1

> <s_lp_Variant>
AV-unprocessed.smi:438-7

> <Gold.Version>
5.8.1

> <Gold.Id.Protein>
6NUR|6NUR_protein|mol2

> <Gold.PLP.Fitness>
45.7963

> <Gold.PLP.PLP>
-44.0919

> <Gold.PLP.part.hbond>
-4.9039

> <Gold.PLP.part.metal>
0.0000

> <Gold.PLP.part.buried>
-1.6219

> <Gold.PLP.part.nonpolar>
-36.4009

> <Gold.PLP.part.repulsive>
0.2295

> <Gold.PLP.ligand.clash>
0.0000

> <Gold.PLP.ligand.torsion>
1.0692

> <Gold.PLP.Chemscore.Hbond>
1.2636

> <Gold.PLP.Chemscore.CHOScore>
0.0000

> <Gold.PLP.Chemscore.Metal>
0.0000

> <Gold.Chemscore.Hbonds>
donor molecule, donor type, donor heavy atom, donor atom, acceptor molecule, acceptor atom, score
      P1  H  6931  6943       L1    19  1.00

> <Gold.PLP.Chemscore.Internal.Correction>
0.0520

> <Gold.Rescore>
     Score         DG    S(hbond)    S(metal)    S(lipo)     H(rot)  DE(clash)    DE(int)     intcor
     11.28     -13.51       0.87        0.00     106.41       2.86       0.20       2.03       ----

> <Gold.Chemscore.Fitness>
11.2819

> <Gold.Chemscore.DG>
-13.5085

> <Gold.Chemscore.ZeroCoef>
-5.4800

> <Gold.Chemscore.Hbond>
0.8718

> <Gold.Chemscore.Metal>
0.0000

> <Gold.Chemscore.Lipo>
106.4080

> <Gold.Chemscore.Internal_Hbond>
0.0000

> <Gold.Chemscore.DEClash>
0.1955

> <Gold.Chemscore.DEInternal>
2.0311

> <Gold.Chemscore.Rot>
2.8645

> <Gold.Chemscore.Internal.Correction>
   9.000000E+99

> <Gold.Chemscore.Hbonds>
donor molecule, donor type, donor heavy atom, donor atom, acceptor molecule, acceptor atom, score
      P1  H  6931  6943       L1    19  0.55

> <Gold.Chemscore.Hbond.Weighted>
-2.9119

> <Gold.Chemscore.Metal.Weighted>
-0.0000

> <Gold.Chemscore.Lipo.Weighted>
-12.4497

> <Gold.Chemscore.Internal_Hbond.Weighted>
0.0000

> <Gold.Chemscore.DEClash.Weighted>
0.1955

> <Gold.Chemscore.DEInternal.Weighted>
2.0311

> <Gold.Chemscore.Rot.Weighted>
7.3331

> <Gold.Chemscore.Internal.Correction.Weighted>
   9.000000E+99

> <Gold.Protein.RotatedTorsions>
[ 6907 6896 6895 6894 ] final -162.96 input  -60.11 | X-H torsion
[ 7974 7965 7964 7962 ] final   95.28 input  175.53 | X-H torsion
[ 8008 7997 7996 7995 ] final  -47.16 input   59.86 | X-H torsion
[ 10167 10162 10161 10158 ] final  130.21 input  -65.29 | X-H torsion
[ 10718 10713 10712 10709 ] final  -24.04 input   66.30 | X-H torsion
[ 10763 10752 10751 10750 ] final -158.09 input  -60.55 | X-H torsion
[ 11005 11000 10999 10996 ] final -107.45 input  -57.11 | X-H torsion

> <Gold.Protein.ActiveResidues>
 VAL166  LYS551  ARG553  GLY616  TRP617  ASP618  TYR619  PRO620  LYS621  CYS622 
 ASP623  PHE694  ASN695  SER759  ASP760  ASP761  ALA762  ILE779  LEU786  VAL792 
 PHE793  MET794  SER795  GLU796  ALA797  LYS798  CYS799  TRP800  GLU811  SER814 

> <Gold.Protein.RotatedAtoms>
  151.3885  133.3797  159.2717 H   0  0  0  0  0  0  0  0  0  0  0  0  # atno 6907 bound_to 6896
  150.9523  134.8922  159.7690 H   0  0  0  0  0  0  0  0  0  0  0  0  # atno 6908 bound_to 6896
  152.5116  134.3841  159.9413 H   0  0  0  0  0  0  0  0  0  0  0  0  # atno 6909 bound_to 6896
  145.4543  139.2291  143.3022 H   0  0  0  0  0  0  0  0  0  0  0  0  # atno 7974 bound_to 7965
  154.4014  140.1353  156.4129 H   0  0  0  0  0  0  0  0  0  0  0  0  # atno 8008 bound_to 7997
  155.7716  140.3483  155.5230 H   0  0  0  0  0  0  0  0  0  0  0  0  # atno 8009 bound_to 7997
  155.8761  140.0979  157.1507 H   0  0  0  0  0  0  0  0  0  0  0  0  # atno 8010 bound_to 7997
  139.5440  144.6757  151.4531 H   0  0  0  0  0  0  0  0  0  0  0  0  # atno 10167 bound_to 10162
  156.4829  130.4549  149.6801 H   0  0  0  0  0  0  0  0  0  0  0  0  # atno 10718 bound_to 10713
  154.7584  135.3111  154.8425 H   0  0  0  0  0  0  0  0  0  0  0  0  # atno 10763 bound_to 10752
  153.9193  135.6797  153.4752 H   0  0  0  0  0  0  0  0  0  0  0  0  # atno 10764 bound_to 10752
  153.1183  135.4834  154.9083 H   0  0  0  0  0  0  0  0  0  0  0  0  # atno 10765 bound_to 10752
  141.0953  133.8982  157.1977 H   0  0  0  0  0  0  0  0  0  0  0  0  # atno 11005 bound_to 11000
  146.2486  140.5306  142.8903 LP  0  0  0  0  0  0  0  0  0  0  0  0  # atno 17320 bound_to 7965
  144.8042  140.6268  143.6458 LP  0  0  0  0  0  0  0  0  0  0  0  0  # atno 17321 bound_to 7965
  140.6682  143.8352  150.6967 LP  0  0  0  0  0  0  0  0  0  0  0  0  # atno 17342 bound_to 10162
  140.1768  143.4148  152.1962 LP  0  0  0  0  0  0  0  0  0  0  0  0  # atno 17343 bound_to 10162
  156.3503  130.7428  151.2387 LP  0  0  0  0  0  0  0  0  0  0  0  0  # atno 17370 bound_to 10713
  157.7481  131.0379  150.4477 LP  0  0  0  0  0  0  0  0  0  0  0  0  # atno 17371 bound_to 10713
  139.9788  135.0105  156.9699 LP  0  0  0  0  0  0  0  0  0  0  0  0  # atno 17394 bound_to 11000
  140.5154  134.0960  155.7280 LP  0  0  0  0  0  0  0  0  0  0  0  0  # atno 17395 bound_to 11000

$$$$
