AV-unprocessed.smi:1240|AV-procd|sdf|5210|dock1
  -GOLD-   22720 4303D 1   1.00000     0.00000
 Structure written by MMmdl.
 49 51  0  0  0  0  0  0  0  0  3 V2000
  145.0145  137.1955  151.6606 O   0  0  0  0  0  0  0  0  0  0  0  0
  146.2077  136.9065  151.7472 C   0  0  0  0  0  0  0  0  0  0  0  0
  147.1624  137.8045  152.0292 N   0  0  0  0  0  0  0  0  0  0  0  0
  146.9270  139.2279  152.2468 C   0  0  0  0  0  0  0  0  0  0  0  0
  146.6593  139.6020  153.7331 C   0  0  1  0  0  0  0  0  0  0  0  0
  147.9295  139.5660  154.6295 C   0  0  1  0  0  0  0  0  0  0  0  0
  148.5359  138.1807  154.7888 C   0  0  0  0  0  0  0  0  0  0  0  0
  149.9364  138.4950  155.2999 C   0  0  0  0  0  0  0  0  0  0  0  0
  150.2981  139.7197  154.6749 O   0  0  0  0  0  0  0  0  0  0  0  0
  149.1488  140.3304  154.0976 C   0  0  0  0  0  0  0  0  0  0  0  0
  145.9889  140.9316  153.8569 N   0  3  0  0  0  0  0  0  0  0  0  0
  145.3819  141.2370  155.1777 C   0  0  0  0  0  0  0  0  0  0  0  0
  144.5853  142.5496  155.0982 C   0  0  0  0  0  0  0  0  0  0  0  0
  145.4424  143.6001  154.6672 O   0  0  0  0  0  0  0  0  0  0  0  0
  145.9739  143.3601  153.3693 C   0  0  0  0  0  0  0  0  0  0  0  0
  146.8126  142.0707  153.3822 C   0  0  0  0  0  0  0  0  0  0  0  0
  146.7237  135.6736  151.6020 N   0  0  0  0  0  0  0  0  0  0  0  0
  146.0521  134.4609  151.2844 C   0  0  0  0  0  0  0  0  0  0  0  0
  146.8186  133.2741  151.2758 C   0  0  0  0  0  0  0  0  0  0  0  0
  146.2015  132.0489  150.9501 C   0  0  0  0  0  0  0  0  0  0  0  0
  144.8878  132.0193  150.6402 N   0  3  0  0  0  0  0  0  0  0  0  0
  144.1172  133.1279  150.6217 C   0  0  0  0  0  0  0  0  0  0  0  0
  144.6785  134.3818  150.9390 C   0  0  0  0  0  0  0  0  0  0  0  0
  148.1191  137.4862  152.0870 H   0  0  0  0  0  0  0  0  0  0  0  0
  147.8063  139.7563  151.8783 H   0  0  0  0  0  0  0  0  0  0  0  0
  146.0977  139.5375  151.6098 H   0  0  0  0  0  0  0  0  0  0  0  0
  145.9651  138.8703  154.1492 H   0  0  0  0  0  0  0  0  0  0  0  0
  147.6950  139.9550  155.6213 H   0  0  0  0  0  0  0  0  0  0  0  0
  147.9778  137.5404  155.4726 H   0  0  0  0  0  0  0  0  0  0  0  0
  148.5965  137.6768  153.8226 H   0  0  0  0  0  0  0  0  0  0  0  0
  149.9225  138.6452  156.3800 H   0  0  0  0  0  0  0  0  0  0  0  0
  150.6523  137.7042  155.0749 H   0  0  0  0  0  0  0  0  0  0  0  0
  149.2249  140.2365  153.0136 H   0  0  0  0  0  0  0  0  0  0  0  0
  149.1171  141.3916  154.3448 H   0  0  0  0  0  0  0  0  0  0  0  0
  144.7208  140.4299  155.4917 H   0  0  0  0  0  0  0  0  0  0  0  0
  146.1573  141.3354  155.9382 H   0  0  0  0  0  0  0  0  0  0  0  0
  143.7368  142.4516  154.4189 H   0  0  0  0  0  0  0  0  0  0  0  0
  144.1813  142.8034  156.0783 H   0  0  0  0  0  0  0  0  0  0  0  0
  145.1655  143.2920  152.6396 H   0  0  0  0  0  0  0  0  0  0  0  0
  146.5940  144.2083  153.0790 H   0  0  0  0  0  0  0  0  0  0  0  0
  147.6808  142.2042  154.0279 H   0  0  0  0  0  0  0  0  0  0  0  0
  147.1872  141.8702  152.3778 H   0  0  0  0  0  0  0  0  0  0  0  0
  147.7124  135.5836  151.7856 H   0  0  0  0  0  0  0  0  0  0  0  0
  147.8706  133.2968  151.5205 H   0  0  0  0  0  0  0  0  0  0  0  0
  146.7164  131.0995  150.9261 H   0  0  0  0  0  0  0  0  0  0  0  0
  143.0823  132.9815  150.3488 H   0  0  0  0  0  0  0  0  0  0  0  0
  144.0465  135.2554  150.8972 H   0  0  0  0  0  0  0  0  0  0  0  0
  145.2160  140.8875  153.2081 H   0  0  0  0  0  0  0  0  0  0  0  0
  144.4604  131.1229  150.4049 H   0  0  0  0  0  0  0  0  0  0  0  0
  1  2  2  0  0  0  0
  2  3  1  0  0  0  0
  2 17  1  0  0  0  0
  3  4  1  0  0  0  0
  3 24  1  0  0  0  0
  4  5  1  0  0  0  0
  4 25  1  0  0  0  0
  4 26  1  0  0  0  0
  5  6  1  0  0  0  0
  5 11  1  0  0  0  0
  5 27  1  0  0  0  0
  6 10  1  0  0  0  0
  6  7  1  0  0  0  0
  6 28  1  0  0  0  0
  7  8  1  0  0  0  0
  7 29  1  0  0  0  0
  7 30  1  0  0  0  0
  8  9  1  0  0  0  0
  8 31  1  0  0  0  0
  8 32  1  0  0  0  0
  9 10  1  0  0  0  0
 10 33  1  0  0  0  0
 10 34  1  0  0  0  0
 11 16  1  0  0  0  0
 11 12  1  0  0  0  0
 11 48  1  0  0  0  0
 12 13  1  0  0  0  0
 12 35  1  0  0  0  0
 12 36  1  0  0  0  0
 13 14  1  0  0  0  0
 13 37  1  0  0  0  0
 13 38  1  0  0  0  0
 14 15  1  0  0  0  0
 15 16  1  0  0  0  0
 15 39  1  0  0  0  0
 15 40  1  0  0  0  0
 16 41  1  0  0  0  0
 16 42  1  0  0  0  0
 17 18  1  0  0  0  0
 17 43  1  0  0  0  0
 18 23  1  0  0  0  0
 18 19  2  0  0  0  0
 19 20  1  0  0  0  0
 19 44  1  0  0  0  0
 20 21  2  0  0  0  0
 20 45  1  0  0  0  0
 21 22  1  0  0  0  0
 21 49  1  0  0  0  0
 22 23  2  0  0  0  0
 22 46  1  0  0  0  0
 23 47  1  0  0  0  0
M  CHG  1  11   1
M  CHG  1  21   1
M  END
> <s_m_source_file>
AV-unprocessed.smi

> <i_m_source_file_index>
1240

> <i_lp_mmshare_version>
43012

> <i_f3d_flags>
0

> <s_epik_input>
W2NIXTFbY0hdbltjSF1bY0hdYzFbTkhdQyg9TylbTkhdW0NIMl1bQ0BIXShbQ0BASF0yW0NIMl1bQ0gyXU9bQ0gyXTIpTjNbQ0gyXVtDSDJdT1tDSDJdW0NIMl0z

> <s_epik_cmdline>
J2VwaWtfcHl0aG9uJywgJy1waCcsICc3LjAnLCAnLXRuJywgJzgnLCAnLW1hJywgJzIwMCcsICctbWV0YWxfYmluZGluZycsICctaW1hZScsICc8aW5maWxlLm1hZT4nLCAnLW9tYWUnLCAnPG91dGZpbGUubWFlPic=

> <r_epik_Ionization_Penalty>
2.08105

> <r_epik_Ionization_Penalty_Charging>
2.08103

> <r_epik_Ionization_Penalty_Neutral>
2.04144e-05

> <r_epik_State_Penalty>
2.15598

> <r_epik_Charging_Adjusted_Penalty>
4.23701

> <i_epik_Tot_Q>
2

> <i_epik_Tot_abs_Q>
2

> <r_epik_Metal_State_Penalty>
2.25158

> <b_epik_Metal_Only>
0

> <s_lp_Force_Field>
OPLS_2005

> <r_lp_Energy>
49.3852

> <b_lp_Chiralities_Consistent>
1

> <s_lp_Variant>
AV-unprocessed.smi:1240-16

> <Gold.Version>
5.8.1

> <Gold.Id.Protein>
6NUR|6NUR_protein|mol2

> <Gold.PLP.Fitness>
49.6720

> <Gold.PLP.PLP>
-35.4947

> <Gold.PLP.part.hbond>
-4.0000

> <Gold.PLP.part.metal>
0.0000

> <Gold.PLP.part.buried>
-4.9656

> <Gold.PLP.part.nonpolar>
-28.7808

> <Gold.PLP.part.repulsive>
1.5468

> <Gold.PLP.ligand.clash>
0.0077

> <Gold.PLP.ligand.torsion>
0.5254

> <Gold.PLP.Chemscore.Hbond>
4.9920

> <Gold.PLP.Chemscore.CHOScore>
0.0000

> <Gold.PLP.Chemscore.Metal>
0.0000

> <Gold.Chemscore.Hbonds>
donor molecule, donor type, donor heavy atom, donor atom, acceptor molecule, acceptor atom, score
      L1  H     3    24       P1  7948  0.76
      L1  H    11    48       P1 10175  2.00
      L1  H    17    43       P1  7948  0.55
      P1  H  7989  7998       L1     9  0.51

> <Gold.PLP.Chemscore.Internal.Correction>
0.2597

> <Gold.Rescore>
     Score         DG    S(hbond)    S(metal)    S(lipo)     H(rot)  DE(clash)    DE(int)     intcor
     18.69     -23.08       3.64        0.00      84.59       1.74       3.56       0.83       ----

> <Gold.Chemscore.Fitness>
18.6920

> <Gold.Chemscore.DG>
-23.0797

> <Gold.Chemscore.ZeroCoef>
-5.4800

> <Gold.Chemscore.Hbond>
3.6415

> <Gold.Chemscore.Metal>
0.0000

> <Gold.Chemscore.Lipo>
84.5882

> <Gold.Chemscore.Internal_Hbond>
0.0000

> <Gold.Chemscore.DEClash>
3.5604

> <Gold.Chemscore.DEInternal>
0.8273

> <Gold.Chemscore.Rot>
1.7421

> <Gold.Chemscore.Internal.Correction>
   9.000000E+99

> <Gold.Chemscore.Hbonds>
donor molecule, donor type, donor heavy atom, donor atom, acceptor molecule, acceptor atom, score
      L1  H     3    24       P1  7948  0.72
      L1  H    11    48       P1 10175  0.60
      L1  H    17    43       P1  7948  0.52
      P1  H  7989  7998       L1     9  0.04

> <Gold.Chemscore.Hbond.Weighted>
-12.1626

> <Gold.Chemscore.Metal.Weighted>
-0.0000

> <Gold.Chemscore.Lipo.Weighted>
-9.8968

> <Gold.Chemscore.Internal_Hbond.Weighted>
0.0000

> <Gold.Chemscore.DEClash.Weighted>
3.5604

> <Gold.Chemscore.DEInternal.Weighted>
0.8273

> <Gold.Chemscore.Rot.Weighted>
4.4597

> <Gold.Chemscore.Internal.Correction.Weighted>
   9.000000E+99

> <Gold.Protein.RotatedTorsions>
[ 6907 6896 6895 6894 ] final -138.13 input  -60.11 | X-H torsion
[ 7974 7965 7964 7962 ] final   85.87 input  175.53 | X-H torsion
[ 8008 7997 7996 7995 ] final  -22.58 input   59.86 | X-H torsion
[ 10167 10162 10161 10158 ] final   92.07 input  -65.29 | X-H torsion
[ 10718 10713 10712 10709 ] final   54.49 input   66.30 | X-H torsion
[ 10763 10752 10751 10750 ] final  131.57 input  -60.55 | X-H torsion
[ 11005 11000 10999 10996 ] final   12.98 input  -57.11 | X-H torsion

> <Gold.Protein.ActiveResidues>
 VAL166  LYS551  ARG553  GLY616  TRP617  ASP618  TYR619  PRO620  LYS621  CYS622 
 ASP623  PHE694  ASN695  SER759  ASP760  ASP761  ALA762  ILE779  LEU786  VAL792 
 PHE793  MET794  SER795  GLU796  ALA797  LYS798  CYS799  TRP800  GLU811  SER814 

> <Gold.Protein.RotatedAtoms>
  151.0311  133.5789  159.2660 H   0  0  0  0  0  0  0  0  0  0  0  0  # atno 6907 bound_to 6896
  151.2870  135.0730  159.9200 H   0  0  0  0  0  0  0  0  0  0  0  0  # atno 6908 bound_to 6896
  152.5345  134.0016  159.7951 H   0  0  0  0  0  0  0  0  0  0  0  0  # atno 6909 bound_to 6896
  145.5798  139.2324  143.2359 H   0  0  0  0  0  0  0  0  0  0  0  0  # atno 7974 bound_to 7965
  154.4636  140.2004  156.0179 H   0  0  0  0  0  0  0  0  0  0  0  0  # atno 8008 bound_to 7997
  156.0885  140.3261  155.7756 H   0  0  0  0  0  0  0  0  0  0  0  0  # atno 8009 bound_to 7997
  155.4995  140.0552  157.2932 H   0  0  0  0  0  0  0  0  0  0  0  0  # atno 8010 bound_to 7997
  139.8313  144.6686  150.9396 H   0  0  0  0  0  0  0  0  0  0  0  0  # atno 10167 bound_to 10162
  157.5262  130.8598  149.8624 H   0  0  0  0  0  0  0  0  0  0  0  0  # atno 10718 bound_to 10713
  153.7764  135.3174  155.3359 H   0  0  0  0  0  0  0  0  0  0  0  0  # atno 10763 bound_to 10752
  154.8177  135.4625  154.0693 H   0  0  0  0  0  0  0  0  0  0  0  0  # atno 10764 bound_to 10752
  153.1969  135.6917  153.8366 H   0  0  0  0  0  0  0  0  0  0  0  0  # atno 10765 bound_to 10752
  140.4859  134.0889  155.7761 H   0  0  0  0  0  0  0  0  0  0  0  0  # atno 11005 bound_to 11000
  146.1724  140.6625  142.9227 LP  0  0  0  0  0  0  0  0  0  0  0  0  # atno 17320 bound_to 7965
  144.7399  140.4913  143.6877 LP  0  0  0  0  0  0  0  0  0  0  0  0  # atno 17321 bound_to 7965
  140.7806  143.3998  151.1168 LP  0  0  0  0  0  0  0  0  0  0  0  0  # atno 17342 bound_to 10162
  139.7652  143.8576  152.3109 LP  0  0  0  0  0  0  0  0  0  0  0  0  # atno 17343 bound_to 10162
  156.0388  130.3744  150.1488 LP  0  0  0  0  0  0  0  0  0  0  0  0  # atno 17370 bound_to 10713
  156.9675  130.9824  151.3466 LP  0  0  0  0  0  0  0  0  0  0  0  0  # atno 17371 bound_to 10713
  141.1508  133.8972  157.2102 LP  0  0  0  0  0  0  0  0  0  0  0  0  # atno 17394 bound_to 11000
  139.9798  135.0102  156.9722 LP  0  0  0  0  0  0  0  0  0  0  0  0  # atno 17395 bound_to 11000

$$$$
