#       Name:                AV-unprocessed.smi:46
#       Creating user name   scv26
#       Creation time:       Thu Mar 26 16:30:03 2020


#       File generated by GOLD software.
#

@<TRIPOS>MOLECULE
AV-unprocessed.smi:46
    38    39     1
SMALL
NO_CHARGES


@<TRIPOS>ATOM
      1 ****        -3.4327   0.6919   0.7282 C.3            1 S1                 0.0000
      2 ****        -2.8967   1.3028  -0.5759 C.3            1 S1                 0.0000
      3 ****        -3.5200   0.6490  -1.8176 C.3            1 S1                 0.0000
      4 ****        -1.4445   1.2279  -0.6303 N.pl3          1 S1                 0.0000
      5 ****        -0.6305   0.1209  -0.5083 C.2            1 S1                 0.0000
      6 ****         0.6659   0.5386  -0.6394 C.2            1 S1                 0.0000
      7 ****         1.9562  -0.2519  -0.5723 C.3            1 S1                 0.0000
      8 ****         1.8388  -1.6509  -1.1885 C.3            1 S1                 0.0000
      9 ****         1.3560  -2.5369  -0.1135 N.4            1 S1                 1.0000
     10 ****         1.6388  -1.8860   1.1815 C.3            1 S1                 0.0000
     11 ****         2.3916  -0.5828   0.8684 C.3            1 S1                 0.0000
     12 ****         2.1846   0.5120   1.9342 C.3            1 S1                 0.0000
     13 ****         2.9844   1.6361   1.6351 O.3            1 S1                 0.0000
     14 ****         0.5327   1.9394  -0.8591 C.2            1 S1                 0.0000
     15 ****        -0.7248   2.3466  -0.8559 N.2            1 S1                 0.0000
     16 ****         2.7482   0.3030  -1.0773 H              1 S1                 0.0000
     17 ****         3.4539  -0.8333   0.8372 H              1 S1                 0.0000
     18 ****        -4.5143   0.8097   0.7976 H              1 S1                 0.0000
     19 ****        -2.9926   1.1790   1.5989 H              1 S1                 0.0000
     20 ****        -3.2125  -0.3740   0.7939 H              1 S1                 0.0000
     21 ****        -3.1768   2.3579  -0.5813 H              1 S1                 0.0000
     22 ****        -4.6054   0.7519  -1.8100 H              1 S1                 0.0000
     23 ****        -3.2874  -0.4151  -1.8684 H              1 S1                 0.0000
     24 ****        -3.1519   1.1155  -2.7320 H              1 S1                 0.0000
     25 ****        -1.0396  -0.8632  -0.3344 H              1 S1                 0.0000
     26 ****         1.2041  -1.6861  -2.0747 H              1 S1                 0.0000
     27 ****         2.8295  -2.0031  -1.4791 H              1 S1                 0.0000
     28 ****         0.3572  -2.6568  -0.2031 H              1 S1                 0.0000
     29 ****         0.6872  -1.6796   1.6729 H              1 S1                 0.0000
     30 ****         2.2160  -2.5422   1.8335 H              1 S1                 0.0000
     31 ****         1.1401   0.8162   2.0090 H              1 S1                 0.0000
     32 ****         2.4747   0.1370   2.9162 H              1 S1                 0.0000
     33 ****         2.8435   2.2934   2.2999 H              1 S1                 0.0000
     34 ****         1.3126   2.6701  -1.0151 H              1 S1                 0.0000
     35 ****         1.8128  -3.4359  -0.1715 H              1 S1                 0.0000
     36 ****         2.7292   2.0023   0.7403 LP             1 S1                 0.0000
     37 ****         3.9483   1.3700   1.6238 LP             1 S1                 0.0000
     38 ****        -1.0666   3.2766  -0.9906 LP             1 S1                 0.0000
@<TRIPOS>BOND
    1    1    2 1     
    2    1   18 1     
    3    1   19 1     
    4    1   20 1     
    5    2    3 1     
    6    2    4 1     
    7    2   21 1     
    8    3   22 1     
    9    3   23 1     
   10    3   24 1     
   11    4   15 1     
   12    4    5 1     
   13    5    6 2     
   14    5   25 1     
   15    6    7 1     
   16    6   14 1     
   17    7   16 1     
   18    7   11 1     
   19    7    8 1     
   20    8    9 1     
   21    8   26 1     
   22    8   27 1     
   23    9   10 1     
   24    9   28 1     
   25    9   35 1     
   26   10   11 1     
   27   10   29 1     
   28   10   30 1     
   29   11   17 1     
   30   11   12 1     
   31   12   13 1     
   32   12   31 1     
   33   12   32 1     
   34   13   33 1     
   35   14   15 2     
   36   14   34 1     
   37   13   36 1     
   38   13   37 1     
   39   15   38 1     
@<TRIPOS>SUBSTRUCTURE
      1 S1             1
@<TRIPOS>SET
LONE_PAIRS      STATIC     ATOMS    <user>   **** ""
3 36 37 38
DONOR_HYDROGENS      STATIC     ATOMS    <user>   **** ""
3 28 35 33
ATOM$BLUE        STATIC     ATOMS    COLORGROUP SYSTEM
3 36 37 38
ATOM$RED        STATIC     ATOMS    COLORGROUP SYSTEM
3 28 35 33
