#       Name:                AV-unprocessed.smi:287
#       Creating user name   scv26
#       Creation time:       Thu Mar 26 21:55:54 2020


#       File generated by GOLD software.
#

@<TRIPOS>MOLECULE
AV-unprocessed.smi:287
    70    73     1
SMALL
NO_CHARGES


@<TRIPOS>ATOM
      1 ****         0.3647   4.4899   4.7947 C.3            1 S1                 0.0000
      2 ****         0.0009   4.5022   3.3496 C.2            1 S1                 0.0000
      3 ****        -0.5584   3.5848   2.5090 C.2            1 S1                 0.0000
      4 ****        -0.6481   4.1872   1.2183 C.2            1 S1                 0.0000
      5 ****        -1.2087   3.5382  -0.0401 C.3            1 S1                 0.0000
      6 ****        -2.7448   3.5913  -0.0107 C.3            1 S1                 0.0000
      7 ****        -0.8308   4.2191  -1.2212 O.3            1 S1                 0.0000
      8 ****        -0.7298   2.0791  -0.2204 C.3            1 S1                 0.0000
      9 ****         0.6994   1.9188   0.0158 N.pl3          1 S1                 0.0000
     10 ****         1.2609   0.6934   0.0720 C.ar           1 S1                 0.0000
     11 ****         2.5610   0.6651   0.4510 N.ar           1 S1                 0.0000
     12 ****         3.2106  -0.4988   0.5399 C.ar           1 S1                 0.0000
     13 ****         2.7549  -1.7289   0.2973 N.ar           1 S1                 0.0000
     14 ****         1.4460  -1.7080  -0.0873 C.ar           1 S1                 0.0000
     15 ****         0.6286  -0.5502  -0.2267 C.ar           1 S1                 0.0000
     16 ****        -0.6416  -0.9363  -0.6429 N.2            1 S1                 0.0000
     17 ****        -0.5712  -2.2361  -0.7408 C.2            1 S1                 0.0000
     18 ****         0.6538  -2.7822  -0.4267 N.pl3          1 S1                 0.0000
     19 ****         1.0802  -4.2179  -0.4319 C.3            1 S1                 0.0000
     20 ****        -0.0645  -4.9973  -0.2489 O.3            1 S1                 0.0000
     21 ****        -0.2508  -5.8982  -1.3406 C.3            1 S1                 0.0000
     22 ****        -1.7462  -6.1552  -1.5976 C.3            1 S1                 0.0000
     23 ****        -2.2318  -7.1260  -0.6953 O.3            1 S1                 0.0000
     24 ****         0.5252  -5.2691  -2.5063 C.3            1 S1                 0.0000
     25 ****        -0.2659  -4.3215  -3.2041 O.3            1 S1                 0.0000
     26 ****         1.7001  -4.6290  -1.7806 C.3            1 S1                 0.0000
     27 ****         2.3130  -3.5883  -2.5235 O.3            1 S1                 0.0000
     28 ****        -0.1452   5.4548   1.3884 C.2            1 S1                 0.0000
     29 ****         0.0412   6.6266   0.4821 C.3            1 S1                 0.0000
     30 ****         0.2565   5.6511   2.6753 O.3            1 S1                 0.0000
     31 ****         1.7631  -4.3079   0.4135 H              1 S1                 0.0000
     32 ****         0.2479  -6.8347  -1.0837 H              1 S1                 0.0000
     33 ****         0.8579  -6.0219  -3.2217 H              1 S1                 0.0000
     34 ****         2.4471  -5.3951  -1.5694 H              1 S1                 0.0000
     35 ****         0.2787   3.4851   5.2088 H              1 S1                 0.0000
     36 ****        -0.2920   5.1481   5.3635 H              1 S1                 0.0000
     37 ****         1.3913   4.8272   4.9390 H              1 S1                 0.0000
     38 ****        -0.8632   2.5865   2.7864 H              1 S1                 0.0000
     39 ****        -3.1423   3.0568   0.8529 H              1 S1                 0.0000
     40 ****        -3.1783   3.1384  -0.9033 H              1 S1                 0.0000
     41 ****        -3.1045   4.6196   0.0465 H              1 S1                 0.0000
     42 ****        -1.2041   3.7646  -1.9609 H              1 S1                 0.0000
     43 ****        -1.2497   1.4525   0.5056 H              1 S1                 0.0000
     44 ****        -0.9949   1.7044  -1.2100 H              1 S1                 0.0000
     45 ****         1.2044   2.7689   0.2220 H              1 S1                 0.0000
     46 ****         4.2435  -0.4344   0.8487 H              1 S1                 0.0000
     47 ****        -1.4173  -2.8327  -1.0490 H              1 S1                 0.0000
     48 ****        -2.3286  -5.2371  -1.5144 H              1 S1                 0.0000
     49 ****        -1.8936  -6.5450  -2.6054 H              1 S1                 0.0000
     50 ****        -3.1507  -7.2629  -0.8678 H              1 S1                 0.0000
     51 ****         0.2933  -3.8578  -3.8093 H              1 S1                 0.0000
     52 ****         2.9637  -3.1742  -1.9767 H              1 S1                 0.0000
     53 ****        -0.8748   6.8383  -0.0695 H              1 S1                 0.0000
     54 ****         0.8353   6.4341  -0.2394 H              1 S1                 0.0000
     55 ****         0.3070   7.5221   1.0443 H              1 S1                 0.0000
     56 ****         0.1661   4.2304  -1.3000 LP             1 S1                 0.0000
     57 ****        -1.1737   5.1580  -1.1939 LP             1 S1                 0.0000
     58 ****         3.0363   1.5185   0.6650 LP             1 S1                 0.0000
     59 ****         3.3030  -2.5606   0.3861 LP             1 S1                 0.0000
     60 ****        -1.4308  -0.3501  -0.8258 LP             1 S1                 0.0000
     61 ****        -0.8613  -4.3970  -0.1809 LP             1 S1                 0.0000
     62 ****         0.0298  -5.5232   0.5965 LP             1 S1                 0.0000
     63 ****        -2.1091  -6.8050   0.2438 LP             1 S1                 0.0000
     64 ****        -1.7334  -7.9836  -0.8221 LP             1 S1                 0.0000
     65 ****        -0.6716  -3.6768  -2.5563 LP             1 S1                 0.0000
     66 ****        -0.9921  -4.7911  -3.7061 LP             1 S1                 0.0000
     67 ****         1.6239  -2.9168  -2.7958 LP             1 S1                 0.0000
     68 ****         2.7494  -3.9677  -3.3393 LP             1 S1                 0.0000
     69 ****         1.2352   5.8548   2.7024 LP             1 S1                 0.0000
     70 ****        -0.2531   6.4090   3.0825 LP             1 S1                 0.0000
@<TRIPOS>BOND
    1    1    2 1     
    2    1   35 1     
    3    1   36 1     
    4    1   37 1     
    5    2   30 1     
    6    2    3 2     
    7    3    4 1     
    8    3   38 1     
    9    4    5 1     
   10    4   28 2     
   11    5    6 1     
   12    5    7 1     
   13    5    8 1     
   14    6   39 1     
   15    6   40 1     
   16    6   41 1     
   17    7   42 1     
   18    8    9 1     
   19    8   43 1     
   20    8   44 1     
   21    9   10 1     
   22    9   45 1     
   23   10   15 ar    
   24   10   11 ar    
   25   11   12 ar    
   26   12   13 ar    
   27   12   46 1     
   28   13   14 ar    
   29   14   18 1     
   30   14   15 ar    
   31   15   16 1     
   32   16   17 2     
   33   17   18 1     
   34   17   47 1     
   35   18   19 1     
   36   19   31 1     
   37   19   26 1     
   38   19   20 1     
   39   20   21 1     
   40   21   32 1     
   41   21   22 1     
   42   21   24 1     
   43   22   23 1     
   44   22   48 1     
   45   22   49 1     
   46   23   50 1     
   47   24   33 1     
   48   24   25 1     
   49   24   26 1     
   50   25   51 1     
   51   26   34 1     
   52   26   27 1     
   53   27   52 1     
   54   28   29 1     
   55   28   30 1     
   56   29   53 1     
   57   29   54 1     
   58   29   55 1     
   59    7   56 1     
   60    7   57 1     
   61   11   58 1     
   62   13   59 1     
   63   16   60 1     
   64   20   61 1     
   65   20   62 1     
   66   23   63 1     
   67   23   64 1     
   68   25   65 1     
   69   25   66 1     
   70   27   67 1     
   71   27   68 1     
   72   30   69 1     
   73   30   70 1     
@<TRIPOS>SUBSTRUCTURE
      1 S1             1
@<TRIPOS>SET
LONE_PAIRS      STATIC     ATOMS    <user>   **** ""
15 56 57 58 59 60 61 62 63 64 65 66 67 68 69 70
DONOR_HYDROGENS      STATIC     ATOMS    <user>   **** ""
5 42 45 50 51 52
ATOM$BLUE        STATIC     ATOMS    COLORGROUP SYSTEM
15 56 57 58 59 60 61 62 63 64 65 66 67 68 69 70
ATOM$RED        STATIC     ATOMS    COLORGROUP SYSTEM
5 42 45 50 51 52
