#       Name:                AV-unprocessed.smi:196
#       Creating user name   scv26
#       Creation time:       Thu Mar 26 19:38:10 2020


#       File generated by GOLD software.
#

@<TRIPOS>MOLECULE
AV-unprocessed.smi:196
    56    59     1
SMALL
NO_CHARGES


@<TRIPOS>ATOM
      1 ****        -2.7866  -1.6116  -1.7490 C.3            1 S1                 0.0000
      2 ****        -2.0772  -2.9577  -1.5277 C.3            1 S1                 0.0000
      3 ****        -2.9163  -4.0336  -1.9231 O.3            1 S1                 0.0000
      4 ****        -2.3995  -5.2073  -1.3230 C.3            1 S1                 0.0000
      5 ****        -2.0941  -4.7474   0.0967 C.3            1 S1                 0.0000
      6 ****        -1.6402  -3.2950  -0.0767 C.3            1 S1                 0.0000
      7 ****        -2.3267  -2.5015   0.8772 O.3            1 S1                 0.0000
      8 ****        -0.1168  -3.1316   0.1551 C.3            1 S1                 0.0000
      9 ****         0.3637  -1.7755  -0.0644 N.pl3          1 S1                 0.0000
     10 ****         0.8741  -1.2593  -1.2339 C.2            1 S1                 0.0000
     11 ****         1.2244  -0.0037  -1.1812 N.2            1 S1                 0.0000
     12 ****         0.9556   0.3727   0.1302 C.ar           1 S1                 0.0000
     13 ****         1.0913   1.5869   0.8645 C.ar           1 S1                 0.0000
     14 ****         1.5795   2.7365   0.3237 N.pl3          1 S1                 0.0000
     15 ****         2.7398   2.6538  -0.5577 C.3            1 S1                 0.0000
     16 ****         3.5778   3.8968  -0.2609 C.3            1 S1                 0.0000
     17 ****         4.4609   3.6185   0.6996 F              1 S1                 0.0000
     18 ****         2.5507   4.8929   0.2654 C.3            1 S1                 0.0000
     19 ****         1.5541   4.0180   1.0433 C.3            1 S1                 0.0000
     20 ****         0.1719   4.6968   1.1218 C.2            1 S1                 0.0000
     21 ****        -0.8596   4.1392   0.4789 N.am           1 S1                 0.0000
     22 ****         0.0399   5.7316   1.7719 O.2            1 S1                 0.0000
     23 ****         0.6912   1.5738   2.1637 N.ar           1 S1                 0.0000
     24 ****         0.2073   0.4572   2.7146 C.ar           1 S1                 0.0000
     25 ****         0.0309  -0.7400   2.1541 N.ar           1 S1                 0.0000
     26 ****         0.4161  -0.7341   0.8461 C.ar           1 S1                 0.0000
     27 ****         4.1346   4.2596  -1.1252 H              1 S1                 0.0000
     28 ****         1.9352   3.8719   2.0556 H              1 S1                 0.0000
     29 ****        -2.1573  -0.7788  -1.4345 H              1 S1                 0.0000
     30 ****        -3.7235  -1.5557  -1.1942 H              1 S1                 0.0000
     31 ****        -3.0220  -1.4681  -2.8036 H              1 S1                 0.0000
     32 ****        -1.2082  -3.0022  -2.1855 H              1 S1                 0.0000
     33 ****        -3.1160  -6.0281  -1.3562 H              1 S1                 0.0000
     34 ****        -1.4904  -5.5185  -1.8400 H              1 S1                 0.0000
     35 ****        -3.0120  -4.8031   0.6849 H              1 S1                 0.0000
     36 ****        -1.3548  -5.3808   0.5882 H              1 S1                 0.0000
     37 ****        -2.0502  -2.7633   1.7420 H              1 S1                 0.0000
     38 ****         0.1467  -3.4278   1.1715 H              1 S1                 0.0000
     39 ****         0.4364  -3.7985  -0.5078 H              1 S1                 0.0000
     40 ****         0.9706  -1.8428  -2.1377 H              1 S1                 0.0000
     41 ****         3.3250   1.7437  -0.4145 H              1 S1                 0.0000
     42 ****         2.3887   2.6703  -1.5901 H              1 S1                 0.0000
     43 ****         2.9995   5.6719   0.8828 H              1 S1                 0.0000
     44 ****         2.0608   5.3809  -0.5794 H              1 S1                 0.0000
     45 ****        -1.7696   4.5749   0.5152 H              1 S1                 0.0000
     46 ****        -0.7228   3.2878  -0.0458 H              1 S1                 0.0000
     47 ****        -0.0804   0.5354   3.7527 H              1 S1                 0.0000
     48 ****        -2.9094  -4.1259  -2.9188 LP             1 S1                 0.0000
     49 ****        -3.8521  -3.8717  -1.6098 LP             1 S1                 0.0000
     50 ****        -3.3127  -2.6389   0.7828 LP             1 S1                 0.0000
     51 ****        -2.1092  -1.5363   0.7317 LP             1 S1                 0.0000
     52 ****         1.6007   0.5599  -1.9166 LP             1 S1                 0.0000
     53 ****         0.8262   6.1281   2.2458 LP             1 S1                 0.0000
     54 ****        -0.8537   6.1770   1.8270 LP             1 S1                 0.0000
     55 ****         0.7598   2.4074   2.7118 LP             1 S1                 0.0000
     56 ****        -0.3362  -1.5385   2.6312 LP             1 S1                 0.0000
@<TRIPOS>BOND
    1    1    2 1     
    2    1   29 1     
    3    1   30 1     
    4    1   31 1     
    5    2    6 1     
    6    2    3 1     
    7    2   32 1     
    8    3    4 1     
    9    4    5 1     
   10    4   33 1     
   11    4   34 1     
   12    5    6 1     
   13    5   35 1     
   14    5   36 1     
   15    6    7 1     
   16    6    8 1     
   17    7   37 1     
   18    8    9 1     
   19    8   38 1     
   20    8   39 1     
   21    9   26 1     
   22    9   10 1     
   23   10   11 2     
   24   10   40 1     
   25   11   12 1     
   26   12   26 ar    
   27   12   13 ar    
   28   13   14 1     
   29   13   23 ar    
   30   14   19 1     
   31   14   15 1     
   32   15   16 1     
   33   15   41 1     
   34   15   42 1     
   35   16   27 1     
   36   16   17 1     
   37   16   18 1     
   38   18   19 1     
   39   18   43 1     
   40   18   44 1     
   41   19   28 1     
   42   19   20 1     
   43   20   21 am    
   44   20   22 2     
   45   21   45 1     
   46   21   46 1     
   47   23   24 ar    
   48   24   25 ar    
   49   24   47 1     
   50   25   26 ar    
   51    3   48 1     
   52    3   49 1     
   53    7   50 1     
   54    7   51 1     
   55   11   52 1     
   56   22   53 1     
   57   22   54 1     
   58   23   55 1     
   59   25   56 1     
@<TRIPOS>SUBSTRUCTURE
      1 S1             1
@<TRIPOS>SET
LONE_PAIRS      STATIC     ATOMS    <user>   **** ""
9 48 49 50 51 52 53 54 55 56
DONOR_HYDROGENS      STATIC     ATOMS    <user>   **** ""
3 37 45 46
ATOM$BLUE        STATIC     ATOMS    COLORGROUP SYSTEM
9 48 49 50 51 52 53 54 55 56
ATOM$RED        STATIC     ATOMS    COLORGROUP SYSTEM
3 37 45 46
