#       Name:                AV-unprocessed.smi:592
#       Creating user name   scv26
#       Creation time:       Thu Mar 26 23:51:51 2020


#       File generated by GOLD software.
#

@<TRIPOS>MOLECULE
AV-unprocessed.smi:592
    32    33     1
SMALL
NO_CHARGES


@<TRIPOS>ATOM
      1 ****        -2.1152   1.0701  -0.0809 O.2            1 S1                 0.0000
      2 ****        -1.3220   0.1298  -0.0407 C.2            1 S1                 0.0000
      3 ****         0.1952   0.4222  -0.0423 C.3            1 S1                 0.0000
      4 ****         0.5214   1.8558   0.0513 N.am           1 S1                 0.0000
      5 ****         0.7420   2.5415  -1.1600 C.2            1 S1                 0.0000
      6 ****         1.0448   3.8488  -1.1914 C.2            1 S1                 0.0000
      7 ****         1.1447   4.5564   0.0629 C.2            1 S1                 0.0000
      8 ****         0.9303   3.9119   1.2271 C.2            1 S1                 0.0000
      9 ****         0.5930   2.4840   1.2657 C.2            1 S1                 0.0000
     10 ****         0.3872   1.8902   2.3247 O.2            1 S1                 0.0000
     11 ****        -1.8013  -1.1323   0.0120 N.am           1 S1                 0.0000
     12 ****        -3.1224  -1.5872   0.0223 C.2            1 S1                 0.0000
     13 ****        -4.1867  -0.8792   0.1737 N.2            1 S1                 0.0000
     14 ****        -5.3711  -1.7223   0.0807 C.3            1 S1                 0.0000
     15 ****        -4.9968  -3.2237   0.1770 C.3            1 S1                 0.0000
     16 ****        -3.2358  -3.3557  -0.1511 S.3            1 S1                 0.0000
     17 ****         0.6693  -0.1130   0.7821 H              1 S1                 0.0000
     18 ****         0.6302   0.0089  -0.9532 H              1 S1                 0.0000
     19 ****         0.6414   1.9417  -2.0530 H              1 S1                 0.0000
     20 ****         1.2055   4.3585  -2.1300 H              1 S1                 0.0000
     21 ****         1.3919   5.6078   0.0677 H              1 S1                 0.0000
     22 ****         1.0092   4.4576   2.1558 H              1 S1                 0.0000
     23 ****        -1.0880  -1.8464   0.0401 H              1 S1                 0.0000
     24 ****        -6.0829  -1.4603   0.8642 H              1 S1                 0.0000
     25 ****        -5.8710  -1.5277  -0.8690 H              1 S1                 0.0000
     26 ****        -5.1846  -3.5955   1.1848 H              1 S1                 0.0000
     27 ****        -5.5718  -3.8357  -0.5182 H              1 S1                 0.0000
     28 ****        -1.7752   2.0099  -0.1141 LP             1 S1                 0.0000
     29 ****        -3.0996   0.8942  -0.0804 LP             1 S1                 0.0000
     30 ****         0.1590   0.9166   2.3158 LP             1 S1                 0.0000
     31 ****         0.4483   2.3815   3.1935 LP             1 S1                 0.0000
     32 ****        -4.1988   0.1080   0.3325 LP             1 S1                 0.0000
@<TRIPOS>BOND
    1    1    2 2     
    2    2    3 1     
    3    2   11 am    
    4    3    4 1     
    5    3   17 1     
    6    3   18 1     
    7    4    9 am    
    8    4    5 1     
    9    5    6 2     
   10    5   19 1     
   11    6    7 1     
   12    6   20 1     
   13    7    8 2     
   14    7   21 1     
   15    8    9 1     
   16    8   22 1     
   17    9   10 2     
   18   11   12 1     
   19   11   23 1     
   20   12   16 1     
   21   12   13 2     
   22   13   14 1     
   23   14   15 1     
   24   14   24 1     
   25   14   25 1     
   26   15   16 1     
   27   15   26 1     
   28   15   27 1     
   29    1   28 1     
   30    1   29 1     
   31   10   30 1     
   32   10   31 1     
   33   13   32 1     
@<TRIPOS>SUBSTRUCTURE
      1 S1             1
@<TRIPOS>SET
LONE_PAIRS      STATIC     ATOMS    <user>   **** ""
5 28 29 30 31 32
DONOR_HYDROGENS      STATIC     ATOMS    <user>   **** ""
1 23
ATOM$BLUE        STATIC     ATOMS    COLORGROUP SYSTEM
5 28 29 30 31 32
ATOM$RED        STATIC     ATOMS    COLORGROUP SYSTEM
1 23
