AV-unprocessed.smi:1502|AV-procd|sdf|6067|dock7
  -GOLD-   22720 6183D 1   1.00000     0.00000
 Structure written by MMmdl.
 40 41  0  0  0  0  0  0  0  0  1 V2000
  150.7140  140.7740  155.2996 O   0  0  0  0  0  0  0  0  0  0  0  0
  149.6224  140.9615  155.8356 C   0  0  0  0  0  0  0  0  0  0  0  0
  148.3427  140.5366  155.0929 C   0  0  0  0  0  0  0  0  0  0  0  0
  147.2837  141.5588  155.0437 N   0  0  0  0  0  0  0  0  0  0  0  0
  147.0263  142.0420  153.7725 N   0  0  0  0  0  0  0  0  0  0  0  0
  146.1288  142.9519  153.6091 C   0  0  0  0  0  0  0  0  0  0  0  0
  145.3699  143.4925  154.7151 C   0  0  0  0  0  0  0  0  0  0  0  0
  144.1788  144.7131  154.4345 Cl  0  0  0  0  0  0  0  0  0  0  0  0
  145.6272  143.0100  155.9567 C   0  0  0  0  0  0  0  0  0  0  0  0
  144.7611  143.6092  157.3295 Cl  0  0  0  0  0  0  0  0  0  0  0  0
  146.6442  141.9733  156.1811 C   0  0  0  0  0  0  0  0  0  0  0  0
  146.9134  141.5165  157.2924 O   0  0  0  0  0  0  0  0  0  0  0  0
  149.4929  141.5258  157.0490 N   0  0  0  0  0  0  0  0  0  0  0  0
  150.5830  141.9753  157.9114 C   0  0  0  0  0  0  0  0  0  0  0  0
  151.4071  143.0581  157.1766 C   0  0  0  0  0  0  0  0  0  0  0  0
  151.5286  144.3985  157.9264 C   0  0  0  0  0  0  0  0  0  0  0  0
  151.8406  144.3464  159.4368 C   0  0  0  0  0  0  0  0  0  0  0  0
  153.0534  143.4978  159.8571 C   0  0  0  0  0  0  0  0  0  0  0  0
  152.7399  142.0297  160.2203 C   0  0  0  0  0  0  0  0  0  0  0  0
  152.7732  141.0413  159.0413 C   0  0  0  0  0  0  0  0  0  0  0  0
  151.4245  140.7550  158.3490 C   0  0  0  0  0  0  0  0  0  0  0  0
  148.6271  140.2509  154.0786 H   0  0  0  0  0  0  0  0  0  0  0  0
  147.9623  139.6216  155.5506 H   0  0  0  0  0  0  0  0  0  0  0  0
  145.8934  143.3632  152.6275 H   0  0  0  0  0  0  0  0  0  0  0  0
  148.5573  141.6432  157.4096 H   0  0  0  0  0  0  0  0  0  0  0  0
  150.1249  142.4115  158.7980 H   0  0  0  0  0  0  0  0  0  0  0  0
  152.4034  142.6886  156.9388 H   0  0  0  0  0  0  0  0  0  0  0  0
  150.9688  143.2691  156.1997 H   0  0  0  0  0  0  0  0  0  0  0  0
  152.2901  144.9996  157.4285 H   0  0  0  0  0  0  0  0  0  0  0  0
  150.5958  144.9491  157.7993 H   0  0  0  0  0  0  0  0  0  0  0  0
  152.0297  145.3738  159.7503 H   0  0  0  0  0  0  0  0  0  0  0  0
  150.9612  144.0487  160.0073 H   0  0  0  0  0  0  0  0  0  0  0  0
  153.8517  143.5633  159.1172 H   0  0  0  0  0  0  0  0  0  0  0  0
  153.4616  143.9607  160.7566 H   0  0  0  0  0  0  0  0  0  0  0  0
  153.5135  141.7096  160.9195 H   0  0  0  0  0  0  0  0  0  0  0  0
  151.8046  141.9472  160.7752 H   0  0  0  0  0  0  0  0  0  0  0  0
  153.5241  141.3525  158.3156 H   0  0  0  0  0  0  0  0  0  0  0  0
  153.1400  140.0854  159.4169 H   0  0  0  0  0  0  0  0  0  0  0  0
  150.8186  140.1393  159.0151 H   0  0  0  0  0  0  0  0  0  0  0  0
  151.6278  140.1297  157.4785 H   0  0  0  0  0  0  0  0  0  0  0  0
  1  2  2  0  0  0  0
  2  3  1  0  0  0  0
  2 13  1  0  0  0  0
  3  4  1  0  0  0  0
  3 22  1  0  0  0  0
  3 23  1  0  0  0  0
  4 11  1  0  0  0  0
  4  5  1  0  0  0  0
  5  6  2  0  0  0  0
  6  7  1  0  0  0  0
  6 24  1  0  0  0  0
  7  8  1  0  0  0  0
  7  9  2  0  0  0  0
  9 10  1  0  0  0  0
  9 11  1  0  0  0  0
 11 12  2  0  0  0  0
 13 14  1  0  0  0  0
 13 25  1  0  0  0  0
 14 21  1  0  0  0  0
 14 15  1  0  0  0  0
 14 26  1  0  0  0  0
 15 16  1  0  0  0  0
 15 27  1  0  0  0  0
 15 28  1  0  0  0  0
 16 17  1  0  0  0  0
 16 29  1  0  0  0  0
 16 30  1  0  0  0  0
 17 18  1  0  0  0  0
 17 31  1  0  0  0  0
 17 32  1  0  0  0  0
 18 19  1  0  0  0  0
 18 33  1  0  0  0  0
 18 34  1  0  0  0  0
 19 20  1  0  0  0  0
 19 35  1  0  0  0  0
 19 36  1  0  0  0  0
 20 21  1  0  0  0  0
 20 37  1  0  0  0  0
 20 38  1  0  0  0  0
 21 39  1  0  0  0  0
 21 40  1  0  0  0  0
M  END
> <s_m_source_file>
AV-unprocessed.smi

> <i_m_source_file_index>
1502

> <i_lp_mmshare_version>
43012

> <i_f3d_flags>
0

> <s_epik_input>
Tz1jMWMoQ2wpYyhDbClbY0hdbm4xW0NIMl1DKD1PKVtOSF1bQ0hdMltDSDJdW0NIMl1bQ0gyXVtDSDJdW0NIMl1bQ0gyXVtDSDJdMg==

> <s_epik_cmdline>
J2VwaWtfcHl0aG9uJywgJy1waCcsICc3LjAnLCAnLXRuJywgJzgnLCAnLW1hJywgJzIwMCcsICctbWV0YWxfYmluZGluZycsICctaW1hZScsICc8aW5maWxlLm1hZT4nLCAnLW9tYWUnLCAnPG91dGZpbGUubWFlPic=

> <r_lp_tautomer_probability>
1

> <r_epik_Ionization_Penalty>
2.0245e-08

> <r_epik_Ionization_Penalty_Charging>
3.01779e-11

> <r_epik_Ionization_Penalty_Neutral>
2.02148e-08

> <r_epik_State_Penalty>
-0

> <r_epik_Charging_Adjusted_Penalty>
3.01779e-11

> <i_epik_Tot_Q>
0

> <i_epik_Tot_abs_Q>
0

> <r_epik_Metal_State_Penalty>
-0

> <b_epik_Metal_Only>
0

> <s_lp_Force_Field>
OPLS_2005

> <r_lp_Energy>
35.729

> <b_lp_Chiralities_Consistent>
1

> <s_lp_Variant>
AV-unprocessed.smi:1502-1

> <Gold.Version>
5.8.1

> <Gold.Id.Protein>
6NUR|6NUR_protein|mol2

> <Gold.PLP.Fitness>
44.0638

> <Gold.PLP.PLP>
-41.8517

> <Gold.PLP.part.hbond>
-1.0000

> <Gold.PLP.part.metal>
0.0000

> <Gold.PLP.part.buried>
-6.9252

> <Gold.PLP.part.nonpolar>
-34.0805

> <Gold.PLP.part.repulsive>
0.3491

> <Gold.PLP.ligand.clash>
0.0000

> <Gold.PLP.ligand.torsion>
0.1719

> <Gold.PLP.Chemscore.Hbond>
0.8480

> <Gold.PLP.Chemscore.CHOScore>
0.0000

> <Gold.PLP.Chemscore.Metal>
0.0000

> <Gold.Chemscore.Hbonds>
donor molecule, donor type, donor heavy atom, donor atom, acceptor molecule, acceptor atom, score
      P1  H  7989  7998       L1     1  0.85

> <Gold.PLP.Chemscore.Internal.Correction>
0.0119

> <Gold.Rescore>
     Score         DG    S(hbond)    S(metal)    S(lipo)     H(rot)  DE(clash)    DE(int)     intcor
     15.08     -17.21       0.88        0.00     107.72       1.49       0.17       1.95       ----

> <Gold.Chemscore.Fitness>
15.0826

> <Gold.Chemscore.DG>
-17.2053

> <Gold.Chemscore.ZeroCoef>
-5.4800

> <Gold.Chemscore.Hbond>
0.8766

> <Gold.Chemscore.Metal>
0.0000

> <Gold.Chemscore.Lipo>
107.7199

> <Gold.Chemscore.Internal_Hbond>
0.0000

> <Gold.Chemscore.DEClash>
0.1731

> <Gold.Chemscore.DEInternal>
1.9496

> <Gold.Chemscore.Rot>
1.4866

> <Gold.Chemscore.Internal.Correction>
   9.000000E+99

> <Gold.Chemscore.Hbonds>
donor molecule, donor type, donor heavy atom, donor atom, acceptor molecule, acceptor atom, score
      P1  H  7989  7998       L1     1  0.79

> <Gold.Chemscore.Hbond.Weighted>
-2.9278

> <Gold.Chemscore.Metal.Weighted>
-0.0000

> <Gold.Chemscore.Lipo.Weighted>
-12.6032

> <Gold.Chemscore.Internal_Hbond.Weighted>
0.0000

> <Gold.Chemscore.DEClash.Weighted>
0.1731

> <Gold.Chemscore.DEInternal.Weighted>
1.9496

> <Gold.Chemscore.Rot.Weighted>
3.8057

> <Gold.Chemscore.Internal.Correction.Weighted>
   9.000000E+99

> <Gold.Protein.RotatedTorsions>
[ 6907 6896 6895 6894 ] final  -25.13 input  -60.11 | X-H torsion
[ 7974 7965 7964 7962 ] final  -22.07 input  175.53 | X-H torsion
[ 8008 7997 7996 7995 ] final   49.45 input   59.86 | X-H torsion
[ 10167 10162 10161 10158 ] final   73.82 input  -65.29 | X-H torsion
[ 10718 10713 10712 10709 ] final  -52.15 input   66.30 | X-H torsion
[ 10763 10752 10751 10750 ] final -162.89 input  -60.55 | X-H torsion
[ 11005 11000 10999 10996 ] final   53.76 input  -57.11 | X-H torsion

> <Gold.Protein.ActiveResidues>
 VAL166  LYS551  ARG553  GLY616  TRP617  ASP618  TYR619  PRO620  LYS621  CYS622 
 ASP623  PHE694  ASN695  SER759  ASP760  ASP761  ALA762  ILE779  LEU786  VAL792 
 PHE793  MET794  SER795  GLU796  ALA797  LYS798  CYS799  TRP800  GLU811  SER814 

> <Gold.Protein.RotatedAtoms>
  151.1796  135.0355  159.8786 H   0  0  0  0  0  0  0  0  0  0  0  0  # atno 6907 bound_to 6896
  152.5445  134.1078  159.8355 H   0  0  0  0  0  0  0  0  0  0  0  0  # atno 6908 bound_to 6896
  151.1194  133.5068  159.2635 H   0  0  0  0  0  0  0  0  0  0  0  0  # atno 6909 bound_to 6896
  146.1697  140.4428  142.8537 H   0  0  0  0  0  0  0  0  0  0  0  0  # atno 7974 bound_to 7965
  155.4023  140.3438  155.4258 H   0  0  0  0  0  0  0  0  0  0  0  0  # atno 8008 bound_to 7997
  156.1496  140.1567  156.8823 H   0  0  0  0  0  0  0  0  0  0  0  0  # atno 8009 bound_to 7997
  154.5041  140.0807  156.7839 H   0  0  0  0  0  0  0  0  0  0  0  0  # atno 8010 bound_to 7997
  140.0203  144.5545  150.7587 H   0  0  0  0  0  0  0  0  0  0  0  0  # atno 10167 bound_to 10162
  156.1646  130.4149  149.9739 H   0  0  0  0  0  0  0  0  0  0  0  0  # atno 10718 bound_to 10713
  154.7173  135.3018  154.9103 H   0  0  0  0  0  0  0  0  0  0  0  0  # atno 10763 bound_to 10752
  153.9986  135.6709  153.4762 H   0  0  0  0  0  0  0  0  0  0  0  0  # atno 10764 bound_to 10752
  153.0804  135.5012  154.8407 H   0  0  0  0  0  0  0  0  0  0  0  0  # atno 10765 bound_to 10752
  140.0741  134.5429  155.9015 H   0  0  0  0  0  0  0  0  0  0  0  0  # atno 11005 bound_to 11000
  144.8144  140.6442  143.6394 LP  0  0  0  0  0  0  0  0  0  0  0  0  # atno 17320 bound_to 7965
  145.4374  139.1540  143.3989 LP  0  0  0  0  0  0  0  0  0  0  0  0  # atno 17321 bound_to 7965
  140.7345  143.2730  151.3830 LP  0  0  0  0  0  0  0  0  0  0  0  0  # atno 17342 bound_to 10162
  139.6144  144.1032  152.2331 LP  0  0  0  0  0  0  0  0  0  0  0  0  # atno 17343 bound_to 10162
  156.7558  130.9132  151.3639 LP  0  0  0  0  0  0  0  0  0  0  0  0  # atno 17370 bound_to 10713
  157.6758  130.9093  150.0148 LP  0  0  0  0  0  0  0  0  0  0  0  0  # atno 17371 bound_to 10713
  141.2023  133.6624  156.5998 LP  0  0  0  0  0  0  0  0  0  0  0  0  # atno 17394 bound_to 11000
  140.3584  134.7709  157.4516 LP  0  0  0  0  0  0  0  0  0  0  0  0  # atno 17395 bound_to 11000

$$$$
