AV-unprocessed.smi:2684|AV-procd|sdf|10380|dock9
  -GOLD-   2272014413D 1   1.00000     0.00000
 Structure written by MMmdl.
 44 45  0  0  0  0  0  0  0  0  1 V2000
  153.0163  138.5767  154.8626 C   0  0  0  0  0  0  0  0  0  0  0  0
  151.5848  139.0139  154.9719 C   0  0  0  0  0  0  0  0  0  0  0  0
  151.0728  140.1863  155.5964 C   0  0  0  0  0  0  0  0  0  0  0  0
  149.7543  140.2714  155.5284 N   0  0  0  0  0  0  0  0  0  0  0  0
  149.3798  139.1658  154.8494 N   0  0  0  0  0  0  0  0  0  0  0  0
  147.9732  138.9154  154.5892 C   0  0  0  0  0  0  0  0  0  0  0  0
  147.3615  139.8450  153.5162 C   0  0  2  0  0  0  0  0  0  0  0  0
  146.8646  141.1525  154.1483 C   0  0  0  0  0  0  0  0  0  0  0  0
  146.2112  139.2134  152.8741 N   0  0  0  0  0  0  0  0  0  0  0  0
  146.6106  138.2508  151.8396 C   0  0  0  0  0  0  0  0  0  0  0  0
  145.7916  136.9553  151.9242 C   0  0  0  0  0  0  0  0  0  0  0  0
  144.5811  137.0285  152.1283 O   0  0  0  0  0  0  0  0  0  0  0  0
  146.3840  135.7577  151.7676 N   0  0  0  0  0  0  0  0  0  0  0  0
  145.7854  134.4251  151.8122 C   0  0  0  0  0  0  0  0  0  0  0  0
  146.8394  133.3230  151.5950 C   0  0  0  0  0  0  0  0  0  0  0  0
  146.1668  131.9462  151.4793 C   0  0  0  0  0  0  0  0  0  0  0  0
  145.2189  131.9566  150.4177 O   0  0  0  0  0  0  0  0  0  0  0  0
  144.1595  132.8828  150.6290 C   0  0  0  0  0  0  0  0  0  0  0  0
  144.7150  134.3137  150.7154 C   0  0  0  0  0  0  0  0  0  0  0  0
  150.4641  138.3874  154.5053 C   0  0  0  0  0  0  0  0  0  0  0  0
  153.7035  139.4206  154.9256 H   0  0  0  0  0  0  0  0  0  0  0  0
  153.2120  138.0718  153.9163 H   0  0  0  0  0  0  0  0  0  0  0  0
  153.2851  137.8827  155.6595 H   0  0  0  0  0  0  0  0  0  0  0  0
  151.6176  140.9717  156.0991 H   0  0  0  0  0  0  0  0  0  0  0  0
  147.8520  137.8697  154.3015 H   0  0  0  0  0  0  0  0  0  0  0  0
  147.4384  139.0370  155.5324 H   0  0  0  0  0  0  0  0  0  0  0  0
  148.1195  140.1118  152.7773 H   0  0  0  0  0  0  0  0  0  0  0  0
  147.6825  141.6880  154.6310 H   0  0  0  0  0  0  0  0  0  0  0  0
  146.0998  140.9672  154.9036 H   0  0  0  0  0  0  0  0  0  0  0  0
  146.4383  141.8181  153.3965 H   0  0  0  0  0  0  0  0  0  0  0  0
  145.6252  139.9339  152.4764 H   0  0  0  0  0  0  0  0  0  0  0  0
  146.4412  138.6874  150.8545 H   0  0  0  0  0  0  0  0  0  0  0  0
  147.6768  138.0606  151.9148 H   0  0  0  0  0  0  0  0  0  0  0  0
  147.3765  135.7774  151.5827 H   0  0  0  0  0  0  0  0  0  0  0  0
  145.2902  134.2797  152.7727 H   0  0  0  0  0  0  0  0  0  0  0  0
  147.4023  133.5243  150.6826 H   0  0  0  0  0  0  0  0  0  0  0  0
  147.5649  133.3069  152.4079 H   0  0  0  0  0  0  0  0  0  0  0  0
  146.9149  131.1803  151.2751 H   0  0  0  0  0  0  0  0  0  0  0  0
  145.6788  131.6724  152.4160 H   0  0  0  0  0  0  0  0  0  0  0  0
  143.4548  132.8056  149.8010 H   0  0  0  0  0  0  0  0  0  0  0  0
  143.6115  132.6225  151.5344 H   0  0  0  0  0  0  0  0  0  0  0  0
  143.9035  135.0170  150.9057 H   0  0  0  0  0  0  0  0  0  0  0  0
  145.1434  134.5862  149.7496 H   0  0  0  0  0  0  0  0  0  0  0  0
  150.3494  137.4610  153.9621 H   0  0  0  0  0  0  0  0  0  0  0  0
  1  2  1  0  0  0  0
  1 21  1  0  0  0  0
  1 22  1  0  0  0  0
  1 23  1  0  0  0  0
  2 20  2  0  0  0  0
  2  3  1  0  0  0  0
  3  4  2  0  0  0  0
  3 24  1  0  0  0  0
  4  5  1  0  0  0  0
  5  6  1  0  0  0  0
  5 20  1  0  0  0  0
  6  7  1  0  0  0  0
  6 25  1  0  0  0  0
  6 26  1  0  0  0  0
  7  8  1  0  0  0  0
  7  9  1  0  0  0  0
  7 27  1  0  0  0  0
  8 28  1  0  0  0  0
  8 29  1  0  0  0  0
  8 30  1  0  0  0  0
  9 10  1  0  0  0  0
  9 31  1  0  0  0  0
 10 11  1  0  0  0  0
 10 32  1  0  0  0  0
 10 33  1  0  0  0  0
 11 12  2  0  0  0  0
 11 13  1  0  0  0  0
 13 14  1  0  0  0  0
 13 34  1  0  0  0  0
 14 19  1  0  0  0  0
 14 15  1  0  0  0  0
 14 35  1  0  0  0  0
 15 16  1  0  0  0  0
 15 36  1  0  0  0  0
 15 37  1  0  0  0  0
 16 17  1  0  0  0  0
 16 38  1  0  0  0  0
 16 39  1  0  0  0  0
 17 18  1  0  0  0  0
 18 19  1  0  0  0  0
 18 40  1  0  0  0  0
 18 41  1  0  0  0  0
 19 42  1  0  0  0  0
 19 43  1  0  0  0  0
 20 44  1  0  0  0  0
M  END
> <s_m_source_file>
AV-unprocessed.smi

> <i_m_source_file_index>
2684

> <i_lp_mmshare_version>
43012

> <i_f3d_flags>
0

> <s_epik_input>
W0NIM11jMVtjSF1ubihbY0hdMSlbQ0gyXVtDQEhdKFtDSDNdKVtOSF1bQ0gyXUMoPU8pW05IXVtDSF0yW0NIMl1bQ0gyXU9bQ0gyXVtDSDJdMg==

> <s_epik_cmdline>
J2VwaWtfcHl0aG9uJywgJy1waCcsICc3LjAnLCAnLXRuJywgJzgnLCAnLW1hJywgJzIwMCcsICctbWV0YWxfYmluZGluZycsICctaW1hZScsICc8aW5maWxlLm1hZT4nLCAnLW9tYWUnLCAnPG91dGZpbGUubWFlPic=

> <r_lp_tautomer_probability>
1

> <r_epik_Ionization_Penalty>
0.968507

> <r_epik_Ionization_Penalty_Charging>
0

> <r_epik_Ionization_Penalty_Neutral>
0.968507

> <r_epik_State_Penalty>
1.01412

> <r_epik_Charging_Adjusted_Penalty>
1.01412

> <i_epik_Tot_Q>
0

> <i_epik_Tot_abs_Q>
0

> <r_epik_Metal_State_Penalty>
1.01401

> <b_epik_Metal_Only>
0

> <s_lp_Force_Field>
OPLS_2005

> <r_lp_Energy>
12.1402

> <b_lp_Chiralities_Consistent>
1

> <s_lp_Variant>
AV-unprocessed.smi:2684-3

> <Gold.Version>
5.8.1

> <Gold.Id.Protein>
6NUR|6NUR_protein|mol2

> <Gold.PLP.Fitness>
44.6645

> <Gold.PLP.PLP>
-37.9633

> <Gold.PLP.part.hbond>
-2.0000

> <Gold.PLP.part.metal>
0.0000

> <Gold.PLP.part.buried>
-3.0421

> <Gold.PLP.part.nonpolar>
-34.6087

> <Gold.PLP.part.repulsive>
2.1836

> <Gold.PLP.ligand.clash>
0.0000

> <Gold.PLP.ligand.torsion>
1.1858

> <Gold.PLP.Chemscore.Hbond>
1.9200

> <Gold.PLP.Chemscore.CHOScore>
1.0952

> <Gold.PLP.Chemscore.Metal>
0.0000

> <Gold.Chemscore.Hbonds>
donor molecule, donor type, donor heavy atom, donor atom, acceptor molecule, acceptor atom, score
      L1  H     9    31       P1 10175  0.78
      L1  H    13    34       P1  7948  1.00
      L1  C    20    44       P1  7948  0.42

> <Gold.PLP.Chemscore.Internal.Correction>
0.0272

> <Gold.Rescore>
     Score         DG    S(hbond)    S(metal)    S(lipo)     H(rot)  DE(clash)    DE(int)     intcor
     14.00     -17.32       1.88        0.00      90.77       1.97       1.38       1.94       ----

> <Gold.Chemscore.Fitness>
14.0010

> <Gold.Chemscore.DG>
-17.3180

> <Gold.Chemscore.ZeroCoef>
-5.4800

> <Gold.Chemscore.Hbond>
1.8773

> <Gold.Chemscore.Metal>
0.0000

> <Gold.Chemscore.Lipo>
90.7708

> <Gold.Chemscore.Internal_Hbond>
0.0000

> <Gold.Chemscore.DEClash>
1.3781

> <Gold.Chemscore.DEInternal>
1.9389

> <Gold.Chemscore.Rot>
1.9736

> <Gold.Chemscore.Internal.Correction>
   9.000000E+99

> <Gold.Chemscore.Hbonds>
donor molecule, donor type, donor heavy atom, donor atom, acceptor molecule, acceptor atom, score
      L1  H     9    31       P1 10175  0.70
      L1  H    13    34       P1  7948  0.98

> <Gold.Chemscore.Hbond.Weighted>
-6.2702

> <Gold.Chemscore.Metal.Weighted>
-0.0000

> <Gold.Chemscore.Lipo.Weighted>
-10.6202

> <Gold.Chemscore.Internal_Hbond.Weighted>
0.0000

> <Gold.Chemscore.DEClash.Weighted>
1.3781

> <Gold.Chemscore.DEInternal.Weighted>
1.9389

> <Gold.Chemscore.Rot.Weighted>
5.0523

> <Gold.Chemscore.Internal.Correction.Weighted>
   9.000000E+99

> <Gold.Protein.RotatedTorsions>
[ 6907 6896 6895 6894 ] final  -50.98 input  -60.11 | X-H torsion
[ 7974 7965 7964 7962 ] final  -60.18 input  175.53 | X-H torsion
[ 8008 7997 7996 7995 ] final   95.67 input   59.86 | X-H torsion
[ 10167 10162 10161 10158 ] final -169.15 input  -65.29 | X-H torsion
[ 10718 10713 10712 10709 ] final   97.53 input   66.30 | X-H torsion
[ 10763 10752 10751 10750 ] final  -47.14 input  -60.55 | X-H torsion
[ 11005 11000 10999 10996 ] final   -1.68 input  -57.11 | X-H torsion

> <Gold.Protein.ActiveResidues>
 VAL166  LYS551  ARG553  GLY616  TRP617  ASP618  TYR619  PRO620  LYS621  CYS622 
 ASP623  PHE694  ASN695  SER759  ASP760  ASP761  ALA762  ILE779  LEU786  VAL792 
 PHE793  MET794  SER795  GLU796  ALA797  LYS798  CYS799  TRP800  GLU811  SER814 

> <Gold.Protein.RotatedAtoms>
  150.8655  134.8017  159.7115 H   0  0  0  0  0  0  0  0  0  0  0  0  # atno 6907 bound_to 6896
  152.4678  134.5031  159.9740 H   0  0  0  0  0  0  0  0  0  0  0  0  # atno 6908 bound_to 6896
  151.5127  133.3443  159.2923 H   0  0  0  0  0  0  0  0  0  0  0  0  # atno 6909 bound_to 6896
  145.8186  140.8554  143.0144 H   0  0  0  0  0  0  0  0  0  0  0  0  # atno 7974 bound_to 7965
  156.0714  140.3283  155.7581 H   0  0  0  0  0  0  0  0  0  0  0  0  # atno 8008 bound_to 7997
  155.5299  140.0592  157.2908 H   0  0  0  0  0  0  0  0  0  0  0  0  # atno 8009 bound_to 7997
  154.4532  140.1929  156.0473 H   0  0  0  0  0  0  0  0  0  0  0  0  # atno 8010 bound_to 7997
  139.5940  144.1151  152.1668 H   0  0  0  0  0  0  0  0  0  0  0  0  # atno 10167 bound_to 10162
  157.6911  131.0612  150.4657 H   0  0  0  0  0  0  0  0  0  0  0  0  # atno 10718 bound_to 10713
  154.0565  135.6624  153.4806 H   0  0  0  0  0  0  0  0  0  0  0  0  # atno 10763 bound_to 10752
  153.0443  135.5124  154.7700 H   0  0  0  0  0  0  0  0  0  0  0  0  # atno 10764 bound_to 10752
  154.6723  135.3031  154.9692 H   0  0  0  0  0  0  0  0  0  0  0  0  # atno 10765 bound_to 10752
  140.6499  133.9413  155.8374 H   0  0  0  0  0  0  0  0  0  0  0  0  # atno 11005 bound_to 11000
  144.6750  140.0500  143.7479 LP  0  0  0  0  0  0  0  0  0  0  0  0  # atno 17320 bound_to 7965
  145.9700  139.2862  143.1104 LP  0  0  0  0  0  0  0  0  0  0  0  0  # atno 17321 bound_to 7965
  140.0732  144.5762  150.7176 LP  0  0  0  0  0  0  0  0  0  0  0  0  # atno 17342 bound_to 10162
  140.7197  143.2577  151.4319 LP  0  0  0  0  0  0  0  0  0  0  0  0  # atno 17343 bound_to 10162
  156.4999  130.4114  149.6359 LP  0  0  0  0  0  0  0  0  0  0  0  0  # atno 17370 bound_to 10713
  156.3338  130.7346  151.2280 LP  0  0  0  0  0  0  0  0  0  0  0  0  # atno 17371 bound_to 10713
  141.0544  134.0438  157.3742 LP  0  0  0  0  0  0  0  0  0  0  0  0  # atno 17394 bound_to 11000
  139.9049  135.0176  156.7441 LP  0  0  0  0  0  0  0  0  0  0  0  0  # atno 17395 bound_to 11000

$$$$
