AV-unprocessed.smi:2945|AV-procd|sdf|11277|dock3
  -GOLD-   2272016173D 1   1.00000     0.00000
 Structure written by MMmdl.
 36 37  0  0  0  0  0  0  0  0  1 V2000
  150.0370  142.1054  155.7835 C   0  0  0  0  0  0  0  0  0  0  0  0
  149.8116  140.7867  155.1265 C   0  0  0  0  0  0  0  0  0  0  0  0
  148.6932  140.1657  154.6461 C   0  0  0  0  0  0  0  0  0  0  0  0
  149.1980  138.9320  154.1559 C   0  0  0  0  0  0  0  0  0  0  0  0
  148.3325  137.9760  153.5664 N   0  0  0  0  0  0  0  0  0  0  0  0
  147.0815  137.6599  153.9410 C   0  0  0  0  0  0  0  0  0  0  0  0
  146.4802  138.1557  154.8943 O   0  0  0  0  0  0  0  0  0  0  0  0
  146.5618  136.7198  153.1376 N   0  0  0  0  0  0  0  0  0  0  0  0
  145.2203  136.1404  153.2365 C   0  0  1  0  0  0  0  0  0  0  0  0
  144.4263  136.4434  151.9498 C   0  0  0  0  0  0  0  0  0  0  0  0
  144.9632  135.6623  150.7378 C   0  0  0  0  0  0  0  0  0  0  0  0
  145.0005  134.1532  151.0212 C   0  0  0  0  0  0  0  0  0  0  0  0
  145.8093  133.8412  152.2907 C   0  0  0  0  0  0  0  0  0  0  0  0
  145.2709  134.6157  153.5118 C   0  0  1  0  0  0  0  0  0  0  0  0
  146.0434  134.2599  154.7935 C   0  0  0  0  0  0  0  0  0  0  0  0
  150.5062  138.8113  154.3201 N   0  0  0  0  0  0  0  0  0  0  0  0
  150.9064  139.9997  154.9427 O   0  0  0  0  0  0  0  0  0  0  0  0
  149.0915  142.6154  155.9688 H   0  0  0  0  0  0  0  0  0  0  0  0
  150.6516  142.7499  155.1548 H   0  0  0  0  0  0  0  0  0  0  0  0
  150.5452  141.9798  156.7396 H   0  0  0  0  0  0  0  0  0  0  0  0
  147.6788  140.5360  154.6485 H   0  0  0  0  0  0  0  0  0  0  0  0
  148.7029  137.4856  152.7662 H   0  0  0  0  0  0  0  0  0  0  0  0
  147.1401  136.3749  152.3857 H   0  0  0  0  0  0  0  0  0  0  0  0
  144.6849  136.6130  154.0618 H   0  0  0  0  0  0  0  0  0  0  0  0
  143.3794  136.1799  152.1060 H   0  0  0  0  0  0  0  0  0  0  0  0
  144.4400  137.5138  151.7408 H   0  0  0  0  0  0  0  0  0  0  0  0
  144.3408  135.8601  149.8648 H   0  0  0  0  0  0  0  0  0  0  0  0
  145.9647  136.0123  150.4852 H   0  0  0  0  0  0  0  0  0  0  0  0
  143.9825  133.7786  151.1356 H   0  0  0  0  0  0  0  0  0  0  0  0
  145.4290  133.6260  150.1684 H   0  0  0  0  0  0  0  0  0  0  0  0
  145.7752  132.7690  152.4863 H   0  0  0  0  0  0  0  0  0  0  0  0
  146.8587  134.0877  152.1250 H   0  0  0  0  0  0  0  0  0  0  0  0
  144.2419  134.2884  153.6698 H   0  0  0  0  0  0  0  0  0  0  0  0
  147.1042  134.4954  154.7055 H   0  0  0  0  0  0  0  0  0  0  0  0
  145.9613  133.1958  155.0157 H   0  0  0  0  0  0  0  0  0  0  0  0
  145.6506  134.8062  155.6513 H   0  0  0  0  0  0  0  0  0  0  0  0
  1  2  1  0  0  0  0
  1 18  1  0  0  0  0
  1 19  1  0  0  0  0
  1 20  1  0  0  0  0
  2 17  1  0  0  0  0
  2  3  2  0  0  0  0
  3  4  1  0  0  0  0
  3 21  1  0  0  0  0
  4  5  1  0  0  0  0
  4 16  2  0  0  0  0
  5  6  1  0  0  0  0
  5 22  1  0  0  0  0
  6  7  2  0  0  0  0
  6  8  1  0  0  0  0
  8  9  1  0  0  0  0
  8 23  1  0  0  0  0
  9 14  1  0  0  0  0
  9 10  1  0  0  0  0
  9 24  1  0  0  0  0
 10 11  1  0  0  0  0
 10 25  1  0  0  0  0
 10 26  1  0  0  0  0
 11 12  1  0  0  0  0
 11 27  1  0  0  0  0
 11 28  1  0  0  0  0
 12 13  1  0  0  0  0
 12 29  1  0  0  0  0
 12 30  1  0  0  0  0
 13 14  1  0  0  0  0
 13 31  1  0  0  0  0
 13 32  1  0  0  0  0
 14 15  1  0  0  0  0
 14 33  1  0  0  0  0
 15 34  1  0  0  0  0
 15 35  1  0  0  0  0
 15 36  1  0  0  0  0
 16 17  1  0  0  0  0
M  END
> <s_m_source_file>
AV-unprocessed.smi

> <i_m_source_file_index>
2945

> <i_lp_mmshare_version>
43012

> <i_f3d_flags>
0

> <s_epik_input>
W0NIM11jMVtjSF1jKG5vMSlbTkhdQyg9TylbTkhdW0NAQEhdMltDSDJdW0NIMl1bQ0gyXVtDSDJdW0NASF0yW0NIM10=

> <s_epik_cmdline>
J2VwaWtfcHl0aG9uJywgJy1waCcsICc3LjAnLCAnLXRuJywgJzgnLCAnLW1hJywgJzIwMCcsICctbWV0YWxfYmluZGluZycsICctaW1hZScsICc8aW5maWxlLm1hZT4nLCAnLW9tYWUnLCAnPG91dGZpbGUubWFlPic=

> <r_lp_tautomer_probability>
1

> <r_epik_Ionization_Penalty>
2.357e-05

> <r_epik_Ionization_Penalty_Charging>
0

> <r_epik_Ionization_Penalty_Neutral>
2.357e-05

> <r_epik_State_Penalty>
-0

> <r_epik_Charging_Adjusted_Penalty>
0

> <i_epik_Tot_Q>
0

> <i_epik_Tot_abs_Q>
0

> <r_epik_Metal_State_Penalty>
-0

> <b_epik_Metal_Only>
0

> <s_lp_Force_Field>
OPLS_2005

> <r_lp_Energy>
7.46694

> <b_lp_Chiralities_Consistent>
1

> <s_lp_Variant>
AV-unprocessed.smi:2945-2

> <Gold.Version>
5.8.1

> <Gold.Id.Protein>
6NUR|6NUR_protein|mol2

> <Gold.PLP.Fitness>
29.0049

> <Gold.PLP.PLP>
-20.9828

> <Gold.PLP.part.hbond>
-2.8728

> <Gold.PLP.part.metal>
0.0000

> <Gold.PLP.part.buried>
-0.4127

> <Gold.PLP.part.nonpolar>
-17.5218

> <Gold.PLP.part.repulsive>
0.3364

> <Gold.PLP.ligand.clash>
0.0000

> <Gold.PLP.ligand.torsion>
0.2883

> <Gold.PLP.Chemscore.Hbond>
2.8640

> <Gold.PLP.Chemscore.CHOScore>
0.0000

> <Gold.PLP.Chemscore.Metal>
0.0000

> <Gold.Chemscore.Hbonds>
donor molecule, donor type, donor heavy atom, donor atom, acceptor molecule, acceptor atom, score
      L1  H     5    22       P1  7948  1.00
      L1  H     8    23       P1  7948  0.85
      P1  H  7989  7998       L1    17  0.95

> <Gold.PLP.Chemscore.Internal.Correction>
0.0068

> <Gold.Rescore>
     Score         DG    S(hbond)    S(metal)    S(lipo)     H(rot)  DE(clash)    DE(int)     intcor
     13.43     -14.81       1.83        0.00      49.46       1.00       0.96       0.43       ----

> <Gold.Chemscore.Fitness>
13.4253

> <Gold.Chemscore.DG>
-14.8121

> <Gold.Chemscore.ZeroCoef>
-5.4800

> <Gold.Chemscore.Hbond>
1.8279

> <Gold.Chemscore.Metal>
0.0000

> <Gold.Chemscore.Lipo>
49.4594

> <Gold.Chemscore.Internal_Hbond>
0.0000

> <Gold.Chemscore.DEClash>
0.9564

> <Gold.Chemscore.DEInternal>
0.4304

> <Gold.Chemscore.Rot>
1.0000

> <Gold.Chemscore.Internal.Correction>
   9.000000E+99

> <Gold.Chemscore.Hbonds>
donor molecule, donor type, donor heavy atom, donor atom, acceptor molecule, acceptor atom, score
      L1  H     5    22       P1  7948  0.94
      L1  H     8    23       P1  7948  0.85
      P1  H  7989  7998       L1    17  0.06

> <Gold.Chemscore.Hbond.Weighted>
-6.1053

> <Gold.Chemscore.Metal.Weighted>
-0.0000

> <Gold.Chemscore.Lipo.Weighted>
-5.7868

> <Gold.Chemscore.Internal_Hbond.Weighted>
0.0000

> <Gold.Chemscore.DEClash.Weighted>
0.9564

> <Gold.Chemscore.DEInternal.Weighted>
0.4304

> <Gold.Chemscore.Rot.Weighted>
2.5600

> <Gold.Chemscore.Internal.Correction.Weighted>
   9.000000E+99

> <Gold.Protein.RotatedTorsions>
[ 6907 6896 6895 6894 ] final  102.91 input  -60.11 | X-H torsion
[ 7974 7965 7964 7962 ] final  177.18 input  175.53 | X-H torsion
[ 8008 7997 7996 7995 ] final -118.67 input   59.86 | X-H torsion
[ 10167 10162 10161 10158 ] final  115.38 input  -65.29 | X-H torsion
[ 10718 10713 10712 10709 ] final  -81.90 input   66.30 | X-H torsion
[ 10763 10752 10751 10750 ] final -175.71 input  -60.55 | X-H torsion
[ 11005 11000 10999 10996 ] final -143.93 input  -57.11 | X-H torsion

> <Gold.Protein.ActiveResidues>
 VAL166  LYS551  ARG553  GLY616  TRP617  ASP618  TYR619  PRO620  LYS621  CYS622 
 ASP623  PHE694  ASN695  SER759  ASP760  ASP761  ALA762  ILE779  LEU786  VAL792 
 PHE793  MET794  SER795  GLU796  ALA797  LYS798  CYS799  TRP800  GLU811  SER814 

> <Gold.Protein.RotatedAtoms>
  152.5310  133.9905  159.7848 H   0  0  0  0  0  0  0  0  0  0  0  0  # atno 6907 bound_to 6896
  151.0142  133.5929  159.2686 H   0  0  0  0  0  0  0  0  0  0  0  0  # atno 6908 bound_to 6896
  151.2993  135.0770  159.9286 H   0  0  0  0  0  0  0  0  0  0  0  0  # atno 6909 bound_to 6896
  144.7173  140.0209  143.6440 H   0  0  0  0  0  0  0  0  0  0  0  0  # atno 7974 bound_to 7965
  155.1033  140.0396  157.2703 H   0  0  0  0  0  0  0  0  0  0  0  0  # atno 8008 bound_to 7997
  154.6741  140.2618  155.6951 H   0  0  0  0  0  0  0  0  0  0  0  0  # atno 8009 bound_to 7997
  156.2670  140.2792  156.1261 H   0  0  0  0  0  0  0  0  0  0  0  0  # atno 8010 bound_to 7997
  139.6321  144.7116  151.2410 H   0  0  0  0  0  0  0  0  0  0  0  0  # atno 10167 bound_to 10162
  156.0042  130.4618  150.4023 H   0  0  0  0  0  0  0  0  0  0  0  0  # atno 10718 bound_to 10713
  154.5812  135.2836  155.0731 H   0  0  0  0  0  0  0  0  0  0  0  0  # atno 10763 bound_to 10752
  154.2067  135.6415  153.5106 H   0  0  0  0  0  0  0  0  0  0  0  0  # atno 10764 bound_to 10752
  153.0089  135.5482  154.6466 H   0  0  0  0  0  0  0  0  0  0  0  0  # atno 10765 bound_to 10752
  140.8075  134.2784  157.4954 H   0  0  0  0  0  0  0  0  0  0  0  0  # atno 11005 bound_to 11000
  146.0182  139.3228  143.0829 LP  0  0  0  0  0  0  0  0  0  0  0  0  # atno 17320 bound_to 7965
  145.8600  140.9480  143.0705 LP  0  0  0  0  0  0  0  0  0  0  0  0  # atno 17321 bound_to 7965
  140.7445  143.6461  150.8291 LP  0  0  0  0  0  0  0  0  0  0  0  0  # atno 17342 bound_to 10162
  140.0087  143.5666  152.2847 LP  0  0  0  0  0  0  0  0  0  0  0  0  # atno 17343 bound_to 10162
  157.2091  131.0456  151.2609 LP  0  0  0  0  0  0  0  0  0  0  0  0  # atno 17370 bound_to 10713
  157.3905  130.7280  149.6694 LP  0  0  0  0  0  0  0  0  0  0  0  0  # atno 17371 bound_to 10713
  139.8716  134.9464  156.3938 LP  0  0  0  0  0  0  0  0  0  0  0  0  # atno 17394 bound_to 11000
  140.9232  133.7631  155.9932 LP  0  0  0  0  0  0  0  0  0  0  0  0  # atno 17395 bound_to 11000

$$$$
