AV-unprocessed.smi:1835|AV-procd|sdf|7474|dock6
  -GOLD-   22720 9173D 1   1.00000     0.00000
 Structure written by MMmdl.
 41 42  0  0  0  0  0  0  0  0  1 V2000
  151.5970  136.6658  156.8103 C   0  0  0  0  0  0  0  0  0  0  0  0
  150.7885  136.9813  158.0943 C   0  0  1  0  0  0  0  0  0  0  0  0
  149.7255  138.0690  157.7615 C   0  0  0  0  0  0  0  0  0  0  0  0
  150.3013  139.3068  157.2425 N   0  0  0  0  0  0  0  0  0  0  0  0
  149.7959  140.5337  157.4400 C   0  0  0  0  0  0  0  0  0  0  0  0
  148.7812  140.7445  158.1060 O   0  0  0  0  0  0  0  0  0  0  0  0
  150.5742  141.6918  156.7991 C   0  0  0  0  0  0  0  0  0  0  0  0
  151.3741  142.4631  157.7652 N   0  0  0  0  0  0  0  0  0  0  0  0
  151.2420  143.8657  157.7316 C   0  0  0  0  0  0  0  0  0  0  0  0
  151.9279  144.6636  158.5652 C   0  0  0  0  0  0  0  0  0  0  0  0
  152.8217  144.0486  159.5176 C   0  0  0  0  0  0  0  0  0  0  0  0
  152.9583  142.7081  159.5559 C   0  0  0  0  0  0  0  0  0  0  0  0
  152.2130  141.8322  158.6442 C   0  0  0  0  0  0  0  0  0  0  0  0
  152.3354  140.6071  158.6691 O   0  0  0  0  0  0  0  0  0  0  0  0
  150.2102  135.7694  158.7209 N   0  0  0  0  0  0  0  0  0  0  0  0
  149.4405  136.0754  159.9326 C   0  0  0  0  0  0  0  0  0  0  0  0
  148.8121  134.8259  160.5735 C   0  0  0  0  0  0  0  0  0  0  0  0
  147.9815  134.1698  159.6260 O   0  0  0  0  0  0  0  0  0  0  0  0
  148.7019  133.7838  158.4640 C   0  0  0  0  0  0  0  0  0  0  0  0
  149.3353  135.0233  157.8083 C   0  0  0  0  0  0  0  0  0  0  0  0
  151.9772  137.5647  156.3267 H   0  0  0  0  0  0  0  0  0  0  0  0
  150.9857  136.1345  156.0799 H   0  0  0  0  0  0  0  0  0  0  0  0
  152.4793  136.0616  157.0158 H   0  0  0  0  0  0  0  0  0  0  0  0
  151.4868  137.4217  158.8074 H   0  0  0  0  0  0  0  0  0  0  0  0
  149.0226  137.6858  157.0213 H   0  0  0  0  0  0  0  0  0  0  0  0
  149.1319  138.3440  158.6319 H   0  0  0  0  0  0  0  0  0  0  0  0
  151.1412  139.2220  156.6884 H   0  0  0  0  0  0  0  0  0  0  0  0
  151.2135  141.2791  156.0174 H   0  0  0  0  0  0  0  0  0  0  0  0
  149.8774  142.3515  156.2780 H   0  0  0  0  0  0  0  0  0  0  0  0
  150.5593  144.2462  156.9859 H   0  0  0  0  0  0  0  0  0  0  0  0
  151.8169  145.7371  158.5219 H   0  0  0  0  0  0  0  0  0  0  0  0
  153.3842  144.6664  160.2019 H   0  0  0  0  0  0  0  0  0  0  0  0
  153.6323  142.2658  160.2750 H   0  0  0  0  0  0  0  0  0  0  0  0
  150.0774  136.5333  160.6871 H   0  0  0  0  0  0  0  0  0  0  0  0
  148.6550  136.7959  159.6997 H   0  0  0  0  0  0  0  0  0  0  0  0
  149.5854  134.1424  160.9277 H   0  0  0  0  0  0  0  0  0  0  0  0
  148.2117  135.1060  161.4389 H   0  0  0  0  0  0  0  0  0  0  0  0
  149.4673  133.0515  158.7265 H   0  0  0  0  0  0  0  0  0  0  0  0
  148.0186  133.2963  157.7685 H   0  0  0  0  0  0  0  0  0  0  0  0
  148.5464  135.6780  157.4346 H   0  0  0  0  0  0  0  0  0  0  0  0
  149.8904  134.6693  156.9425 H   0  0  0  0  0  0  0  0  0  0  0  0
  1  2  1  0  0  0  0
  1 21  1  0  0  0  0
  1 22  1  0  0  0  0
  1 23  1  0  0  0  0
  2  3  1  0  0  0  0
  2 15  1  0  0  0  0
  2 24  1  0  0  0  0
  3  4  1  0  0  0  0
  3 25  1  0  0  0  0
  3 26  1  0  0  0  0
  4  5  1  0  0  0  0
  4 27  1  0  0  0  0
  5  6  2  0  0  0  0
  5  7  1  0  0  0  0
  7  8  1  0  0  0  0
  7 28  1  0  0  0  0
  7 29  1  0  0  0  0
  8 13  1  0  0  0  0
  8  9  1  0  0  0  0
  9 10  2  0  0  0  0
  9 30  1  0  0  0  0
 10 11  1  0  0  0  0
 10 31  1  0  0  0  0
 11 12  2  0  0  0  0
 11 32  1  0  0  0  0
 12 13  1  0  0  0  0
 12 33  1  0  0  0  0
 13 14  2  0  0  0  0
 15 20  1  0  0  0  0
 15 16  1  0  0  0  0
 16 17  1  0  0  0  0
 16 34  1  0  0  0  0
 16 35  1  0  0  0  0
 17 18  1  0  0  0  0
 17 36  1  0  0  0  0
 17 37  1  0  0  0  0
 18 19  1  0  0  0  0
 19 20  1  0  0  0  0
 19 38  1  0  0  0  0
 19 39  1  0  0  0  0
 20 40  1  0  0  0  0
 20 41  1  0  0  0  0
M  END
> <s_m_source_file>
AV-unprocessed.smi

> <i_m_source_file_index>
1835

> <i_lp_mmshare_version>
43012

> <i_f3d_flags>
0

> <s_epik_input>
W0NIMl0xW0NIMl1PW0NIMl1bQ0gyXU4xW0NASF0oW0NIM10pW0NIMl1bTkhdQyg9TylbQ0gyXW4yW2NIXVtjSF1bY0hdW2NIXWMyPU8=

> <s_epik_cmdline>
J2VwaWtfcHl0aG9uJywgJy1waCcsICc3LjAnLCAnLXRuJywgJzgnLCAnLW1hJywgJzIwMCcsICctbWV0YWxfYmluZGluZycsICctaW1hZScsICc8aW5maWxlLm1hZT4nLCAnLW9tYWUnLCAnPG91dGZpbGUubWFlPic=

> <r_lp_tautomer_probability>
1

> <r_epik_Ionization_Penalty>
0.237383

> <r_epik_Ionization_Penalty_Charging>
3.58805e-07

> <r_epik_Ionization_Penalty_Neutral>
0.237382

> <r_epik_State_Penalty>
0.228245

> <r_epik_Charging_Adjusted_Penalty>
0.228245

> <i_epik_Tot_Q>
0

> <i_epik_Tot_abs_Q>
0

> <r_epik_Metal_State_Penalty>
0.22822

> <b_epik_Metal_Only>
0

> <s_lp_Force_Field>
OPLS_2005

> <r_lp_Energy>
38.1368

> <b_lp_Chiralities_Consistent>
1

> <s_lp_Variant>
AV-unprocessed.smi:1835-2

> <Gold.Version>
5.8.1

> <Gold.Id.Protein>
6NUR|6NUR_protein|mol2

> <Gold.PLP.Fitness>
39.7994

> <Gold.PLP.PLP>
-34.7699

> <Gold.PLP.part.hbond>
-1.0000

> <Gold.PLP.part.metal>
0.0000

> <Gold.PLP.part.buried>
-4.0536

> <Gold.PLP.part.nonpolar>
-29.3701

> <Gold.PLP.part.repulsive>
0.0893

> <Gold.PLP.ligand.clash>
0.0000

> <Gold.PLP.ligand.torsion>
0.5089

> <Gold.PLP.Chemscore.Hbond>
1.0000

> <Gold.PLP.Chemscore.CHOScore>
1.0000

> <Gold.PLP.Chemscore.Metal>
0.0000

> <Gold.Chemscore.Hbonds>
donor molecule, donor type, donor heavy atom, donor atom, acceptor molecule, acceptor atom, score
      P1  H  6896  6909       L1    15  0.04
      L1  C     9    30       P1  8028  1.00

> <Gold.PLP.Chemscore.Internal.Correction>
0.0474

> <Gold.Rescore>
     Score         DG    S(hbond)    S(metal)    S(lipo)     H(rot)  DE(clash)    DE(int)     intcor
     12.26     -12.95       0.74        0.00      84.00       1.89       0.26       0.43       ----

> <Gold.Chemscore.Fitness>
12.2569

> <Gold.Chemscore.DG>
-12.9501

> <Gold.Chemscore.ZeroCoef>
-5.4800

> <Gold.Chemscore.Hbond>
0.7415

> <Gold.Chemscore.Metal>
0.0000

> <Gold.Chemscore.Lipo>
83.9957

> <Gold.Chemscore.Internal_Hbond>
0.0000

> <Gold.Chemscore.DEClash>
0.2604

> <Gold.Chemscore.DEInternal>
0.4329

> <Gold.Chemscore.Rot>
1.8882

> <Gold.Chemscore.Internal.Correction>
   9.000000E+99

> <Gold.Chemscore.Hbond.Weighted>
-2.4765

> <Gold.Chemscore.Metal.Weighted>
-0.0000

> <Gold.Chemscore.Lipo.Weighted>
-9.8275

> <Gold.Chemscore.Internal_Hbond.Weighted>
0.0000

> <Gold.Chemscore.DEClash.Weighted>
0.2604

> <Gold.Chemscore.DEInternal.Weighted>
0.4329

> <Gold.Chemscore.Rot.Weighted>
4.8338

> <Gold.Chemscore.Internal.Correction.Weighted>
   9.000000E+99

> <Gold.Protein.RotatedTorsions>
[ 6907 6896 6895 6894 ] final   58.75 input  -60.11 | X-H torsion
[ 7974 7965 7964 7962 ] final   72.38 input  175.53 | X-H torsion
[ 8008 7997 7996 7995 ] final  -56.76 input   59.86 | X-H torsion
[ 10167 10162 10161 10158 ] final -157.12 input  -65.29 | X-H torsion
[ 10718 10713 10712 10709 ] final  143.97 input   66.30 | X-H torsion
[ 10763 10752 10751 10750 ] final  109.76 input  -60.55 | X-H torsion
[ 11005 11000 10999 10996 ] final  112.33 input  -57.11 | X-H torsion

> <Gold.Protein.ActiveResidues>
 VAL166  LYS551  ARG553  GLY616  TRP617  ASP618  TYR619  PRO620  LYS621  CYS622 
 ASP623  PHE694  ASN695  SER759  ASP760  ASP761  ALA762  ILE779  LEU786  VAL792 
 PHE793  MET794  SER795  GLU796  ALA797  LYS798  CYS799  TRP800  GLU811  SER814 

> <Gold.Protein.RotatedAtoms>
  152.3853  134.6527  160.0127 H   0  0  0  0  0  0  0  0  0  0  0  0  # atno 6907 bound_to 6896
  151.6777  133.3307  159.3220 H   0  0  0  0  0  0  0  0  0  0  0  0  # atno 6908 bound_to 6896
  150.7781  134.6744  159.6454 H   0  0  0  0  0  0  0  0  0  0  0  0  # atno 6909 bound_to 6896
  145.7541  139.2772  143.1414 H   0  0  0  0  0  0  0  0  0  0  0  0  # atno 7974 bound_to 7965
  154.4242  140.1122  156.5688 H   0  0  0  0  0  0  0  0  0  0  0  0  # atno 8008 bound_to 7997
  155.6234  140.3495  155.4640 H   0  0  0  0  0  0  0  0  0  0  0  0  # atno 8009 bound_to 7997
  156.0006  140.1198  157.0540 H   0  0  0  0  0  0  0  0  0  0  0  0  # atno 8010 bound_to 7997
  139.6796  143.9604  152.2329 H   0  0  0  0  0  0  0  0  0  0  0  0  # atno 10167 bound_to 10162
  157.3627  131.0967  151.0900 H   0  0  0  0  0  0  0  0  0  0  0  0  # atno 10718 bound_to 10713
  153.4392  135.3770  155.2218 H   0  0  0  0  0  0  0  0  0  0  0  0  # atno 10763 bound_to 10752
  154.8753  135.3859  154.4173 H   0  0  0  0  0  0  0  0  0  0  0  0  # atno 10764 bound_to 10752
  153.4716  135.7087  153.6053 H   0  0  0  0  0  0  0  0  0  0  0  0  # atno 10765 bound_to 10752
  139.8925  134.9527  156.6570 H   0  0  0  0  0  0  0  0  0  0  0  0  # atno 11005 bound_to 11000
  146.0328  140.8241  142.9867 LP  0  0  0  0  0  0  0  0  0  0  0  0  # atno 17320 bound_to 7965
  144.6843  140.2794  143.7294 LP  0  0  0  0  0  0  0  0  0  0  0  0  # atno 17321 bound_to 7965
  139.9391  144.6693  150.8285 LP  0  0  0  0  0  0  0  0  0  0  0  0  # atno 17342 bound_to 10162
  140.7647  143.3257  151.2522 LP  0  0  0  0  0  0  0  0  0  0  0  0  # atno 17343 bound_to 10162
  157.2034  130.6405  149.5747 LP  0  0  0  0  0  0  0  0  0  0  0  0  # atno 17370 bound_to 10713
  155.9740  130.4683  150.6356 LP  0  0  0  0  0  0  0  0  0  0  0  0  # atno 17371 bound_to 10713
  140.7477  133.8924  155.8324 LP  0  0  0  0  0  0  0  0  0  0  0  0  # atno 17394 bound_to 11000
  141.0026  134.1129  157.4302 LP  0  0  0  0  0  0  0  0  0  0  0  0  # atno 17395 bound_to 11000

$$$$
