AV-unprocessed.smi:29|AV-procd|sdf|191|dock10
  -GOLD-   2262015463D 1   1.00000     0.00000
 Structure written by MMmdl.
 56 59  0  0  0  0  0  0  0  0  1 V2000
  150.6194  136.7452  159.3277 O   0  0  0  0  0  0  0  0  0  0  0  0
  150.1174  137.2133  158.3058 C   0  0  0  0  0  0  0  0  0  0  0  0
  151.0092  137.8637  157.2372 C   0  0  0  0  0  0  0  0  0  0  0  0
  150.7575  139.3119  157.0773 N   0  0  0  0  0  0  0  0  0  0  0  0
  150.1374  139.7754  155.8901 C   0  0  0  0  0  0  0  0  0  0  0  0
  149.8232  138.9981  154.9878 O   0  0  0  0  0  0  0  0  0  0  0  0
  149.8952  141.2124  155.8258 C   0  0  0  0  0  0  0  0  0  0  0  0
  149.3018  141.7393  154.7413 F   0  0  0  0  0  0  0  0  0  0  0  0
  150.2529  142.0234  156.8424 C   0  0  0  0  0  0  0  0  0  0  0  0
  150.8640  141.5576  157.9922 N   0  0  0  0  0  0  0  0  0  0  0  0
  151.2402  142.4928  159.1197 C   0  0  2  0  0  0  0  0  0  0  0  0
  150.8277  143.9288  158.7766 C   0  0  0  0  0  0  0  0  0  0  0  0
  152.0998  144.4810  158.1711 C   0  0  0  0  0  0  0  0  0  0  0  0
  153.1661  143.7713  158.9979 C   0  0  0  0  0  0  0  0  0  0  0  0
  152.6299  142.4809  159.2799 O   0  0  0  0  0  0  0  0  0  0  0  0
  151.1165  140.1767  158.1386 C   0  0  0  0  0  0  0  0  0  0  0  0
  151.6278  139.7358  159.1706 O   0  0  0  0  0  0  0  0  0  0  0  0
  148.7987  137.2439  158.0425 N   0  0  0  0  0  0  0  0  0  0  0  0
  147.7036  136.7547  158.8134 C   0  0  0  0  0  0  0  0  0  0  0  0
  147.8642  136.1619  160.0903 C   0  0  0  0  0  0  0  0  0  0  0  0
  146.7524  135.6792  160.8111 C   0  0  0  0  0  0  0  0  0  0  0  0
  146.9644  135.0520  162.1809 C   0  0  0  0  0  0  0  0  0  0  0  0
  145.8109  134.7133  162.7585 F   0  0  0  0  0  0  0  0  0  0  0  0
  147.7125  133.9551  162.0619 F   0  0  0  0  0  0  0  0  0  0  0  0
  147.5963  135.9196  162.9709 F   0  0  0  0  0  0  0  0  0  0  0  0
  145.4637  135.7875  160.2495 C   0  0  0  0  0  0  0  0  0  0  0  0
  145.2941  136.3571  158.9749 C   0  0  0  0  0  0  0  0  0  0  0  0
  146.4067  136.8353  158.2463 C   0  0  0  0  0  0  0  0  0  0  0  0
  146.2335  137.3861  156.9652 N   0  0  0  0  0  0  0  0  0  0  0  0
  146.7183  136.5347  155.8867 C   0  0  0  0  0  0  0  0  0  0  0  0
  146.6348  137.2877  154.5478 C   0  0  0  0  0  0  0  0  0  0  0  0
  145.2990  137.7362  154.3346 O   0  0  0  0  0  0  0  0  0  0  0  0
  144.8636  138.6291  155.3568 C   0  0  0  0  0  0  0  0  0  0  0  0
  144.8973  137.9115  156.7175 C   0  0  0  0  0  0  0  0  0  0  0  0
  152.0589  137.6858  157.4792 H   0  0  0  0  0  0  0  0  0  0  0  0
  150.8610  137.3244  156.3006 H   0  0  0  0  0  0  0  0  0  0  0  0
  150.0416  143.0775  156.7422 H   0  0  0  0  0  0  0  0  0  0  0  0
  150.7639  142.0955  160.0173 H   0  0  0  0  0  0  0  0  0  0  0  0
  149.9634  143.9685  158.1121 H   0  0  0  0  0  0  0  0  0  0  0  0
  150.5866  144.4519  159.7028 H   0  0  0  0  0  0  0  0  0  0  0  0
  152.1761  144.1902  157.1227 H   0  0  0  0  0  0  0  0  0  0  0  0
  152.1664  145.5676  158.2308 H   0  0  0  0  0  0  0  0  0  0  0  0
  154.1232  143.7028  158.4805 H   0  0  0  0  0  0  0  0  0  0  0  0
  153.3256  144.2960  159.9408 H   0  0  0  0  0  0  0  0  0  0  0  0
  148.5346  137.7386  157.2024 H   0  0  0  0  0  0  0  0  0  0  0  0
  148.8384  136.0498  160.5390 H   0  0  0  0  0  0  0  0  0  0  0  0
  144.5974  135.4285  160.7848 H   0  0  0  0  0  0  0  0  0  0  0  0
  144.3001  136.4207  158.5567 H   0  0  0  0  0  0  0  0  0  0  0  0
  147.7486  136.2362  156.0848 H   0  0  0  0  0  0  0  0  0  0  0  0
  146.1208  135.6236  155.8354 H   0  0  0  0  0  0  0  0  0  0  0  0
  147.3209  138.1361  154.5355 H   0  0  0  0  0  0  0  0  0  0  0  0
  146.9254  136.6308  153.7279 H   0  0  0  0  0  0  0  0  0  0  0  0
  145.4961  139.5183  155.3704 H   0  0  0  0  0  0  0  0  0  0  0  0
  143.8503  138.9617  155.1315 H   0  0  0  0  0  0  0  0  0  0  0  0
  144.1709  137.0980  156.7240 H   0  0  0  0  0  0  0  0  0  0  0  0
  144.6179  138.6030  157.5133 H   0  0  0  0  0  0  0  0  0  0  0  0
  1  2  2  0  0  0  0
  2  3  1  0  0  0  0
  2 18  1  0  0  0  0
  3  4  1  0  0  0  0
  3 35  1  0  0  0  0
  3 36  1  0  0  0  0
  4 16  1  0  0  0  0
  4  5  1  0  0  0  0
  5  6  2  0  0  0  0
  5  7  1  0  0  0  0
  7  8  1  0  0  0  0
  7  9  2  0  0  0  0
  9 10  1  0  0  0  0
  9 37  1  0  0  0  0
 10 11  1  0  0  0  0
 10 16  1  0  0  0  0
 11 15  1  0  0  0  0
 11 12  1  0  0  0  0
 11 38  1  0  0  0  0
 12 13  1  0  0  0  0
 12 39  1  0  0  0  0
 12 40  1  0  0  0  0
 13 14  1  0  0  0  0
 13 41  1  0  0  0  0
 13 42  1  0  0  0  0
 14 15  1  0  0  0  0
 14 43  1  0  0  0  0
 14 44  1  0  0  0  0
 16 17  2  0  0  0  0
 18 19  1  0  0  0  0
 18 45  1  0  0  0  0
 19 28  1  0  0  0  0
 19 20  2  0  0  0  0
 20 21  1  0  0  0  0
 20 46  1  0  0  0  0
 21 22  1  0  0  0  0
 21 26  2  0  0  0  0
 22 23  1  0  0  0  0
 22 24  1  0  0  0  0
 22 25  1  0  0  0  0
 26 27  1  0  0  0  0
 26 47  1  0  0  0  0
 27 28  2  0  0  0  0
 27 48  1  0  0  0  0
 28 29  1  0  0  0  0
 29 34  1  0  0  0  0
 29 30  1  0  0  0  0
 30 31  1  0  0  0  0
 30 49  1  0  0  0  0
 30 50  1  0  0  0  0
 31 32  1  0  0  0  0
 31 51  1  0  0  0  0
 31 52  1  0  0  0  0
 32 33  1  0  0  0  0
 33 34  1  0  0  0  0
 33 53  1  0  0  0  0
 33 54  1  0  0  0  0
 34 55  1  0  0  0  0
 34 56  1  0  0  0  0
M  END
> <s_m_source_file>
AV-unprocessed.smi

> <i_m_source_file_index>
29

> <i_lp_mmshare_version>
43012

> <i_f3d_flags>
0

> <s_epik_input>
TzFbQ0gyXVtDSDJdW0NIMl1bQ0BIXTFuKGMyPU8pW2NIXWMoRiljKD1PKW4yW0NIMl1DKD1PKVtOSF1jM1tjSF1jKEMoRikoRilGKVtjSF1bY0hdYzNONFtDSDJdW0NIMl1PW0NIMl1bQ0gyXTQ=

> <s_epik_cmdline>
J2VwaWtfcHl0aG9uJywgJy1waCcsICc3LjAnLCAnLXRuJywgJzgnLCAnLW1hJywgJzIwMCcsICctbWV0YWxfYmluZGluZycsICctaW1hZScsICc8aW5maWxlLm1hZT4nLCAnLW9tYWUnLCAnPG91dGZpbGUubWFlPic=

> <r_lp_tautomer_probability>
1

> <r_epik_Ionization_Penalty>
3.5967e-06

> <r_epik_Ionization_Penalty_Charging>
3.88729e-08

> <r_epik_Ionization_Penalty_Neutral>
3.55783e-06

> <r_epik_State_Penalty>
-0

> <r_epik_Charging_Adjusted_Penalty>
3.88729e-08

> <i_epik_Tot_Q>
0

> <i_epik_Tot_abs_Q>
0

> <r_epik_Metal_State_Penalty>
-0

> <b_epik_Metal_Only>
0

> <s_epik_Chemistry_Notes>
This compound contains an acetal/aminal-like group ( X-CH(R)-Y where X, Y are N, S, or O) that may be acid/base labile, releasing an aldehyde.

> <s_lp_Force_Field>
OPLS_2005

> <r_lp_Energy>
49.5757

> <b_lp_Chiralities_Consistent>
1

> <s_lp_Variant>
AV-unprocessed.smi:29-1

> <Gold.Version>
5.8.1

> <Gold.Id.Protein>
6NUR|6NUR_protein|mol2

> <Gold.PLP.Fitness>
53.7788

> <Gold.PLP.PLP>
-48.7751

> <Gold.PLP.part.hbond>
-1.0000

> <Gold.PLP.part.metal>
0.0000

> <Gold.PLP.part.buried>
-6.5669

> <Gold.PLP.part.nonpolar>
-40.7830

> <Gold.PLP.part.repulsive>
0.2860

> <Gold.PLP.ligand.clash>
0.0000

> <Gold.PLP.ligand.torsion>
0.6191

> <Gold.PLP.Chemscore.Hbond>
1.0000

> <Gold.PLP.Chemscore.CHOScore>
1.0000

> <Gold.PLP.Chemscore.Metal>
0.0000

> <Gold.Chemscore.Hbonds>
donor molecule, donor type, donor heavy atom, donor atom, acceptor molecule, acceptor atom, score
      P1  H  6896  6909       L1     1  1.00
      L1  C     9    37       P1  8028  1.00

> <Gold.PLP.Chemscore.Internal.Correction>
0.2420

> <Gold.Rescore>
     Score         DG    S(hbond)    S(metal)    S(lipo)     H(rot)  DE(clash)    DE(int)     intcor
      9.25     -13.10       1.00        0.00      79.53       1.96       0.07       3.77       ----

> <Gold.Chemscore.Fitness>
9.2539

> <Gold.Chemscore.DG>
-13.0965

> <Gold.Chemscore.ZeroCoef>
-5.4800

> <Gold.Chemscore.Hbond>
1.0000

> <Gold.Chemscore.Metal>
0.0000

> <Gold.Chemscore.Lipo>
79.5253

> <Gold.Chemscore.Internal_Hbond>
0.0000

> <Gold.Chemscore.DEClash>
0.0689

> <Gold.Chemscore.DEInternal>
3.7736

> <Gold.Chemscore.Rot>
1.9641

> <Gold.Chemscore.Internal.Correction>
   9.000000E+99

> <Gold.Chemscore.Hbonds>
donor molecule, donor type, donor heavy atom, donor atom, acceptor molecule, acceptor atom, score
      P1  H  6896  6909       L1     1  0.97

> <Gold.Chemscore.Hbond.Weighted>
-3.3400

> <Gold.Chemscore.Metal.Weighted>
-0.0000

> <Gold.Chemscore.Lipo.Weighted>
-9.3045

> <Gold.Chemscore.Internal_Hbond.Weighted>
0.0000

> <Gold.Chemscore.DEClash.Weighted>
0.0689

> <Gold.Chemscore.DEInternal.Weighted>
3.7736

> <Gold.Chemscore.Rot.Weighted>
5.0280

> <Gold.Chemscore.Internal.Correction.Weighted>
   9.000000E+99

> <Gold.Protein.RotatedTorsions>
[ 6907 6896 6895 6894 ] final   76.58 input  -60.11 | X-H torsion
[ 7974 7965 7964 7962 ] final  143.65 input  175.53 | X-H torsion
[ 8008 7997 7996 7995 ] final  -44.98 input   59.86 | X-H torsion
[ 10167 10162 10161 10158 ] final  150.70 input  -65.29 | X-H torsion
[ 10718 10713 10712 10709 ] final  159.79 input   66.30 | X-H torsion
[ 10763 10752 10751 10750 ] final   16.08 input  -60.55 | X-H torsion
[ 11005 11000 10999 10996 ] final -110.88 input  -57.11 | X-H torsion

> <Gold.Protein.ActiveResidues>
 VAL166  LYS551  ARG553  GLY616  TRP617  ASP618  TYR619  PRO620  LYS621  CYS622 
 ASP623  PHE694  ASN695  SER759  ASP760  ASP761  ALA762  ILE779  LEU786  VAL792 
 PHE793  MET794  SER795  GLU796  ALA797  LYS798  CYS799  TRP800  GLU811  SER814 

> <Gold.Protein.RotatedAtoms>
  152.5079  134.3947  159.9395 H   0  0  0  0  0  0  0  0  0  0  0  0  # atno 6907 bound_to 6896
  151.3909  133.3783  159.2728 H   0  0  0  0  0  0  0  0  0  0  0  0  # atno 6908 bound_to 6896
  150.9433  134.8861  159.7685 H   0  0  0  0  0  0  0  0  0  0  0  0  # atno 6909 bound_to 6896
  144.8902  139.5569  143.5802 H   0  0  0  0  0  0  0  0  0  0  0  0  # atno 7974 bound_to 7965
  154.3999  140.1408  156.3772 H   0  0  0  0  0  0  0  0  0  0  0  0  # atno 8008 bound_to 7997
  155.8037  140.3475  155.5397 H   0  0  0  0  0  0  0  0  0  0  0  0  # atno 8009 bound_to 7997
  155.8457  140.0933  157.1697 H   0  0  0  0  0  0  0  0  0  0  0  0  # atno 8010 bound_to 7997
  139.4847  144.5501  151.7416 H   0  0  0  0  0  0  0  0  0  0  0  0  # atno 10167 bound_to 10162
  157.1593  131.0583  151.2240 H   0  0  0  0  0  0  0  0  0  0  0  0  # atno 10718 bound_to 10713
  153.1465  135.6770  153.8947 H   0  0  0  0  0  0  0  0  0  0  0  0  # atno 10763 bound_to 10752
  153.8387  135.3108  155.3425 H   0  0  0  0  0  0  0  0  0  0  0  0  # atno 10764 bound_to 10752
  154.7829  135.4878  153.9968 H   0  0  0  0  0  0  0  0  0  0  0  0  # atno 10765 bound_to 10752
  141.0766  133.9290  157.2376 H   0  0  0  0  0  0  0  0  0  0  0  0  # atno 11005 bound_to 11000
  146.3049  139.7547  142.9063 LP  0  0  0  0  0  0  0  0  0  0  0  0  # atno 17320 bound_to 7965
  145.3796  141.0356  143.3185 LP  0  0  0  0  0  0  0  0  0  0  0  0  # atno 17321 bound_to 7965
  140.5054  144.1106  150.5981 LP  0  0  0  0  0  0  0  0  0  0  0  0  # atno 17342 bound_to 10162
  140.4014  143.2702  151.9943 LP  0  0  0  0  0  0  0  0  0  0  0  0  # atno 17343 bound_to 10162
  157.4147  130.7404  149.6866 LP  0  0  0  0  0  0  0  0  0  0  0  0  # atno 17370 bound_to 10713
  155.9756  130.4086  150.3834 LP  0  0  0  0  0  0  0  0  0  0  0  0  # atno 17371 bound_to 10713
  139.9579  135.0161  156.9179 LP  0  0  0  0  0  0  0  0  0  0  0  0  # atno 17394 bound_to 11000
  140.5559  134.0582  155.7383 LP  0  0  0  0  0  0  0  0  0  0  0  0  # atno 17395 bound_to 11000

$$$$
