AV-unprocessed.smi:1648|AV-procd|sdf|6631|dock7
  -GOLD-   22720 7333D 1   1.00000     0.00000
 Structure written by MMmdl.
 41 41  0  0  0  0  0  0  0  0  1 V2000
  145.9622  144.0543  159.0002 C   0  0  0  0  0  0  0  0  0  0  0  0
  146.3938  142.7991  158.2391 C   0  0  0  0  0  0  0  0  0  0  0  0
  146.6166  141.7631  158.8612 O   0  0  0  0  0  0  0  0  0  0  0  0
  146.5259  142.8518  156.9021 N   0  0  0  0  0  0  0  0  0  0  0  0
  146.9256  141.7674  156.0005 C   0  0  2  0  0  0  0  0  0  0  0  0
  148.3509  141.3143  156.3706 C   0  0  0  0  0  0  0  0  0  0  0  0
  148.5736  140.1472  156.6964 O   0  0  0  0  0  0  0  0  0  0  0  0
  149.3008  142.2619  156.3311 N   0  0  0  0  0  0  0  0  0  0  0  0
  150.7110  142.0642  156.6509 C   0  0  2  0  0  0  0  0  0  0  0  0
  151.2345  140.7900  155.9621 C   0  0  0  0  0  0  0  0  0  0  0  0
  150.8780  142.0402  158.1832 C   0  0  0  0  0  0  0  0  0  0  0  0
  151.2386  143.3346  158.7306 N   0  0  0  0  0  0  0  0  0  0  0  0
  151.6248  143.6130  160.0351 C   0  0  0  0  0  0  0  0  0  0  0  0
  151.8707  144.9662  160.0921 C   0  0  0  0  0  0  0  0  0  0  0  0
  151.6481  145.5362  158.8411 N   0  0  0  0  0  0  0  0  0  0  0  0
  151.2796  144.5092  158.0863 C   0  0  0  0  0  0  0  0  0  0  0  0
  146.9033  142.2999  154.5369 C   0  0  0  0  0  0  0  0  0  0  0  0
  145.6015  143.0648  154.2248 C   0  0  0  0  0  0  0  0  0  0  0  0
  147.0977  141.1882  153.4841 C   0  0  0  0  0  0  0  0  0  0  0  0
  144.9922  144.4077  158.6509 H   0  0  0  0  0  0  0  0  0  0  0  0
  146.6936  144.8527  158.8756 H   0  0  0  0  0  0  0  0  0  0  0  0
  145.8756  143.8442  160.0667 H   0  0  0  0  0  0  0  0  0  0  0  0
  146.3458  143.7432  156.4631 H   0  0  0  0  0  0  0  0  0  0  0  0
  146.2310  140.9298  156.0851 H   0  0  0  0  0  0  0  0  0  0  0  0
  149.0239  143.1942  156.0596 H   0  0  0  0  0  0  0  0  0  0  0  0
  151.2783  142.9154  156.2690 H   0  0  0  0  0  0  0  0  0  0  0  0
  152.3027  140.6533  156.1312 H   0  0  0  0  0  0  0  0  0  0  0  0
  151.0847  140.8345  154.8831 H   0  0  0  0  0  0  0  0  0  0  0  0
  150.7215  139.9015  156.3321 H   0  0  0  0  0  0  0  0  0  0  0  0
  149.9500  141.7192  158.6589 H   0  0  0  0  0  0  0  0  0  0  0  0
  151.6429  141.3170  158.4707 H   0  0  0  0  0  0  0  0  0  0  0  0
  151.6883  142.8467  160.7936 H   0  0  0  0  0  0  0  0  0  0  0  0
  152.1894  145.5682  160.9302 H   0  0  0  0  0  0  0  0  0  0  0  0
  151.0298  144.6149  157.0408 H   0  0  0  0  0  0  0  0  0  0  0  0
  147.7249  143.0078  154.4130 H   0  0  0  0  0  0  0  0  0  0  0  0
  144.7270  142.4284  154.3635 H   0  0  0  0  0  0  0  0  0  0  0  0
  145.5919  143.4197  153.1939 H   0  0  0  0  0  0  0  0  0  0  0  0
  145.4794  143.9414  154.8609 H   0  0  0  0  0  0  0  0  0  0  0  0
  146.3421  140.4090  153.5889 H   0  0  0  0  0  0  0  0  0  0  0  0
  148.0775  140.7161  153.5587 H   0  0  0  0  0  0  0  0  0  0  0  0
  147.0207  141.5882  152.4727 H   0  0  0  0  0  0  0  0  0  0  0  0
  1  2  1  0  0  0  0
  1 20  1  0  0  0  0
  1 21  1  0  0  0  0
  1 22  1  0  0  0  0
  2  3  2  0  0  0  0
  2  4  1  0  0  0  0
  4  5  1  0  0  0  0
  4 23  1  0  0  0  0
  5  6  1  0  0  0  0
  5 17  1  0  0  0  0
  5 24  1  0  0  0  0
  6  7  2  0  0  0  0
  6  8  1  0  0  0  0
  8  9  1  0  0  0  0
  8 25  1  0  0  0  0
  9 10  1  0  0  0  0
  9 11  1  0  0  0  0
  9 26  1  0  0  0  0
 10 27  1  0  0  0  0
 10 28  1  0  0  0  0
 10 29  1  0  0  0  0
 11 12  1  0  0  0  0
 11 30  1  0  0  0  0
 11 31  1  0  0  0  0
 12 16  1  0  0  0  0
 12 13  1  0  0  0  0
 13 14  2  0  0  0  0
 13 32  1  0  0  0  0
 14 15  1  0  0  0  0
 14 33  1  0  0  0  0
 15 16  2  0  0  0  0
 16 34  1  0  0  0  0
 17 18  1  0  0  0  0
 17 19  1  0  0  0  0
 17 35  1  0  0  0  0
 18 36  1  0  0  0  0
 18 37  1  0  0  0  0
 18 38  1  0  0  0  0
 19 39  1  0  0  0  0
 19 40  1  0  0  0  0
 19 41  1  0  0  0  0
M  END
> <s_m_source_file>
AV-unprocessed.smi

> <i_m_source_file_index>
1648

> <i_lp_mmshare_version>
43012

> <i_f3d_flags>
0

> <s_epik_input>
W0NIM11DKD1PKVtOSF1bQ0BASF0oW0NIXShbQ0gzXSlbQ0gzXSlDKD1PKVtOSF1bQ0BIXShbQ0gzXSlbQ0gyXW4xW2NIXVtjSF1uW2NIXTE=

> <s_epik_cmdline>
J2VwaWtfcHl0aG9uJywgJy1waCcsICc3LjAnLCAnLXRuJywgJzgnLCAnLW1hJywgJzIwMCcsICctbWV0YWxfYmluZGluZycsICctaW1hZScsICc8aW5maWxlLm1hZT4nLCAnLW9tYWUnLCAnPG91dGZpbGUubWFlPic=

> <r_lp_tautomer_probability>
1

> <r_epik_Ionization_Penalty>
0.628885

> <r_epik_Ionization_Penalty_Charging>
0.628884

> <r_epik_Ionization_Penalty_Neutral>
4.35155e-07

> <r_epik_State_Penalty>
0.64556

> <r_epik_Charging_Adjusted_Penalty>
1.27444

> <i_epik_Tot_Q>
0

> <i_epik_Tot_abs_Q>
0

> <r_epik_Metal_State_Penalty>
0.30874

> <b_epik_Metal_Only>
0

> <s_lp_Force_Field>
OPLS_2005

> <r_lp_Energy>
10.0668

> <b_lp_Chiralities_Consistent>
1

> <s_lp_Variant>
AV-unprocessed.smi:1648-5

> <Gold.Version>
5.8.1

> <Gold.Id.Protein>
6NUR|6NUR_protein|mol2

> <Gold.PLP.Fitness>
44.1391

> <Gold.PLP.PLP>
-37.8830

> <Gold.PLP.part.hbond>
-3.4054

> <Gold.PLP.part.metal>
0.0000

> <Gold.PLP.part.buried>
-3.9649

> <Gold.PLP.part.nonpolar>
-30.5188

> <Gold.PLP.part.repulsive>
0.2189

> <Gold.PLP.ligand.clash>
0.0000

> <Gold.PLP.ligand.torsion>
0.9107

> <Gold.PLP.Chemscore.Hbond>
1.6661

> <Gold.PLP.Chemscore.CHOScore>
1.0000

> <Gold.PLP.Chemscore.Metal>
0.0000

> <Gold.Chemscore.Hbonds>
donor molecule, donor type, donor heavy atom, donor atom, acceptor molecule, acceptor atom, score
      L1  H     8    25       P1  8028  1.00
      P1  H  6934  6946       L1     3  0.64
      L1  C    16    34       P1  8028  1.00

> <Gold.PLP.Chemscore.Internal.Correction>
0.0791

> <Gold.Rescore>
     Score         DG    S(hbond)    S(metal)    S(lipo)     H(rot)  DE(clash)    DE(int)     intcor
     10.74     -12.96       1.84        0.00      66.57       2.52       0.02       2.20       ----

> <Gold.Chemscore.Fitness>
10.7431

> <Gold.Chemscore.DG>
-12.9647

> <Gold.Chemscore.ZeroCoef>
-5.4800

> <Gold.Chemscore.Hbond>
1.8419

> <Gold.Chemscore.Metal>
0.0000

> <Gold.Chemscore.Lipo>
66.5659

> <Gold.Chemscore.Internal_Hbond>
0.0000

> <Gold.Chemscore.DEClash>
0.0237

> <Gold.Chemscore.DEInternal>
2.1980

> <Gold.Chemscore.Rot>
2.5216

> <Gold.Chemscore.Internal.Correction>
   9.000000E+99

> <Gold.Chemscore.Hbonds>
donor molecule, donor type, donor heavy atom, donor atom, acceptor molecule, acceptor atom, score
      L1  H     8    25       P1  8028  0.98
      P1  H  6934  6946       L1     3  0.61

> <Gold.Chemscore.Hbond.Weighted>
-6.1518

> <Gold.Chemscore.Metal.Weighted>
-0.0000

> <Gold.Chemscore.Lipo.Weighted>
-7.7882

> <Gold.Chemscore.Internal_Hbond.Weighted>
0.0000

> <Gold.Chemscore.DEClash.Weighted>
0.0237

> <Gold.Chemscore.DEInternal.Weighted>
2.1980

> <Gold.Chemscore.Rot.Weighted>
6.4553

> <Gold.Chemscore.Internal.Correction.Weighted>
   9.000000E+99

> <Gold.Protein.RotatedTorsions>
[ 6907 6896 6895 6894 ] final -164.86 input  -60.11 | X-H torsion
[ 7974 7965 7964 7962 ] final  -39.34 input  175.53 | X-H torsion
[ 8008 7997 7996 7995 ] final   11.08 input   59.86 | X-H torsion
[ 10167 10162 10161 10158 ] final  -76.38 input  -65.29 | X-H torsion
[ 10718 10713 10712 10709 ] final    8.21 input   66.30 | X-H torsion
[ 10763 10752 10751 10750 ] final  -51.92 input  -60.55 | X-H torsion
[ 11005 11000 10999 10996 ] final  -81.41 input  -57.11 | X-H torsion

> <Gold.Protein.ActiveResidues>
 VAL166  LYS551  ARG553  GLY616  TRP617  ASP618  TYR619  PRO620  LYS621  CYS622 
 ASP623  PHE694  ASN695  SER759  ASP760  ASP761  ALA762  ILE779  LEU786  VAL792 
 PHE793  MET794  SER795  GLU796  ALA797  LYS798  CYS799  TRP800  GLU811  SER814 

> <Gold.Protein.RotatedAtoms>
  151.4186  133.3705  159.2752 H   0  0  0  0  0  0  0  0  0  0  0  0  # atno 6907 bound_to 6896
  150.9310  134.8727  159.7562 H   0  0  0  0  0  0  0  0  0  0  0  0  # atno 6908 bound_to 6896
  152.5028  134.4130  159.9507 H   0  0  0  0  0  0  0  0  0  0  0  0  # atno 6909 bound_to 6896
  146.0405  140.6614  142.9089 H   0  0  0  0  0  0  0  0  0  0  0  0  # atno 7974 bound_to 7965
  154.8021  140.2853  155.5914 H   0  0  0  0  0  0  0  0  0  0  0  0  # atno 8008 bound_to 7997
  156.2978  140.2584  156.2820 H   0  0  0  0  0  0  0  0  0  0  0  0  # atno 8009 bound_to 7997
  154.9546  140.0378  157.2150 H   0  0  0  0  0  0  0  0  0  0  0  0  # atno 8010 bound_to 7997
  140.4862  143.2390  151.7980 H   0  0  0  0  0  0  0  0  0  0  0  0  # atno 10167 bound_to 10162
  156.9482  130.5887  149.5655 H   0  0  0  0  0  0  0  0  0  0  0  0  # atno 10718 bound_to 10713
  154.1344  135.6515  153.4929 H   0  0  0  0  0  0  0  0  0  0  0  0  # atno 10763 bound_to 10752
  153.0185  135.5300  154.6968 H   0  0  0  0  0  0  0  0  0  0  0  0  # atno 10764 bound_to 10752
  154.6212  135.2965  155.0294 H   0  0  0  0  0  0  0  0  0  0  0  0  # atno 10765 bound_to 10752
  141.1666  133.7195  156.8419 H   0  0  0  0  0  0  0  0  0  0  0  0  # atno 11005 bound_to 11000
  144.7072  140.3900  143.7108 LP  0  0  0  0  0  0  0  0  0  0  0  0  # atno 17320 bound_to 7965
  145.6892  139.1635  143.2657 LP  0  0  0  0  0  0  0  0  0  0  0  0  # atno 17321 bound_to 7965
  139.4842  144.4709  151.9427 LP  0  0  0  0  0  0  0  0  0  0  0  0  # atno 17342 bound_to 10162
  140.3795  144.2754  150.5910 LP  0  0  0  0  0  0  0  0  0  0  0  0  # atno 17343 bound_to 10162
  156.0374  130.5460  150.8687 LP  0  0  0  0  0  0  0  0  0  0  0  0  # atno 17370 bound_to 10713
  157.5739  131.0946  150.9375 LP  0  0  0  0  0  0  0  0  0  0  0  0  # atno 17371 bound_to 10713
  140.1977  134.8920  157.3133 LP  0  0  0  0  0  0  0  0  0  0  0  0  # atno 17394 bound_to 11000
  140.2221  134.4011  155.7561 LP  0  0  0  0  0  0  0  0  0  0  0  0  # atno 17395 bound_to 11000

$$$$
