AV-unprocessed.smi:3085|AV-procd|sdf|11759|dock2
  -GOLD-   2272017143D 1   1.00000     0.00000
 Structure written by MMmdl.
 28 29  0  0  0  0  0  0  0  0  2 V2000
  151.8915  143.1614  159.3496 C   0  0  0  0  0  0  0  0  0  0  0  0
  151.0061  143.4666  158.1364 C   0  0  0  0  0  0  0  0  0  0  0  0
  150.7810  142.2683  157.2738 C   0  0  0  0  0  0  0  0  0  0  0  0
  150.0224  142.3195  156.1692 N   0  0  0  0  0  0  0  0  0  0  0  0
  150.0638  141.0569  155.7180 C   0  0  0  0  0  0  0  0  0  0  0  0
  149.3526  140.6366  154.4703 C   0  0  1  0  0  0  0  0  0  0  0  0
  149.5199  139.1330  154.1768 C   0  0  0  0  0  0  0  0  0  0  0  0
  148.7144  138.7555  152.9992 N   0  3  0  0  0  0  0  0  0  0  0  0
  147.2987  139.1398  153.1669 C   0  0  0  0  0  0  0  0  0  0  0  0
  147.1924  140.6388  153.4985 C   0  0  0  0  0  0  0  0  0  0  0  0
  147.9702  140.9328  154.6544 O   0  0  0  0  0  0  0  0  0  0  0  0
  150.8049  140.2516  156.4866 N   0  0  0  0  0  0  0  0  0  0  0  0
  151.2734  141.0499  157.5156 N   0  0  0  0  0  0  0  0  0  0  0  0
  149.5372  143.1142  155.7785 H   0  0  0  0  0  0  0  0  0  0  0  0
  152.0352  144.0531  159.9598 H   0  0  0  0  0  0  0  0  0  0  0  0
  152.8756  142.8085  159.0394 H   0  0  0  0  0  0  0  0  0  0  0  0
  151.4433  142.3938  159.9810 H   0  0  0  0  0  0  0  0  0  0  0  0
  150.0420  143.8545  158.4670 H   0  0  0  0  0  0  0  0  0  0  0  0
  151.4649  144.2502  157.5322 H   0  0  0  0  0  0  0  0  0  0  0  0
  149.7380  141.2265  153.6359 H   0  0  0  0  0  0  0  0  0  0  0  0
  150.5666  138.8894  153.9929 H   0  0  0  0  0  0  0  0  0  0  0  0
  149.1961  138.5384  155.0325 H   0  0  0  0  0  0  0  0  0  0  0  0
  149.0844  139.2294  152.1875 H   0  0  0  0  0  0  0  0  0  0  0  0
  146.7492  138.9075  152.2544 H   0  0  0  0  0  0  0  0  0  0  0  0
  146.8578  138.5457  153.9686 H   0  0  0  0  0  0  0  0  0  0  0  0
  147.5263  141.2488  152.6576 H   0  0  0  0  0  0  0  0  0  0  0  0
  146.1542  140.9076  153.6938 H   0  0  0  0  0  0  0  0  0  0  0  0
  148.7765  137.7575  152.8551 H   0  0  0  0  0  0  0  0  0  0  0  0
  1  2  1  0  0  0  0
  1 15  1  0  0  0  0
  1 16  1  0  0  0  0
  1 17  1  0  0  0  0
  2 18  1  0  0  0  0
  2 19  1  0  0  0  0
  2  3  1  0  0  0  0
  3  4  1  0  0  0  0
  3 13  2  0  0  0  0
  4 14  1  0  0  0  0
  4  5  1  0  0  0  0
  5 12  2  0  0  0  0
  5  6  1  0  0  0  0
  6 11  1  0  0  0  0
  6  7  1  0  0  0  0
  6 20  1  0  0  0  0
  7  8  1  0  0  0  0
  7 21  1  0  0  0  0
  7 22  1  0  0  0  0
  8  9  1  0  0  0  0
  8 23  1  0  0  0  0
  8 28  1  0  0  0  0
  9 10  1  0  0  0  0
  9 24  1  0  0  0  0
  9 25  1  0  0  0  0
 10 11  1  0  0  0  0
 10 26  1  0  0  0  0
 10 27  1  0  0  0  0
 12 13  1  0  0  0  0
M  CHG  1   8   1
M  END
> <s_m_source_file>
AV-unprocessed.smi

> <i_m_source_file_index>
3085

> <i_lp_mmshare_version>
43012

> <i_f3d_flags>
0

> <s_epik_input>
W0NIM11bQ0gyXWMxbmMobltuSF0xKVtDQEBIXTJbQ0gyXVtOSF1bQ0gyXVtDSDJdTzI=

> <s_epik_cmdline>
J2VwaWtfcHl0aG9uJywgJy1waCcsICc3LjAnLCAnLXRuJywgJzgnLCAnLW1hJywgJzIwMCcsICctbWV0YWxfYmluZGluZycsICctaW1hZScsICc8aW5maWxlLm1hZT4nLCAnLW9tYWUnLCAnPG91dGZpbGUubWFlPic=

> <r_lp_tautomer_probability>
0.0517155

> <r_epik_Ionization_Penalty>
0.290065

> <r_epik_Ionization_Penalty_Charging>
0.125708

> <r_epik_Ionization_Penalty_Neutral>
0.164357

> <r_epik_State_Penalty>
2.26879

> <r_epik_Charging_Adjusted_Penalty>
2.39449

> <i_epik_Tot_Q>
1

> <i_epik_Tot_abs_Q>
1

> <r_epik_Metal_State_Penalty>
2.49092

> <b_epik_Metal_Only>
0

> <s_lp_Force_Field>
OPLS_2005

> <r_lp_Energy>
12.4164

> <b_lp_Chiralities_Consistent>
1

> <s_lp_Variant>
AV-unprocessed.smi:3085-10

> <Gold.Version>
5.8.1

> <Gold.Id.Protein>
6NUR|6NUR_protein|mol2

> <Gold.PLP.Fitness>
37.5930

> <Gold.PLP.PLP>
-26.0209

> <Gold.PLP.part.hbond>
-2.9253

> <Gold.PLP.part.metal>
0.0000

> <Gold.PLP.part.buried>
-3.0905

> <Gold.PLP.part.nonpolar>
-20.5398

> <Gold.PLP.part.repulsive>
0.2917

> <Gold.PLP.ligand.clash>
0.0000

> <Gold.PLP.ligand.torsion>
0.0085

> <Gold.PLP.Chemscore.Hbond>
3.8625

> <Gold.PLP.Chemscore.CHOScore>
0.0000

> <Gold.PLP.Chemscore.Metal>
0.0000

> <Gold.Chemscore.Hbonds>
donor molecule, donor type, donor heavy atom, donor atom, acceptor molecule, acceptor atom, score
      L1  H     4    14       P1  8028  1.00
      L1  H     8    23       P1  7957  0.67
      L1  H     8    28       P1  7948  2.00

> <Gold.PLP.Chemscore.Internal.Correction>
0.0017

> <Gold.Rescore>
     Score         DG    S(hbond)    S(metal)    S(lipo)     H(rot)  DE(clash)    DE(int)     intcor
     17.70     -17.70       2.91        0.00      49.77       1.30       0.00       0.00       ----

> <Gold.Chemscore.Fitness>
17.6957

> <Gold.Chemscore.DG>
-17.6991

> <Gold.Chemscore.ZeroCoef>
-5.4800

> <Gold.Chemscore.Hbond>
2.9122

> <Gold.Chemscore.Metal>
0.0000

> <Gold.Chemscore.Lipo>
49.7697

> <Gold.Chemscore.Internal_Hbond>
0.0000

> <Gold.Chemscore.DEClash>
0.0000

> <Gold.Chemscore.DEInternal>
0.0034

> <Gold.Chemscore.Rot>
1.3011

> <Gold.Chemscore.Internal.Correction>
   9.000000E+99

> <Gold.Chemscore.Hbonds>
donor molecule, donor type, donor heavy atom, donor atom, acceptor molecule, acceptor atom, score
      L1  H     4    14       P1  8028  0.99
      L1  H     8    23       P1  7957  0.66
      L1  H     8    28       P1  7948  0.98

> <Gold.Chemscore.Hbond.Weighted>
-9.7269

> <Gold.Chemscore.Metal.Weighted>
-0.0000

> <Gold.Chemscore.Lipo.Weighted>
-5.8231

> <Gold.Chemscore.Internal_Hbond.Weighted>
0.0000

> <Gold.Chemscore.DEClash.Weighted>
0.0000

> <Gold.Chemscore.DEInternal.Weighted>
0.0034

> <Gold.Chemscore.Rot.Weighted>
3.3308

> <Gold.Chemscore.Internal.Correction.Weighted>
   9.000000E+99

> <Gold.Protein.RotatedTorsions>
[ 6907 6896 6895 6894 ] final -173.41 input  -60.11 | X-H torsion
[ 7974 7965 7964 7962 ] final  158.62 input  175.53 | X-H torsion
[ 8008 7997 7996 7995 ] final  -46.12 input   59.86 | X-H torsion
[ 10167 10162 10161 10158 ] final   16.09 input  -65.29 | X-H torsion
[ 10718 10713 10712 10709 ] final  134.79 input   66.30 | X-H torsion
[ 10763 10752 10751 10750 ] final   -1.57 input  -60.55 | X-H torsion
[ 11005 11000 10999 10996 ] final  164.81 input  -57.11 | X-H torsion

> <Gold.Protein.ActiveResidues>
 VAL166  LYS551  ARG553  GLY616  TRP617  ASP618  TYR619  PRO620  LYS621  CYS622 
 ASP623  PHE694  ASN695  SER759  ASP760  ASP761  ALA762  ILE779  LEU786  VAL792 
 PHE793  MET794  SER795  GLU796  ALA797  LYS798  CYS799  TRP800  GLU811  SER814 

> <Gold.Protein.RotatedAtoms>
  151.5558  133.3410  159.2961 H   0  0  0  0  0  0  0  0  0  0  0  0  # atno 6907 bound_to 6896
  150.8452  134.7761  159.6975 H   0  0  0  0  0  0  0  0  0  0  0  0  # atno 6908 bound_to 6896
  152.4511  134.5399  159.9887 H   0  0  0  0  0  0  0  0  0  0  0  0  # atno 6909 bound_to 6896
  144.7835  139.7504  143.6250 H   0  0  0  0  0  0  0  0  0  0  0  0  # atno 7974 bound_to 7965
  154.4005  140.1379  156.3960 H   0  0  0  0  0  0  0  0  0  0  0  0  # atno 8008 bound_to 7997
  155.7870  140.3480  155.5308 H   0  0  0  0  0  0  0  0  0  0  0  0  # atno 8009 bound_to 7997
  155.8617  140.0957  157.1599 H   0  0  0  0  0  0  0  0  0  0  0  0  # atno 8010 bound_to 7997
  140.5822  143.8959  150.6799 H   0  0  0  0  0  0  0  0  0  0  0  0  # atno 10167 bound_to 10162
  157.4637  131.1075  150.9888 H   0  0  0  0  0  0  0  0  0  0  0  0  # atno 10718 bound_to 10713
  153.3466  135.6983  153.6823 H   0  0  0  0  0  0  0  0  0  0  0  0  # atno 10763 bound_to 10752
  153.5567  135.3543  155.2783 H   0  0  0  0  0  0  0  0  0  0  0  0  # atno 10764 bound_to 10752
  154.8646  135.4239  154.2691 H   0  0  0  0  0  0  0  0  0  0  0  0  # atno 10765 bound_to 10752
  140.2497  134.7986  157.3490 H   0  0  0  0  0  0  0  0  0  0  0  0  # atno 11005 bound_to 11000
  146.2056  139.5378  142.9715 LP  0  0  0  0  0  0  0  0  0  0  0  0  # atno 17320 bound_to 7965
  145.5984  141.0359  143.2032 LP  0  0  0  0  0  0  0  0  0  0  0  0  # atno 17321 bound_to 7965
  140.2461  143.3627  152.1445 LP  0  0  0  0  0  0  0  0  0  0  0  0  # atno 17342 bound_to 10162
  139.5176  144.6994  151.5536 LP  0  0  0  0  0  0  0  0  0  0  0  0  # atno 17343 bound_to 10162
  157.0677  130.5851  149.5397 LP  0  0  0  0  0  0  0  0  0  0  0  0  # atno 17370 bound_to 10713
  156.0040  130.5124  150.7766 LP  0  0  0  0  0  0  0  0  0  0  0  0  # atno 17371 bound_to 10713
  140.1570  134.4777  155.7921 LP  0  0  0  0  0  0  0  0  0  0  0  0  # atno 17394 bound_to 11000
  141.2202  133.6885  156.7478 LP  0  0  0  0  0  0  0  0  0  0  0  0  # atno 17395 bound_to 11000

$$$$
