#       Name:                AV-unprocessed.smi:2568
#       Creating user name   scv26
#       Creation time:       Fri Mar 27 14:11:45 2020


#       File generated by GOLD software.
#

@<TRIPOS>MOLECULE
AV-unprocessed.smi:2568
    29    30     1
SMALL
NO_CHARGES


@<TRIPOS>ATOM
      1 ****        -4.0680   1.8564   0.3043 C.3            1 S1                 0.0000
      2 ****        -2.5578   1.8087   0.3320 C.2            1 S1                 0.0000
      3 ****        -1.7344   2.8713   0.3630 N.pl3          1 S1                -1.0000
      4 ****        -0.4816   2.4647   0.3819 N.2            1 S1                 0.0000
      5 ****        -0.5420   1.1244   0.3729 C.2            1 S1                 0.0000
      6 ****         0.6677   0.2136   0.3511 C.3            1 S1                 0.0000
      7 ****         1.1090  -0.0877  -1.0946 C.3            1 S1                 0.0000
      8 ****         2.2801  -0.9856  -1.0941 N.4            1 S1                 1.0000
      9 ****         2.0193  -2.2168  -0.3238 C.3            1 S1                 0.0000
     10 ****         1.5476  -1.8602   1.0959 C.3            1 S1                 0.0000
     11 ****         0.4031  -1.0179   1.0210 O.3            1 S1                 0.0000
     12 ****        -1.8153   0.7065   0.3289 N.2            1 S1                 0.0000
     13 ****        -4.4212   2.8878   0.2973 H              1 S1                 0.0000
     14 ****        -4.4773   1.3574   1.1827 H              1 S1                 0.0000
     15 ****        -4.4459   1.3560  -0.5873 H              1 S1                 0.0000
     16 ****         1.4712   0.7310   0.8787 H              1 S1                 0.0000
     17 ****         0.2964  -0.5587  -1.6499 H              1 S1                 0.0000
     18 ****         1.3648   0.8332  -1.6195 H              1 S1                 0.0000
     19 ****         2.5178  -1.2266  -2.0457 H              1 S1                 0.0000
     20 ****         1.2581  -2.8060  -0.8369 H              1 S1                 0.0000
     21 ****         2.9258  -2.8212  -0.2879 H              1 S1                 0.0000
     22 ****         1.2848  -2.7657   1.6430 H              1 S1                 0.0000
     23 ****         2.3411  -1.3666   1.6594 H              1 S1                 0.0000
     24 ****         3.0576  -0.4981  -0.6723 H              1 S1                 0.0000
     25 ****        -2.0290   3.8269   0.3706 LP             1 S1                 0.0000
     26 ****         0.3402   3.0342   0.3993 LP             1 S1                 0.0000
     27 ****        -0.3186  -1.5023   0.5265 LP             1 S1                 0.0000
     28 ****         0.0930  -0.8163   1.9501 LP             1 S1                 0.0000
     29 ****        -2.1393  -0.2391   0.2998 LP             1 S1                 0.0000
@<TRIPOS>BOND
    1    1   13 1     
    2    1   14 1     
    3    1   15 1     
    4    1    2 1     
    5    2   12 2     
    6    2    3 1     
    7    3    4 1     
    8    4    5 2     
    9    5   12 1     
   10    5    6 1     
   11    6   11 1     
   12    6    7 1     
   13    6   16 1     
   14    7    8 1     
   15    7   17 1     
   16    7   18 1     
   17    8    9 1     
   18    8   19 1     
   19    8   24 1     
   20    9   10 1     
   21    9   20 1     
   22    9   21 1     
   23   10   11 1     
   24   10   22 1     
   25   10   23 1     
   26    3   25 1     
   27    4   26 1     
   28   11   27 1     
   29   11   28 1     
   30   12   29 1     
@<TRIPOS>SUBSTRUCTURE
      1 S1             1
@<TRIPOS>SET
LONE_PAIRS      STATIC     ATOMS    <user>   **** ""
5 25 26 27 28 29
DONOR_HYDROGENS      STATIC     ATOMS    <user>   **** ""
2 19 24
ATOM$BLUE        STATIC     ATOMS    COLORGROUP SYSTEM
5 25 26 27 28 29
ATOM$RED        STATIC     ATOMS    COLORGROUP SYSTEM
2 19 24
