AV-unprocessed.smi:2143|AV-procd|sdf|8729|dock3
  -GOLD-   2272011493D 1   1.00000     0.00000
 Structure written by MMmdl.
 44 45  0  0  0  0  0  0  0  0  1 V2000
  151.1969  141.5653  157.0911 C   0  0  0  0  0  0  0  0  0  0  0  0
  150.3342  140.5375  156.3368 C   0  0  1  0  0  0  0  0  0  0  0  0
  149.1147  141.2429  155.7081 C   0  0  0  0  0  0  0  0  0  0  0  0
  148.2066  140.2648  154.9513 C   0  0  0  0  0  0  0  0  0  0  0  0
  148.9948  139.5072  153.8738 C   0  0  0  0  0  0  0  0  0  0  0  0
  150.2193  138.7811  154.4651 C   0  0  2  0  0  0  0  0  0  0  0  0
  149.8008  137.6518  155.2967 N   0  0  0  0  0  0  0  0  0  0  0  0
  150.4181  136.4634  155.3696 C   0  0  0  0  0  0  0  0  0  0  0  0
  151.4168  136.1767  154.7086 O   0  0  0  0  0  0  0  0  0  0  0  0
  149.7910  135.4361  156.3205 C   0  0  0  0  0  0  0  0  0  0  0  0
  149.5571  134.1382  155.6755 N   0  0  0  0  0  0  0  0  0  0  0  0
  149.0393  134.0908  154.3941 C   0  0  0  0  0  0  0  0  0  0  0  0
  148.8120  132.9394  153.7250 C   0  0  0  0  0  0  0  0  0  0  0  0
  149.1051  131.6480  154.3347 C   0  0  0  0  0  0  0  0  0  0  0  0
  148.9271  130.5771  153.7533 O   0  0  0  0  0  0  0  0  0  0  0  0
  149.6230  131.7251  155.6504 N   0  0  0  0  0  0  0  0  0  0  0  0
  149.9608  130.4988  156.3426 C   0  0  0  0  0  0  0  0  0  0  0  0
  149.8722  132.9330  156.3387 C   0  0  0  0  0  0  0  0  0  0  0  0
  150.3524  132.9471  157.4752 O   0  0  0  0  0  0  0  0  0  0  0  0
  151.1321  139.7526  155.2577 C   0  0  2  0  0  0  0  0  0  0  0  0
  152.3631  139.0193  155.8291 C   0  0  0  0  0  0  0  0  0  0  0  0
  151.6638  142.2720  156.4043 H   0  0  0  0  0  0  0  0  0  0  0  0
  151.9867  141.0854  157.6685 H   0  0  0  0  0  0  0  0  0  0  0  0
  150.5943  142.1385  157.7960 H   0  0  0  0  0  0  0  0  0  0  0  0
  149.9615  139.8247  157.0736 H   0  0  0  0  0  0  0  0  0  0  0  0
  148.5354  141.7467  156.4826 H   0  0  0  0  0  0  0  0  0  0  0  0
  149.4535  142.0222  155.0241 H   0  0  0  0  0  0  0  0  0  0  0  0
  147.7601  139.5586  155.6524 H   0  0  0  0  0  0  0  0  0  0  0  0
  147.3792  140.8065  154.4918 H   0  0  0  0  0  0  0  0  0  0  0  0
  148.3426  138.8001  153.3600 H   0  0  0  0  0  0  0  0  0  0  0  0
  149.3304  140.2139  153.1139 H   0  0  0  0  0  0  0  0  0  0  0  0
  150.8074  138.3898  153.6327 H   0  0  0  0  0  0  0  0  0  0  0  0
  148.9833  137.7941  155.8717 H   0  0  0  0  0  0  0  0  0  0  0  0
  150.4211  135.3075  157.2027 H   0  0  0  0  0  0  0  0  0  0  0  0
  148.8491  135.8452  156.6889 H   0  0  0  0  0  0  0  0  0  0  0  0
  148.8098  135.0220  153.8967 H   0  0  0  0  0  0  0  0  0  0  0  0
  148.4101  132.9742  152.7229 H   0  0  0  0  0  0  0  0  0  0  0  0
  149.5655  130.5629  157.3581 H   0  0  0  0  0  0  0  0  0  0  0  0
  151.0492  130.4237  156.3421 H   0  0  0  0  0  0  0  0  0  0  0  0
  149.5111  129.6368  155.8503 H   0  0  0  0  0  0  0  0  0  0  0  0
  151.5096  140.4828  154.5397 H   0  0  0  0  0  0  0  0  0  0  0  0
  152.0931  138.3583  156.6532 H   0  0  0  0  0  0  0  0  0  0  0  0
  153.1132  139.7193  156.1966 H   0  0  0  0  0  0  0  0  0  0  0  0
  152.8461  138.4124  155.0627 H   0  0  0  0  0  0  0  0  0  0  0  0
  1  2  1  0  0  0  0
  1 22  1  0  0  0  0
  1 23  1  0  0  0  0
  1 24  1  0  0  0  0
  2 20  1  0  0  0  0
  2  3  1  0  0  0  0
  2 25  1  0  0  0  0
  3  4  1  0  0  0  0
  3 26  1  0  0  0  0
  3 27  1  0  0  0  0
  4  5  1  0  0  0  0
  4 28  1  0  0  0  0
  4 29  1  0  0  0  0
  5  6  1  0  0  0  0
  5 30  1  0  0  0  0
  5 31  1  0  0  0  0
  6  7  1  0  0  0  0
  6 20  1  0  0  0  0
  6 32  1  0  0  0  0
  7  8  1  0  0  0  0
  7 33  1  0  0  0  0
  8  9  2  0  0  0  0
  8 10  1  0  0  0  0
 10 11  1  0  0  0  0
 10 34  1  0  0  0  0
 10 35  1  0  0  0  0
 11 18  1  0  0  0  0
 11 12  1  0  0  0  0
 12 13  2  0  0  0  0
 12 36  1  0  0  0  0
 13 14  1  0  0  0  0
 13 37  1  0  0  0  0
 14 15  2  0  0  0  0
 14 16  1  0  0  0  0
 16 17  1  0  0  0  0
 16 18  1  0  0  0  0
 17 38  1  0  0  0  0
 17 39  1  0  0  0  0
 17 40  1  0  0  0  0
 18 19  2  0  0  0  0
 20 21  1  0  0  0  0
 20 41  1  0  0  0  0
 21 42  1  0  0  0  0
 21 43  1  0  0  0  0
 21 44  1  0  0  0  0
M  END
> <s_m_source_file>
AV-unprocessed.smi

> <i_m_source_file_index>
2143

> <i_lp_mmshare_version>
43012

> <i_f3d_flags>
0

> <s_epik_input>
W0NIM11bQ0BASF0xW0NIMl1bQ0gyXVtDSDJdW0NASF0oW0NASF0xW0NIM10pW05IXUMoPU8pW0NIMl1uMltjSF1bY0hdYyg9TyluKFtDSDNdKWMyPU8=

> <s_epik_cmdline>
J2VwaWtfcHl0aG9uJywgJy1waCcsICc3LjAnLCAnLXRuJywgJzgnLCAnLW1hJywgJzIwMCcsICctbWV0YWxfYmluZGluZycsICctaW1hZScsICc8aW5maWxlLm1hZT4nLCAnLW9tYWUnLCAnPG91dGZpbGUubWFlPic=

> <r_lp_tautomer_probability>
1

> <r_epik_Ionization_Penalty>
3.18445e-08

> <r_epik_Ionization_Penalty_Charging>
1.27977e-08

> <r_epik_Ionization_Penalty_Neutral>
1.90469e-08

> <r_epik_State_Penalty>
-0

> <r_epik_Charging_Adjusted_Penalty>
1.27977e-08

> <i_epik_Tot_Q>
0

> <i_epik_Tot_abs_Q>
0

> <r_epik_Metal_State_Penalty>
-0

> <b_epik_Metal_Only>
0

> <s_lp_Force_Field>
OPLS_2005

> <r_lp_Energy>
18.9337

> <b_lp_Chiralities_Consistent>
1

> <s_lp_Variant>
AV-unprocessed.smi:2143-8

> <Gold.Version>
5.8.1

> <Gold.Id.Protein>
6NUR|6NUR_protein|mol2

> <Gold.PLP.Fitness>
41.7393

> <Gold.PLP.PLP>
-34.2266

> <Gold.PLP.part.hbond>
-2.0000

> <Gold.PLP.part.metal>
0.0000

> <Gold.PLP.part.buried>
-1.5927

> <Gold.PLP.part.nonpolar>
-31.6678

> <Gold.PLP.part.repulsive>
0.9496

> <Gold.PLP.ligand.clash>
0.0000

> <Gold.PLP.ligand.torsion>
0.6423

> <Gold.PLP.Chemscore.Hbond>
1.9280

> <Gold.PLP.Chemscore.CHOScore>
1.0000

> <Gold.PLP.Chemscore.Metal>
0.0000

> <Gold.Chemscore.Hbonds>
donor molecule, donor type, donor heavy atom, donor atom, acceptor molecule, acceptor atom, score
      P1  H  6896  6907       L1    19  1.00
      P1  H 10752 10764       L1     9  1.00
      L1  C    12    36       P1  7948  1.00

> <Gold.PLP.Chemscore.Internal.Correction>
0.0133

> <Gold.Rescore>
     Score         DG    S(hbond)    S(metal)    S(lipo)     H(rot)  DE(clash)    DE(int)     intcor
     14.14     -15.89       1.98        0.00      65.42       1.51       0.02       1.73       ----

> <Gold.Chemscore.Fitness>
14.1433

> <Gold.Chemscore.DG>
-15.8906

> <Gold.Chemscore.ZeroCoef>
-5.4800

> <Gold.Chemscore.Hbond>
1.9850

> <Gold.Chemscore.Metal>
0.0000

> <Gold.Chemscore.Lipo>
65.4201

> <Gold.Chemscore.Internal_Hbond>
0.0000

> <Gold.Chemscore.DEClash>
0.0189

> <Gold.Chemscore.DEInternal>
1.7284

> <Gold.Chemscore.Rot>
1.5131

> <Gold.Chemscore.Internal.Correction>
   9.000000E+99

> <Gold.Chemscore.Hbonds>
donor molecule, donor type, donor heavy atom, donor atom, acceptor molecule, acceptor atom, score
      P1  H  6896  6907       L1    19  0.92
      P1  H 10752 10764       L1     9  1.00

> <Gold.Chemscore.Hbond.Weighted>
-6.6299

> <Gold.Chemscore.Metal.Weighted>
-0.0000

> <Gold.Chemscore.Lipo.Weighted>
-7.6541

> <Gold.Chemscore.Internal_Hbond.Weighted>
0.0000

> <Gold.Chemscore.DEClash.Weighted>
0.0189

> <Gold.Chemscore.DEInternal.Weighted>
1.7284

> <Gold.Chemscore.Rot.Weighted>
3.8734

> <Gold.Chemscore.Internal.Correction.Weighted>
   9.000000E+99

> <Gold.Protein.RotatedTorsions>
[ 6907 6896 6895 6894 ] final -155.89 input  -60.11 | X-H torsion
[ 7974 7965 7964 7962 ] final  -52.58 input  175.53 | X-H torsion
[ 8008 7997 7996 7995 ] final -131.20 input   59.86 | X-H torsion
[ 10167 10162 10161 10158 ] final   36.73 input  -65.29 | X-H torsion
[ 10718 10713 10712 10709 ] final -161.70 input   66.30 | X-H torsion
[ 10763 10752 10751 10750 ] final  -75.56 input  -60.55 | X-H torsion
[ 11005 11000 10999 10996 ] final -138.49 input  -57.11 | X-H torsion

> <Gold.Protein.ActiveResidues>
 VAL166  LYS551  ARG553  GLY616  TRP617  ASP618  TYR619  PRO620  LYS621  CYS622 
 ASP623  PHE694  ASN695  SER759  ASP760  ASP761  ALA762  ILE779  LEU786  VAL792 
 PHE793  MET794  SER795  GLU796  ALA797  LYS798  CYS799  TRP800  GLU811  SER814 

> <Gold.Protein.RotatedAtoms>
  151.2793  133.4217  159.2625 H   0  0  0  0  0  0  0  0  0  0  0  0  # atno 6907 bound_to 6896
  151.0375  134.9584  159.8154 H   0  0  0  0  0  0  0  0  0  0  0  0  # atno 6908 bound_to 6896
  152.5358  134.2752  159.9039 H   0  0  0  0  0  0  0  0  0  0  0  0  # atno 6909 bound_to 6896
  145.9064  140.7952  142.9717 H   0  0  0  0  0  0  0  0  0  0  0  0  # atno 7974 bound_to 7965
  155.3083  140.0456  157.3033 H   0  0  0  0  0  0  0  0  0  0  0  0  # atno 8008 bound_to 7997
  154.5447  140.2299  155.8549 H   0  0  0  0  0  0  0  0  0  0  0  0  # atno 8009 bound_to 7997
  156.1913  140.3050  155.9345 H   0  0  0  0  0  0  0  0  0  0  0  0  # atno 8010 bound_to 7997
  140.4100  144.1605  150.6139 H   0  0  0  0  0  0  0  0  0  0  0  0  # atno 10167 bound_to 10162
  156.5999  130.8806  151.2911 H   0  0  0  0  0  0  0  0  0  0  0  0  # atno 10718 bound_to 10713
  154.4882  135.5827  153.6439 H   0  0  0  0  0  0  0  0  0  0  0  0  # atno 10763 bound_to 10752
  152.9858  135.6106  154.3159 H   0  0  0  0  0  0  0  0  0  0  0  0  # atno 10764 bound_to 10752
  154.3056  135.2846  155.2569 H   0  0  0  0  0  0  0  0  0  0  0  0  # atno 10765 bound_to 10752
  140.8610  134.2168  157.4707 H   0  0  0  0  0  0  0  0  0  0  0  0  # atno 11005 bound_to 11000
  144.6739  140.1756  143.7410 LP  0  0  0  0  0  0  0  0  0  0  0  0  # atno 17320 bound_to 7965
  145.8727  139.2280  143.1651 LP  0  0  0  0  0  0  0  0  0  0  0  0  # atno 17321 bound_to 7965
  140.4648  143.2435  151.9171 LP  0  0  0  0  0  0  0  0  0  0  0  0  # atno 17342 bound_to 10162
  139.4783  144.5431  151.8499 LP  0  0  0  0  0  0  0  0  0  0  0  0  # atno 17343 bound_to 10162
  157.7282  130.9654  150.1733 LP  0  0  0  0  0  0  0  0  0  0  0  0  # atno 17370 bound_to 10713
  156.2478  130.3697  149.8266 LP  0  0  0  0  0  0  0  0  0  0  0  0  # atno 17371 bound_to 10713
  139.8707  134.9729  156.4792 LP  0  0  0  0  0  0  0  0  0  0  0  0  # atno 17394 bound_to 11000
  140.8682  133.8008  155.9337 LP  0  0  0  0  0  0  0  0  0  0  0  0  # atno 17395 bound_to 11000

$$$$
