AV-unprocessed.smi:2304|AV-procd|sdf|9245|dock7
  -GOLD-   2272012463D 1   1.00000     0.00000
 Structure written by MMmdl.
 37 38  0  0  0  0  0  0  0  0  1 V2000
  150.1443  138.7982  154.5237 C   0  0  0  0  0  0  0  0  0  0  0  0
  150.1694  140.2129  154.4565 O   0  0  0  0  0  0  0  0  0  0  0  0
  148.9414  140.7575  154.0009 C   0  0  0  0  0  0  0  0  0  0  0  0
  148.0821  141.1712  155.2075 C   0  0  1  0  0  0  0  0  0  0  0  0
  148.7846  142.1942  155.9785 N   0  0  0  0  0  0  0  0  0  0  0  0
  149.5958  141.9712  157.0234 C   0  0  0  0  0  0  0  0  0  0  0  0
  149.8599  140.8488  157.4556 O   0  0  0  0  0  0  0  0  0  0  0  0
  150.0695  143.1266  157.5224 N   0  0  0  0  0  0  0  0  0  0  0  0
  150.9197  143.3157  158.6444 C   0  0  0  0  0  0  0  0  0  0  0  0
  150.8703  144.6037  159.2237 C   0  0  0  0  0  0  0  0  0  0  0  0
  151.6727  144.8904  160.3449 C   0  0  0  0  0  0  0  0  0  0  0  0
  152.5051  143.8810  160.8603 C   0  0  0  0  0  0  0  0  0  0  0  0
  152.4949  142.6238  160.2249 C   0  0  0  0  0  0  0  0  0  0  0  0
  153.3653  141.4900  160.7248 C   0  0  0  0  0  0  0  0  0  0  0  0
  151.7264  142.3490  159.1490 N   0  0  0  0  0  0  0  0  0  0  0  0
  146.7080  141.6339  154.7609 C   0  0  0  0  0  0  0  0  0  0  0  0
  146.5433  142.8535  153.8865 C   0  0  0  0  0  0  0  0  0  0  0  0
  146.0845  142.8872  155.3273 C   0  0  0  0  0  0  0  0  0  0  0  0
  151.1118  138.4302  154.8649 H   0  0  0  0  0  0  0  0  0  0  0  0
  149.9428  138.3596  153.5456 H   0  0  0  0  0  0  0  0  0  0  0  0
  149.3857  138.4511  155.2265 H   0  0  0  0  0  0  0  0  0  0  0  0
  149.1200  141.6115  153.3451 H   0  0  0  0  0  0  0  0  0  0  0  0
  148.4145  140.0030  153.4144 H   0  0  0  0  0  0  0  0  0  0  0  0
  147.9288  140.2825  155.8228 H   0  0  0  0  0  0  0  0  0  0  0  0
  148.6345  143.1510  155.6951 H   0  0  0  0  0  0  0  0  0  0  0  0
  149.7751  143.9707  157.0547 H   0  0  0  0  0  0  0  0  0  0  0  0
  150.2246  145.3680  158.8163 H   0  0  0  0  0  0  0  0  0  0  0  0
  151.6489  145.8691  160.8012 H   0  0  0  0  0  0  0  0  0  0  0  0
  153.1325  144.0696  161.7192 H   0  0  0  0  0  0  0  0  0  0  0  0
  153.8464  141.7471  161.6688 H   0  0  0  0  0  0  0  0  0  0  0  0
  154.1430  141.2627  159.9953 H   0  0  0  0  0  0  0  0  0  0  0  0
  152.7678  140.5915  160.8827 H   0  0  0  0  0  0  0  0  0  0  0  0
  146.0174  140.8157  154.5643 H   0  0  0  0  0  0  0  0  0  0  0  0
  147.4382  143.4175  153.6299 H   0  0  0  0  0  0  0  0  0  0  0  0
  145.7768  142.8185  153.1153 H   0  0  0  0  0  0  0  0  0  0  0  0
  145.0130  142.8744  155.5147 H   0  0  0  0  0  0  0  0  0  0  0  0
  146.6739  143.4764  156.0272 H   0  0  0  0  0  0  0  0  0  0  0  0
  1  2  1  0  0  0  0
  1 19  1  0  0  0  0
  1 20  1  0  0  0  0
  1 21  1  0  0  0  0
  2  3  1  0  0  0  0
  3  4  1  0  0  0  0
  3 22  1  0  0  0  0
  3 23  1  0  0  0  0
  4  5  1  0  0  0  0
  4 16  1  0  0  0  0
  4 24  1  0  0  0  0
  5  6  1  0  0  0  0
  5 25  1  0  0  0  0
  6  7  2  0  0  0  0
  6  8  1  0  0  0  0
  8  9  1  0  0  0  0
  8 26  1  0  0  0  0
  9 15  1  0  0  0  0
  9 10  2  0  0  0  0
 10 11  1  0  0  0  0
 10 27  1  0  0  0  0
 11 12  2  0  0  0  0
 11 28  1  0  0  0  0
 12 13  1  0  0  0  0
 12 29  1  0  0  0  0
 13 14  1  0  0  0  0
 13 15  2  0  0  0  0
 14 30  1  0  0  0  0
 14 31  1  0  0  0  0
 14 32  1  0  0  0  0
 16 18  1  0  0  0  0
 16 17  1  0  0  0  0
 16 33  1  0  0  0  0
 17 18  1  0  0  0  0
 17 34  1  0  0  0  0
 17 35  1  0  0  0  0
 18 36  1  0  0  0  0
 18 37  1  0  0  0  0
M  END
> <s_m_source_file>
AV-unprocessed.smi

> <i_m_source_file_index>
2304

> <i_lp_mmshare_version>
43012

> <i_f3d_flags>
0

> <s_epik_input>
W0NIM11PW0NIMl1bQ0BASF0oW0NIXTFbQ0gyXVtDSDJdMSlbTkhdQyg9TylbTkhdYzJbY0hdW2NIXVtjSF1jKG4yKVtDSDNd

> <s_epik_cmdline>
J2VwaWtfcHl0aG9uJywgJy1waCcsICc3LjAnLCAnLXRuJywgJzgnLCAnLW1hJywgJzIwMCcsICctbWV0YWxfYmluZGluZycsICctaW1hZScsICc8aW5maWxlLm1hZT4nLCAnLW9tYWUnLCAnPG91dGZpbGUubWFlPic=

> <r_lp_tautomer_probability>
1

> <r_epik_Ionization_Penalty>
8.58396e-05

> <r_epik_Ionization_Penalty_Charging>
0

> <r_epik_Ionization_Penalty_Neutral>
8.58396e-05

> <r_epik_State_Penalty>
-0

> <r_epik_Charging_Adjusted_Penalty>
0

> <i_epik_Tot_Q>
0

> <i_epik_Tot_abs_Q>
0

> <r_epik_Metal_State_Penalty>
-0

> <b_epik_Metal_Only>
0

> <s_lp_Force_Field>
OPLS_2005

> <r_lp_Energy>
16.7335

> <b_lp_Chiralities_Consistent>
1

> <s_lp_Variant>
AV-unprocessed.smi:2304-2

> <Gold.Version>
5.8.1

> <Gold.Id.Protein>
6NUR|6NUR_protein|mol2

> <Gold.PLP.Fitness>
47.4914

> <Gold.PLP.PLP>
-40.2794

> <Gold.PLP.part.hbond>
-2.9720

> <Gold.PLP.part.metal>
0.0000

> <Gold.PLP.part.buried>
-5.1220

> <Gold.PLP.part.nonpolar>
-32.4791

> <Gold.PLP.part.repulsive>
0.2433

> <Gold.PLP.ligand.clash>
0.0000

> <Gold.PLP.ligand.torsion>
1.3739

> <Gold.PLP.Chemscore.Hbond>
2.9600

> <Gold.PLP.Chemscore.CHOScore>
0.0000

> <Gold.PLP.Chemscore.Metal>
0.0000

> <Gold.Chemscore.Hbonds>
donor molecule, donor type, donor heavy atom, donor atom, acceptor molecule, acceptor atom, score
      L1  H     5    25       P1  8028  1.00
      L1  H     8    26       P1  8028  0.98
      P1  H  7989  7998       L1     2  1.00

> <Gold.PLP.Chemscore.Internal.Correction>
1.0798

> <Gold.Rescore>
     Score         DG    S(hbond)    S(metal)    S(lipo)     H(rot)  DE(clash)    DE(int)     intcor
     18.02     -20.52       2.67        0.00      87.59       1.61       0.07       2.43       ----

> <Gold.Chemscore.Fitness>
18.0229

> <Gold.Chemscore.DG>
-20.5193

> <Gold.Chemscore.ZeroCoef>
-5.4800

> <Gold.Chemscore.Hbond>
2.6716

> <Gold.Chemscore.Metal>
0.0000

> <Gold.Chemscore.Lipo>
87.5949

> <Gold.Chemscore.Internal_Hbond>
0.0000

> <Gold.Chemscore.DEClash>
0.0662

> <Gold.Chemscore.DEInternal>
2.4302

> <Gold.Chemscore.Rot>
1.6142

> <Gold.Chemscore.Internal.Correction>
   9.000000E+99

> <Gold.Chemscore.Hbonds>
donor molecule, donor type, donor heavy atom, donor atom, acceptor molecule, acceptor atom, score
      L1  H     5    25       P1  8028  0.96
      L1  H     8    26       P1  8028  0.80
      P1  H  7989  7998       L1     2  0.64

> <Gold.Chemscore.Hbond.Weighted>
-8.9230

> <Gold.Chemscore.Metal.Weighted>
-0.0000

> <Gold.Chemscore.Lipo.Weighted>
-10.2486

> <Gold.Chemscore.Internal_Hbond.Weighted>
0.0000

> <Gold.Chemscore.DEClash.Weighted>
0.0662

> <Gold.Chemscore.DEInternal.Weighted>
2.4302

> <Gold.Chemscore.Rot.Weighted>
4.1323

> <Gold.Chemscore.Internal.Correction.Weighted>
   9.000000E+99

> <Gold.Protein.RotatedTorsions>
[ 6907 6896 6895 6894 ] final  143.78 input  -60.11 | X-H torsion
[ 7974 7965 7964 7962 ] final  128.10 input  175.53 | X-H torsion
[ 8008 7997 7996 7995 ] final  171.21 input   59.86 | X-H torsion
[ 10167 10162 10161 10158 ] final  139.88 input  -65.29 | X-H torsion
[ 10718 10713 10712 10709 ] final   -9.81 input   66.30 | X-H torsion
[ 10763 10752 10751 10750 ] final  -44.25 input  -60.55 | X-H torsion
[ 11005 11000 10999 10996 ] final  168.21 input  -57.11 | X-H torsion

> <Gold.Protein.ActiveResidues>
 VAL166  LYS551  ARG553  GLY616  TRP617  ASP618  TYR619  PRO620  LYS621  CYS622 
 ASP623  PHE694  ASN695  SER759  ASP760  ASP761  ALA762  ILE779  LEU786  VAL792 
 PHE793  MET794  SER795  GLU796  ALA797  LYS798  CYS799  TRP800  GLU811  SER814 

> <Gold.Protein.RotatedAtoms>
  152.2019  133.4847  159.5063 H   0  0  0  0  0  0  0  0  0  0  0  0  # atno 6907 bound_to 6896
  150.6971  134.1579  159.4174 H   0  0  0  0  0  0  0  0  0  0  0  0  # atno 6908 bound_to 6896
  151.9496  135.0175  160.0592 H   0  0  0  0  0  0  0  0  0  0  0  0  # atno 6909 bound_to 6896
  145.0433  139.3945  143.5091 H   0  0  0  0  0  0  0  0  0  0  0  0  # atno 7974 bound_to 7965
  156.1293  140.1518  156.9090 H   0  0  0  0  0  0  0  0  0  0  0  0  # atno 8008 bound_to 7997
  154.4896  140.0855  156.7605 H   0  0  0  0  0  0  0  0  0  0  0  0  # atno 8009 bound_to 7997
  155.4286  140.3426  155.4280 H   0  0  0  0  0  0  0  0  0  0  0  0  # atno 8010 bound_to 7997
  139.5065  144.6268  151.5917 H   0  0  0  0  0  0  0  0  0  0  0  0  # atno 10167 bound_to 10162
  156.6827  130.5041  149.5966 H   0  0  0  0  0  0  0  0  0  0  0  0  # atno 10718 bound_to 10713
  154.0089  135.6684  153.4764 H   0  0  0  0  0  0  0  0  0  0  0  0  # atno 10763 bound_to 10752
  153.0629  135.5017  154.8131 H   0  0  0  0  0  0  0  0  0  0  0  0  # atno 10764 bound_to 10752
  154.7007  135.3078  154.9308 H   0  0  0  0  0  0  0  0  0  0  0  0  # atno 10765 bound_to 10752
  140.2849  134.7720  157.3790 H   0  0  0  0  0  0  0  0  0  0  0  0  # atno 11005 bound_to 11000
  146.3511  140.0045  142.8673 LP  0  0  0  0  0  0  0  0  0  0  0  0  # atno 17320 bound_to 7965
  145.1620  140.9678  143.4371 LP  0  0  0  0  0  0  0  0  0  0  0  0  # atno 17321 bound_to 7965
  140.5987  143.9648  150.6372 LP  0  0  0  0  0  0  0  0  0  0  0  0  # atno 17342 bound_to 10162
  140.2853  143.3361  152.1113 LP  0  0  0  0  0  0  0  0  0  0  0  0  # atno 17343 bound_to 10162
  156.1856  130.6527  151.1002 LP  0  0  0  0  0  0  0  0  0  0  0  0  # atno 17370 bound_to 10713
  157.7038  131.0765  150.6735 LP  0  0  0  0  0  0  0  0  0  0  0  0  # atno 17371 bound_to 10713
  140.1249  134.5171  155.8153 LP  0  0  0  0  0  0  0  0  0  0  0  0  # atno 17394 bound_to 11000
  141.2156  133.6769  156.6933 LP  0  0  0  0  0  0  0  0  0  0  0  0  # atno 17395 bound_to 11000

$$$$
