AV-unprocessed.smi:1033|AV-procd|sdf|4498|dock4
  -GOLD-   22720 2493D 1   1.00000     0.00000
 Structure written by MMmdl.
 57 59  0  0  0  0  0  0  0  0  3 V2000
  152.4389  142.8829  160.5676 C   0  0  0  0  0  0  0  0  0  0  0  0
  152.0364  142.1835  159.2803 C   0  0  0  0  0  0  0  0  0  0  0  0
  151.0718  142.7993  158.4514 C   0  0  0  0  0  0  0  0  0  0  0  0
  150.7241  142.1356  157.2811 C   0  0  0  0  0  0  0  0  0  0  0  0
  149.8193  142.4748  156.2733 N   0  3  0  0  0  0  0  0  0  0  0  0
  149.8186  141.5051  155.3176 C   0  0  0  0  0  0  0  0  0  0  0  0
  150.7086  140.5491  155.7004 N   0  0  0  0  0  0  0  0  0  0  0  0
  151.0898  139.2998  155.0244 C   0  0  0  0  0  0  0  0  0  0  0  0
  149.9105  138.3203  154.8645 C   0  0  2  0  0  0  0  0  0  0  0  0
  150.3364  137.1844  154.1372 O   0  0  0  0  0  0  0  0  0  0  0  0
  148.7282  138.9709  154.1179 C   0  0  0  0  0  0  0  0  0  0  0  0
  147.7789  137.9744  153.5588 N   0  3  0  0  0  0  0  0  0  0  0  0
  146.8384  138.5769  152.5789 C   0  0  0  0  0  0  0  0  0  0  0  0
  145.9262  137.4923  151.9702 C   0  0  0  0  0  0  0  0  0  0  0  0
  145.1711  136.7424  152.9733 N   0  0  0  0  0  0  0  0  0  0  0  0
  144.0941  137.5328  153.5813 C   0  0  0  0  0  0  0  0  0  0  0  0
  142.7122  137.3966  152.9118 C   0  0  2  0  0  0  0  0  0  0  0  0
  141.6386  138.2732  153.5726 C   0  0  0  0  0  0  0  0  0  0  0  0
  142.3072  136.0486  153.0208 O   0  0  0  0  0  0  0  0  0  0  0  0
  146.1182  136.1609  153.9282 C   0  0  0  0  0  0  0  0  0  0  0  0
  147.0365  137.2062  154.5940 C   0  0  0  0  0  0  0  0  0  0  0  0
  151.3002  140.9015  156.9206 C   0  0  0  0  0  0  0  0  0  0  0  0
  152.2525  140.2813  157.7270 C   0  0  0  0  0  0  0  0  0  0  0  0
  152.6190  140.9403  158.9224 C   0  0  0  0  0  0  0  0  0  0  0  0
  153.6536  140.2864  159.8226 C   0  0  0  0  0  0  0  0  0  0  0  0
  151.8776  143.8064  160.7127 H   0  0  0  0  0  0  0  0  0  0  0  0
  153.4991  143.1365  160.5490 H   0  0  0  0  0  0  0  0  0  0  0  0
  152.2510  142.2414  161.4289 H   0  0  0  0  0  0  0  0  0  0  0  0
  150.6239  143.7458  158.7175 H   0  0  0  0  0  0  0  0  0  0  0  0
  149.2204  141.4981  154.4177 H   0  0  0  0  0  0  0  0  0  0  0  0
  151.4766  139.5755  154.0426 H   0  0  0  0  0  0  0  0  0  0  0  0
  151.9212  138.8386  155.5583 H   0  0  0  0  0  0  0  0  0  0  0  0
  149.6008  137.9928  155.8565 H   0  0  0  0  0  0  0  0  0  0  0  0
  149.6800  136.9797  153.4882 H   0  0  0  0  0  0  0  0  0  0  0  0
  148.1864  139.6514  154.7764 H   0  0  0  0  0  0  0  0  0  0  0  0
  149.1281  139.5856  153.3095 H   0  0  0  0  0  0  0  0  0  0  0  0
  146.2489  139.3588  153.0596 H   0  0  0  0  0  0  0  0  0  0  0  0
  147.4037  139.0570  151.7794 H   0  0  0  0  0  0  0  0  0  0  0  0
  145.2413  137.9443  151.2517 H   0  0  0  0  0  0  0  0  0  0  0  0
  146.5403  136.7972  151.3957 H   0  0  0  0  0  0  0  0  0  0  0  0
  144.0010  137.2863  154.6387 H   0  0  0  0  0  0  0  0  0  0  0  0
  144.3735  138.5871  153.5529 H   0  0  0  0  0  0  0  0  0  0  0  0
  142.7718  137.6259  151.8484 H   0  0  0  0  0  0  0  0  0  0  0  0
  141.8855  139.3315  153.4828 H   0  0  0  0  0  0  0  0  0  0  0  0
  141.5364  138.0456  154.6344 H   0  0  0  0  0  0  0  0  0  0  0  0
  140.6651  138.1240  153.1045 H   0  0  0  0  0  0  0  0  0  0  0  0
  142.2054  135.6934  152.1508 H   0  0  0  0  0  0  0  0  0  0  0  0
  145.5920  135.5875  154.6899 H   0  0  0  0  0  0  0  0  0  0  0  0
  146.7418  135.4351  153.4043 H   0  0  0  0  0  0  0  0  0  0  0  0
  147.7343  136.6887  155.2508 H   0  0  0  0  0  0  0  0  0  0  0  0
  146.4608  137.8847  155.2246 H   0  0  0  0  0  0  0  0  0  0  0  0
  152.6954  139.3333  157.4602 H   0  0  0  0  0  0  0  0  0  0  0  0
  154.0257  139.3556  159.3936 H   0  0  0  0  0  0  0  0  0  0  0  0
  153.2211  140.0550  160.7963 H   0  0  0  0  0  0  0  0  0  0  0  0
  154.5071  140.9486  159.9707 H   0  0  0  0  0  0  0  0  0  0  0  0
  148.3350  137.3097  153.0394 H   0  0  0  0  0  0  0  0  0  0  0  0
  149.2453  143.3077  156.2369 H   0  0  0  0  0  0  0  0  0  0  0  0
  1  2  1  0  0  0  0
  1 26  1  0  0  0  0
  1 27  1  0  0  0  0
  1 28  1  0  0  0  0
  2 24  1  0  0  0  0
  2  3  2  0  0  0  0
  3  4  1  0  0  0  0
  3 29  1  0  0  0  0
  4 22  2  0  0  0  0
  4  5  1  0  0  0  0
  5  6  2  0  0  0  0
  5 57  1  0  0  0  0
  6  7  1  0  0  0  0
  6 30  1  0  0  0  0
  7  8  1  0  0  0  0
  7 22  1  0  0  0  0
  8  9  1  0  0  0  0
  8 31  1  0  0  0  0
  8 32  1  0  0  0  0
  9 10  1  0  0  0  0
  9 11  1  0  0  0  0
  9 33  1  0  0  0  0
 10 34  1  0  0  0  0
 11 12  1  0  0  0  0
 11 35  1  0  0  0  0
 11 36  1  0  0  0  0
 12 21  1  0  0  0  0
 12 13  1  0  0  0  0
 12 56  1  0  0  0  0
 13 14  1  0  0  0  0
 13 37  1  0  0  0  0
 13 38  1  0  0  0  0
 14 15  1  0  0  0  0
 14 39  1  0  0  0  0
 14 40  1  0  0  0  0
 15 16  1  0  0  0  0
 15 20  1  0  0  0  0
 16 17  1  0  0  0  0
 16 41  1  0  0  0  0
 16 42  1  0  0  0  0
 17 18  1  0  0  0  0
 17 19  1  0  0  0  0
 17 43  1  0  0  0  0
 18 44  1  0  0  0  0
 18 45  1  0  0  0  0
 18 46  1  0  0  0  0
 19 47  1  0  0  0  0
 20 21  1  0  0  0  0
 20 48  1  0  0  0  0
 20 49  1  0  0  0  0
 21 50  1  0  0  0  0
 21 51  1  0  0  0  0
 22 23  1  0  0  0  0
 23 24  2  0  0  0  0
 23 52  1  0  0  0  0
 24 25  1  0  0  0  0
 25 53  1  0  0  0  0
 25 54  1  0  0  0  0
 25 55  1  0  0  0  0
M  CHG  1   5   1
M  CHG  1  12   1
M  END
> <s_m_source_file>
AV-unprocessed.smi

> <i_m_source_file_index>
1033

> <i_lp_mmshare_version>
43012

> <i_f3d_flags>
0

> <s_epik_input>
W0NIM11jKFtjSF0xKWMoW0NIM10pW2NIXWMoYzEyKW4oW2NIXW4yKVtDSDJdW0NASF0oW09IXSlbQ0gyXU4zW0NIMl1bQ0gyXU4oW0NIMl1bQ0gyXTMpW0NIMl1bQ0BIXShbQ0gzXSlbT0hd

> <s_epik_cmdline>
J2VwaWtfcHl0aG9uJywgJy1waCcsICc3LjAnLCAnLXRuJywgJzgnLCAnLW1hJywgJzIwMCcsICctbWV0YWxfYmluZGluZycsICctaW1hZScsICc8aW5maWxlLm1hZT4nLCAnLW9tYWUnLCAnPG91dGZpbGUubWFlPic=

> <r_epik_Ionization_Penalty>
1.22049

> <r_epik_Ionization_Penalty_Charging>
1.17952

> <r_epik_Ionization_Penalty_Neutral>
0.0409743

> <r_epik_State_Penalty>
1.61468

> <r_epik_Charging_Adjusted_Penalty>
2.7942

> <i_epik_Tot_Q>
2

> <i_epik_Tot_abs_Q>
2

> <r_epik_Metal_State_Penalty>
5.63169

> <b_epik_Metal_Only>
0

> <s_lp_Force_Field>
OPLS_2005

> <r_lp_Energy>
42.2447

> <b_lp_Chiralities_Consistent>
1

> <s_lp_Variant>
AV-unprocessed.smi:1033-9

> <Gold.Version>
5.8.1

> <Gold.Id.Protein>
6NUR|6NUR_protein|mol2

> <Gold.PLP.Fitness>
58.8810

> <Gold.PLP.PLP>
-45.1900

> <Gold.PLP.part.hbond>
-3.8438

> <Gold.PLP.part.metal>
0.0000

> <Gold.PLP.part.buried>
-1.4824

> <Gold.PLP.part.nonpolar>
-40.0858

> <Gold.PLP.part.repulsive>
0.2737

> <Gold.PLP.ligand.clash>
0.0000

> <Gold.PLP.ligand.torsion>
0.7221

> <Gold.PLP.Chemscore.Hbond>
5.0000

> <Gold.PLP.Chemscore.CHOScore>
0.0000

> <Gold.PLP.Chemscore.Metal>
0.0000

> <Gold.Chemscore.Hbonds>
donor molecule, donor type, donor heavy atom, donor atom, acceptor molecule, acceptor atom, score
      L1  H     5    57       P1  8028  2.00
      L1  H    10    34       P1  7948  1.00
      L1  H    12    56       P1  7948  2.00

> <Gold.PLP.Chemscore.Internal.Correction>
0.1351

> <Gold.Rescore>
     Score         DG    S(hbond)    S(metal)    S(lipo)     H(rot)  DE(clash)    DE(int)     intcor
     18.55     -19.44       2.77        0.00     109.06       3.15       0.06       0.83       ----

> <Gold.Chemscore.Fitness>
18.5488

> <Gold.Chemscore.DG>
-19.4382

> <Gold.Chemscore.ZeroCoef>
-5.4800

> <Gold.Chemscore.Hbond>
2.7719

> <Gold.Chemscore.Metal>
0.0000

> <Gold.Chemscore.Lipo>
109.0591

> <Gold.Chemscore.Internal_Hbond>
0.0000

> <Gold.Chemscore.DEClash>
0.0566

> <Gold.Chemscore.DEInternal>
0.8328

> <Gold.Chemscore.Rot>
3.1483

> <Gold.Chemscore.Internal.Correction>
   9.000000E+99

> <Gold.Chemscore.Hbonds>
donor molecule, donor type, donor heavy atom, donor atom, acceptor molecule, acceptor atom, score
      L1  H     5    57       P1  8028  0.94
      L1  H    10    34       P1  7948  0.64
      L1  H    12    56       P1  7948  1.00

> <Gold.Chemscore.Hbond.Weighted>
-9.2580

> <Gold.Chemscore.Metal.Weighted>
-0.0000

> <Gold.Chemscore.Lipo.Weighted>
-12.7599

> <Gold.Chemscore.Internal_Hbond.Weighted>
0.0000

> <Gold.Chemscore.DEClash.Weighted>
0.0566

> <Gold.Chemscore.DEInternal.Weighted>
0.8328

> <Gold.Chemscore.Rot.Weighted>
8.0597

> <Gold.Chemscore.Internal.Correction.Weighted>
   9.000000E+99

> <Gold.Protein.RotatedTorsions>
[ 6907 6896 6895 6894 ] final  -90.55 input  -60.11 | X-H torsion
[ 7974 7965 7964 7962 ] final -132.34 input  175.53 | X-H torsion
[ 8008 7997 7996 7995 ] final   20.23 input   59.86 | X-H torsion
[ 10167 10162 10161 10158 ] final   85.48 input  -65.29 | X-H torsion
[ 10718 10713 10712 10709 ] final -120.88 input   66.30 | X-H torsion
[ 10763 10752 10751 10750 ] final  134.88 input  -60.55 | X-H torsion
[ 11005 11000 10999 10996 ] final   61.48 input  -57.11 | X-H torsion

> <Gold.Protein.ActiveResidues>
 VAL166  LYS551  ARG553  GLY616  TRP617  ASP618  TYR619  PRO620  LYS621  CYS622 
 ASP623  PHE694  ASN695  SER759  ASP760  ASP761  ALA762  ILE779  LEU786  VAL792 
 PHE793  MET794  SER795  GLU796  ALA797  LYS798  CYS799  TRP800  GLU811  SER814 

> <Gold.Protein.RotatedAtoms>
  150.6883  134.2415  159.4473 H   0  0  0  0  0  0  0  0  0  0  0  0  # atno 6907 bound_to 6896
  152.0358  134.9738  160.0582 H   0  0  0  0  0  0  0  0  0  0  0  0  # atno 6908 bound_to 6896
  152.1259  133.4345  159.4734 H   0  0  0  0  0  0  0  0  0  0  0  0  # atno 6909 bound_to 6896
  144.9295  140.7111  143.4915 H   0  0  0  0  0  0  0  0  0  0  0  0  # atno 7974 bound_to 7965
  154.9325  140.3042  155.5161 H   0  0  0  0  0  0  0  0  0  0  0  0  # atno 8008 bound_to 7997
  156.3002  140.2351  156.4323 H   0  0  0  0  0  0  0  0  0  0  0  0  # atno 8009 bound_to 7997
  154.8224  140.0422  157.1408 H   0  0  0  0  0  0  0  0  0  0  0  0  # atno 8010 bound_to 7997
  139.8973  144.6350  150.8674 H   0  0  0  0  0  0  0  0  0  0  0  0  # atno 10167 bound_to 10162
  156.1293  130.6383  150.9595 H   0  0  0  0  0  0  0  0  0  0  0  0  # atno 10718 bound_to 10713
  153.8308  135.3104  155.3418 H   0  0  0  0  0  0  0  0  0  0  0  0  # atno 10763 bound_to 10752
  154.7974  135.4747  154.0196 H   0  0  0  0  0  0  0  0  0  0  0  0  # atno 10764 bound_to 10752
  153.1635  135.6865  153.8799 H   0  0  0  0  0  0  0  0  0  0  0  0  # atno 10765 bound_to 10752
  140.0158  134.6227  155.9711 H   0  0  0  0  0  0  0  0  0  0  0  0  # atno 11005 bound_to 11000
  145.3165  139.1802  143.4610 LP  0  0  0  0  0  0  0  0  0  0  0  0  # atno 17320 bound_to 7965
  146.3240  140.3177  142.8631 LP  0  0  0  0  0  0  0  0  0  0  0  0  # atno 17321 bound_to 7965
  140.7714  143.3463  151.2104 LP  0  0  0  0  0  0  0  0  0  0  0  0  # atno 17342 bound_to 10162
  139.7056  143.9461  152.2925 LP  0  0  0  0  0  0  0  0  0  0  0  0  # atno 17343 bound_to 10162
  157.6472  131.0902  150.8128 LP  0  0  0  0  0  0  0  0  0  0  0  0  # atno 17370 bound_to 10713
  156.8214  130.4985  149.5342 LP  0  0  0  0  0  0  0  0  0  0  0  0  # atno 17371 bound_to 10713
  141.1742  133.6539  156.4765 LP  0  0  0  0  0  0  0  0  0  0  0  0  # atno 17394 bound_to 11000
  140.4473  134.6961  157.5022 LP  0  0  0  0  0  0  0  0  0  0  0  0  # atno 17395 bound_to 11000

$$$$
