AV-unprocessed.smi:3162|AV-procd|sdf|12066|dock4
  -GOLD-   2272017493D 1   1.00000     0.00000
 Structure written by MMmdl.
 37 37  0  0  0  0  0  0  0  0  2 V2000
  150.1271  138.7649  154.6351 C   0  0  0  0  0  0  0  0  0  0  0  0
  150.8046  139.9724  155.3014 C   0  0  0  0  0  0  0  0  0  0  0  0
  149.8479  141.1347  155.6479 C   0  0  1  0  0  0  0  0  0  0  0  0
  150.6261  142.2778  156.1804 N   0  3  0  0  0  0  0  0  0  0  0  0
  150.9361  142.2394  157.6274 C   0  0  1  0  0  0  0  0  0  0  0  0
  151.6853  140.9455  158.0015 C   0  0  0  0  0  0  0  0  0  0  0  0
  151.7241  143.5090  158.0107 C   0  0  0  0  0  0  0  0  0  0  0  0
  152.0135  143.5929  159.4309 N   0  0  0  0  0  0  0  0  0  0  0  0
  152.6966  142.6947  160.2234 C   0  0  0  0  0  0  0  0  0  0  0  0
  152.7252  143.2039  161.4907 C   0  0  0  0  0  0  0  0  0  0  0  0
  153.3408  142.6119  162.7259 C   0  0  0  0  0  0  0  0  0  0  0  0
  152.0291  144.4399  161.3666 C   0  0  0  0  0  0  0  0  0  0  0  0
  151.6075  144.6711  160.1339 N   0  0  0  0  0  0  0  0  0  0  0  0
  149.0393  141.5895  154.4243 C   0  0  0  0  0  0  0  0  0  0  0  0
  148.1575  142.5764  154.6046 N   0  0  0  0  0  0  0  0  0  0  0  0
  149.2020  141.0524  153.3300 O   0  0  0  0  0  0  0  0  0  0  0  0
  150.8433  137.9571  154.4848 H   0  0  0  0  0  0  0  0  0  0  0  0
  149.7152  139.0190  153.6585 H   0  0  0  0  0  0  0  0  0  0  0  0
  149.3165  138.3780  155.2532 H   0  0  0  0  0  0  0  0  0  0  0  0
  151.2864  139.6238  156.2158 H   0  0  0  0  0  0  0  0  0  0  0  0
  151.6114  140.3312  154.6602 H   0  0  0  0  0  0  0  0  0  0  0  0
  149.1435  140.7919  156.4083 H   0  0  0  0  0  0  0  0  0  0  0  0
  151.4853  142.3657  155.6574 H   0  0  0  0  0  0  0  0  0  0  0  0
  149.9887  142.2619  158.1685 H   0  0  0  0  0  0  0  0  0  0  0  0
  151.8820  140.8938  159.0726 H   0  0  0  0  0  0  0  0  0  0  0  0
  152.6439  140.8800  157.4859 H   0  0  0  0  0  0  0  0  0  0  0  0
  151.1083  140.0571  157.7449 H   0  0  0  0  0  0  0  0  0  0  0  0
  152.6678  143.5472  157.4645 H   0  0  0  0  0  0  0  0  0  0  0  0
  151.1643  144.4017  157.7268 H   0  0  0  0  0  0  0  0  0  0  0  0
  153.1000  141.7749  159.8255 H   0  0  0  0  0  0  0  0  0  0  0  0
  153.5165  143.3666  163.4927 H   0  0  0  0  0  0  0  0  0  0  0  0
  154.3012  142.1421  162.5128 H   0  0  0  0  0  0  0  0  0  0  0  0
  152.6999  141.8485  163.1672 H   0  0  0  0  0  0  0  0  0  0  0  0
  151.8194  145.1722  162.1322 H   0  0  0  0  0  0  0  0  0  0  0  0
  147.6066  142.9147  153.8285 H   0  0  0  0  0  0  0  0  0  0  0  0
  148.0479  142.9886  155.5205 H   0  0  0  0  0  0  0  0  0  0  0  0
  150.0707  143.1050  156.0124 H   0  0  0  0  0  0  0  0  0  0  0  0
  1  2  1  0  0  0  0
  1 17  1  0  0  0  0
  1 18  1  0  0  0  0
  1 19  1  0  0  0  0
  2  3  1  0  0  0  0
  2 20  1  0  0  0  0
  2 21  1  0  0  0  0
  3  4  1  0  0  0  0
  3 14  1  0  0  0  0
  3 22  1  0  0  0  0
  4  5  1  0  0  0  0
  4 23  1  0  0  0  0
  4 37  1  0  0  0  0
  5  6  1  0  0  0  0
  5  7  1  0  0  0  0
  5 24  1  0  0  0  0
  6 25  1  0  0  0  0
  6 26  1  0  0  0  0
  6 27  1  0  0  0  0
  7  8  1  0  0  0  0
  7 28  1  0  0  0  0
  7 29  1  0  0  0  0
  8 13  1  0  0  0  0
  8  9  1  0  0  0  0
  9 10  2  0  0  0  0
  9 30  1  0  0  0  0
 10 11  1  0  0  0  0
 10 12  1  0  0  0  0
 11 31  1  0  0  0  0
 11 32  1  0  0  0  0
 11 33  1  0  0  0  0
 12 13  2  0  0  0  0
 12 34  1  0  0  0  0
 14 15  1  0  0  0  0
 14 16  2  0  0  0  0
 15 35  1  0  0  0  0
 15 36  1  0  0  0  0
M  CHG  1   4   1
M  END
> <s_m_source_file>
AV-unprocessed.smi

> <i_m_source_file_index>
3162

> <i_lp_mmshare_version>
43012

> <i_f3d_flags>
0

> <s_epik_input>
W0NIM11bQ0gyXVtDQEBIXShDKD1PKVtOSDJdKVtOSF1bQ0BIXShbQ0gzXSlbQ0gyXW4xW2NIXWMoW0NIM10pW2NIXW4x

> <s_epik_cmdline>
J2VwaWtfcHl0aG9uJywgJy1waCcsICc3LjAnLCAnLXRuJywgJzgnLCAnLW1hJywgJzIwMCcsICctbWV0YWxfYmluZGluZycsICctaW1hZScsICc8aW5maWxlLm1hZT4nLCAnLW9tYWUnLCAnPG91dGZpbGUubWFlPic=

> <r_lp_tautomer_probability>
1

> <r_epik_Ionization_Penalty>
0.112112

> <r_epik_Ionization_Penalty_Charging>
0.112102

> <r_epik_Ionization_Penalty_Neutral>
9.73799e-06

> <r_epik_State_Penalty>
0.101811

> <r_epik_Charging_Adjusted_Penalty>
0.213914

> <i_epik_Tot_Q>
1

> <i_epik_Tot_abs_Q>
1

> <r_epik_Metal_State_Penalty>
0.101821

> <b_epik_Metal_Only>
0

> <s_lp_Force_Field>
OPLS_2005

> <r_lp_Energy>
5.38077

> <b_lp_Chiralities_Consistent>
1

> <s_lp_Variant>
AV-unprocessed.smi:3162-4

> <Gold.Version>
5.8.1

> <Gold.Id.Protein>
6NUR|6NUR_protein|mol2

> <Gold.PLP.Fitness>
48.3081

> <Gold.PLP.PLP>
-39.1258

> <Gold.PLP.part.hbond>
-3.7476

> <Gold.PLP.part.metal>
0.0000

> <Gold.PLP.part.buried>
-3.9331

> <Gold.PLP.part.nonpolar>
-35.7534

> <Gold.PLP.part.repulsive>
4.9798

> <Gold.PLP.ligand.clash>
0.0000

> <Gold.PLP.ligand.torsion>
0.3308

> <Gold.PLP.Chemscore.Hbond>
3.2666

> <Gold.PLP.Chemscore.CHOScore>
0.0000

> <Gold.PLP.Chemscore.Metal>
0.0000

> <Gold.Chemscore.Hbonds>
donor molecule, donor type, donor heavy atom, donor atom, acceptor molecule, acceptor atom, score
      L1  H     4    37       P1  8028  1.98
      L1  H    15    36       P1  8028  0.26
      P1  H  7989  7998       L1    16  0.01
      P1  H  8011  8017       L1    16  1.00

> <Gold.PLP.Chemscore.Internal.Correction>
0.0441

> <Gold.Rescore>
     Score         DG    S(hbond)    S(metal)    S(lipo)     H(rot)  DE(clash)    DE(int)     intcor
     12.60     -15.95       1.83        0.00      92.09       2.51       1.64       1.71       ----

> <Gold.Chemscore.Fitness>
12.6035

> <Gold.Chemscore.DG>
-15.9503

> <Gold.Chemscore.ZeroCoef>
-5.4800

> <Gold.Chemscore.Hbond>
1.8298

> <Gold.Chemscore.Metal>
0.0000

> <Gold.Chemscore.Lipo>
92.0909

> <Gold.Chemscore.Internal_Hbond>
0.0000

> <Gold.Chemscore.DEClash>
1.6380

> <Gold.Chemscore.DEInternal>
1.7088

> <Gold.Chemscore.Rot>
2.5062

> <Gold.Chemscore.Internal.Correction>
   9.000000E+99

> <Gold.Chemscore.Hbonds>
donor molecule, donor type, donor heavy atom, donor atom, acceptor molecule, acceptor atom, score
      L1  H     4    37       P1  8028  0.92
      L1  H    15    36       P1  8028  0.21
      P1  H  8011  8017       L1    16  0.34

> <Gold.Chemscore.Hbond.Weighted>
-6.1116

> <Gold.Chemscore.Metal.Weighted>
-0.0000

> <Gold.Chemscore.Lipo.Weighted>
-10.7746

> <Gold.Chemscore.Internal_Hbond.Weighted>
0.0000

> <Gold.Chemscore.DEClash.Weighted>
1.6380

> <Gold.Chemscore.DEInternal.Weighted>
1.7088

> <Gold.Chemscore.Rot.Weighted>
6.4159

> <Gold.Chemscore.Internal.Correction.Weighted>
   9.000000E+99

> <Gold.Protein.RotatedTorsions>
[ 6907 6896 6895 6894 ] final   13.15 input  -60.11 | X-H torsion
[ 7974 7965 7964 7962 ] final -176.62 input  175.53 | X-H torsion
[ 8008 7997 7996 7995 ] final  168.89 input   59.86 | X-H torsion
[ 10167 10162 10161 10158 ] final   79.92 input  -65.29 | X-H torsion
[ 10718 10713 10712 10709 ] final   -0.53 input   66.30 | X-H torsion
[ 10763 10752 10751 10750 ] final  165.71 input  -60.55 | X-H torsion
[ 11005 11000 10999 10996 ] final -163.37 input  -57.11 | X-H torsion

> <Gold.Protein.ActiveResidues>
 VAL166  LYS551  ARG553  GLY616  TRP617  ASP618  TYR619  PRO620  LYS621  CYS622 
 ASP623  PHE694  ASN695  SER759  ASP760  ASP761  ALA762  ILE779  LEU786  VAL792 
 PHE793  MET794  SER795  GLU796  ALA797  LYS798  CYS799  TRP800  GLU811  SER814 

> <Gold.Protein.RotatedAtoms>
  151.7817  135.0760  160.0374 H   0  0  0  0  0  0  0  0  0  0  0  0  # atno 6907 bound_to 6896
  152.3218  133.5858  159.5758 H   0  0  0  0  0  0  0  0  0  0  0  0  # atno 6908 bound_to 6896
  150.7374  133.9915  159.3650 H   0  0  0  0  0  0  0  0  0  0  0  0  # atno 6909 bound_to 6896
  144.7127  140.1143  143.6409 H   0  0  0  0  0  0  0  0  0  0  0  0  # atno 7974 bound_to 7965
  156.1506  140.1578  156.8776 H   0  0  0  0  0  0  0  0  0  0  0  0  # atno 8008 bound_to 7997
  154.5068  140.0811  156.7947 H   0  0  0  0  0  0  0  0  0  0  0  0  # atno 8009 bound_to 7997
  155.3903  140.3409  155.4253 H   0  0  0  0  0  0  0  0  0  0  0  0  # atno 8010 bound_to 7997
  139.9552  144.5999  150.8123 H   0  0  0  0  0  0  0  0  0  0  0  0  # atno 10167 bound_to 10162
  156.8191  130.5450  149.5699 H   0  0  0  0  0  0  0  0  0  0  0  0  # atno 10718 bound_to 10713
  154.3281  135.2755  155.2486 H   0  0  0  0  0  0  0  0  0  0  0  0  # atno 10763 bound_to 10752
  154.4810  135.5858  153.6393 H   0  0  0  0  0  0  0  0  0  0  0  0  # atno 10764 bound_to 10752
  152.9869  135.6111  154.3471 H   0  0  0  0  0  0  0  0  0  0  0  0  # atno 10765 bound_to 10752
  140.5988  134.4969  157.5202 H   0  0  0  0  0  0  0  0  0  0  0  0  # atno 11005 bound_to 11000
  145.9427  139.2680  143.1259 LP  0  0  0  0  0  0  0  0  0  0  0  0  # atno 17320 bound_to 7965
  145.9406  140.8982  143.0309 LP  0  0  0  0  0  0  0  0  0  0  0  0  # atno 17321 bound_to 7965
  140.7570  143.3078  151.2919 LP  0  0  0  0  0  0  0  0  0  0  0  0  # atno 17342 bound_to 10162
  139.6597  144.0212  152.2684 LP  0  0  0  0  0  0  0  0  0  0  0  0  # atno 17343 bound_to 10162
  156.0999  130.5961  150.9877 LP  0  0  0  0  0  0  0  0  0  0  0  0  # atno 17370 bound_to 10713
  157.6466  131.0903  150.8140 LP  0  0  0  0  0  0  0  0  0  0  0  0  # atno 17371 bound_to 10713
  139.9241  134.8090  156.1120 LP  0  0  0  0  0  0  0  0  0  0  0  0  # atno 17394 bound_to 11000
  141.0886  133.6724  156.2490 LP  0  0  0  0  0  0  0  0  0  0  0  0  # atno 17395 bound_to 11000

$$$$
