AV-unprocessed.smi:699|AV-procd|sdf|3399|dock5
  -GOLD-   22720 0383D 1   1.00000     0.00000
 Structure written by MMmdl.
 34 35  0  0  0  0  0  0  0  0  1 V2000
  150.2649  138.3142  153.2363 N   0  0  0  0  0  0  0  0  0  0  0  0
  149.9954  138.5592  154.5209 C   0  0  0  0  0  0  0  0  0  0  0  0
  150.5956  137.9938  155.4334 O   0  0  0  0  0  0  0  0  0  0  0  0
  148.8909  139.5847  154.8208 C   0  0  2  0  0  0  0  0  0  0  0  0
  147.5240  139.1714  154.2486 C   0  0  0  0  0  0  0  0  0  0  0  0
  146.8067  140.4885  153.9684 C   0  0  0  0  0  0  0  0  0  0  0  0
  147.9127  141.4159  153.4716 C   0  0  0  0  0  0  0  0  0  0  0  0
  149.1872  140.9850  154.2176 C   0  0  1  0  0  0  0  0  0  0  0  0
  149.5347  141.9593  155.2508 N   0  0  0  0  0  0  0  0  0  0  0  0
  150.4298  141.7642  156.2298 C   0  0  0  0  0  0  0  0  0  0  0  0
  151.0660  140.7197  156.3676 O   0  0  0  0  0  0  0  0  0  0  0  0
  150.5125  142.8399  157.0322 N   0  0  0  0  0  0  0  0  0  0  0  0
  151.3321  143.0363  158.1770 C   0  0  0  0  0  0  0  0  0  0  0  0
  152.1601  141.9683  158.5808 C   0  0  0  0  0  0  0  0  0  0  0  0
  152.9726  142.1313  159.7207 C   0  0  0  0  0  0  0  0  0  0  0  0
  152.9959  143.2603  160.4593 N   0  0  0  0  0  0  0  0  0  0  0  0
  152.1920  144.2763  160.0806 C   0  0  0  0  0  0  0  0  0  0  0  0
  151.3422  144.2174  158.9579 C   0  0  0  0  0  0  0  0  0  0  0  0
  150.9742  137.6375  152.9943 H   0  0  0  0  0  0  0  0  0  0  0  0
  149.7515  138.7945  152.5117 H   0  0  0  0  0  0  0  0  0  0  0  0
  148.7754  139.6763  155.9030 H   0  0  0  0  0  0  0  0  0  0  0  0
  147.6338  138.6157  153.3155 H   0  0  0  0  0  0  0  0  0  0  0  0
  146.9610  138.5429  154.9395 H   0  0  0  0  0  0  0  0  0  0  0  0
  145.9945  140.3804  153.2491 H   0  0  0  0  0  0  0  0  0  0  0  0
  146.3841  140.8822  154.8937 H   0  0  0  0  0  0  0  0  0  0  0  0
  148.0539  141.2576  152.4014 H   0  0  0  0  0  0  0  0  0  0  0  0
  147.6628  142.4689  153.6089 H   0  0  0  0  0  0  0  0  0  0  0  0
  150.0051  140.9504  153.4942 H   0  0  0  0  0  0  0  0  0  0  0  0
  149.0546  142.8466  155.2156 H   0  0  0  0  0  0  0  0  0  0  0  0
  149.8698  143.5916  156.8300 H   0  0  0  0  0  0  0  0  0  0  0  0
  152.1802  141.0405  158.0277 H   0  0  0  0  0  0  0  0  0  0  0  0
  153.6204  141.3317  160.0483 H   0  0  0  0  0  0  0  0  0  0  0  0
  152.2216  145.1636  160.6956 H   0  0  0  0  0  0  0  0  0  0  0  0
  150.7153  145.0659  158.7315 H   0  0  0  0  0  0  0  0  0  0  0  0
  1  2  1  0  0  0  0
  1 19  1  0  0  0  0
  1 20  1  0  0  0  0
  2  3  2  0  0  0  0
  2  4  1  0  0  0  0
  4  8  1  0  0  0  0
  4  5  1  0  0  0  0
  4 21  1  0  0  0  0
  5  6  1  0  0  0  0
  5 22  1  0  0  0  0
  5 23  1  0  0  0  0
  6  7  1  0  0  0  0
  6 24  1  0  0  0  0
  6 25  1  0  0  0  0
  7  8  1  0  0  0  0
  7 26  1  0  0  0  0
  7 27  1  0  0  0  0
  8  9  1  0  0  0  0
  8 28  1  0  0  0  0
  9 10  1  0  0  0  0
  9 29  1  0  0  0  0
 10 11  2  0  0  0  0
 10 12  1  0  0  0  0
 12 13  1  0  0  0  0
 12 30  1  0  0  0  0
 13 18  1  0  0  0  0
 13 14  2  0  0  0  0
 14 15  1  0  0  0  0
 14 31  1  0  0  0  0
 15 16  2  0  0  0  0
 15 32  1  0  0  0  0
 16 17  1  0  0  0  0
 17 18  2  0  0  0  0
 17 33  1  0  0  0  0
 18 34  1  0  0  0  0
M  END
> <s_m_source_file>
AV-unprocessed.smi

> <i_m_source_file_index>
699

> <i_lp_mmshare_version>
43012

> <i_f3d_flags>
0

> <s_epik_input>
W05IMl1DKD1PKVtDQEBIXTFbQ0gyXVtDSDJdW0NIMl1bQ0BIXTFbTkhdQyg9TylbTkhdYzJbY0hdW2NIXW5bY0hdW2NIXTI=

> <s_epik_cmdline>
J2VwaWtfcHl0aG9uJywgJy1waCcsICc3LjAnLCAnLXRuJywgJzgnLCAnLW1hJywgJzIwMCcsICctbWV0YWxfYmluZGluZycsICctaW1hZScsICc8aW5maWxlLm1hZT4nLCAnLW9tYWUnLCAnPG91dGZpbGUubWFlPic=

> <r_epik_Ionization_Penalty>
0.113907

> <r_epik_Ionization_Penalty_Charging>
0

> <r_epik_Ionization_Penalty_Neutral>
0.113907

> <r_epik_State_Penalty>
0.103543

> <r_epik_Charging_Adjusted_Penalty>
0.103543

> <i_epik_Tot_Q>
0

> <i_epik_Tot_abs_Q>
0

> <r_epik_Metal_State_Penalty>
0.0867106

> <b_epik_Metal_Only>
0

> <s_lp_Force_Field>
OPLS_2005

> <r_lp_Energy>
19.5976

> <b_lp_Chiralities_Consistent>
1

> <s_lp_Variant>
AV-unprocessed.smi:699-1

> <Gold.Version>
5.8.1

> <Gold.Id.Protein>
6NUR|6NUR_protein|mol2

> <Gold.PLP.Fitness>
44.3798

> <Gold.PLP.PLP>
-34.5307

> <Gold.PLP.part.hbond>
-4.9897

> <Gold.PLP.part.metal>
0.0000

> <Gold.PLP.part.buried>
-1.4826

> <Gold.PLP.part.nonpolar>
-27.0925

> <Gold.PLP.part.repulsive>
0.4059

> <Gold.PLP.ligand.clash>
0.0000

> <Gold.PLP.ligand.torsion>
0.1387

> <Gold.PLP.Chemscore.Hbond>
3.3744

> <Gold.PLP.Chemscore.CHOScore>
0.0000

> <Gold.PLP.Chemscore.Metal>
0.0000

> <Gold.Chemscore.Hbonds>
donor molecule, donor type, donor heavy atom, donor atom, acceptor molecule, acceptor atom, score
      L1  H     1    19       P1  7949  0.34
      L1  H     1    20       P1  7957  1.00
      L1  H     9    29       P1  8028  1.00
      L1  H    12    30       P1  8028  1.00

> <Gold.PLP.Chemscore.Internal.Correction>
0.0034

> <Gold.Rescore>
     Score         DG    S(hbond)    S(metal)    S(lipo)     H(rot)  DE(clash)    DE(int)     intcor
     17.34     -21.13       2.80        0.00      86.31       1.49       0.32       3.48       ----

> <Gold.Chemscore.Fitness>
17.3352

> <Gold.Chemscore.DG>
-21.1310

> <Gold.Chemscore.ZeroCoef>
-5.4800

> <Gold.Chemscore.Hbond>
2.8037

> <Gold.Chemscore.Metal>
0.0000

> <Gold.Chemscore.Lipo>
86.3140

> <Gold.Chemscore.Internal_Hbond>
0.0000

> <Gold.Chemscore.DEClash>
0.3177

> <Gold.Chemscore.DEInternal>
3.4780

> <Gold.Chemscore.Rot>
1.4892

> <Gold.Chemscore.Internal.Correction>
   9.000000E+99

> <Gold.Chemscore.Hbonds>
donor molecule, donor type, donor heavy atom, donor atom, acceptor molecule, acceptor atom, score
      L1  H     1    19       P1  7949  0.09
      L1  H     1    20       P1  7957  0.58
      L1  H     9    29       P1  8028  0.96
      L1  H    12    30       P1  8028  0.97

> <Gold.Chemscore.Hbond.Weighted>
-9.3645

> <Gold.Chemscore.Metal.Weighted>
-0.0000

> <Gold.Chemscore.Lipo.Weighted>
-10.0987

> <Gold.Chemscore.Internal_Hbond.Weighted>
0.0000

> <Gold.Chemscore.DEClash.Weighted>
0.3177

> <Gold.Chemscore.DEInternal.Weighted>
3.4780

> <Gold.Chemscore.Rot.Weighted>
3.8123

> <Gold.Chemscore.Internal.Correction.Weighted>
   9.000000E+99

> <Gold.Protein.RotatedTorsions>
[ 6907 6896 6895 6894 ] final  -52.26 input  -60.11 | X-H torsion
[ 7974 7965 7964 7962 ] final  -52.95 input  175.53 | X-H torsion
[ 8008 7997 7996 7995 ] final  120.60 input   59.86 | X-H torsion
[ 10167 10162 10161 10158 ] final   13.19 input  -65.29 | X-H torsion
[ 10718 10713 10712 10709 ] final   37.60 input   66.30 | X-H torsion
[ 10763 10752 10751 10750 ] final   22.55 input  -60.55 | X-H torsion
[ 11005 11000 10999 10996 ] final  -21.48 input  -57.11 | X-H torsion

> <Gold.Protein.ActiveResidues>
 VAL166  LYS551  ARG553  GLY616  TRP617  ASP618  TYR619  PRO620  LYS621  CYS622 
 ASP623  PHE694  ASN695  SER759  ASP760  ASP761  ALA762  ILE779  LEU786  VAL792 
 PHE793  MET794  SER795  GLU796  ALA797  LYS798  CYS799  TRP800  GLU811  SER814 

> <Gold.Protein.RotatedAtoms>
  150.8535  134.7867  159.7026 H   0  0  0  0  0  0  0  0  0  0  0  0  # atno 6907 bound_to 6896
  152.4593  134.5217  159.9794 H   0  0  0  0  0  0  0  0  0  0  0  0  # atno 6908 bound_to 6896
  151.5334  133.3407  159.2958 H   0  0  0  0  0  0  0  0  0  0  0  0  # atno 6909 bound_to 6896
  145.9022  140.7985  142.9737 H   0  0  0  0  0  0  0  0  0  0  0  0  # atno 7974 bound_to 7965
  156.2650  140.2827  156.1175 H   0  0  0  0  0  0  0  0  0  0  0  0  # atno 8008 bound_to 7997
  155.1191  140.0392  157.2762 H   0  0  0  0  0  0  0  0  0  0  0  0  # atno 8009 bound_to 7997
  154.6684  140.2582  155.7039 H   0  0  0  0  0  0  0  0  0  0  0  0  # atno 8010 bound_to 7997
  140.6019  143.8588  150.6973 H   0  0  0  0  0  0  0  0  0  0  0  0  # atno 10167 bound_to 10162
  157.3489  130.7587  149.6964 H   0  0  0  0  0  0  0  0  0  0  0  0  # atno 10718 bound_to 10713
  153.0907  135.6646  153.9860 H   0  0  0  0  0  0  0  0  0  0  0  0  # atno 10763 bound_to 10752
  153.9458  135.2989  155.3442 H   0  0  0  0  0  0  0  0  0  0  0  0  # atno 10764 bound_to 10752
  154.7321  135.5118  153.9054 H   0  0  0  0  0  0  0  0  0  0  0  0  # atno 10765 bound_to 10752
  140.8565  133.7819  156.0026 H   0  0  0  0  0  0  0  0  0  0  0  0  # atno 11005 bound_to 11000
  144.6736  140.1695  143.7415 LP  0  0  0  0  0  0  0  0  0  0  0  0  # atno 17320 bound_to 7965
  145.8777  139.2306  143.1624 LP  0  0  0  0  0  0  0  0  0  0  0  0  # atno 17321 bound_to 7965
  140.2136  143.3864  152.1699 LP  0  0  0  0  0  0  0  0  0  0  0  0  # atno 17342 bound_to 10162
  139.5297  144.7144  151.5101 LP  0  0  0  0  0  0  0  0  0  0  0  0  # atno 17343 bound_to 10162
  155.9718  130.4146  150.4141 LP  0  0  0  0  0  0  0  0  0  0  0  0  # atno 17370 bound_to 10713
  157.2201  131.0480  151.2551 LP  0  0  0  0  0  0  0  0  0  0  0  0  # atno 17371 bound_to 10713
  140.8731  134.2702  157.5181 LP  0  0  0  0  0  0  0  0  0  0  0  0  # atno 17394 bound_to 11000
  139.8705  134.9577  156.4277 LP  0  0  0  0  0  0  0  0  0  0  0  0  # atno 17395 bound_to 11000

$$$$
