#       Name:                AV-unprocessed.smi:3224
#       Creating user name   scv26
#       Creation time:       Fri Mar 27 18:15:30 2020


#       File generated by GOLD software.
#

@<TRIPOS>MOLECULE
AV-unprocessed.smi:3224
    36    37     1
SMALL
NO_CHARGES


@<TRIPOS>ATOM
      1 ****        -2.1357   1.5312  -0.7572 C.3            1 S1                 0.0000
      2 ****        -1.5934   0.0897  -0.6469 C.3            1 S1                 0.0000
      3 ****        -0.1255   0.1115  -0.5522 N.am           1 S1                 0.0000
      4 ****         0.6439   0.6637   0.4013 C.2            1 S1                 0.0000
      5 ****         0.2027   1.2602   1.3836 O.2            1 S1                 0.0000
      6 ****         1.9479   0.4726   0.1347 N.am           1 S1                 0.0000
      7 ****         3.0714   0.9227   0.8766 C.2            1 S1                 0.0000
      8 ****         2.9938   1.6375   2.0053 N.2            1 S1                 0.0000
      9 ****         4.2561   1.9475   2.5176 C.2            1 S1                 0.0000
     10 ****         5.2912   1.4569   1.7610 C.2            1 S1                 0.0000
     11 ****         4.7182   0.5801   0.3672 S.3            1 S1                 0.0000
     12 ****        -2.2356  -0.6466   0.5541 C.3            1 S1                 0.0000
     13 ****        -1.8922  -2.1469   0.5609 C.3            1 S1                 0.0000
     14 ****        -2.3081  -2.7436  -0.6619 O.3            1 S1                 0.0000
     15 ****        -1.6501  -2.1955  -1.7977 C.3            1 S1                 0.0000
     16 ****        -1.9725  -0.6941  -1.9222 C.3            1 S1                 0.0000
     17 ****        -3.2140   1.5350  -0.9191 H              1 S1                 0.0000
     18 ****        -1.6787   2.0647  -1.5912 H              1 S1                 0.0000
     19 ****        -1.9498   2.1095   0.1477 H              1 S1                 0.0000
     20 ****         0.3591  -0.3525  -1.3064 H              1 S1                 0.0000
     21 ****         2.1628  -0.0461  -0.7040 H              1 S1                 0.0000
     22 ****         4.3262   2.5240   3.4282 H              1 S1                 0.0000
     23 ****         6.3514   1.5586   1.9385 H              1 S1                 0.0000
     24 ****        -1.9447  -0.1942   1.5018 H              1 S1                 0.0000
     25 ****        -3.3203  -0.5435   0.5006 H              1 S1                 0.0000
     26 ****        -0.8242  -2.3074   0.7146 H              1 S1                 0.0000
     27 ****        -2.4070  -2.6432   1.3836 H              1 S1                 0.0000
     28 ****        -0.5749  -2.3653  -1.7254 H              1 S1                 0.0000
     29 ****        -1.9919  -2.7247  -2.6873 H              1 S1                 0.0000
     30 ****        -3.0413  -0.5870  -2.1138 H              1 S1                 0.0000
     31 ****        -1.4660  -0.2759  -2.7934 H              1 S1                 0.0000
     32 ****        -0.7848   1.3567   1.5081 LP             1 S1                 0.0000
     33 ****         0.8319   1.6484   2.0571 LP             1 S1                 0.0000
     34 ****         2.1336   1.9169   2.4319 LP             1 S1                 0.0000
     35 ****        -3.2929  -2.6047  -0.7658 LP             1 S1                 0.0000
     36 ****        -2.1121  -3.7233  -0.6216 LP             1 S1                 0.0000
@<TRIPOS>BOND
    1    1    2 1     
    2    1   17 1     
    3    1   18 1     
    4    1   19 1     
    5    2   16 1     
    6    2    3 1     
    7    2   12 1     
    8    3    4 am    
    9    3   20 1     
   10    4    5 2     
   11    4    6 am    
   12    6    7 1     
   13    6   21 1     
   14    7   11 1     
   15    7    8 2     
   16    8    9 1     
   17    9   10 2     
   18    9   22 1     
   19   10   11 1     
   20   10   23 1     
   21   12   13 1     
   22   12   24 1     
   23   12   25 1     
   24   13   14 1     
   25   13   26 1     
   26   13   27 1     
   27   14   15 1     
   28   15   16 1     
   29   15   28 1     
   30   15   29 1     
   31   16   30 1     
   32   16   31 1     
   33    5   32 1     
   34    5   33 1     
   35    8   34 1     
   36   14   35 1     
   37   14   36 1     
@<TRIPOS>SUBSTRUCTURE
      1 S1             1
@<TRIPOS>SET
LONE_PAIRS      STATIC     ATOMS    <user>   **** ""
5 32 33 34 35 36
DONOR_HYDROGENS      STATIC     ATOMS    <user>   **** ""
2 20 21
ATOM$BLUE        STATIC     ATOMS    COLORGROUP SYSTEM
5 32 33 34 35 36
ATOM$RED        STATIC     ATOMS    COLORGROUP SYSTEM
2 20 21
