AV-unprocessed.smi:546|AV-procd|sdf|2883|dock7
  -GOLD-   2262023373D 1   1.00000     0.00000
 Structure written by MMmdl.
 52 54  0  0  0  0  0  0  0  0  1 V2000
  144.8705  135.4457  152.2937 C   0  0  0  0  0  0  0  0  0  0  0  0
  144.4602  134.3997  153.3323 C   0  0  0  0  0  0  0  0  0  0  0  0
  145.0385  134.7330  154.5829 O   0  0  0  0  0  0  0  0  0  0  0  0
  146.4531  134.8233  154.5222 C   0  0  0  0  0  0  0  0  0  0  0  0
  146.9836  135.5196  155.7829 C   0  0  0  0  0  0  0  0  0  0  0  0
  148.3724  135.9478  155.6240 N   0  0  0  0  0  0  0  0  0  0  0  0
  149.5079  135.1987  155.5287 C   0  0  0  0  0  0  0  0  0  0  0  0
  149.5105  133.8053  155.6317 N   0  0  0  0  0  0  0  0  0  0  0  0
  148.7827  132.9311  154.7126 C   0  0  0  0  0  0  0  0  0  0  0  0
  147.9372  131.8874  155.4682 C   0  0  1  0  0  0  0  0  0  0  0  0
  147.1402  131.0021  154.5014 C   0  0  0  0  0  0  0  0  0  0  0  0
  148.8345  131.0499  156.3949 C   0  0  0  0  0  0  0  0  0  0  0  0
  149.6763  131.9662  157.2986 C   0  0  1  0  0  0  0  0  0  0  0  0
  150.6399  131.1615  158.1803 C   0  0  0  0  0  0  0  0  0  0  0  0
  150.4294  132.9949  156.4315 C   0  0  0  0  0  0  0  0  0  0  0  0
  150.6173  135.9056  155.2914 N   0  0  0  0  0  0  0  0  0  0  0  0
  150.1624  137.2135  155.2650 C   0  0  0  0  0  0  0  0  0  0  0  0
  148.8211  137.2603  155.4619 C   0  0  0  0  0  0  0  0  0  0  0  0
  148.0689  138.5229  155.4545 C   0  0  0  0  0  0  0  0  0  0  0  0
  146.8535  138.5903  155.6238 O   0  0  0  0  0  0  0  0  0  0  0  0
  148.8520  139.6075  155.2380 N   0  0  0  0  0  0  0  0  0  0  0  0
  150.2043  139.6292  155.0335 C   0  0  0  0  0  0  0  0  0  0  0  0
  150.7802  140.7001  154.8421 O   0  0  0  0  0  0  0  0  0  0  0  0
  150.8703  138.4305  155.0498 N   0  0  0  0  0  0  0  0  0  0  0  0
  152.3177  138.3939  154.8318 C   0  0  0  0  0  0  0  0  0  0  0  0
  148.3839  140.5019  155.2236 H   0  0  0  0  0  0  0  0  0  0  0  0
  144.4133  135.2344  151.3269 H   0  0  0  0  0  0  0  0  0  0  0  0
  145.9517  135.4547  152.1550 H   0  0  0  0  0  0  0  0  0  0  0  0
  144.5612  136.4452  152.6001 H   0  0  0  0  0  0  0  0  0  0  0  0
  143.3732  134.3709  153.4202 H   0  0  0  0  0  0  0  0  0  0  0  0
  144.7930  133.4109  153.0131 H   0  0  0  0  0  0  0  0  0  0  0  0
  146.8884  133.8268  154.4356 H   0  0  0  0  0  0  0  0  0  0  0  0
  146.7510  135.3856  153.6364 H   0  0  0  0  0  0  0  0  0  0  0  0
  146.3702  136.3863  156.0267 H   0  0  0  0  0  0  0  0  0  0  0  0
  146.8781  134.8526  156.6305 H   0  0  0  0  0  0  0  0  0  0  0  0
  148.1298  133.5349  154.0808 H   0  0  0  0  0  0  0  0  0  0  0  0
  149.4909  132.4393  154.0445 H   0  0  0  0  0  0  0  0  0  0  0  0
  147.2212  132.4254  156.0892 H   0  0  0  0  0  0  0  0  0  0  0  0
  147.8021  130.4370  153.8443 H   0  0  0  0  0  0  0  0  0  0  0  0
  146.4806  131.6023  153.8743 H   0  0  0  0  0  0  0  0  0  0  0  0
  146.5198  130.2884  155.0442 H   0  0  0  0  0  0  0  0  0  0  0  0
  148.2256  130.3797  157.0028 H   0  0  0  0  0  0  0  0  0  0  0  0
  149.4924  130.4186  155.7958 H   0  0  0  0  0  0  0  0  0  0  0  0
  148.9955  132.5033  157.9601 H   0  0  0  0  0  0  0  0  0  0  0  0
  151.3533  130.5987  157.5774 H   0  0  0  0  0  0  0  0  0  0  0  0
  150.0986  130.4515  158.8061 H   0  0  0  0  0  0  0  0  0  0  0  0
  151.2065  131.8184  158.8408 H   0  0  0  0  0  0  0  0  0  0  0  0
  151.1130  132.4769  155.7572 H   0  0  0  0  0  0  0  0  0  0  0  0
  151.0625  133.6351  157.0446 H   0  0  0  0  0  0  0  0  0  0  0  0
  152.8306  139.0646  155.5227 H   0  0  0  0  0  0  0  0  0  0  0  0
  152.5557  138.7060  153.8141 H   0  0  0  0  0  0  0  0  0  0  0  0
  152.7385  137.3993  154.9780 H   0  0  0  0  0  0  0  0  0  0  0  0
  1  2  1  0  0  0  0
  1 27  1  0  0  0  0
  1 28  1  0  0  0  0
  1 29  1  0  0  0  0
  2  3  1  0  0  0  0
  2 30  1  0  0  0  0
  2 31  1  0  0  0  0
  3  4  1  0  0  0  0
  4  5  1  0  0  0  0
  4 32  1  0  0  0  0
  4 33  1  0  0  0  0
  5  6  1  0  0  0  0
  5 34  1  0  0  0  0
  5 35  1  0  0  0  0
  6 18  1  0  0  0  0
  6  7  1  0  0  0  0
  7  8  1  0  0  0  0
  7 16  2  0  0  0  0
  8 15  1  0  0  0  0
  8  9  1  0  0  0  0
  9 10  1  0  0  0  0
  9 36  1  0  0  0  0
  9 37  1  0  0  0  0
 10 11  1  0  0  0  0
 10 12  1  0  0  0  0
 10 38  1  0  0  0  0
 11 39  1  0  0  0  0
 11 40  1  0  0  0  0
 11 41  1  0  0  0  0
 12 13  1  0  0  0  0
 12 42  1  0  0  0  0
 12 43  1  0  0  0  0
 13 14  1  0  0  0  0
 13 15  1  0  0  0  0
 13 44  1  0  0  0  0
 14 45  1  0  0  0  0
 14 46  1  0  0  0  0
 14 47  1  0  0  0  0
 15 48  1  0  0  0  0
 15 49  1  0  0  0  0
 16 17  1  0  0  0  0
 17 24  1  0  0  0  0
 17 18  2  0  0  0  0
 18 19  1  0  0  0  0
 19 20  2  0  0  0  0
 19 21  1  0  0  0  0
 21 26  1  0  0  0  0
 21 22  1  0  0  0  0
 22 23  2  0  0  0  0
 22 24  1  0  0  0  0
 24 25  1  0  0  0  0
 25 50  1  0  0  0  0
 25 51  1  0  0  0  0
 25 52  1  0  0  0  0
M  END
> <s_m_source_file>
AV-unprocessed.smi

> <i_m_source_file_index>
546

> <i_lp_mmshare_version>
43012

> <i_f3d_flags>
0

> <s_epik_input>
W0NIM11uMWMoPU8pW25IXWMoPU8pYyhjMTIpbihbQ0gyXVtDSDJdT1tDSDJdW0NIM10pYyhuMilOM1tDSDJdW0NAQEhdKFtDSDNdKVtDSDJdW0NAQEhdKFtDSDNdKVtDSDJdMw==

> <s_epik_cmdline>
J2VwaWtfcHl0aG9uJywgJy1waCcsICc3LjAnLCAnLXRuJywgJzgnLCAnLW1hJywgJzIwMCcsICctbWV0YWxfYmluZGluZycsICctaW1hZScsICc8aW5maWxlLm1hZT4nLCAnLW9tYWUnLCAnPG91dGZpbGUubWFlPic=

> <r_lp_tautomer_probability>
1

> <r_epik_Ionization_Penalty>
0.000576472

> <r_epik_Ionization_Penalty_Charging>
0.000118943

> <r_epik_Ionization_Penalty_Neutral>
0.000457529

> <r_epik_State_Penalty>
-0

> <r_epik_Charging_Adjusted_Penalty>
0.000118943

> <i_epik_Tot_Q>
0

> <i_epik_Tot_abs_Q>
0

> <r_epik_Metal_State_Penalty>
0.0916165

> <b_epik_Metal_Only>
0

> <s_lp_Force_Field>
OPLS_2005

> <r_lp_Energy>
35.568

> <b_lp_Chiralities_Consistent>
1

> <s_lp_Variant>
AV-unprocessed.smi:546-1

> <Gold.Version>
5.8.1

> <Gold.Id.Protein>
6NUR|6NUR_protein|mol2

> <Gold.PLP.Fitness>
37.4598

> <Gold.PLP.PLP>
-33.5586

> <Gold.PLP.part.hbond>
-1.9244

> <Gold.PLP.part.metal>
0.0000

> <Gold.PLP.part.buried>
-3.1849

> <Gold.PLP.part.nonpolar>
-28.2915

> <Gold.PLP.part.repulsive>
0.4140

> <Gold.PLP.ligand.clash>
0.0000

> <Gold.PLP.ligand.torsion>
1.2000

> <Gold.PLP.Chemscore.Hbond>
2.0000

> <Gold.PLP.Chemscore.CHOScore>
0.0000

> <Gold.PLP.Chemscore.Metal>
0.0000

> <Gold.Chemscore.Hbonds>
donor molecule, donor type, donor heavy atom, donor atom, acceptor molecule, acceptor atom, score
      P1  H  7989  7998       L1    23  0.91

> <Gold.PLP.Chemscore.Internal.Correction>
0.3012

> <Gold.Rescore>
     Score         DG    S(hbond)    S(metal)    S(lipo)     H(rot)  DE(clash)    DE(int)     intcor
     12.98     -14.60       1.91        0.00      57.15       1.55       0.02       1.60       ----

> <Gold.Chemscore.Fitness>
12.9808

> <Gold.Chemscore.DG>
-14.6000

> <Gold.Chemscore.ZeroCoef>
-5.4800

> <Gold.Chemscore.Hbond>
1.9141

> <Gold.Chemscore.Metal>
0.0000

> <Gold.Chemscore.Lipo>
57.1452

> <Gold.Chemscore.Internal_Hbond>
0.0000

> <Gold.Chemscore.DEClash>
0.0159

> <Gold.Chemscore.DEInternal>
1.6032

> <Gold.Chemscore.Rot>
1.5465

> <Gold.Chemscore.Internal.Correction>
   9.000000E+99

> <Gold.Chemscore.Hbonds>
donor molecule, donor type, donor heavy atom, donor atom, acceptor molecule, acceptor atom, score
      P1  H  7989  7998       L1    23  0.85
      P1  H 10752 10764       L1    16  0.01

> <Gold.Chemscore.Hbond.Weighted>
-6.3931

> <Gold.Chemscore.Metal.Weighted>
-0.0000

> <Gold.Chemscore.Lipo.Weighted>
-6.6860

> <Gold.Chemscore.Internal_Hbond.Weighted>
0.0000

> <Gold.Chemscore.DEClash.Weighted>
0.0159

> <Gold.Chemscore.DEInternal.Weighted>
1.6032

> <Gold.Chemscore.Rot.Weighted>
3.9591

> <Gold.Chemscore.Internal.Correction.Weighted>
   9.000000E+99

> <Gold.Protein.RotatedTorsions>
[ 6907 6896 6895 6894 ] final  146.89 input  -60.11 | X-H torsion
[ 7974 7965 7964 7962 ] final   -3.62 input  175.53 | X-H torsion
[ 8008 7997 7996 7995 ] final  130.68 input   59.86 | X-H torsion
[ 10167 10162 10161 10158 ] final -103.07 input  -65.29 | X-H torsion
[ 10718 10713 10712 10709 ] final  148.81 input   66.30 | X-H torsion
[ 10763 10752 10751 10750 ] final  -74.16 input  -60.55 | X-H torsion
[ 11005 11000 10999 10996 ] final  154.46 input  -57.11 | X-H torsion

> <Gold.Protein.ActiveResidues>
 VAL166  LYS551  ARG553  GLY616  TRP617  ASP618  TYR619  PRO620  LYS621  CYS622 
 ASP623  PHE694  ASN695  SER759  ASP760  ASP761  ALA762  ILE779  LEU786  VAL792 
 PHE793  MET794  SER795  GLU796  ALA797  LYS798  CYS799  TRP800  GLU811  SER814 

> <Gold.Protein.RotatedAtoms>
  152.1619  133.4587  159.4865 H   0  0  0  0  0  0  0  0  0  0  0  0  # atno 6907 bound_to 6896
  150.6908  134.2060  159.4350 H   0  0  0  0  0  0  0  0  0  0  0  0  # atno 6908 bound_to 6896
  151.9963  134.9952  160.0614 H   0  0  0  0  0  0  0  0  0  0  0  0  # atno 6909 bound_to 6896
  146.2386  140.1749  142.8332 H   0  0  0  0  0  0  0  0  0  0  0  0  # atno 7974 bound_to 7965
  156.2958  140.2590  156.2802 H   0  0  0  0  0  0  0  0  0  0  0  0  # atno 8008 bound_to 7997
  154.9609  140.0392  157.2208 H   0  0  0  0  0  0  0  0  0  0  0  0  # atno 8009 bound_to 7997
  154.7947  140.2818  155.5970 H   0  0  0  0  0  0  0  0  0  0  0  0  # atno 8010 bound_to 7997
  140.2239  143.3656  152.0945 H   0  0  0  0  0  0  0  0  0  0  0  0  # atno 10167 bound_to 10162
  157.3040  131.0876  151.1368 H   0  0  0  0  0  0  0  0  0  0  0  0  # atno 10718 bound_to 10713
  154.4693  135.5873  153.6310 H   0  0  0  0  0  0  0  0  0  0  0  0  # atno 10763 bound_to 10752
  152.9832  135.6063  154.3387 H   0  0  0  0  0  0  0  0  0  0  0  0  # atno 10764 bound_to 10752
  154.3267  135.2843  155.2471 H   0  0  0  0  0  0  0  0  0  0  0  0  # atno 10765 bound_to 10752
  140.1491  134.8687  157.2431 H   0  0  0  0  0  0  0  0  0  0  0  0  # atno 11005 bound_to 11000
  144.9982  140.8608  143.5298 LP  0  0  0  0  0  0  0  0  0  0  0  0  # atno 17320 bound_to 7965
  145.1764  139.2376  143.5315 LP  0  0  0  0  0  0  0  0  0  0  0  0  # atno 17321 bound_to 7965
  139.5134  144.6932  151.5703 LP  0  0  0  0  0  0  0  0  0  0  0  0  # atno 17342 bound_to 10162
  140.6235  143.9214  150.6545 LP  0  0  0  0  0  0  0  0  0  0  0  0  # atno 17343 bound_to 10162
  157.2716  130.6707  149.6022 LP  0  0  0  0  0  0  0  0  0  0  0  0  # atno 17370 bound_to 10713
  155.9673  130.4477  150.5591 LP  0  0  0  0  0  0  0  0  0  0  0  0  # atno 17371 bound_to 10713
  140.2626  134.3553  155.7401 LP  0  0  0  0  0  0  0  0  0  0  0  0  # atno 17394 bound_to 11000
  141.2196  133.7378  156.9103 LP  0  0  0  0  0  0  0  0  0  0  0  0  # atno 17395 bound_to 11000

$$$$
