AV-unprocessed.smi:1830|AV-procd|sdf|7438|dock1
  -GOLD-   22720 9123D 1   1.00000     0.00000
 Structure written by MMmdl.
 53 56  0  0  0  0  0  0  0  0  2 V2000
  147.1756  137.4843  155.6992 O   0  0  0  0  0  0  0  0  0  0  0  0
  147.6198  137.2929  154.5681 C   0  0  0  0  0  0  0  0  0  0  0  0
  148.9243  137.3546  154.2657 N   0  0  0  0  0  0  0  0  0  0  0  0
  150.0053  137.6253  155.2088 C   0  0  0  0  0  0  0  0  0  0  0  0
  150.9817  138.6720  154.6344 C   0  0  2  0  0  0  0  0  0  0  0  0
  152.0680  139.1095  155.6482 C   0  0  0  0  0  0  0  0  0  0  0  0
  151.4659  140.0191  156.6410 N   0  3  1  0  0  0  0  0  0  0  0  0
  152.3300  140.5565  157.7070 C   0  0  0  0  0  0  0  0  0  0  0  0
  151.6430  141.8624  158.1540 C   0  0  0  0  0  0  0  0  0  0  0  0
  150.4787  142.0792  157.1708 C   0  0  0  0  0  0  0  0  0  0  0  0
  150.8456  141.1781  155.9959 C   0  0  2  0  0  0  0  0  0  0  0  0
  149.7156  140.6963  155.0793 C   0  0  0  0  0  0  0  0  0  0  0  0
  150.2834  139.8123  154.1081 O   0  0  0  0  0  0  0  0  0  0  0  0
  146.8866  137.0096  153.4777 N   0  0  0  0  0  0  0  0  0  0  0  0
  145.4704  136.9084  153.3413 C   0  0  0  0  0  0  0  0  0  0  0  0
  144.5578  137.7679  154.0024 C   0  0  0  0  0  0  0  0  0  0  0  0
  143.1766  137.5825  153.8103 C   0  0  0  0  0  0  0  0  0  0  0  0
  142.7519  136.5393  152.9690 C   0  0  0  0  0  0  0  0  0  0  0  0
  143.6047  135.7024  152.3448 N   0  0  0  0  0  0  0  0  0  0  0  0
  144.9368  135.8750  152.5275 C   0  0  0  0  0  0  0  0  0  0  0  0
  145.8036  134.9797  151.8748 N   0  0  0  0  0  0  0  0  0  0  0  0
  145.1862  134.1235  150.8762 C   0  0  0  0  0  0  0  0  0  0  0  0
  146.2236  133.0381  150.5840 C   0  0  0  0  0  0  0  0  0  0  0  0
  147.0892  132.9751  151.8485 C   0  0  0  0  0  0  0  0  0  0  0  0
  146.5611  134.0976  152.7481 C   0  0  0  0  0  0  0  0  0  0  0  0
  149.1930  137.1860  153.3070 H   0  0  0  0  0  0  0  0  0  0  0  0
  149.5679  137.9633  156.1477 H   0  0  0  0  0  0  0  0  0  0  0  0
  150.5561  136.7146  155.4487 H   0  0  0  0  0  0  0  0  0  0  0  0
  151.4919  138.2059  153.7904 H   0  0  0  0  0  0  0  0  0  0  0  0
  152.5086  138.2459  156.1476 H   0  0  0  0  0  0  0  0  0  0  0  0
  152.8769  139.6255  155.1287 H   0  0  0  0  0  0  0  0  0  0  0  0
  152.4381  139.8400  158.5219 H   0  0  0  0  0  0  0  0  0  0  0  0
  153.3232  140.7729  157.3102 H   0  0  0  0  0  0  0  0  0  0  0  0
  151.2797  141.7974  159.1802 H   0  0  0  0  0  0  0  0  0  0  0  0
  152.3491  142.6924  158.1082 H   0  0  0  0  0  0  0  0  0  0  0  0
  149.5441  141.7457  157.6244 H   0  0  0  0  0  0  0  0  0  0  0  0
  150.3580  143.1233  156.8797 H   0  0  0  0  0  0  0  0  0  0  0  0
  151.6007  141.6885  155.3936 H   0  0  0  0  0  0  0  0  0  0  0  0
  148.9251  140.2011  155.6436 H   0  0  0  0  0  0  0  0  0  0  0  0
  149.2570  141.5408  154.5649 H   0  0  0  0  0  0  0  0  0  0  0  0
  147.4000  136.9318  152.6118 H   0  0  0  0  0  0  0  0  0  0  0  0
  144.8814  138.5570  154.6621 H   0  0  0  0  0  0  0  0  0  0  0  0
  142.4594  138.2243  154.2999 H   0  0  0  0  0  0  0  0  0  0  0  0
  141.6995  136.3676  152.7978 H   0  0  0  0  0  0  0  0  0  0  0  0
  144.2728  133.6734  151.2676 H   0  0  0  0  0  0  0  0  0  0  0  0
  144.9283  134.6861  149.9784 H   0  0  0  0  0  0  0  0  0  0  0  0
  145.7565  132.0815  150.3475 H   0  0  0  0  0  0  0  0  0  0  0  0
  146.8389  133.3280  149.7314 H   0  0  0  0  0  0  0  0  0  0  0  0
  147.0204  132.0067  152.3449 H   0  0  0  0  0  0  0  0  0  0  0  0
  148.1364  133.1448  151.5953 H   0  0  0  0  0  0  0  0  0  0  0  0
  147.3745  134.6358  153.2359 H   0  0  0  0  0  0  0  0  0  0  0  0
  145.9199  133.6817  153.5266 H   0  0  0  0  0  0  0  0  0  0  0  0
  150.7223  139.5150  157.1025 H   0  0  0  0  0  0  0  0  0  0  0  0
  1  2  2  0  0  0  0
  2  3  1  0  0  0  0
  2 14  1  0  0  0  0
  3  4  1  0  0  0  0
  3 26  1  0  0  0  0
  4  5  1  0  0  0  0
  4 27  1  0  0  0  0
  4 28  1  0  0  0  0
  5 13  1  0  0  0  0
  5  6  1  0  0  0  0
  5 29  1  0  0  0  0
  6  7  1  0  0  0  0
  6 30  1  0  0  0  0
  6 31  1  0  0  0  0
  7 11  1  0  0  0  0
  7  8  1  0  0  0  0
  7 53  1  0  0  0  0
  8  9  1  0  0  0  0
  8 32  1  0  0  0  0
  8 33  1  0  0  0  0
  9 10  1  0  0  0  0
  9 34  1  0  0  0  0
  9 35  1  0  0  0  0
 10 11  1  0  0  0  0
 10 36  1  0  0  0  0
 10 37  1  0  0  0  0
 11 12  1  0  0  0  0
 11 38  1  0  0  0  0
 12 13  1  0  0  0  0
 12 39  1  0  0  0  0
 12 40  1  0  0  0  0
 14 15  1  0  0  0  0
 14 41  1  0  0  0  0
 15 20  1  0  0  0  0
 15 16  2  0  0  0  0
 16 17  1  0  0  0  0
 16 42  1  0  0  0  0
 17 18  2  0  0  0  0
 17 43  1  0  0  0  0
 18 19  1  0  0  0  0
 18 44  1  0  0  0  0
 19 20  2  0  0  0  0
 20 21  1  0  0  0  0
 21 25  1  0  0  0  0
 21 22  1  0  0  0  0
 22 23  1  0  0  0  0
 22 45  1  0  0  0  0
 22 46  1  0  0  0  0
 23 24  1  0  0  0  0
 23 47  1  0  0  0  0
 23 48  1  0  0  0  0
 24 25  1  0  0  0  0
 24 49  1  0  0  0  0
 24 50  1  0  0  0  0
 25 51  1  0  0  0  0
 25 52  1  0  0  0  0
M  CHG  1   7   1
M  END
> <s_m_source_file>
AV-unprocessed.smi

> <i_m_source_file_index>
1830

> <i_lp_mmshare_version>
43012

> <i_f3d_flags>
0

> <s_epik_input>
W0NIMl0xW0NIMl1bQ0gyXVtDQEhdKE4xMilbQ0gyXU9bQ0BASF0oW0NIMl0yKVtDSDJdW05IXUMoPU8pW05IXWMzW2NIXVtjSF1bY0hdbmMzTjRbQ0gyXVtDSDJdW0NIMl1bQ0gyXTQ=

> <s_epik_cmdline>
J2VwaWtfcHl0aG9uJywgJy1waCcsICc3LjAnLCAnLXRuJywgJzgnLCAnLW1hJywgJzIwMCcsICctbWV0YWxfYmluZGluZycsICctaW1hZScsICc8aW5maWxlLm1hZT4nLCAnLW9tYWUnLCAnPG91dGZpbGUubWFlPic=

> <r_lp_tautomer_probability>
1

> <r_epik_Ionization_Penalty>
0.193547

> <r_epik_Ionization_Penalty_Charging>
0.10673

> <r_epik_Ionization_Penalty_Neutral>
0.0868166

> <r_epik_State_Penalty>
0.173595

> <r_epik_Charging_Adjusted_Penalty>
0.280326

> <i_epik_Tot_Q>
1

> <i_epik_Tot_abs_Q>
1

> <r_epik_Metal_State_Penalty>
0.164683

> <b_epik_Metal_Only>
0

> <s_lp_Force_Field>
OPLS_2005

> <r_lp_Energy>
70.9361

> <b_lp_Chiralities_Consistent>
1

> <s_lp_Variant>
AV-unprocessed.smi:1830-7

> <Gold.Version>
5.8.1

> <Gold.Id.Protein>
6NUR|6NUR_protein|mol2

> <Gold.PLP.Fitness>
43.3098

> <Gold.PLP.PLP>
-35.8999

> <Gold.PLP.part.hbond>
-3.0000

> <Gold.PLP.part.metal>
0.0000

> <Gold.PLP.part.buried>
-5.4718

> <Gold.PLP.part.nonpolar>
-29.1717

> <Gold.PLP.part.repulsive>
1.4296

> <Gold.PLP.ligand.clash>
0.0000

> <Gold.PLP.ligand.torsion>
0.5793

> <Gold.PLP.Chemscore.Hbond>
2.8400

> <Gold.PLP.Chemscore.CHOScore>
0.0000

> <Gold.PLP.Chemscore.Metal>
0.0000

> <Gold.Chemscore.Hbonds>
donor molecule, donor type, donor heavy atom, donor atom, acceptor molecule, acceptor atom, score
      L1  H     3    26       P1  7948  0.98
      L1  H    14    41       P1  7948  0.88
      P1  H  7989  7998       L1    13  1.00

> <Gold.PLP.Chemscore.Internal.Correction>
0.0486

> <Gold.Rescore>
     Score         DG    S(hbond)    S(metal)    S(lipo)     H(rot)  DE(clash)    DE(int)     intcor
     17.66     -19.25       2.22        0.00      85.14       1.41       0.19       1.40       ----

> <Gold.Chemscore.Fitness>
17.6563

> <Gold.Chemscore.DG>
-19.2511

> <Gold.Chemscore.ZeroCoef>
-5.4800

> <Gold.Chemscore.Hbond>
2.2188

> <Gold.Chemscore.Metal>
0.0000

> <Gold.Chemscore.Lipo>
85.1389

> <Gold.Chemscore.Internal_Hbond>
0.0000

> <Gold.Chemscore.DEClash>
0.1948

> <Gold.Chemscore.DEInternal>
1.4000

> <Gold.Chemscore.Rot>
1.4067

> <Gold.Chemscore.Internal.Correction>
   9.000000E+99

> <Gold.Chemscore.Hbonds>
donor molecule, donor type, donor heavy atom, donor atom, acceptor molecule, acceptor atom, score
      L1  H     3    26       P1  7948  0.93
      L1  H    14    41       P1  7948  0.86
      P1  H  7989  7998       L1    13  0.10

> <Gold.Chemscore.Hbond.Weighted>
-7.4109

> <Gold.Chemscore.Metal.Weighted>
-0.0000

> <Gold.Chemscore.Lipo.Weighted>
-9.9613

> <Gold.Chemscore.Internal_Hbond.Weighted>
0.0000

> <Gold.Chemscore.DEClash.Weighted>
0.1948

> <Gold.Chemscore.DEInternal.Weighted>
1.4000

> <Gold.Chemscore.Rot.Weighted>
3.6011

> <Gold.Chemscore.Internal.Correction.Weighted>
   9.000000E+99

> <Gold.Protein.RotatedTorsions>
[ 6907 6896 6895 6894 ] final -124.48 input  -60.11 | X-H torsion
[ 7974 7965 7964 7962 ] final  132.40 input  175.53 | X-H torsion
[ 8008 7997 7996 7995 ] final -141.05 input   59.86 | X-H torsion
[ 10167 10162 10161 10158 ] final   72.29 input  -65.29 | X-H torsion
[ 10718 10713 10712 10709 ] final -128.74 input   66.30 | X-H torsion
[ 10763 10752 10751 10750 ] final  164.52 input  -60.55 | X-H torsion
[ 11005 11000 10999 10996 ] final -103.67 input  -57.11 | X-H torsion

> <Gold.Protein.ActiveResidues>
 VAL166  LYS551  ARG553  GLY616  TRP617  ASP618  TYR619  PRO620  LYS621  CYS622 
 ASP623  PHE694  ASN695  SER759  ASP760  ASP761  ALA762  ILE779  LEU786  VAL792 
 PHE793  MET794  SER795  GLU796  ALA797  LYS798  CYS799  TRP800  GLU811  SER814 

> <Gold.Protein.RotatedAtoms>
  150.8772  133.7422  159.2942 H   0  0  0  0  0  0  0  0  0  0  0  0  # atno 6907 bound_to 6896
  151.5015  135.1060  159.9839 H   0  0  0  0  0  0  0  0  0  0  0  0  # atno 6908 bound_to 6896
  152.4736  133.8040  159.7023 H   0  0  0  0  0  0  0  0  0  0  0  0  # atno 6909 bound_to 6896
  144.9973  139.4347  143.5310 H   0  0  0  0  0  0  0  0  0  0  0  0  # atno 7974 bound_to 7965
  155.4714  140.0553  157.2979 H   0  0  0  0  0  0  0  0  0  0  0  0  # atno 8008 bound_to 7997
  154.4697  140.2034  155.9981 H   0  0  0  0  0  0  0  0  0  0  0  0  # atno 8009 bound_to 7997
  156.1034  140.3215  155.7978 H   0  0  0  0  0  0  0  0  0  0  0  0  # atno 8010 bound_to 7997
  140.0369  144.5421  150.7464 H   0  0  0  0  0  0  0  0  0  0  0  0  # atno 10167 bound_to 10162
  156.1980  130.6838  151.0505 H   0  0  0  0  0  0  0  0  0  0  0  0  # atno 10718 bound_to 10713
  154.3101  135.2757  155.2570 H   0  0  0  0  0  0  0  0  0  0  0  0  # atno 10763 bound_to 10752
  154.4969  135.5818  153.6505 H   0  0  0  0  0  0  0  0  0  0  0  0  # atno 10764 bound_to 10752
  152.9889  135.6148  154.3278 H   0  0  0  0  0  0  0  0  0  0  0  0  # atno 10765 bound_to 10752
  141.1135  133.8660  157.1516 H   0  0  0  0  0  0  0  0  0  0  0  0  # atno 11005 bound_to 11000
  146.3444  139.9340  142.8750 LP  0  0  0  0  0  0  0  0  0  0  0  0  # atno 17320 bound_to 7965
  145.2202  140.9932  143.4050 LP  0  0  0  0  0  0  0  0  0  0  0  0  # atno 17321 bound_to 7965
  140.7277  143.2655  151.4061 LP  0  0  0  0  0  0  0  0  0  0  0  0  # atno 17342 bound_to 10162
  139.6039  144.1237  152.2228 LP  0  0  0  0  0  0  0  0  0  0  0  0  # atno 17343 bound_to 10162
  157.6969  131.0790  150.6942 LP  0  0  0  0  0  0  0  0  0  0  0  0  # atno 17370 bound_to 10713
  156.6999  130.4620  149.5576 LP  0  0  0  0  0  0  0  0  0  0  0  0  # atno 17371 bound_to 10713
  140.0043  135.0015  157.0258 LP  0  0  0  0  0  0  0  0  0  0  0  0  # atno 17394 bound_to 11000
  140.4710  134.1386  155.7203 LP  0  0  0  0  0  0  0  0  0  0  0  0  # atno 17395 bound_to 11000

$$$$
