AV-unprocessed.smi:86|AV-procd|sdf|813|dock6
  -GOLD-   2262017213D 1   1.00000     0.00000
 Structure written by MMmdl.
 51 55  0  0  0  0  0  0  0  0  1 V2000
  151.0705  140.1695  154.9897 O   0  0  0  0  0  0  0  0  0  0  0  0
  151.3512  139.2343  156.0113 C   0  0  0  0  0  0  0  0  0  0  0  0
  150.4457  137.9952  155.9009 C   0  0  0  0  0  0  0  0  0  0  0  0
  148.9636  138.3951  156.0501 C   0  0  0  0  0  0  0  0  0  0  0  0
  148.0480  137.5439  155.3050 N   0  0  0  0  0  0  0  0  0  0  0  0
  147.6211  136.2849  155.6584 C   0  0  0  0  0  0  0  0  0  0  0  0
  146.7969  135.7223  154.8188 N   0  0  0  0  0  0  0  0  0  0  0  0
  146.6470  136.6559  153.7987 C   0  0  0  0  0  0  0  0  0  0  0  0
  145.9046  136.7011  152.5801 C   0  0  0  0  0  0  0  0  0  0  0  0
  145.1007  135.7051  152.1245 N   0  0  0  0  0  0  0  0  0  0  0  0
  145.1452  135.2039  150.7598 C   0  0  0  0  0  0  0  0  0  0  0  0
  144.1310  134.0584  150.7460 C   0  0  1  0  0  0  0  0  0  0  0  0
  144.2835  133.0278  149.6099 C   0  0  0  0  0  0  0  0  0  0  0  0
  145.4658  132.0707  149.8221 C   0  0  0  0  0  0  0  0  0  0  0  0
  145.3887  131.4080  151.2059 C   0  0  1  0  0  0  0  0  0  0  0  0
  146.4928  130.5436  151.3727 O   0  0  0  0  0  0  0  0  0  0  0  0
  145.4033  132.4732  152.3123 C   0  0  0  0  0  0  0  0  0  0  0  0
  144.2390  133.4776  152.1661 C   0  0  1  0  0  0  0  0  0  0  0  0
  144.4784  134.7327  153.0194 C   0  0  0  0  0  0  0  0  0  0  0  0
  146.0287  137.8216  151.8206 N   0  0  0  0  0  0  0  0  0  0  0  0
  146.8108  138.8294  152.2158 C   0  0  0  0  0  0  0  0  0  0  0  0
  147.5506  138.9255  153.3204 N   0  0  0  0  0  0  0  0  0  0  0  0
  147.4372  137.8062  154.0904 C   0  0  0  0  0  0  0  0  0  0  0  0
  150.7740  137.0550  154.7330 C   0  0  0  0  0  0  0  0  0  0  0  0
  151.4662  136.1283  155.5964 O   0  0  0  0  0  0  0  0  0  0  0  0
  150.9057  136.7980  156.7450 C   0  0  0  0  0  0  0  0  0  0  0  0
  150.1393  140.3293  154.9753 H   0  0  0  0  0  0  0  0  0  0  0  0
  152.4006  138.9514  155.9222 H   0  0  0  0  0  0  0  0  0  0  0  0
  151.2522  139.7228  156.9805 H   0  0  0  0  0  0  0  0  0  0  0  0
  148.6650  138.3944  157.0988 H   0  0  0  0  0  0  0  0  0  0  0  0
  148.8107  139.4191  155.7073 H   0  0  0  0  0  0  0  0  0  0  0  0
  147.9402  135.7903  156.5639 H   0  0  0  0  0  0  0  0  0  0  0  0
  144.8774  135.9761  150.0383 H   0  0  0  0  0  0  0  0  0  0  0  0
  146.1510  134.8482  150.5346 H   0  0  0  0  0  0  0  0  0  0  0  0
  143.1438  134.5135  150.6485 H   0  0  0  0  0  0  0  0  0  0  0  0
  143.3679  132.4378  149.5506 H   0  0  0  0  0  0  0  0  0  0  0  0
  144.3777  133.5374  148.6507 H   0  0  0  0  0  0  0  0  0  0  0  0
  145.4647  131.3098  149.0407 H   0  0  0  0  0  0  0  0  0  0  0  0
  146.4052  132.6155  149.7204 H   0  0  0  0  0  0  0  0  0  0  0  0
  144.4782  130.8122  151.2795 H   0  0  0  0  0  0  0  0  0  0  0  0
  147.2396  130.9223  150.9342 H   0  0  0  0  0  0  0  0  0  0  0  0
  145.3539  131.9978  153.2926 H   0  0  0  0  0  0  0  0  0  0  0  0
  146.3557  133.0052  152.2806 H   0  0  0  0  0  0  0  0  0  0  0  0
  143.3087  132.9835  152.4491 H   0  0  0  0  0  0  0  0  0  0  0  0
  145.0943  134.5104  153.8920 H   0  0  0  0  0  0  0  0  0  0  0  0
  143.5314  135.1435  153.3709 H   0  0  0  0  0  0  0  0  0  0  0  0
  146.8498  139.6800  151.5514 H   0  0  0  0  0  0  0  0  0  0  0  0
  149.8974  136.5995  154.2696 H   0  0  0  0  0  0  0  0  0  0  0  0
  151.4286  137.4921  153.9780 H   0  0  0  0  0  0  0  0  0  0  0  0
  151.6565  137.0449  157.4963 H   0  0  0  0  0  0  0  0  0  0  0  0
  150.0910  136.2206  157.1838 H   0  0  0  0  0  0  0  0  0  0  0  0
  1  2  1  0  0  0  0
  1 27  1  0  0  0  0
  2  3  1  0  0  0  0
  2 28  1  0  0  0  0
  2 29  1  0  0  0  0
  3 26  1  0  0  0  0
  3  4  1  0  0  0  0
  3 24  1  0  0  0  0
  4  5  1  0  0  0  0
  4 30  1  0  0  0  0
  4 31  1  0  0  0  0
  5 23  1  0  0  0  0
  5  6  1  0  0  0  0
  6  7  2  0  0  0  0
  6 32  1  0  0  0  0
  7  8  1  0  0  0  0
  8 23  2  0  0  0  0
  8  9  1  0  0  0  0
  9 10  1  0  0  0  0
  9 20  2  0  0  0  0
 10 19  1  0  0  0  0
 10 11  1  0  0  0  0
 11 12  1  0  0  0  0
 11 33  1  0  0  0  0
 11 34  1  0  0  0  0
 12 18  1  0  0  0  0
 12 13  1  0  0  0  0
 12 35  1  0  0  0  0
 13 14  1  0  0  0  0
 13 36  1  0  0  0  0
 13 37  1  0  0  0  0
 14 15  1  0  0  0  0
 14 38  1  0  0  0  0
 14 39  1  0  0  0  0
 15 16  1  0  0  0  0
 15 17  1  0  0  0  0
 15 40  1  0  0  0  0
 16 41  1  0  0  0  0
 17 18  1  0  0  0  0
 17 42  1  0  0  0  0
 17 43  1  0  0  0  0
 18 19  1  0  0  0  0
 18 44  1  0  0  0  0
 19 45  1  0  0  0  0
 19 46  1  0  0  0  0
 20 21  1  0  0  0  0
 21 22  2  0  0  0  0
 21 47  1  0  0  0  0
 22 23  1  0  0  0  0
 24 25  1  0  0  0  0
 24 48  1  0  0  0  0
 24 49  1  0  0  0  0
 25 26  1  0  0  0  0
 26 50  1  0  0  0  0
 26 51  1  0  0  0  0
M  END
> <s_m_source_file>
AV-unprocessed.smi

> <i_m_source_file_index>
86

> <i_lp_mmshare_version>
43012

> <i_f3d_flags>
0

> <s_epik_input>
W0NIMl0xT1tDSDJdQzEoW0NIMl1bT0hdKVtDSDJdbihbY0hdbjIpYyhjMjMpbltjSF1uYzNOKFtDSDJdNClbQ0gyXVtDQEBIXShbQ0BIXTQ1KVtDSDJdW0NASF0oW09IXSlbQ0gyXVtDSDJdNQ==

> <s_epik_cmdline>
J2VwaWtfcHl0aG9uJywgJy1waCcsICc3LjAnLCAnLXRuJywgJzgnLCAnLW1hJywgJzIwMCcsICctbWV0YWxfYmluZGluZycsICctaW1hZScsICc8aW5maWxlLm1hZT4nLCAnLW9tYWUnLCAnPG91dGZpbGUubWFlPic=

> <r_lp_tautomer_probability>
1

> <r_epik_Ionization_Penalty>
0.00425795

> <r_epik_Ionization_Penalty_Charging>
0

> <r_epik_Ionization_Penalty_Neutral>
0.00425795

> <r_epik_State_Penalty>
0.00299946

> <r_epik_Charging_Adjusted_Penalty>
0.00299946

> <i_epik_Tot_Q>
0

> <i_epik_Tot_abs_Q>
0

> <r_epik_Metal_State_Penalty>
-0

> <b_epik_Metal_Only>
0

> <s_lp_Force_Field>
OPLS_2005

> <r_lp_Energy>
54.7951

> <b_lp_Chiralities_Consistent>
1

> <s_lp_Variant>
AV-unprocessed.smi:86-2

> <Gold.Version>
5.8.1

> <Gold.Id.Protein>
6NUR|6NUR_protein|mol2

> <Gold.PLP.Fitness>
41.3596

> <Gold.PLP.PLP>
-34.3262

> <Gold.PLP.part.hbond>
-3.0000

> <Gold.PLP.part.metal>
0.0000

> <Gold.PLP.part.buried>
-3.9849

> <Gold.PLP.part.nonpolar>
-28.4331

> <Gold.PLP.part.repulsive>
1.2475

> <Gold.PLP.ligand.clash>
0.0000

> <Gold.PLP.ligand.torsion>
1.4629

> <Gold.PLP.Chemscore.Hbond>
3.0000

> <Gold.PLP.Chemscore.CHOScore>
0.1679

> <Gold.PLP.Chemscore.Metal>
0.0000

> <Gold.Chemscore.Hbonds>
donor molecule, donor type, donor heavy atom, donor atom, acceptor molecule, acceptor atom, score
      L1  H    16    41       P1 10747  1.00
      P1  H  7989  7998       L1     1  1.00
      P1  H 10752 10764       L1    25  1.00
      L1  C    21    47       P1  7957  0.20

> <Gold.PLP.Chemscore.Internal.Correction>
0.4555

> <Gold.Rescore>
     Score         DG    S(hbond)    S(metal)    S(lipo)     H(rot)  DE(clash)    DE(int)     intcor
     15.61     -17.37       2.94        0.00      78.09       2.76       0.27       1.49       ----

> <Gold.Chemscore.Fitness>
15.6073

> <Gold.Chemscore.DG>
-17.3720

> <Gold.Chemscore.ZeroCoef>
-5.4800

> <Gold.Chemscore.Hbond>
2.9426

> <Gold.Chemscore.Metal>
0.0000

> <Gold.Chemscore.Lipo>
78.0939

> <Gold.Chemscore.Internal_Hbond>
0.0000

> <Gold.Chemscore.DEClash>
0.2737

> <Gold.Chemscore.DEInternal>
1.4910

> <Gold.Chemscore.Rot>
2.7630

> <Gold.Chemscore.Internal.Correction>
   9.000000E+99

> <Gold.Chemscore.Hbonds>
donor molecule, donor type, donor heavy atom, donor atom, acceptor molecule, acceptor atom, score
      L1  H    16    41       P1 10747  0.96
      P1  H  7989  7998       L1     1  0.45
      P1  H 10752 10764       L1    25  0.60

> <Gold.Chemscore.Hbond.Weighted>
-9.8283

> <Gold.Chemscore.Metal.Weighted>
-0.0000

> <Gold.Chemscore.Lipo.Weighted>
-9.1370

> <Gold.Chemscore.Internal_Hbond.Weighted>
0.0000

> <Gold.Chemscore.DEClash.Weighted>
0.2737

> <Gold.Chemscore.DEInternal.Weighted>
1.4910

> <Gold.Chemscore.Rot.Weighted>
7.0734

> <Gold.Chemscore.Internal.Correction.Weighted>
   9.000000E+99

> <Gold.Protein.RotatedTorsions>
[ 6907 6896 6895 6894 ] final -101.15 input  -60.11 | X-H torsion
[ 7974 7965 7964 7962 ] final   46.25 input  175.53 | X-H torsion
[ 8008 7997 7996 7995 ] final   54.63 input   59.86 | X-H torsion
[ 10167 10162 10161 10158 ] final  138.42 input  -65.29 | X-H torsion
[ 10718 10713 10712 10709 ] final  -30.35 input   66.30 | X-H torsion
[ 10763 10752 10751 10750 ] final  -54.73 input  -60.55 | X-H torsion
[ 11005 11000 10999 10996 ] final -154.96 input  -57.11 | X-H torsion

> <Gold.Protein.ActiveResidues>
 VAL166  LYS551  ARG553  GLY616  TRP617  ASP618  TYR619  PRO620  LYS621  CYS622 
 ASP623  PHE694  ASN695  SER759  ASP760  ASP761  ALA762  ILE779  LEU786  VAL792 
 PHE793  MET794  SER795  GLU796  ALA797  LYS798  CYS799  TRP800  GLU811  SER814 

> <Gold.Protein.RotatedAtoms>
  150.7143  134.0778  159.3886 H   0  0  0  0  0  0  0  0  0  0  0  0  # atno 6907 bound_to 6896
  151.8761  135.0469  160.0493 H   0  0  0  0  0  0  0  0  0  0  0  0  # atno 6908 bound_to 6896
  152.2605  133.5257  159.5415 H   0  0  0  0  0  0  0  0  0  0  0  0  # atno 6909 bound_to 6896
  146.0407  139.4876  142.9780 H   0  0  0  0  0  0  0  0  0  0  0  0  # atno 7974 bound_to 7965
  155.4879  140.3470  155.4350 H   0  0  0  0  0  0  0  0  0  0  0  0  # atno 8008 bound_to 7997
  156.0996  140.1432  156.9513 H   0  0  0  0  0  0  0  0  0  0  0  0  # atno 8009 bound_to 7997
  154.4685  140.0909  156.7062 H   0  0  0  0  0  0  0  0  0  0  0  0  # atno 8010 bound_to 7997
  139.5111  144.6354  151.5710 H   0  0  0  0  0  0  0  0  0  0  0  0  # atno 10167 bound_to 10162
  156.4009  130.4390  149.7323 H   0  0  0  0  0  0  0  0  0  0  0  0  # atno 10718 bound_to 10713
  154.1795  135.6446  153.5030 H   0  0  0  0  0  0  0  0  0  0  0  0  # atno 10763 bound_to 10752
  153.0063  135.5402  154.6529 H   0  0  0  0  0  0  0  0  0  0  0  0  # atno 10764 bound_to 10752
  154.5889  135.2932  155.0628 H   0  0  0  0  0  0  0  0  0  0  0  0  # atno 10765 bound_to 10752
  140.6916  134.4035  157.5218 H   0  0  0  0  0  0  0  0  0  0  0  0  # atno 11005 bound_to 11000
  145.6890  141.0170  143.1565 LP  0  0  0  0  0  0  0  0  0  0  0  0  # atno 17320 bound_to 7965
  144.7073  139.8510  143.7426 LP  0  0  0  0  0  0  0  0  0  0  0  0  # atno 17321 bound_to 7965
  140.6101  143.9452  150.6447 LP  0  0  0  0  0  0  0  0  0  0  0  0  # atno 17342 bound_to 10162
  140.2692  143.3468  152.1254 LP  0  0  0  0  0  0  0  0  0  0  0  0  # atno 17343 bound_to 10162
  156.4340  130.7829  151.2849 LP  0  0  0  0  0  0  0  0  0  0  0  0  # atno 17370 bound_to 10713
  157.7504  131.0145  150.3468 LP  0  0  0  0  0  0  0  0  0  0  0  0  # atno 17371 bound_to 10713
  139.8922  134.8761  156.2283 LP  0  0  0  0  0  0  0  0  0  0  0  0  # atno 17394 bound_to 11000
  141.0237  133.7027  156.1311 LP  0  0  0  0  0  0  0  0  0  0  0  0  # atno 17395 bound_to 11000

$$$$
