#       Name:                AV-unprocessed.smi:1861
#       Creating user name   scv26
#       Creation time:       Fri Mar 27 09:26:29 2020


#       File generated by GOLD software.
#

@<TRIPOS>MOLECULE
AV-unprocessed.smi:1861
    35    36     1
SMALL
NO_CHARGES


@<TRIPOS>ATOM
      1 ****        -4.0030  -1.2930  -0.2800 C.3            1 S1                 0.0000
      2 ****        -3.2459  -0.0536  -0.3585 N.am           1 S1                 0.0000
      3 ****        -2.3023   0.3106   0.5218 C.2            1 S1                 0.0000
      4 ****        -1.9883  -0.3703   1.4977 O.2            1 S1                 0.0000
      5 ****        -1.6015   1.6457   0.2637 C.3            1 S1                 0.0000
      6 ****        -0.6803   1.5483  -0.8576 N.pl3          1 S1                 0.0000
      7 ****        -1.0084   2.0712  -2.0653 N.2            1 S1                 0.0000
      8 ****        -0.0168   1.8149  -2.8676 N.2            1 S1                 0.0000
      9 ****         0.9854   1.1198  -2.2199 N.2            1 S1                 0.0000
     10 ****         0.5346   0.9899  -0.9774 C.2            1 S1                 0.0000
     11 ****         1.2462   0.2699   0.1323 C.3            1 S1                 0.0000
     12 ****         2.6851   0.7297   0.3715 C.3            1 S1                 0.0000
     13 ****         3.3034  -0.4018   1.1965 C.3            1 S1                 0.0000
     14 ****         2.5470  -1.6813   0.8020 C.3            1 S1                 0.0000
     15 ****         1.3666  -1.2421  -0.0762 C.3            1 S1                 0.0000
     16 ****        -4.7286  -1.3366  -1.0921 H              1 S1                 0.0000
     17 ****        -4.5436  -1.3606   0.6649 H              1 S1                 0.0000
     18 ****        -3.3423  -2.1567  -0.3660 H              1 S1                 0.0000
     19 ****        -3.4441   0.5614  -1.1349 H              1 S1                 0.0000
     20 ****        -2.3444   2.4183   0.0590 H              1 S1                 0.0000
     21 ****        -1.0515   1.9652   1.1494 H              1 S1                 0.0000
     22 ****         0.7034   0.4314   1.0635 H              1 S1                 0.0000
     23 ****         3.2194   0.8079  -0.5765 H              1 S1                 0.0000
     24 ****         2.7434   1.6997   0.8664 H              1 S1                 0.0000
     25 ****         4.3778  -0.4875   1.0311 H              1 S1                 0.0000
     26 ****         3.1519  -0.2036   2.2584 H              1 S1                 0.0000
     27 ****         3.1928  -2.3734   0.2600 H              1 S1                 0.0000
     28 ****         2.1937  -2.1988   1.6948 H              1 S1                 0.0000
     29 ****         0.4414  -1.7701   0.1571 H              1 S1                 0.0000
     30 ****         1.6099  -1.4553  -1.1183 H              1 S1                 0.0000
     31 ****        -2.4449  -1.2440   1.6656 LP             1 S1                 0.0000
     32 ****        -1.2766  -0.0499   2.1228 LP             1 S1                 0.0000
     33 ****        -1.8503   2.5597  -2.2948 LP             1 S1                 0.0000
     34 ****         0.0155   2.0863  -3.8295 LP             1 S1                 0.0000
     35 ****         1.8503   0.7905  -2.5987 LP             1 S1                 0.0000
@<TRIPOS>BOND
    1    1    2 1     
    2    1   16 1     
    3    1   17 1     
    4    1   18 1     
    5    2    3 am    
    6    2   19 1     
    7    3    4 2     
    8    3    5 1     
    9    5    6 1     
   10    5   20 1     
   11    5   21 1     
   12    6   10 1     
   13    6    7 1     
   14    7    8 2     
   15    8    9 1     
   16    9   10 2     
   17   10   11 1     
   18   11   15 1     
   19   11   12 1     
   20   11   22 1     
   21   12   13 1     
   22   12   23 1     
   23   12   24 1     
   24   13   14 1     
   25   13   25 1     
   26   13   26 1     
   27   14   15 1     
   28   14   27 1     
   29   14   28 1     
   30   15   29 1     
   31   15   30 1     
   32    4   31 1     
   33    4   32 1     
   34    7   33 1     
   35    8   34 1     
   36    9   35 1     
@<TRIPOS>SUBSTRUCTURE
      1 S1             1
@<TRIPOS>SET
LONE_PAIRS      STATIC     ATOMS    <user>   **** ""
5 31 32 33 34 35
DONOR_HYDROGENS      STATIC     ATOMS    <user>   **** ""
1 19
ATOM$BLUE        STATIC     ATOMS    COLORGROUP SYSTEM
5 31 32 33 34 35
ATOM$RED        STATIC     ATOMS    COLORGROUP SYSTEM
1 19
