#       Name:                AV-unprocessed.smi:2895
#       Creating user name   scv26
#       Creation time:       Fri Mar 27 16:01:05 2020


#       File generated by GOLD software.
#

@<TRIPOS>MOLECULE
AV-unprocessed.smi:2895
    56    59     1
SMALL
NO_CHARGES


@<TRIPOS>ATOM
      1 ****         1.8809   1.7472  -1.3227 O.2            1 S1                 0.0000
      2 ****         1.5884   1.0117  -0.3792 C.2            1 S1                 0.0000
      3 ****         2.4233   0.0540   0.0594 N.am           1 S1                 0.0000
      4 ****         3.7414  -0.2348  -0.4951 C.3            1 S1                 0.0000
      5 ****         3.6482  -1.0118  -1.8194 C.3            1 S1                 0.0000
      6 ****         5.0146  -1.3635  -2.3763 C.ar           1 S1                 0.0000
      7 ****         5.7779  -0.3929  -3.0621 C.ar           1 S1                 0.0000
      8 ****         7.0455  -0.7461  -3.5687 C.ar           1 S1                 0.0000
      9 ****         7.5130  -2.0020  -3.3957 N.pl3          1 S1                 1.0000
     10 ****         6.8152  -2.9597  -2.7465 C.ar           1 S1                 0.0000
     11 ****         5.5428  -2.6638  -2.2161 C.ar           1 S1                 0.0000
     12 ****         0.4253   1.1179   0.3136 N.am           1 S1                 0.0000
     13 ****        -0.0768   0.1761   1.3274 C.3            1 S1                 0.0000
     14 ****        -1.3320  -0.5322   0.7806 C.3            1 S1                 0.0000
     15 ****        -2.3901   0.4371   0.3745 N.4            1 S1                 1.0000
     16 ****        -3.1709   1.0145   1.5109 C.3            1 S1                 0.0000
     17 ****        -4.4276   1.8081   1.0748 C.3            1 S1                 0.0000
     18 ****        -5.5430   1.2164   1.9567 C.3            1 S1                 0.0000
     19 ****        -5.9257  -0.1689   1.4084 C.3            1 S1                 0.0000
     20 ****        -4.6980  -1.0224   1.7727 C.3            1 S1                 0.0000
     21 ****        -3.7778  -0.0158   2.4974 C.3            1 S1                 0.0000
     22 ****        -4.7957   0.8498   3.2328 C.3            1 S1                 0.0000
     23 ****        -1.8491   1.4676  -0.5579 C.3            1 S1                 0.0000
     24 ****        -0.5764   2.1422  -0.0054 C.3            1 S1                 0.0000
     25 ****         2.1294  -0.5043   0.8477 H              1 S1                 0.0000
     26 ****         4.2972   0.6945  -0.6321 H              1 S1                 0.0000
     27 ****         4.2931  -0.8211   0.2403 H              1 S1                 0.0000
     28 ****         3.0712  -1.9262  -1.6758 H              1 S1                 0.0000
     29 ****         3.1122  -0.4257  -2.5671 H              1 S1                 0.0000
     30 ****         5.3988   0.6099  -3.1973 H              1 S1                 0.0000
     31 ****         7.6941  -0.0674  -4.1032 H              1 S1                 0.0000
     32 ****         7.2918  -3.9264  -2.6716 H              1 S1                 0.0000
     33 ****         4.9825  -3.4268  -1.6950 H              1 S1                 0.0000
     34 ****         0.6497  -0.5758   1.6345 H              1 S1                 0.0000
     35 ****        -0.3180   0.7286   2.2363 H              1 S1                 0.0000
     36 ****        -1.0542  -1.1089  -0.1027 H              1 S1                 0.0000
     37 ****        -1.7039  -1.2643   1.4953 H              1 S1                 0.0000
     38 ****        -2.5183   1.6784   2.0796 H              1 S1                 0.0000
     39 ****        -4.2934   2.8723   1.2727 H              1 S1                 0.0000
     40 ****        -4.6684   1.6961   0.0170 H              1 S1                 0.0000
     41 ****        -6.3954   1.8828   2.0932 H              1 S1                 0.0000
     42 ****        -6.8193  -0.5497   1.9054 H              1 S1                 0.0000
     43 ****        -6.1217  -0.1543   0.3355 H              1 S1                 0.0000
     44 ****        -4.9861  -1.8321   2.4444 H              1 S1                 0.0000
     45 ****        -4.2306  -1.4735   0.8974 H              1 S1                 0.0000
     46 ****        -3.0457  -0.4832   3.1564 H              1 S1                 0.0000
     47 ****        -4.3532   1.7100   3.7384 H              1 S1                 0.0000
     48 ****        -5.4051   0.2914   3.9460 H              1 S1                 0.0000
     49 ****        -1.6076   0.9729  -1.4996 H              1 S1                 0.0000
     50 ****        -2.5971   2.2203  -0.8032 H              1 S1                 0.0000
     51 ****        -0.8032   2.7117   0.8963 H              1 S1                 0.0000
     52 ****        -0.2163   2.8772  -0.7263 H              1 S1                 0.0000
     53 ****        -3.0652  -0.0966  -0.1548 H              1 S1                 0.0000
     54 ****         8.4319  -2.2374  -3.7720 H              1 S1                 0.0000
     55 ****         2.7609   1.6407  -1.7855 LP             1 S1                 0.0000
     56 ****         1.2383   2.4508  -1.6260 LP             1 S1                 0.0000
@<TRIPOS>BOND
    1    1    2 2     
    2    2    3 am    
    3    2   12 am    
    4    3    4 1     
    5    3   25 1     
    6    4    5 1     
    7    4   26 1     
    8    4   27 1     
    9    5    6 1     
   10    5   28 1     
   11    5   29 1     
   12    6   11 ar    
   13    6    7 ar    
   14    7    8 ar    
   15    7   30 1     
   16    8    9 ar    
   17    8   31 1     
   18    9   10 ar    
   19    9   54 1     
   20   10   11 ar    
   21   10   32 1     
   22   11   33 1     
   23   12   24 1     
   24   12   13 1     
   25   13   14 1     
   26   13   34 1     
   27   13   35 1     
   28   14   15 1     
   29   14   36 1     
   30   14   37 1     
   31   15   16 1     
   32   15   23 1     
   33   15   53 1     
   34   16   21 1     
   35   16   17 1     
   36   16   38 1     
   37   17   18 1     
   38   17   39 1     
   39   17   40 1     
   40   18   22 1     
   41   18   19 1     
   42   18   41 1     
   43   19   20 1     
   44   19   42 1     
   45   19   43 1     
   46   20   21 1     
   47   20   44 1     
   48   20   45 1     
   49   21   22 1     
   50   21   46 1     
   51   22   47 1     
   52   22   48 1     
   53   23   24 1     
   54   23   49 1     
   55   23   50 1     
   56   24   51 1     
   57   24   52 1     
   58    1   55 1     
   59    1   56 1     
@<TRIPOS>SUBSTRUCTURE
      1 S1             1
@<TRIPOS>SET
LONE_PAIRS      STATIC     ATOMS    <user>   **** ""
2 55 56
DONOR_HYDROGENS      STATIC     ATOMS    <user>   **** ""
3 25 54 53
ATOM$BLUE        STATIC     ATOMS    COLORGROUP SYSTEM
2 55 56
ATOM$RED        STATIC     ATOMS    COLORGROUP SYSTEM
3 25 54 53
