AV-unprocessed.smi:1492|AV-procd|sdf|6037|dock4
  -GOLD-   22720 6143D 1   1.00000     0.00000
 Structure written by MMmdl.
 52 53  0  0  0  0  0  0  0  0  1 V2000
  158.6346  137.4791  165.3428 C   0  0  0  0  0  0  0  0  0  0  0  0
  157.7825  138.7169  165.6812 C   0  0  0  0  0  0  0  0  0  0  0  0
  156.3569  138.8230  165.0397 C   0  0  2  0  0  0  0  0  0  0  0  0
  155.5895  137.5117  165.3444 C   0  0  0  0  0  0  0  0  0  0  0  0
  156.5169  138.9191  163.4897 C   0  0  0  0  0  0  0  0  0  0  0  0
  155.2331  139.1717  162.8422 N   0  0  0  0  0  0  0  0  0  0  0  0
  154.9884  140.1144  161.9214 C   0  0  0  0  0  0  0  0  0  0  0  0
  155.7641  141.0307  161.6523 O   0  0  0  0  0  0  0  0  0  0  0  0
  153.6821  139.9559  161.1457 C   0  0  0  0  0  0  0  0  0  0  0  0
  153.1817  141.2478  160.5005 C   0  0  0  0  0  0  0  0  0  0  0  0
  152.9409  142.3889  161.2103 C   0  0  0  0  0  0  0  0  0  0  0  0
  153.1270  142.4793  162.7150 C   0  0  0  0  0  0  0  0  0  0  0  0
  152.5178  143.5691  160.5834 N   0  0  0  0  0  0  0  0  0  0  0  0
  152.3657  143.5713  159.3003 C   0  0  0  0  0  0  0  0  0  0  0  0
  151.9290  144.7825  158.5042 C   0  0  0  0  0  0  0  0  0  0  0  0
  152.5984  142.4428  158.5167 N   0  0  0  0  0  0  0  0  0  0  0  0
  152.9979  141.2607  159.0360 C   0  0  0  0  0  0  0  0  0  0  0  0
  153.1947  140.2942  158.3010 O   0  0  0  0  0  0  0  0  0  0  0  0
  155.6485  140.0282  165.5729 N   0  0  0  0  0  0  0  0  0  0  0  0
  155.5795  140.1205  167.0377 C   0  0  0  0  0  0  0  0  0  0  0  0
  154.7131  141.3013  167.5047 C   0  0  0  0  0  0  0  0  0  0  0  0
  155.2231  142.5117  166.9611 O   0  0  0  0  0  0  0  0  0  0  0  0
  155.2557  142.4932  165.5402 C   0  0  0  0  0  0  0  0  0  0  0  0
  156.1191  141.3177  165.0511 C   0  0  0  0  0  0  0  0  0  0  0  0
  152.4637  142.5036  157.5181 H   0  0  0  0  0  0  0  0  0  0  0  0
  159.5486  137.4794  165.9366 H   0  0  0  0  0  0  0  0  0  0  0  0
  158.9416  137.4665  164.2974 H   0  0  0  0  0  0  0  0  0  0  0  0
  158.1119  136.5480  165.5586 H   0  0  0  0  0  0  0  0  0  0  0  0
  157.6933  138.7299  166.7672 H   0  0  0  0  0  0  0  0  0  0  0  0
  158.3644  139.6030  165.4236 H   0  0  0  0  0  0  0  0  0  0  0  0
  156.0962  136.6435  164.9248 H   0  0  0  0  0  0  0  0  0  0  0  0
  154.5879  137.5133  164.9156 H   0  0  0  0  0  0  0  0  0  0  0  0
  155.4898  137.3333  166.4148 H   0  0  0  0  0  0  0  0  0  0  0  0
  157.1992  139.7210  163.2111 H   0  0  0  0  0  0  0  0  0  0  0  0
  156.9974  138.0272  163.0878 H   0  0  0  0  0  0  0  0  0  0  0  0
  154.5146  138.4790  162.9967 H   0  0  0  0  0  0  0  0  0  0  0  0
  153.8065  139.1758  160.3935 H   0  0  0  0  0  0  0  0  0  0  0  0
  152.9204  139.5693  161.8228 H   0  0  0  0  0  0  0  0  0  0  0  0
  154.1536  142.2382  162.9902 H   0  0  0  0  0  0  0  0  0  0  0  0
  152.4563  141.7892  163.2272 H   0  0  0  0  0  0  0  0  0  0  0  0
  152.9137  143.4847  163.0805 H   0  0  0  0  0  0  0  0  0  0  0  0
  150.9548  145.1280  158.8503 H   0  0  0  0  0  0  0  0  0  0  0  0
  151.8538  144.5594  157.4393 H   0  0  0  0  0  0  0  0  0  0  0  0
  152.6464  145.5933  158.6332 H   0  0  0  0  0  0  0  0  0  0  0  0
  155.1577  139.2179  167.4725 H   0  0  0  0  0  0  0  0  0  0  0  0
  156.5791  140.2354  167.4565 H   0  0  0  0  0  0  0  0  0  0  0  0
  153.6756  141.1643  167.1990 H   0  0  0  0  0  0  0  0  0  0  0  0
  154.7195  141.3686  168.5925 H   0  0  0  0  0  0  0  0  0  0  0  0
  154.2414  142.4142  165.1476 H   0  0  0  0  0  0  0  0  0  0  0  0
  155.6637  143.4380  165.1817 H   0  0  0  0  0  0  0  0  0  0  0  0
  157.1537  141.4895  165.3485 H   0  0  0  0  0  0  0  0  0  0  0  0
  156.0930  141.3351  163.9636 H   0  0  0  0  0  0  0  0  0  0  0  0
  1  2  1  0  0  0  0
  1 26  1  0  0  0  0
  1 27  1  0  0  0  0
  1 28  1  0  0  0  0
  2  3  1  0  0  0  0
  2 29  1  0  0  0  0
  2 30  1  0  0  0  0
  3  4  1  0  0  0  0
  3  5  1  0  0  0  0
  3 19  1  0  0  0  0
  4 31  1  0  0  0  0
  4 32  1  0  0  0  0
  4 33  1  0  0  0  0
  5  6  1  0  0  0  0
  5 34  1  0  0  0  0
  5 35  1  0  0  0  0
  6  7  1  0  0  0  0
  6 36  1  0  0  0  0
  7  8  2  0  0  0  0
  7  9  1  0  0  0  0
  9 10  1  0  0  0  0
  9 37  1  0  0  0  0
  9 38  1  0  0  0  0
 10 17  1  0  0  0  0
 10 11  2  0  0  0  0
 11 12  1  0  0  0  0
 11 13  1  0  0  0  0
 12 39  1  0  0  0  0
 12 40  1  0  0  0  0
 12 41  1  0  0  0  0
 13 14  2  0  0  0  0
 14 15  1  0  0  0  0
 14 16  1  0  0  0  0
 15 42  1  0  0  0  0
 15 43  1  0  0  0  0
 15 44  1  0  0  0  0
 16 25  1  0  0  0  0
 16 17  1  0  0  0  0
 17 18  2  0  0  0  0
 19 24  1  0  0  0  0
 19 20  1  0  0  0  0
 20 21  1  0  0  0  0
 20 45  1  0  0  0  0
 20 46  1  0  0  0  0
 21 22  1  0  0  0  0
 21 47  1  0  0  0  0
 21 48  1  0  0  0  0
 22 23  1  0  0  0  0
 23 24  1  0  0  0  0
 23 49  1  0  0  0  0
 23 50  1  0  0  0  0
 24 51  1  0  0  0  0
 24 52  1  0  0  0  0
M  END
> <s_m_source_file>
AV-unprocessed.smi

> <i_m_source_file_index>
1492

> <i_lp_mmshare_version>
43012

> <i_f3d_flags>
0

> <s_epik_input>
W0NIMl0xW0NIMl1PW0NIMl1bQ0gyXU4xW0NAQF0oW0NIM10pKFtDSDJdW0NIM10pW0NIMl1bTkhdQyg9TylbQ0gyXWMyYyhbQ0gzXSluYyhbQ0gzXSlbbkhdYzI9Tw==

> <s_epik_cmdline>
J2VwaWtfcHl0aG9uJywgJy1waCcsICc3LjAnLCAnLXRuJywgJzgnLCAnLW1hJywgJzIwMCcsICctbWV0YWxfYmluZGluZycsICctaW1hZScsICc8aW5maWxlLm1hZT4nLCAnLW9tYWUnLCAnPG91dGZpbGUubWFlPic=

> <r_lp_tautomer_probability>
0.839158

> <r_epik_Ionization_Penalty>
0.328652

> <r_epik_Ionization_Penalty_Charging>
0.000364731

> <r_epik_Ionization_Penalty_Neutral>
0.328288

> <r_epik_State_Penalty>
0.414451

> <r_epik_Charging_Adjusted_Penalty>
0.414816

> <i_epik_Tot_Q>
0

> <i_epik_Tot_abs_Q>
0

> <r_epik_Metal_State_Penalty>
0.592978

> <b_epik_Metal_Only>
0

> <s_lp_Force_Field>
OPLS_2005

> <r_lp_Energy>
44.0338

> <b_lp_Chiralities_Consistent>
1

> <s_lp_Variant>
AV-unprocessed.smi:1492-2

> <Gold.Version>
5.8.1

> <Gold.Id.Protein>
6NUR|6NUR_protein|mol2

> <Gold.PLP.Fitness>
42.1325

> <Gold.PLP.PLP>
-40.3056

> <Gold.PLP.part.hbond>
-1.2326

> <Gold.PLP.part.metal>
0.0000

> <Gold.PLP.part.buried>
-2.5316

> <Gold.PLP.part.nonpolar>
-35.3068

> <Gold.PLP.part.repulsive>
0.1166

> <Gold.PLP.ligand.clash>
0.0000

> <Gold.PLP.ligand.torsion>
0.6328

> <Gold.PLP.Chemscore.Hbond>
0.9760

> <Gold.PLP.Chemscore.CHOScore>
0.0000

> <Gold.PLP.Chemscore.Metal>
0.0000

> <Gold.Chemscore.Hbonds>
donor molecule, donor type, donor heavy atom, donor atom, acceptor molecule, acceptor atom, score
      P1  H  7997  8009       L1    18  0.91

> <Gold.PLP.Chemscore.Internal.Correction>
0.1645

> <Gold.Rescore>
     Score         DG    S(hbond)    S(metal)    S(lipo)     H(rot)  DE(clash)    DE(int)     intcor
     11.20     -13.18       0.93        0.00      85.52       2.12       1.34       0.64       ----

> <Gold.Chemscore.Fitness>
11.1977

> <Gold.Chemscore.DG>
-13.1849

> <Gold.Chemscore.ZeroCoef>
-5.4800

> <Gold.Chemscore.Hbond>
0.9324

> <Gold.Chemscore.Metal>
0.0000

> <Gold.Chemscore.Lipo>
85.5235

> <Gold.Chemscore.Internal_Hbond>
0.0000

> <Gold.Chemscore.DEClash>
1.3424

> <Gold.Chemscore.DEInternal>
0.6448

> <Gold.Chemscore.Rot>
2.1155

> <Gold.Chemscore.Internal.Correction>
   9.000000E+99

> <Gold.Chemscore.Hbonds>
donor molecule, donor type, donor heavy atom, donor atom, acceptor molecule, acceptor atom, score
      P1  H  7997  8009       L1    18  0.88

> <Gold.Chemscore.Hbond.Weighted>
-3.1144

> <Gold.Chemscore.Metal.Weighted>
-0.0000

> <Gold.Chemscore.Lipo.Weighted>
-10.0063

> <Gold.Chemscore.Internal_Hbond.Weighted>
0.0000

> <Gold.Chemscore.DEClash.Weighted>
1.3424

> <Gold.Chemscore.DEInternal.Weighted>
0.6448

> <Gold.Chemscore.Rot.Weighted>
5.4157

> <Gold.Chemscore.Internal.Correction.Weighted>
   9.000000E+99

> <Gold.Protein.RotatedTorsions>
[ 6907 6896 6895 6894 ] final -133.87 input  -60.11 | X-H torsion
[ 7974 7965 7964 7962 ] final  179.43 input  175.53 | X-H torsion
[ 8008 7997 7996 7995 ] final  155.67 input   59.86 | X-H torsion
[ 10167 10162 10161 10158 ] final  172.25 input  -65.29 | X-H torsion
[ 10718 10713 10712 10709 ] final -179.15 input   66.30 | X-H torsion
[ 10763 10752 10751 10750 ] final   99.93 input  -60.55 | X-H torsion
[ 11005 11000 10999 10996 ] final  137.05 input  -57.11 | X-H torsion

> <Gold.Protein.ActiveResidues>
 VAL166  LYS551  ARG553  GLY616  TRP617  ASP618  TYR619  PRO620  LYS621  CYS622 
 ASP623  PHE694  ASN695  SER759  ASP760  ASP761  ALA762  ILE779  LEU786  VAL792 
 PHE793  MET794  SER795  GLU796  ALA797  LYS798  CYS799  TRP800  GLU811  SER814 

> <Gold.Protein.RotatedAtoms>
  150.9792  133.6263  159.2725 H   0  0  0  0  0  0  0  0  0  0  0  0  # atno 6907 bound_to 6896
  151.3524  135.0886  159.9417 H   0  0  0  0  0  0  0  0  0  0  0  0  # atno 6908 bound_to 6896
  152.5209  133.9382  159.7668 H   0  0  0  0  0  0  0  0  0  0  0  0  # atno 6909 bound_to 6896
  144.7146  140.0547  143.6434 H   0  0  0  0  0  0  0  0  0  0  0  0  # atno 7974 bound_to 7965
  156.2465  140.1933  156.6837 H   0  0  0  0  0  0  0  0  0  0  0  0  # atno 8008 bound_to 7997
  154.6303  140.0596  156.9750 H   0  0  0  0  0  0  0  0  0  0  0  0  # atno 8009 bound_to 7997
  155.1721  140.3269  155.4393 H   0  0  0  0  0  0  0  0  0  0  0  0  # atno 8010 bound_to 7997
  139.5071  144.3395  152.0032 H   0  0  0  0  0  0  0  0  0  0  0  0  # atno 10167 bound_to 10162
  156.8549  130.9731  151.3089 H   0  0  0  0  0  0  0  0  0  0  0  0  # atno 10718 bound_to 10713
  153.3076  135.4096  155.1308 H   0  0  0  0  0  0  0  0  0  0  0  0  # atno 10763 bound_to 10752
  154.8567  135.3556  154.5767 H   0  0  0  0  0  0  0  0  0  0  0  0  # atno 10764 bound_to 10752
  153.6194  135.7065  153.5375 H   0  0  0  0  0  0  0  0  0  0  0  0  # atno 10765 bound_to 10752
  140.0088  134.9448  157.0232 H   0  0  0  0  0  0  0  0  0  0  0  0  # atno 11005 bound_to 11000
  145.9915  139.3018  143.0982 LP  0  0  0  0  0  0  0  0  0  0  0  0  # atno 17320 bound_to 7965
  145.8898  140.9311  143.0558 LP  0  0  0  0  0  0  0  0  0  0  0  0  # atno 17321 bound_to 7965
  140.2833  144.3835  150.6112 LP  0  0  0  0  0  0  0  0  0  0  0  0  # atno 17342 bound_to 10162
  140.6002  143.2167  151.7087 LP  0  0  0  0  0  0  0  0  0  0  0  0  # atno 17343 bound_to 10162
  157.6283  130.8709  149.9228 LP  0  0  0  0  0  0  0  0  0  0  0  0  # atno 17370 bound_to 10713
  156.0808  130.3673  150.0584 LP  0  0  0  0  0  0  0  0  0  0  0  0  # atno 17371 bound_to 10713
  140.4593  134.1501  155.7189 LP  0  0  0  0  0  0  0  0  0  0  0  0  # atno 17394 bound_to 11000
  141.1696  133.8635  157.1612 LP  0  0  0  0  0  0  0  0  0  0  0  0  # atno 17395 bound_to 11000

$$$$
