AV-unprocessed.smi:3247|AV-procd|sdf|12412|dock4
  -GOLD-   2272018293D 1   1.00000     0.00000
 Structure written by MMmdl.
 35 36  0  0  0  0  0  0  0  0  1 V2000
  153.7218  139.0652  157.5995 O   0  0  0  0  0  0  0  0  0  0  0  0
  152.6010  139.5533  157.4561 C   0  0  0  0  0  0  0  0  0  0  0  0
  151.9840  140.3960  158.5699 C   0  0  0  0  0  0  0  0  0  0  0  0
  151.5146  141.6157  158.0138 O   0  0  0  0  0  0  0  0  0  0  0  0
  152.1644  142.7677  158.5306 C   0  0  0  0  0  0  0  0  0  0  0  0
  151.8206  142.9560  160.0069 C   0  0  0  0  0  0  0  0  0  0  0  0
  152.1135  144.4333  160.2857 C   0  0  0  0  0  0  0  0  0  0  0  0
  151.9624  145.1596  158.9393 C   0  0  0  0  0  0  0  0  0  0  0  0
  151.6857  144.0747  157.8907 C   0  0  0  0  0  0  0  0  0  0  0  0
  151.8530  139.3796  156.3557 N   0  0  0  0  0  0  0  0  0  0  0  0
  152.2487  138.6093  155.1823 C   0  0  0  0  0  0  0  0  0  0  0  0
  151.0449  138.2794  154.2837 C   0  0  0  0  0  0  0  0  0  0  0  0
  150.1239  139.4503  154.1191 C   0  0  0  0  0  0  0  0  0  0  0  0
  148.9087  139.4574  153.4771 C   0  0  0  0  0  0  0  0  0  0  0  0
  148.1606  141.0323  153.5078 S   0  0  0  0  0  0  0  0  0  0  0  0
  149.5511  141.6223  154.4025 C   0  0  0  0  0  0  0  0  0  0  0  0
  150.4813  140.6977  154.6431 N   0  0  0  0  0  0  0  0  0  0  0  0
  151.1634  139.8400  159.0258 H   0  0  0  0  0  0  0  0  0  0  0  0
  152.7311  140.5832  159.3424 H   0  0  0  0  0  0  0  0  0  0  0  0
  153.2475  142.6754  158.4298 H   0  0  0  0  0  0  0  0  0  0  0  0
  150.7587  142.7616  160.1649 H   0  0  0  0  0  0  0  0  0  0  0  0
  152.3806  142.2848  160.6584 H   0  0  0  0  0  0  0  0  0  0  0  0
  151.4483  144.8385  161.0487 H   0  0  0  0  0  0  0  0  0  0  0  0
  153.1353  144.5466  160.6500 H   0  0  0  0  0  0  0  0  0  0  0  0
  151.1559  145.8932  158.9642 H   0  0  0  0  0  0  0  0  0  0  0  0
  152.8825  145.6949  158.7011 H   0  0  0  0  0  0  0  0  0  0  0  0
  152.1757  144.2821  156.9390 H   0  0  0  0  0  0  0  0  0  0  0  0
  150.6123  144.0188  157.7040 H   0  0  0  0  0  0  0  0  0  0  0  0
  150.9456  139.8219  156.3275 H   0  0  0  0  0  0  0  0  0  0  0  0
  152.9776  139.1991  154.6257 H   0  0  0  0  0  0  0  0  0  0  0  0
  152.7584  137.6946  155.4898 H   0  0  0  0  0  0  0  0  0  0  0  0
  151.3959  137.9485  153.3057 H   0  0  0  0  0  0  0  0  0  0  0  0
  150.4976  137.4347  154.7043 H   0  0  0  0  0  0  0  0  0  0  0  0
  148.4107  138.6334  152.9877 H   0  0  0  0  0  0  0  0  0  0  0  0
  149.6816  142.6378  154.7463 H   0  0  0  0  0  0  0  0  0  0  0  0
  1  2  2  0  0  0  0
  2  3  1  0  0  0  0
  2 10  1  0  0  0  0
  3  4  1  0  0  0  0
  3 18  1  0  0  0  0
  3 19  1  0  0  0  0
  4  5  1  0  0  0  0
  5  9  1  0  0  0  0
  5  6  1  0  0  0  0
  5 20  1  0  0  0  0
  6  7  1  0  0  0  0
  6 21  1  0  0  0  0
  6 22  1  0  0  0  0
  7  8  1  0  0  0  0
  7 23  1  0  0  0  0
  7 24  1  0  0  0  0
  8  9  1  0  0  0  0
  8 25  1  0  0  0  0
  8 26  1  0  0  0  0
  9 27  1  0  0  0  0
  9 28  1  0  0  0  0
 10 11  1  0  0  0  0
 10 29  1  0  0  0  0
 11 12  1  0  0  0  0
 11 30  1  0  0  0  0
 11 31  1  0  0  0  0
 12 13  1  0  0  0  0
 12 32  1  0  0  0  0
 12 33  1  0  0  0  0
 13 17  1  0  0  0  0
 13 14  2  0  0  0  0
 14 15  1  0  0  0  0
 14 34  1  0  0  0  0
 15 16  1  0  0  0  0
 16 17  2  0  0  0  0
 16 35  1  0  0  0  0
M  END
> <s_m_source_file>
AV-unprocessed.smi

> <i_m_source_file_index>
3247

> <i_lp_mmshare_version>
43012

> <i_f3d_flags>
0

> <s_epik_input>
W0NIMl0xW0NIMl1bQ0gyXVtDSDJdW0NIXTFPW0NIMl1DKD1PKVtOSF1bQ0gyXVtDSDJdYzJbY0hdc1tjSF1uMg==

> <s_epik_cmdline>
J2VwaWtfcHl0aG9uJywgJy1waCcsICc3LjAnLCAnLXRuJywgJzgnLCAnLW1hJywgJzIwMCcsICctbWV0YWxfYmluZGluZycsICctaW1hZScsICc8aW5maWxlLm1hZT4nLCAnLW9tYWUnLCAnPG91dGZpbGUubWFlPic=

> <r_lp_tautomer_probability>
1

> <r_epik_Ionization_Penalty>
0.00018119

> <r_epik_Ionization_Penalty_Charging>
0

> <r_epik_Ionization_Penalty_Neutral>
0.00018119

> <r_epik_State_Penalty>
-0

> <r_epik_Charging_Adjusted_Penalty>
0

> <i_epik_Tot_Q>
0

> <i_epik_Tot_abs_Q>
0

> <r_epik_Metal_State_Penalty>
-0

> <b_epik_Metal_Only>
0

> <s_lp_Force_Field>
OPLS_2005

> <r_lp_Energy>
17.1434

> <b_lp_Chiralities_Consistent>
1

> <s_lp_Variant>
AV-unprocessed.smi:3247-1

> <Gold.Version>
5.8.1

> <Gold.Id.Protein>
6NUR|6NUR_protein|mol2

> <Gold.PLP.Fitness>
47.9475

> <Gold.PLP.PLP>
-38.2527

> <Gold.PLP.part.hbond>
-1.7449

> <Gold.PLP.part.metal>
0.0000

> <Gold.PLP.part.buried>
-0.9066

> <Gold.PLP.part.nonpolar>
-35.5989

> <Gold.PLP.part.repulsive>
0.1894

> <Gold.PLP.ligand.clash>
0.0000

> <Gold.PLP.ligand.torsion>
0.6830

> <Gold.PLP.Chemscore.Hbond>
1.9420

> <Gold.PLP.Chemscore.CHOScore>
1.7319

> <Gold.PLP.Chemscore.Metal>
0.0000

> <Gold.Chemscore.Hbonds>
donor molecule, donor type, donor heavy atom, donor atom, acceptor molecule, acceptor atom, score
      P1  H  7989  7998       L1    17  0.48
      P1  H  7997  8010       L1     1  0.86
      L1  C    14    34       P1  7948  0.62
      L1  C    16    35       P1  8028  1.00

> <Gold.PLP.Chemscore.Internal.Correction>
0.0391

> <Gold.Rescore>
     Score         DG    S(hbond)    S(metal)    S(lipo)     H(rot)  DE(clash)    DE(int)     intcor
     14.32     -16.92       0.94        0.00     109.84       1.78       0.19       2.40       ----

> <Gold.Chemscore.Fitness>
14.3237

> <Gold.Chemscore.DG>
-16.9161

> <Gold.Chemscore.ZeroCoef>
-5.4800

> <Gold.Chemscore.Hbond>
0.9425

> <Gold.Chemscore.Metal>
0.0000

> <Gold.Chemscore.Lipo>
109.8374

> <Gold.Chemscore.Internal_Hbond>
0.0000

> <Gold.Chemscore.DEClash>
0.1886

> <Gold.Chemscore.DEInternal>
2.4038

> <Gold.Chemscore.Rot>
1.7824

> <Gold.Chemscore.Internal.Correction>
   9.000000E+99

> <Gold.Chemscore.Hbonds>
donor molecule, donor type, donor heavy atom, donor atom, acceptor molecule, acceptor atom, score
      P1  H  7989  7998       L1    17  0.01
      P1  H  7997  8010       L1     1  0.69

> <Gold.Chemscore.Hbond.Weighted>
-3.1479

> <Gold.Chemscore.Metal.Weighted>
-0.0000

> <Gold.Chemscore.Lipo.Weighted>
-12.8510

> <Gold.Chemscore.Internal_Hbond.Weighted>
0.0000

> <Gold.Chemscore.DEClash.Weighted>
0.1886

> <Gold.Chemscore.DEInternal.Weighted>
2.4038

> <Gold.Chemscore.Rot.Weighted>
4.5629

> <Gold.Chemscore.Internal.Correction.Weighted>
   9.000000E+99

> <Gold.Protein.RotatedTorsions>
[ 6907 6896 6895 6894 ] final  -50.59 input  -60.11 | X-H torsion
[ 7974 7965 7964 7962 ] final -107.16 input  175.53 | X-H torsion
[ 8008 7997 7996 7995 ] final   15.67 input   59.86 | X-H torsion
[ 10167 10162 10161 10158 ] final  -97.61 input  -65.29 | X-H torsion
[ 10718 10713 10712 10709 ] final -142.62 input   66.30 | X-H torsion
[ 10763 10752 10751 10750 ] final  166.96 input  -60.55 | X-H torsion
[ 11005 11000 10999 10996 ] final  -85.56 input  -57.11 | X-H torsion

> <Gold.Protein.ActiveResidues>
 VAL166  LYS551  ARG553  GLY616  TRP617  ASP618  TYR619  PRO620  LYS621  CYS622 
 ASP623  PHE694  ASN695  SER759  ASP760  ASP761  ALA762  ILE779  LEU786  VAL792 
 PHE793  MET794  SER795  GLU796  ALA797  LYS798  CYS799  TRP800  GLU811  SER814 

> <Gold.Protein.RotatedAtoms>
  150.8692  134.8062  159.7141 H   0  0  0  0  0  0  0  0  0  0  0  0  # atno 6907 bound_to 6896
  152.4703  134.4974  159.9724 H   0  0  0  0  0  0  0  0  0  0  0  0  # atno 6908 bound_to 6896
  151.5065  133.3455  159.2913 H   0  0  0  0  0  0  0  0  0  0  0  0  # atno 6909 bound_to 6896
  145.2088  140.9087  143.3327 H   0  0  0  0  0  0  0  0  0  0  0  0  # atno 7974 bound_to 7965
  154.8660  140.2951  155.5510 H   0  0  0  0  0  0  0  0  0  0  0  0  # atno 8008 bound_to 7997
  156.3021  140.2469  156.3574 H   0  0  0  0  0  0  0  0  0  0  0  0  # atno 8009 bound_to 7997
  154.8868  140.0396  157.1804 H   0  0  0  0  0  0  0  0  0  0  0  0  # atno 8010 bound_to 7997
  140.2816  143.3278  152.0435 H   0  0  0  0  0  0  0  0  0  0  0  0  # atno 10167 bound_to 10162
  156.3480  130.7673  151.1821 H   0  0  0  0  0  0  0  0  0  0  0  0  # atno 10718 bound_to 10713
  154.3468  135.2753  155.2393 H   0  0  0  0  0  0  0  0  0  0  0  0  # atno 10763 bound_to 10752
  154.4640  135.5900  153.6278 H   0  0  0  0  0  0  0  0  0  0  0  0  # atno 10764 bound_to 10752
  152.9853  135.6072  154.3675 H   0  0  0  0  0  0  0  0  0  0  0  0  # atno 10765 bound_to 10752
  141.1640  133.7406  156.9033 H   0  0  0  0  0  0  0  0  0  0  0  0  # atno 11005 bound_to 11000
  144.9876  139.3721  143.6231 LP  0  0  0  0  0  0  0  0  0  0  0  0  # atno 17320 bound_to 7965
  146.3402  139.9045  142.8789 LP  0  0  0  0  0  0  0  0  0  0  0  0  # atno 17321 bound_to 7965
  139.4961  144.6587  151.6513 LP  0  0  0  0  0  0  0  0  0  0  0  0  # atno 17342 bound_to 10162
  140.5806  143.9952  150.6266 LP  0  0  0  0  0  0  0  0  0  0  0  0  # atno 17343 bound_to 10162
  157.7457  131.0435  150.4749 LP  0  0  0  0  0  0  0  0  0  0  0  0  # atno 17370 bound_to 10713
  156.4940  130.4102  149.6390 LP  0  0  0  0  0  0  0  0  0  0  0  0  # atno 17371 bound_to 10713
  140.1567  134.9193  157.2663 LP  0  0  0  0  0  0  0  0  0  0  0  0  # atno 17394 bound_to 11000
  140.2658  134.3517  155.7390 LP  0  0  0  0  0  0  0  0  0  0  0  0  # atno 17395 bound_to 11000

$$$$
