AV-unprocessed.smi:438|AV-procd|sdf|2573|dock7
  -GOLD-   2262022553D 1   1.00000     0.00000
 Structure written by MMmdl.
 47 48  0  0  0  0  0  0  0  0  2 V2000
  148.3125  133.2366  159.5697 C   0  0  0  0  0  0  0  0  0  0  0  0
  148.3235  134.7526  159.6530 C   0  0  0  0  0  0  0  0  0  0  0  0
  149.4046  135.3919  159.0238 N   0  0  0  0  0  0  0  0  0  0  0  0
  149.4879  136.6673  159.0540 C   0  0  0  0  0  0  0  0  0  0  0  0
  150.8771  137.4886  158.2538 S   0  0  0  0  0  0  0  0  0  0  0  0
  150.5090  139.2582  158.4557 C   0  0  0  0  0  0  0  0  0  0  0  0
  151.7564  140.1325  158.3639 C   0  0  0  0  0  0  0  0  0  0  0  0
  152.5424  139.9946  157.4269 O   0  0  0  0  0  0  0  0  0  0  0  0
  151.9323  141.0182  159.3564 N   0  0  0  0  0  0  0  0  0  0  0  0
  153.0466  141.9570  159.4822 C   0  0  2  0  0  0  0  0  0  0  0  0
  153.7800  141.7604  160.8266 C   0  0  0  0  0  0  0  0  0  0  0  0
  152.9282  142.2152  162.0243 C   0  0  0  0  0  0  0  0  0  0  0  0
  152.4612  143.6687  161.8551 C   0  0  0  0  0  0  0  0  0  0  0  0
  151.7098  143.8646  160.5287 C   0  0  0  0  0  0  0  0  0  0  0  0
  152.5611  143.4191  159.3213 C   0  0  2  0  0  0  0  0  0  0  0  0
  151.8243  143.6598  157.9920 C   0  0  0  0  0  0  0  0  0  0  0  0
  148.5685  137.4814  159.6741 N   0  5  0  0  0  0  0  0  0  0  0  0
  147.4910  136.9372  160.3087 C   0  0  0  0  0  0  0  0  0  0  0  0
  146.6487  137.6293  160.8793 O   0  0  0  0  0  0  0  0  0  0  0  0
  147.3600  135.4694  160.2988 C   0  0  0  0  0  0  0  0  0  0  0  0
  146.1560  134.8318  160.9881 C   0  0  0  0  0  0  0  0  0  0  0  0
  146.5499  134.0944  162.2761 C   0  0  0  0  0  0  0  0  0  0  0  0
  145.3921  133.6308  162.9366 O   0  0  0  0  0  0  0  0  0  0  0  0
  148.2073  132.7976  160.5621 H   0  0  0  0  0  0  0  0  0  0  0  0
  149.2379  132.8584  159.1334 H   0  0  0  0  0  0  0  0  0  0  0  0
  147.4845  132.8967  158.9478 H   0  0  0  0  0  0  0  0  0  0  0  0
  150.0174  139.4143  159.4168 H   0  0  0  0  0  0  0  0  0  0  0  0
  149.8106  139.5736  157.6798 H   0  0  0  0  0  0  0  0  0  0  0  0
  151.2293  141.0532  160.0807 H   0  0  0  0  0  0  0  0  0  0  0  0
  153.7549  141.7536  158.6768 H   0  0  0  0  0  0  0  0  0  0  0  0
  154.0735  140.7176  160.9524 H   0  0  0  0  0  0  0  0  0  0  0  0
  154.7079  142.3335  160.8131 H   0  0  0  0  0  0  0  0  0  0  0  0
  152.0612  141.5617  162.1301 H   0  0  0  0  0  0  0  0  0  0  0  0
  153.5019  142.1154  162.9461 H   0  0  0  0  0  0  0  0  0  0  0  0
  151.8202  143.9522  162.6903 H   0  0  0  0  0  0  0  0  0  0  0  0
  153.3238  144.3355  161.8876 H   0  0  0  0  0  0  0  0  0  0  0  0
  150.7748  143.3034  160.5535 H   0  0  0  0  0  0  0  0  0  0  0  0
  151.4329  144.9139  160.4211 H   0  0  0  0  0  0  0  0  0  0  0  0
  153.4504  144.0510  159.3051 H   0  0  0  0  0  0  0  0  0  0  0  0
  150.8858  143.1068  157.9428 H   0  0  0  0  0  0  0  0  0  0  0  0
  152.4365  143.3527  157.1436 H   0  0  0  0  0  0  0  0  0  0  0  0
  151.5890  144.7165  157.8620 H   0  0  0  0  0  0  0  0  0  0  0  0
  145.6616  134.1388  160.3080 H   0  0  0  0  0  0  0  0  0  0  0  0
  145.4102  135.5982  161.2046 H   0  0  0  0  0  0  0  0  0  0  0  0
  147.1944  133.2440  162.0509 H   0  0  0  0  0  0  0  0  0  0  0  0
  147.1011  134.7529  162.9479 H   0  0  0  0  0  0  0  0  0  0  0  0
  145.0159  134.3498  163.4206 H   0  0  0  0  0  0  0  0  0  0  0  0
  1 24  1  0  0  0  0
  1 25  1  0  0  0  0
  1 26  1  0  0  0  0
  1  2  1  0  0  0  0
  2 20  2  0  0  0  0
  2  3  1  0  0  0  0
  3  4  2  0  0  0  0
  4  5  1  0  0  0  0
  4 17  1  0  0  0  0
  5  6  1  0  0  0  0
  6  7  1  0  0  0  0
  6 27  1  0  0  0  0
  6 28  1  0  0  0  0
  7  8  2  0  0  0  0
  7  9  1  0  0  0  0
  9 10  1  0  0  0  0
  9 29  1  0  0  0  0
 10 15  1  0  0  0  0
 10 11  1  0  0  0  0
 10 30  1  0  0  0  0
 11 12  1  0  0  0  0
 11 31  1  0  0  0  0
 11 32  1  0  0  0  0
 12 13  1  0  0  0  0
 12 33  1  0  0  0  0
 12 34  1  0  0  0  0
 13 14  1  0  0  0  0
 13 35  1  0  0  0  0
 13 36  1  0  0  0  0
 14 15  1  0  0  0  0
 14 37  1  0  0  0  0
 14 38  1  0  0  0  0
 15 16  1  0  0  0  0
 15 39  1  0  0  0  0
 16 40  1  0  0  0  0
 16 41  1  0  0  0  0
 16 42  1  0  0  0  0
 17 18  1  0  0  0  0
 18 19  2  0  0  0  0
 18 20  1  0  0  0  0
 20 21  1  0  0  0  0
 21 22  1  0  0  0  0
 21 43  1  0  0  0  0
 21 44  1  0  0  0  0
 22 23  1  0  0  0  0
 22 45  1  0  0  0  0
 22 46  1  0  0  0  0
 23 47  1  0  0  0  0
M  CHG  1  17  -1
M  END
> <s_m_source_file>
AV-unprocessed.smi

> <i_m_source_file_index>
438

> <i_lp_mmshare_version>
43012

> <i_f3d_flags>
0

> <s_epik_input>
W09IXVtDSDJdW0NIMl1jMWMoW09IXSluYyhuYzFbQ0gzXSlTW0NIMl1DKD1PKVtOSF1bQ0BASF0yW0NIMl1bQ0gyXVtDSDJdW0NIMl1bQ0BIXTJbQ0gzXQ==

> <s_epik_cmdline>
J2VwaWtfcHl0aG9uJywgJy1waCcsICc3LjAnLCAnLXRuJywgJzgnLCAnLW1hJywgJzIwMCcsICctbWV0YWxfYmluZGluZycsICctaW1hZScsICc8aW5maWxlLm1hZT4nLCAnLW9tYWUnLCAnPG91dGZpbGUubWFlPic=

> <r_lp_tautomer_probability>
1

> <r_epik_Ionization_Penalty>
3.69231

> <r_epik_Ionization_Penalty_Charging>
0.00434774

> <r_epik_Ionization_Penalty_Neutral>
3.68796

> <r_epik_State_Penalty>
2.13826

> <r_epik_Charging_Adjusted_Penalty>
2.14261

> <i_epik_Tot_Q>
-1

> <i_epik_Tot_abs_Q>
1

> <r_epik_Metal_State_Penalty>
0.260979

> <b_epik_Metal_Only>
0

> <s_lp_Force_Field>
OPLS_2005

> <r_lp_Energy>
17.6813

> <b_lp_Chiralities_Consistent>
1

> <s_lp_Variant>
AV-unprocessed.smi:438-11

> <Gold.Version>
5.8.1

> <Gold.Id.Protein>
6NUR|6NUR_protein|mol2

> <Gold.PLP.Fitness>
54.7320

> <Gold.PLP.PLP>
-46.7362

> <Gold.PLP.part.hbond>
-5.7053

> <Gold.PLP.part.metal>
0.0000

> <Gold.PLP.part.buried>
-4.5963

> <Gold.PLP.part.nonpolar>
-37.4588

> <Gold.PLP.part.repulsive>
0.1567

> <Gold.PLP.ligand.clash>
0.0000

> <Gold.PLP.ligand.torsion>
0.3759

> <Gold.PLP.Chemscore.Hbond>
2.9021

> <Gold.PLP.Chemscore.CHOScore>
0.0000

> <Gold.PLP.Chemscore.Metal>
0.0000

> <Gold.Chemscore.Hbonds>
donor molecule, donor type, donor heavy atom, donor atom, acceptor molecule, acceptor atom, score
      P1  H  6896  6908       L1     3  1.00
      P1  H  6931  6943       L1    17  0.01
      P1  H  6934  6947       L1    19  0.89
      P1  H  7997  8008       L1     8  1.00

> <Gold.PLP.Chemscore.Internal.Correction>
0.0413

> <Gold.Rescore>
     Score         DG    S(hbond)    S(metal)    S(lipo)     H(rot)  DE(clash)    DE(int)     intcor
     18.33     -18.69       2.14        0.00     112.89       2.79       0.12       0.24       ----

> <Gold.Chemscore.Fitness>
18.3285

> <Gold.Chemscore.DG>
-18.6876

> <Gold.Chemscore.ZeroCoef>
-5.4800

> <Gold.Chemscore.Hbond>
2.1402

> <Gold.Chemscore.Metal>
0.0000

> <Gold.Chemscore.Lipo>
112.8931

> <Gold.Chemscore.Internal_Hbond>
0.0000

> <Gold.Chemscore.DEClash>
0.1207

> <Gold.Chemscore.DEInternal>
0.2384

> <Gold.Chemscore.Rot>
2.7927

> <Gold.Chemscore.Internal.Correction>
   9.000000E+99

> <Gold.Chemscore.Hbonds>
donor molecule, donor type, donor heavy atom, donor atom, acceptor molecule, acceptor atom, score
      P1  H  6896  6908       L1     3  0.41
      P1  H  6934  6947       L1    19  0.56
      P1  H  7997  8008       L1     8  0.96

> <Gold.Chemscore.Hbond.Weighted>
-7.1484

> <Gold.Chemscore.Metal.Weighted>
-0.0000

> <Gold.Chemscore.Lipo.Weighted>
-13.2085

> <Gold.Chemscore.Internal_Hbond.Weighted>
0.0000

> <Gold.Chemscore.DEClash.Weighted>
0.1207

> <Gold.Chemscore.DEInternal.Weighted>
0.2384

> <Gold.Chemscore.Rot.Weighted>
7.1492

> <Gold.Chemscore.Internal.Correction.Weighted>
   9.000000E+99

> <Gold.Protein.RotatedTorsions>
[ 6907 6896 6895 6894 ] final  170.92 input  -60.11 | X-H torsion
[ 7974 7965 7964 7962 ] final -170.62 input  175.53 | X-H torsion
[ 8008 7997 7996 7995 ] final  -60.93 input   59.86 | X-H torsion
[ 10167 10162 10161 10158 ] final   41.03 input  -65.29 | X-H torsion
[ 10718 10713 10712 10709 ] final  169.15 input   66.30 | X-H torsion
[ 10763 10752 10751 10750 ] final   10.61 input  -60.55 | X-H torsion
[ 11005 11000 10999 10996 ] final  148.48 input  -57.11 | X-H torsion

> <Gold.Protein.ActiveResidues>
 VAL166  LYS551  ARG553  GLY616  TRP617  ASP618  TYR619  PRO620  LYS621  CYS622 
 ASP623  PHE694  ASN695  SER759  ASP760  ASP761  ALA762  ILE779  LEU786  VAL792 
 PHE793  MET794  SER795  GLU796  ALA797  LYS798  CYS799  TRP800  GLU811  SER814 

> <Gold.Protein.RotatedAtoms>
  151.8084  133.3378  159.3547 H   0  0  0  0  0  0  0  0  0  0  0  0  # atno 6907 bound_to 6896
  150.7334  134.5688  159.5889 H   0  0  0  0  0  0  0  0  0  0  0  0  # atno 6908 bound_to 6896
  152.3093  134.7518  160.0391 H   0  0  0  0  0  0  0  0  0  0  0  0  # atno 6909 bound_to 6896
  144.7167  140.2044  143.6334 H   0  0  0  0  0  0  0  0  0  0  0  0  # atno 7974 bound_to 7965
  154.4422  140.1029  156.6350 H   0  0  0  0  0  0  0  0  0  0  0  0  # atno 8008 bound_to 7997
  155.5563  140.3486  155.4462 H   0  0  0  0  0  0  0  0  0  0  0  0  # atno 8009 bound_to 7997
  156.0492  140.1300  157.0058 H   0  0  0  0  0  0  0  0  0  0  0  0  # atno 8010 bound_to 7997
  140.3684  144.2138  150.6134 H   0  0  0  0  0  0  0  0  0  0  0  0  # atno 10167 bound_to 10162
  157.0269  131.0248  151.2757 H   0  0  0  0  0  0  0  0  0  0  0  0  # atno 10718 bound_to 10713
  153.2014  135.6856  153.8227 H   0  0  0  0  0  0  0  0  0  0  0  0  # atno 10763 bound_to 10752
  153.7492  135.3226  155.3319 H   0  0  0  0  0  0  0  0  0  0  0  0  # atno 10764 bound_to 10752
  154.8173  135.4677  154.0781 H   0  0  0  0  0  0  0  0  0  0  0  0  # atno 10765 bound_to 10752
  140.0964  134.9010  157.1729 H   0  0  0  0  0  0  0  0  0  0  0  0  # atno 11005 bound_to 11000
  145.8649  139.2242  143.1695 LP  0  0  0  0  0  0  0  0  0  0  0  0  # atno 17320 bound_to 7965
  146.0139  140.8410  142.9957 LP  0  0  0  0  0  0  0  0  0  0  0  0  # atno 17321 bound_to 7965
  140.5058  143.2304  151.8610 LP  0  0  0  0  0  0  0  0  0  0  0  0  # atno 17342 bound_to 10162
  139.4806  144.5007  151.9064 LP  0  0  0  0  0  0  0  0  0  0  0  0  # atno 17343 bound_to 10162
  157.5207  130.7996  149.7806 LP  0  0  0  0  0  0  0  0  0  0  0  0  # atno 17370 bound_to 10713
  156.0083  130.3845  150.2353 LP  0  0  0  0  0  0  0  0  0  0  0  0  # atno 17371 bound_to 10713
  140.3281  134.2841  155.7233 LP  0  0  0  0  0  0  0  0  0  0  0  0  # atno 17394 bound_to 11000
  141.2093  133.7753  157.0005 LP  0  0  0  0  0  0  0  0  0  0  0  0  # atno 17395 bound_to 11000

$$$$
