AV-unprocessed.smi:1385|AV-procd|sdf|5628|dock5
  -GOLD-   22720 5243D 1   1.00000     0.00000
 Structure written by MMmdl.
 38 39  0  0  0  0  0  0  0  0  1 V2000
  137.7165  137.2632  154.1961 C   0  0  0  0  0  0  0  0  0  0  0  0
  139.2055  137.3090  154.2433 C   0  0  0  0  0  0  0  0  0  0  0  0
  139.9406  136.3683  154.8485 N   0  0  0  0  0  0  0  0  0  0  0  0
  141.3018  136.6232  154.7545 N   0  0  0  0  0  0  0  0  0  0  0  0
  141.5531  137.7523  154.0778 C   0  0  0  0  0  0  0  0  0  0  0  0
  142.8594  138.2507  153.8303 N   0  0  0  0  0  0  0  0  0  0  0  0
  144.0394  137.6927  154.1532 C   0  0  0  0  0  0  0  0  0  0  0  0
  144.1831  136.6191  154.7387 O   0  0  0  0  0  0  0  0  0  0  0  0
  145.0642  138.4613  153.7565 N   0  0  0  0  0  0  0  0  0  0  0  0
  146.4761  138.1475  153.9557 C   0  0  0  0  0  0  0  0  0  0  0  0
  146.7204  137.5780  155.3628 C   0  0  0  0  0  0  0  0  0  0  0  0
  148.2221  137.3727  155.6302 C   0  0  0  0  0  0  0  0  0  0  0  0
  148.9560  138.6366  155.4658 N   0  0  0  0  0  0  0  0  0  0  0  0
  150.3982  138.4984  155.7768 C   0  0  0  0  0  0  0  0  0  0  0  0
  151.1072  137.3532  155.0442 C   0  0  0  0  0  0  0  0  0  0  0  0
  151.2920  137.4948  153.7291 N   0  0  0  0  0  0  0  0  0  0  0  0
  151.4753  136.3536  155.6569 O   0  0  0  0  0  0  0  0  0  0  0  0
  148.8055  139.1349  154.0946 C   0  0  0  0  0  0  0  0  0  0  0  0
  147.3257  139.4134  153.7781 C   0  0  0  0  0  0  0  0  0  0  0  0
  140.1328  138.6040  153.4963 S   0  0  0  0  0  0  0  0  0  0  0  0
  137.3270  136.6334  154.9964 H   0  0  0  0  0  0  0  0  0  0  0  0
  137.3883  136.8578  153.2389 H   0  0  0  0  0  0  0  0  0  0  0  0
  137.3059  138.2665  154.3116 H   0  0  0  0  0  0  0  0  0  0  0  0
  142.8998  139.1385  153.3518 H   0  0  0  0  0  0  0  0  0  0  0  0
  144.8543  139.3281  153.2835 H   0  0  0  0  0  0  0  0  0  0  0  0
  146.7923  137.4139  153.2113 H   0  0  0  0  0  0  0  0  0  0  0  0
  146.3086  138.2526  156.1151 H   0  0  0  0  0  0  0  0  0  0  0  0
  146.1956  136.6291  155.4803 H   0  0  0  0  0  0  0  0  0  0  0  0
  148.3330  136.9853  156.6429 H   0  0  0  0  0  0  0  0  0  0  0  0
  148.6251  136.6139  154.9571 H   0  0  0  0  0  0  0  0  0  0  0  0
  150.9142  139.4342  155.5531 H   0  0  0  0  0  0  0  0  0  0  0  0
  150.5248  138.3238  156.8463 H   0  0  0  0  0  0  0  0  0  0  0  0
  151.7470  136.7615  153.2050 H   0  0  0  0  0  0  0  0  0  0  0  0
  150.9685  138.3304  153.2639 H   0  0  0  0  0  0  0  0  0  0  0  0
  149.3705  140.0601  153.9725 H   0  0  0  0  0  0  0  0  0  0  0  0
  149.2158  138.4172  153.3815 H   0  0  0  0  0  0  0  0  0  0  0  0
  147.2321  139.7863  152.7576 H   0  0  0  0  0  0  0  0  0  0  0  0
  146.9589  140.2061  154.4323 H   0  0  0  0  0  0  0  0  0  0  0  0
  1  2  1  0  0  0  0
  1 21  1  0  0  0  0
  1 22  1  0  0  0  0
  1 23  1  0  0  0  0
  2 20  1  0  0  0  0
  2  3  2  0  0  0  0
  3  4  1  0  0  0  0
  4  5  2  0  0  0  0
  5  6  1  0  0  0  0
  5 20  1  0  0  0  0
  6  7  1  0  0  0  0
  6 24  1  0  0  0  0
  7  8  2  0  0  0  0
  7  9  1  0  0  0  0
  9 10  1  0  0  0  0
  9 25  1  0  0  0  0
 10 19  1  0  0  0  0
 10 11  1  0  0  0  0
 10 26  1  0  0  0  0
 11 12  1  0  0  0  0
 11 27  1  0  0  0  0
 11 28  1  0  0  0  0
 12 13  1  0  0  0  0
 12 29  1  0  0  0  0
 12 30  1  0  0  0  0
 13 14  1  0  0  0  0
 13 18  1  0  0  0  0
 14 15  1  0  0  0  0
 14 31  1  0  0  0  0
 14 32  1  0  0  0  0
 15 16  1  0  0  0  0
 15 17  2  0  0  0  0
 16 33  1  0  0  0  0
 16 34  1  0  0  0  0
 18 19  1  0  0  0  0
 18 35  1  0  0  0  0
 18 36  1  0  0  0  0
 19 37  1  0  0  0  0
 19 38  1  0  0  0  0
M  END
> <s_m_source_file>
AV-unprocessed.smi

> <i_m_source_file_index>
1385

> <i_lp_mmshare_version>
43012

> <i_f3d_flags>
0

> <s_epik_input>
W0NIM11jMW5uYyhzMSlbTkhdQyg9TylbTkhdW0NIXTJbQ0gyXVtDSDJdTihbQ0gyXVtDSDJdMilbQ0gyXUMoPU8pW05IMl0=

> <s_epik_cmdline>
J2VwaWtfcHl0aG9uJywgJy1waCcsICc3LjAnLCAnLXRuJywgJzgnLCAnLW1hJywgJzIwMCcsICctbWV0YWxfYmluZGluZycsICctaW1hZScsICc8aW5maWxlLm1hZT4nLCAnLW9tYWUnLCAnPG91dGZpbGUubWFlPic=

> <r_lp_tautomer_probability>
1

> <r_epik_Ionization_Penalty>
0.159363

> <r_epik_Ionization_Penalty_Charging>
0

> <r_epik_Ionization_Penalty_Neutral>
0.159363

> <r_epik_State_Penalty>
0.146692

> <r_epik_Charging_Adjusted_Penalty>
0.146692

> <i_epik_Tot_Q>
0

> <i_epik_Tot_abs_Q>
0

> <r_epik_Metal_State_Penalty>
0.501772

> <b_epik_Metal_Only>
0

> <s_lp_Force_Field>
OPLS_2005

> <r_lp_Energy>
10.053

> <b_lp_Chiralities_Consistent>
1

> <s_lp_Variant>
AV-unprocessed.smi:1385-1

> <Gold.Version>
5.8.1

> <Gold.Id.Protein>
6NUR|6NUR_protein|mol2

> <Gold.PLP.Fitness>
37.2160

> <Gold.PLP.PLP>
-24.2150

> <Gold.PLP.part.hbond>
-5.7315

> <Gold.PLP.part.metal>
0.0000

> <Gold.PLP.part.buried>
-3.3322

> <Gold.PLP.part.nonpolar>
-15.1408

> <Gold.PLP.part.repulsive>
0.3779

> <Gold.PLP.ligand.clash>
0.0000

> <Gold.PLP.ligand.torsion>
0.3910

> <Gold.PLP.Chemscore.Hbond>
4.5920

> <Gold.PLP.Chemscore.CHOScore>
0.0000

> <Gold.PLP.Chemscore.Metal>
0.0000

> <Gold.Chemscore.Hbonds>
donor molecule, donor type, donor heavy atom, donor atom, acceptor molecule, acceptor atom, score
      L1  H     6    24       P1 10175  1.00
      L1  H     9    25       P1 10175  1.00
      L1  H    16    33       P1  7949  0.56
      P1  H 10752 10765       L1    17  1.00
      P1  H 11000 11005       L1     3  1.00

> <Gold.PLP.Chemscore.Internal.Correction>
0.0071

> <Gold.Rescore>
     Score         DG    S(hbond)    S(metal)    S(lipo)     H(rot)  DE(clash)    DE(int)     intcor
     14.61     -19.23       4.10        0.00      45.13       2.04       0.46       4.17       ----

> <Gold.Chemscore.Fitness>
14.6098

> <Gold.Chemscore.DG>
-19.2324

> <Gold.Chemscore.ZeroCoef>
-5.4800

> <Gold.Chemscore.Hbond>
4.1008

> <Gold.Chemscore.Metal>
0.0000

> <Gold.Chemscore.Lipo>
45.1295

> <Gold.Chemscore.Internal_Hbond>
0.0000

> <Gold.Chemscore.DEClash>
0.4568

> <Gold.Chemscore.DEInternal>
4.1658

> <Gold.Chemscore.Rot>
2.0407

> <Gold.Chemscore.Internal.Correction>
   9.000000E+99

> <Gold.Chemscore.Hbonds>
donor molecule, donor type, donor heavy atom, donor atom, acceptor molecule, acceptor atom, score
      L1  H     6    24       P1 10175  0.99
      L1  H     9    25       P1 10175  0.95
      L1  H    16    33       P1  7949  0.54
      P1  H 10752 10765       L1    17  0.91
      P1  H 11000 11005       L1     3  0.29

> <Gold.Chemscore.Hbond.Weighted>
-13.6966

> <Gold.Chemscore.Metal.Weighted>
-0.0000

> <Gold.Chemscore.Lipo.Weighted>
-5.2802

> <Gold.Chemscore.Internal_Hbond.Weighted>
0.0000

> <Gold.Chemscore.DEClash.Weighted>
0.4568

> <Gold.Chemscore.DEInternal.Weighted>
4.1658

> <Gold.Chemscore.Rot.Weighted>
5.2243

> <Gold.Chemscore.Internal.Correction.Weighted>
   9.000000E+99

> <Gold.Protein.RotatedTorsions>
[ 6907 6896 6895 6894 ] final -118.32 input  -60.11 | X-H torsion
[ 7974 7965 7964 7962 ] final  177.72 input  175.53 | X-H torsion
[ 8008 7997 7996 7995 ] final -101.16 input   59.86 | X-H torsion
[ 10167 10162 10161 10158 ] final   44.93 input  -65.29 | X-H torsion
[ 10718 10713 10712 10709 ] final  -65.66 input   66.30 | X-H torsion
[ 10763 10752 10751 10750 ] final -154.04 input  -60.55 | X-H torsion
[ 11005 11000 10999 10996 ] final   75.60 input  -57.11 | X-H torsion

> <Gold.Protein.ActiveResidues>
 VAL166  LYS551  ARG553  GLY616  TRP617  ASP618  TYR619  PRO620  LYS621  CYS622 
 ASP623  PHE694  ASN695  SER759  ASP760  ASP761  ALA762  ILE779  LEU786  VAL792 
 PHE793  MET794  SER795  GLU796  ALA797  LYS798  CYS799  TRP800  GLU811  SER814 

> <Gold.Protein.RotatedAtoms>
  150.8210  133.8253  159.3138 H   0  0  0  0  0  0  0  0  0  0  0  0  # atno 6907 bound_to 6896
  151.6011  135.1045  160.0070 H   0  0  0  0  0  0  0  0  0  0  0  0  # atno 6908 bound_to 6896
  152.4299  133.7218  159.6594 H   0  0  0  0  0  0  0  0  0  0  0  0  # atno 6909 bound_to 6896
  144.7165  140.0290  143.6439 H   0  0  0  0  0  0  0  0  0  0  0  0  # atno 7974 bound_to 7965
  154.8388  140.0436  157.1527 H   0  0  0  0  0  0  0  0  0  0  0  0  # atno 8008 bound_to 7997
  154.9070  140.3008  155.5266 H   0  0  0  0  0  0  0  0  0  0  0  0  # atno 8009 bound_to 7997
  156.2991  140.2365  156.4105 H   0  0  0  0  0  0  0  0  0  0  0  0  # atno 8010 bound_to 7997
  140.3293  144.2608  150.6170 H   0  0  0  0  0  0  0  0  0  0  0  0  # atno 10167 bound_to 10162
  156.0657  130.4250  150.1596 H   0  0  0  0  0  0  0  0  0  0  0  0  # atno 10718 bound_to 10713
  154.7886  135.3199  154.7829 H   0  0  0  0  0  0  0  0  0  0  0  0  # atno 10763 bound_to 10752
  153.8523  135.6861  153.4795 H   0  0  0  0  0  0  0  0  0  0  0  0  # atno 10764 bound_to 10752
  153.1547  135.4685  154.9627 H   0  0  0  0  0  0  0  0  0  0  0  0  # atno 10765 bound_to 10752
  139.9336  134.7531  156.1291 H   0  0  0  0  0  0  0  0  0  0  0  0  # atno 11005 bound_to 11000
  146.0118  139.3176  143.0866 LP  0  0  0  0  0  0  0  0  0  0  0  0  # atno 17320 bound_to 7965
  145.8673  140.9441  143.0669 LP  0  0  0  0  0  0  0  0  0  0  0  0  # atno 17321 bound_to 7965
  140.5412  143.2223  151.8082 LP  0  0  0  0  0  0  0  0  0  0  0  0  # atno 17342 bound_to 10162
  139.4859  144.4598  151.9554 LP  0  0  0  0  0  0  0  0  0  0  0  0  # atno 17343 bound_to 10162
  156.9656  130.9818  151.3470 LP  0  0  0  0  0  0  0  0  0  0  0  0  # atno 17370 bound_to 10713
  157.5697  130.8302  149.8374 LP  0  0  0  0  0  0  0  0  0  0  0  0  # atno 17371 bound_to 10713
  141.0938  133.6703  156.2600 LP  0  0  0  0  0  0  0  0  0  0  0  0  # atno 17394 bound_to 11000
  140.6135  134.5434  157.5537 LP  0  0  0  0  0  0  0  0  0  0  0  0  # atno 17395 bound_to 11000

$$$$
