#       Name:                AV-unprocessed.smi:2672
#       Creating user name   scv26
#       Creation time:       Fri Mar 27 14:38:01 2020


#       File generated by GOLD software.
#

@<TRIPOS>MOLECULE
AV-unprocessed.smi:2672
    44    44     1
SMALL
NO_CHARGES


@<TRIPOS>ATOM
      1 ****        -5.0136   1.0105  -1.2149 C.3            1 S1                 0.0000
      2 ****        -3.5114   0.8394  -1.0457 C.2            1 S1                 0.0000
      3 ****        -2.7443   1.9258  -0.8329 C.2            1 S1                 0.0000
      4 ****        -1.2964   1.8522  -0.6782 C.2            1 S1                 0.0000
      5 ****        -0.6226   2.8642  -0.4762 O.2            1 S1                 0.0000
      6 ****        -0.7420   0.6069  -0.7933 N.am           1 S1                 0.0000
      7 ****         0.7387   0.5125  -0.7942 C.3            1 S1                 0.0000
      8 ****         1.3613   0.3974   0.6064 C.2            1 S1                 0.0000
      9 ****         0.6591   0.3988   1.6183 O.2            1 S1                 0.0000
     10 ****         2.6983   0.2892   0.6408 N.am           1 S1                 0.0000
     11 ****         3.5077   0.1613   1.8492 C.3            1 S1                 0.0000
     12 ****         4.9241   0.6818   1.5718 C.3            1 S1                 0.0000
     13 ****         3.5257  -1.2972   2.3344 C.3            1 S1                 0.0000
     14 ****        -1.5401  -0.5662  -0.9566 C.2            1 S1                 0.0000
     15 ****        -0.8035  -1.9123  -0.9374 C.3            1 S1                 0.0000
     16 ****        -2.8884  -0.4778  -1.0947 C.2            1 S1                 0.0000
     17 ****        -3.7849  -1.7424  -1.2973 C.2            1 S1                 0.0000
     18 ****        -3.9273  -2.1276  -2.4782 O.co2          1 S1                 0.0000
     19 ****        -4.2732  -2.2403  -0.2594 O.co2          1 S1                -1.0000
     20 ****        -5.3078   2.0601  -1.1904 H              1 S1                 0.0000
     21 ****        -5.5467   0.4946  -0.4159 H              1 S1                 0.0000
     22 ****        -5.3390   0.5962  -2.1697 H              1 S1                 0.0000
     23 ****        -3.2082   2.9002  -0.7864 H              1 S1                 0.0000
     24 ****         1.0892  -0.3095  -1.4174 H              1 S1                 0.0000
     25 ****         1.1783   1.3849  -1.2813 H              1 S1                 0.0000
     26 ****         3.1933   0.2945  -0.2391 H              1 S1                 0.0000
     27 ****         3.0731   0.7837   2.6335 H              1 S1                 0.0000
     28 ****         5.5432   0.6293   2.4679 H              1 S1                 0.0000
     29 ****         4.9039   1.7228   1.2477 H              1 S1                 0.0000
     30 ****         5.4167   0.0988   0.7929 H              1 S1                 0.0000
     31 ****         4.1232  -1.4000   3.2405 H              1 S1                 0.0000
     32 ****         3.9482  -1.9615   1.5798 H              1 S1                 0.0000
     33 ****         2.5203  -1.6517   2.5645 H              1 S1                 0.0000
     34 ****        -1.4371  -2.7204  -0.5746 H              1 S1                 0.0000
     35 ****         0.0572  -1.9223  -0.2715 H              1 S1                 0.0000
     36 ****        -0.4738  -2.1750  -1.9426 H              1 S1                 0.0000
     37 ****        -1.0679   3.7575  -0.4156 LP             1 S1                 0.0000
     38 ****         0.3694   2.7920  -0.3729 LP             1 S1                 0.0000
     39 ****        -0.3347   0.4757   1.5372 LP             1 S1                 0.0000
     40 ****         1.0827   0.3230   2.5210 LP             1 S1                 0.0000
     41 ****        -4.4912  -2.9289  -2.6782 LP             1 S1                 0.0000
     42 ****        -3.4773  -1.6345  -3.2227 LP             1 S1                 0.0000
     43 ****        -4.8588  -3.0486  -0.3203 LP             1 S1                 0.0000
     44 ****        -4.0781  -1.8302   0.6315 LP             1 S1                 0.0000
@<TRIPOS>BOND
    1    1    2 1     
    2    1   20 1     
    3    1   21 1     
    4    1   22 1     
    5    2   16 1     
    6    2    3 2     
    7    3    4 1     
    8    3   23 1     
    9    4    5 2     
   10    4    6 am    
   11    6    7 1     
   12    6   14 1     
   13    7    8 1     
   14    7   24 1     
   15    7   25 1     
   16    8    9 2     
   17    8   10 am    
   18   10   11 1     
   19   10   26 1     
   20   11   12 1     
   21   11   13 1     
   22   11   27 1     
   23   12   28 1     
   24   12   29 1     
   25   12   30 1     
   26   13   31 1     
   27   13   32 1     
   28   13   33 1     
   29   14   15 1     
   30   14   16 2     
   31   15   34 1     
   32   15   35 1     
   33   15   36 1     
   34   16   17 1     
   35   17   18 ar    
   36   17   19 ar    
   37    5   37 1     
   38    5   38 1     
   39    9   39 1     
   40    9   40 1     
   41   18   41 1     
   42   18   42 1     
   43   19   43 1     
   44   19   44 1     
@<TRIPOS>SUBSTRUCTURE
      1 S1             1
@<TRIPOS>SET
LONE_PAIRS      STATIC     ATOMS    <user>   **** ""
8 37 38 39 40 41 42 43 44
DONOR_HYDROGENS      STATIC     ATOMS    <user>   **** ""
1 26
ATOM$BLUE        STATIC     ATOMS    COLORGROUP SYSTEM
8 37 38 39 40 41 42 43 44
ATOM$RED        STATIC     ATOMS    COLORGROUP SYSTEM
1 26
