AV-unprocessed.smi:6|AV-procd|sdf|41|dock7
  -GOLD-   2262015153D 1   1.00000     0.00000
 Structure written by MMmdl.
 36 37  0  0  0  0  0  0  0  0  2 V2000
  152.5164  143.5142  161.1739 C   0  0  0  0  0  0  0  0  0  0  0  0
  152.7279  143.8347  159.6858 C   0  0  0  0  0  0  0  0  0  0  0  0
  152.1491  145.1980  159.2767 C   0  0  0  0  0  0  0  0  0  0  0  0
  152.2319  142.7114  158.7842 C   0  0  0  0  0  0  0  0  0  0  0  0
  152.7070  141.4857  159.0295 N   0  0  0  0  0  0  0  0  0  0  0  0
  152.2696  140.4902  158.2289 C   0  0  0  0  0  0  0  0  0  0  0  0
  151.3559  140.7252  157.1820 C   0  0  0  0  0  0  0  0  0  0  0  0
  150.9217  142.0556  157.0099 C   0  0  0  0  0  0  0  0  0  0  0  0
  150.0069  142.3533  155.9908 N   0  0  0  0  0  0  0  0  0  0  0  0
  149.2845  141.2687  155.3379 C   0  0  0  0  0  0  0  0  0  0  0  0
  147.7740  141.4096  155.4491 C   0  0  0  0  0  0  0  0  0  0  0  0
  147.1049  142.4384  154.8880 C   0  0  0  0  0  0  0  0  0  0  0  0
  145.7078  142.5586  154.9653 N   0  0  0  0  0  0  0  0  0  0  0  0
  145.0739  143.7170  154.3311 C   0  0  0  0  0  0  0  0  0  0  0  0
  144.9724  141.6114  155.6137 C   0  0  0  0  0  0  0  0  0  0  0  0
  143.7487  141.7418  155.6641 O   0  0  0  0  0  0  0  0  0  0  0  0
  145.6236  140.5515  156.1828 N   0  5  0  0  0  0  0  0  0  0  0  0
  146.9784  140.3866  156.1379 C   0  0  0  0  0  0  0  0  0  0  0  0
  147.5390  139.4191  156.6520 O   0  0  0  0  0  0  0  0  0  0  0  0
  151.3656  143.0451  157.8208 N   0  0  0  0  0  0  0  0  0  0  0  0
  153.0049  142.5782  161.4462 H   0  0  0  0  0  0  0  0  0  0  0  0
  151.4569  143.4199  161.4148 H   0  0  0  0  0  0  0  0  0  0  0  0
  152.9308  144.2994  161.8064 H   0  0  0  0  0  0  0  0  0  0  0  0
  153.8076  143.9085  159.5431 H   0  0  0  0  0  0  0  0  0  0  0  0
  152.3819  145.4251  158.2361 H   0  0  0  0  0  0  0  0  0  0  0  0
  152.5615  145.9995  159.8901 H   0  0  0  0  0  0  0  0  0  0  0  0
  151.0645  145.2203  159.3882 H   0  0  0  0  0  0  0  0  0  0  0  0
  152.6499  139.4987  158.4252 H   0  0  0  0  0  0  0  0  0  0  0  0
  151.0088  139.9244  156.5459 H   0  0  0  0  0  0  0  0  0  0  0  0
  149.5490  143.2530  156.0256 H   0  0  0  0  0  0  0  0  0  0  0  0
  149.5540  141.2393  154.2813 H   0  0  0  0  0  0  0  0  0  0  0  0
  149.5899  140.3154  155.7713 H   0  0  0  0  0  0  0  0  0  0  0  0
  147.6010  143.2303  154.3465 H   0  0  0  0  0  0  0  0  0  0  0  0
  144.5217  144.3011  155.0686 H   0  0  0  0  0  0  0  0  0  0  0  0
  144.3735  143.3937  153.5596 H   0  0  0  0  0  0  0  0  0  0  0  0
  145.7953  144.3847  153.8594 H   0  0  0  0  0  0  0  0  0  0  0  0
  1  2  1  0  0  0  0
  1 21  1  0  0  0  0
  1 22  1  0  0  0  0
  1 23  1  0  0  0  0
  2  3  1  0  0  0  0
  2  4  1  0  0  0  0
  2 24  1  0  0  0  0
  3 25  1  0  0  0  0
  3 26  1  0  0  0  0
  3 27  1  0  0  0  0
  4 20  1  0  0  0  0
  4  5  2  0  0  0  0
  5  6  1  0  0  0  0
  6  7  2  0  0  0  0
  6 28  1  0  0  0  0
  7  8  1  0  0  0  0
  7 29  1  0  0  0  0
  8  9  1  0  0  0  0
  8 20  2  0  0  0  0
  9 10  1  0  0  0  0
  9 30  1  0  0  0  0
 10 11  1  0  0  0  0
 10 31  1  0  0  0  0
 10 32  1  0  0  0  0
 11 18  1  0  0  0  0
 11 12  2  0  0  0  0
 12 13  1  0  0  0  0
 12 33  1  0  0  0  0
 13 14  1  0  0  0  0
 13 15  1  0  0  0  0
 14 34  1  0  0  0  0
 14 35  1  0  0  0  0
 14 36  1  0  0  0  0
 15 16  2  0  0  0  0
 15 17  1  0  0  0  0
 17 18  1  0  0  0  0
 18 19  2  0  0  0  0
M  CHG  1  17  -1
M  END
> <s_m_source_file>
AV-unprocessed.smi

> <i_m_source_file_index>
6

> <i_lp_mmshare_version>
43012

> <i_f3d_flags>
0

> <s_epik_input>
W0NIM11bQ0hdKFtDSDNdKWMxbltjSF1bY0hdYyhuMSlbTkhdW0NIMl1jMltjSF1uKFtDSDNdKWMoPU8pW25IXWMyPU8=

> <s_epik_cmdline>
J2VwaWtfcHl0aG9uJywgJy1waCcsICc3LjAnLCAnLXRuJywgJzgnLCAnLW1hJywgJzIwMCcsICctbWV0YWxfYmluZGluZycsICctaW1hZScsICc8aW5maWxlLm1hZT4nLCAnLW9tYWUnLCAnPG91dGZpbGUubWFlPic=

> <r_lp_tautomer_probability>
0.999537

> <r_epik_Ionization_Penalty>
4.10508

> <r_epik_Ionization_Penalty_Charging>
6.01221e-07

> <r_epik_Ionization_Penalty_Neutral>
4.10508

> <r_epik_State_Penalty>
4.24889

> <r_epik_Charging_Adjusted_Penalty>
4.24889

> <i_epik_Tot_Q>
-1

> <i_epik_Tot_abs_Q>
1

> <r_epik_Metal_State_Penalty>
1.04429

> <b_epik_Metal_Only>
1

> <s_lp_Force_Field>
OPLS_2005

> <r_lp_Energy>
13.2658

> <b_lp_Chiralities_Consistent>
1

> <s_lp_Variant>
AV-unprocessed.smi:6-3

> <Gold.Version>
5.8.1

> <Gold.Id.Protein>
6NUR|6NUR_protein|mol2

> <Gold.PLP.Fitness>
41.7122

> <Gold.PLP.PLP>
-36.9560

> <Gold.PLP.part.hbond>
-1.0000

> <Gold.PLP.part.metal>
0.0000

> <Gold.PLP.part.buried>
-4.3194

> <Gold.PLP.part.nonpolar>
-32.5704

> <Gold.PLP.part.repulsive>
0.5544

> <Gold.PLP.ligand.clash>
0.0000

> <Gold.PLP.ligand.torsion>
0.1013

> <Gold.PLP.Chemscore.Hbond>
1.0000

> <Gold.PLP.Chemscore.CHOScore>
0.6267

> <Gold.PLP.Chemscore.Metal>
0.0000

> <Gold.Chemscore.Hbonds>
donor molecule, donor type, donor heavy atom, donor atom, acceptor molecule, acceptor atom, score
      L1  H     9    30       P1  8028  1.00
      L1  C    12    33       P1  8028  0.73

> <Gold.PLP.Chemscore.Internal.Correction>
0.0786

> <Gold.Rescore>
     Score         DG    S(hbond)    S(metal)    S(lipo)     H(rot)  DE(clash)    DE(int)     intcor
     13.26     -13.42       1.00        0.00      74.73       1.62       0.03       0.13       ----

> <Gold.Chemscore.Fitness>
13.2591

> <Gold.Chemscore.DG>
-13.4176

> <Gold.Chemscore.ZeroCoef>
-5.4800

> <Gold.Chemscore.Hbond>
1.0000

> <Gold.Chemscore.Metal>
0.0000

> <Gold.Chemscore.Lipo>
74.7347

> <Gold.Chemscore.Internal_Hbond>
0.0000

> <Gold.Chemscore.DEClash>
0.0288

> <Gold.Chemscore.DEInternal>
0.1297

> <Gold.Chemscore.Rot>
1.6196

> <Gold.Chemscore.Internal.Correction>
   9.000000E+99

> <Gold.Chemscore.Hbonds>
donor molecule, donor type, donor heavy atom, donor atom, acceptor molecule, acceptor atom, score
      L1  H     9    30       P1  8028  1.00

> <Gold.Chemscore.Hbond.Weighted>
-3.3399

> <Gold.Chemscore.Metal.Weighted>
-0.0000

> <Gold.Chemscore.Lipo.Weighted>
-8.7440

> <Gold.Chemscore.Internal_Hbond.Weighted>
0.0000

> <Gold.Chemscore.DEClash.Weighted>
0.0288

> <Gold.Chemscore.DEInternal.Weighted>
0.1297

> <Gold.Chemscore.Rot.Weighted>
4.1463

> <Gold.Chemscore.Internal.Correction.Weighted>
   9.000000E+99

> <Gold.Protein.RotatedTorsions>
[ 6907 6896 6895 6894 ] final -132.16 input  -60.11 | X-H torsion
[ 7974 7965 7964 7962 ] final    0.23 input  175.53 | X-H torsion
[ 8008 7997 7996 7995 ] final  -44.35 input   59.86 | X-H torsion
[ 10167 10162 10161 10158 ] final  157.68 input  -65.29 | X-H torsion
[ 10718 10713 10712 10709 ] final  -35.98 input   66.30 | X-H torsion
[ 10763 10752 10751 10750 ] final -114.46 input  -60.55 | X-H torsion
[ 11005 11000 10999 10996 ] final -109.88 input  -57.11 | X-H torsion

> <Gold.Protein.ActiveResidues>
 VAL166  LYS551  ARG553  GLY616  TRP617  ASP618  TYR619  PRO620  LYS621  CYS622 
 ASP623  PHE694  ASN695  SER759  ASP760  ASP761  ALA762  ILE779  LEU786  VAL792 
 PHE793  MET794  SER795  GLU796  ALA797  LYS798  CYS799  TRP800  GLU811  SER814 

> <Gold.Protein.RotatedAtoms>
  150.9592  133.6464  159.2757 H   0  0  0  0  0  0  0  0  0  0  0  0  # atno 6907 bound_to 6896
  151.3793  135.0935  159.9500 H   0  0  0  0  0  0  0  0  0  0  0  0  # atno 6908 bound_to 6896
  152.5141  133.9130  159.7552 H   0  0  0  0  0  0  0  0  0  0  0  0  # atno 6909 bound_to 6896
  146.2433  140.1169  142.8342 H   0  0  0  0  0  0  0  0  0  0  0  0  # atno 7974 bound_to 7965
  154.3997  140.1424  156.3668 H   0  0  0  0  0  0  0  0  0  0  0  0  # atno 8008 bound_to 7997
  155.8130  140.3472  155.5448 H   0  0  0  0  0  0  0  0  0  0  0  0  # atno 8009 bound_to 7997
  155.8367  140.0920  157.1750 H   0  0  0  0  0  0  0  0  0  0  0  0  # atno 8010 bound_to 7997
  139.4824  144.4895  151.8329 H   0  0  0  0  0  0  0  0  0  0  0  0  # atno 10167 bound_to 10162
  156.3323  130.4281  149.7862 H   0  0  0  0  0  0  0  0  0  0  0  0  # atno 10718 bound_to 10713
  154.8441  135.4417  154.1509 H   0  0  0  0  0  0  0  0  0  0  0  0  # atno 10763 bound_to 10752
  153.2670  135.6941  153.7526 H   0  0  0  0  0  0  0  0  0  0  0  0  # atno 10764 bound_to 10752
  153.6781  135.3407  155.3146 H   0  0  0  0  0  0  0  0  0  0  0  0  # atno 10765 bound_to 10752
  141.0823  133.9199  157.2262 H   0  0  0  0  0  0  0  0  0  0  0  0  # atno 11005 bound_to 11000
  145.0439  140.8967  143.5036 LP  0  0  0  0  0  0  0  0  0  0  0  0  # atno 17320 bound_to 7965
  145.1254  139.2666  143.5566 LP  0  0  0  0  0  0  0  0  0  0  0  0  # atno 17321 bound_to 7965
  140.4378  144.2028  150.5890 LP  0  0  0  0  0  0  0  0  0  0  0  0  # atno 17342 bound_to 10162
  140.4714  143.2411  151.9083 LP  0  0  0  0  0  0  0  0  0  0  0  0  # atno 17343 bound_to 10162
  156.5129  130.8180  151.3175 LP  0  0  0  0  0  0  0  0  0  0  0  0  # atno 17370 bound_to 10713
  157.7432  130.9908  150.2578 LP  0  0  0  0  0  0  0  0  0  0  0  0  # atno 17371 bound_to 10713
  139.9638  135.0147  156.9332 LP  0  0  0  0  0  0  0  0  0  0  0  0  # atno 17394 bound_to 11000
  140.5441  134.0691  155.7350 LP  0  0  0  0  0  0  0  0  0  0  0  0  # atno 17395 bound_to 11000

$$$$
