#       Name:                AV-unprocessed.smi:2217
#       Creating user name   scv26
#       Creation time:       Fri Mar 27 12:19:00 2020


#       File generated by GOLD software.
#

@<TRIPOS>MOLECULE
AV-unprocessed.smi:2217
    50    53     1
SMALL
NO_CHARGES


@<TRIPOS>ATOM
      1 ****         1.2670  -7.9681   2.2611 C.3            1 S1                 0.0000
      2 ****         1.0690  -6.5728   1.7072 C.ar           1 S1                 0.0000
      3 ****        -0.2198  -6.0553   1.4784 C.ar           1 S1                 0.0000
      4 ****        -0.3453  -4.7538   0.9561 C.ar           1 S1                 0.0000
      5 ****         0.8150  -3.9978   0.6742 C.ar           1 S1                 0.0000
      6 ****         0.5586  -2.7014   0.1372 N.am           1 S1                 0.0000
      7 ****         1.3921  -1.6991  -0.2146 C.2            1 S1                 0.0000
      8 ****         2.6105  -1.8140  -0.0934 O.2            1 S1                 0.0000
      9 ****         0.8132  -0.5890  -0.6964 N.am           1 S1                 0.0000
     10 ****         1.5168   0.6331  -1.0620 C.3            1 S1                 0.0000
     11 ****         0.5810   1.6902  -1.6469 C.3            1 S1                 0.0000
     12 ****         0.4142   2.2990  -2.9932 C.3            1 S1                 0.0000
     13 ****         0.3565   3.7855  -2.5533 C.3            1 S1                 0.0000
     14 ****         0.7335   3.8005  -1.1553 O.3            1 S1                 0.0000
     15 ****         1.5574   2.6608  -1.0136 C.3            1 S1                 0.0000
     16 ****         1.6964   1.6415   0.1363 C.3            1 S1                 0.0000
     17 ****         3.0440   1.6026   0.8707 C.3            1 S1                 0.0000
     18 ****         2.7802   1.6919   2.3754 C.3            1 S1                 0.0000
     19 ****         1.3491   1.2030   2.5439 C.3            1 S1                 0.0000
     20 ****         0.6535   1.6818   1.2737 C.3            1 S1                 0.0000
     21 ****         2.0526  -4.5091   0.8980 N.ar           1 S1                 0.0000
     22 ****         2.1735  -5.7561   1.3995 C.ar           1 S1                 0.0000
     23 ****         0.3406  -8.3611   2.6811 H              1 S1                 0.0000
     24 ****         2.0215  -7.9633   3.0484 H              1 S1                 0.0000
     25 ****         1.5991  -8.6420   1.4712 H              1 S1                 0.0000
     26 ****        -1.0998  -6.6427   1.6963 H              1 S1                 0.0000
     27 ****        -1.3279  -4.3433   0.7735 H              1 S1                 0.0000
     28 ****        -0.4150  -2.5195  -0.0589 H              1 S1                 0.0000
     29 ****        -0.1945  -0.5769  -0.7695 H              1 S1                 0.0000
     30 ****         2.4195   0.4720  -1.6591 H              1 S1                 0.0000
     31 ****        -0.3849   1.6723  -1.1325 H              1 S1                 0.0000
     32 ****         1.2685   2.0968  -3.6408 H              1 S1                 0.0000
     33 ****        -0.4985   1.9743  -3.4935 H              1 S1                 0.0000
     34 ****         1.0484   4.3910  -3.1401 H              1 S1                 0.0000
     35 ****        -0.6428   4.2064  -2.6669 H              1 S1                 0.0000
     36 ****         2.4908   2.7853  -1.5750 H              1 S1                 0.0000
     37 ****         3.5627   0.6689   0.6525 H              1 S1                 0.0000
     38 ****         3.7087   2.4059   0.5508 H              1 S1                 0.0000
     39 ****         3.4944   1.1151   2.9636 H              1 S1                 0.0000
     40 ****         2.8480   2.7322   2.6966 H              1 S1                 0.0000
     41 ****         1.3350   0.1128   2.5814 H              1 S1                 0.0000
     42 ****         0.8767   1.5769   3.4526 H              1 S1                 0.0000
     43 ****         0.3092   2.7060   1.4213 H              1 S1                 0.0000
     44 ****        -0.2353   1.0826   1.0759 H              1 S1                 0.0000
     45 ****         3.1816  -6.1108   1.5568 H              1 S1                 0.0000
     46 ****         2.9991  -2.6603   0.2709 LP             1 S1                 0.0000
     47 ****         3.2126  -1.0611  -0.3591 LP             1 S1                 0.0000
     48 ****        -0.0733   3.7316  -0.5684 LP             1 S1                 0.0000
     49 ****         1.2381   4.6344  -0.9317 LP             1 S1                 0.0000
     50 ****         2.8672  -3.9666   0.6932 LP             1 S1                 0.0000
@<TRIPOS>BOND
    1    1    2 1     
    2    1   23 1     
    3    1   24 1     
    4    1   25 1     
    5    2   22 ar    
    6    2    3 ar    
    7    3    4 ar    
    8    3   26 1     
    9    4    5 ar    
   10    4   27 1     
   11    5    6 1     
   12    5   21 ar    
   13    6    7 am    
   14    6   28 1     
   15    7    8 2     
   16    7    9 am    
   17    9   10 1     
   18    9   29 1     
   19   10   16 1     
   20   10   11 1     
   21   10   30 1     
   22   11   15 1     
   23   11   12 1     
   24   11   31 1     
   25   12   13 1     
   26   12   32 1     
   27   12   33 1     
   28   13   14 1     
   29   13   34 1     
   30   13   35 1     
   31   14   15 1     
   32   15   16 1     
   33   15   36 1     
   34   16   20 1     
   35   16   17 1     
   36   17   18 1     
   37   17   37 1     
   38   17   38 1     
   39   18   19 1     
   40   18   39 1     
   41   18   40 1     
   42   19   20 1     
   43   19   41 1     
   44   19   42 1     
   45   20   43 1     
   46   20   44 1     
   47   21   22 ar    
   48   22   45 1     
   49    8   46 1     
   50    8   47 1     
   51   14   48 1     
   52   14   49 1     
   53   21   50 1     
@<TRIPOS>SUBSTRUCTURE
      1 S1             1
@<TRIPOS>SET
LONE_PAIRS      STATIC     ATOMS    <user>   **** ""
5 46 47 48 49 50
DONOR_HYDROGENS      STATIC     ATOMS    <user>   **** ""
2 28 29
ATOM$BLUE        STATIC     ATOMS    COLORGROUP SYSTEM
5 46 47 48 49 50
ATOM$RED        STATIC     ATOMS    COLORGROUP SYSTEM
2 28 29
