#       Name:                AV-unprocessed.smi:1830
#       Creating user name   scv26
#       Creation time:       Fri Mar 27 09:14:30 2020


#       File generated by GOLD software.
#

@<TRIPOS>MOLECULE
AV-unprocessed.smi:1830
    59    62     1
SMALL
NO_CHARGES


@<TRIPOS>ATOM
      1 ****         0.4300   0.8288  -1.7359 O.2            1 S1                 0.0000
      2 ****        -0.2701  -0.1628  -1.5326 C.2            1 S1                 0.0000
      3 ****         0.2182  -1.3790  -1.2537 N.am           1 S1                 0.0000
      4 ****         1.6315  -1.7037  -1.0923 C.3            1 S1                 0.0000
      5 ****         2.0261  -1.7504   0.3986 C.3            1 S1                 0.0000
      6 ****         3.4700  -2.2597   0.6223 C.3            1 S1                 0.0000
      7 ****         4.4364  -1.2304   0.2897 N.3            1 S1                 0.0000
      8 ****         5.8251  -1.5380   0.5413 C.3            1 S1                 0.0000
      9 ****         6.5315  -0.1724   0.4954 C.3            1 S1                 0.0000
     10 ****         5.4017   0.8529   0.7359 C.3            1 S1                 0.0000
     11 ****         4.1970  -0.0359   1.0520 C.3            1 S1                 0.0000
     12 ****         2.8048   0.5297   0.7469 C.3            1 S1                 0.0000
     13 ****         1.8321  -0.4790   1.0402 O.3            1 S1                 0.0000
     14 ****        -1.6127  -0.1665  -1.5359 N.am           1 S1                 0.0000
     15 ****        -2.4747   0.9527  -1.7023 C.ar           1 S1                 0.0000
     16 ****        -2.1753   1.9856  -2.6262 C.ar           1 S1                 0.0000
     17 ****        -3.0756   3.0549  -2.7954 C.ar           1 S1                 0.0000
     18 ****        -4.2654   3.0690  -2.0460 C.ar           1 S1                 0.0000
     19 ****        -4.5261   2.0637  -1.1843 N.pl3          1 S1                 1.0000
     20 ****        -3.6978   1.0095  -0.9795 C.ar           1 S1                 0.0000
     21 ****        -4.0607   0.0283  -0.0312 N.3            1 S1                 0.0000
     22 ****        -3.2078  -0.0081   1.1550 C.3            1 S1                 0.0000
     23 ****        -4.1250  -0.3110   2.3423 C.3            1 S1                 0.0000
     24 ****        -5.4797   0.2090   1.8779 C.3            1 S1                 0.0000
     25 ****        -5.4563  -0.1053   0.3839 C.3            1 S1                 0.0000
     26 ****        -0.4364  -2.1330  -1.1064 H              1 S1                 0.0000
     27 ****         1.7924  -2.6847  -1.5398 H              1 S1                 0.0000
     28 ****         2.2652  -1.0135  -1.6510 H              1 S1                 0.0000
     29 ****         1.3515  -2.4523   0.8899 H              1 S1                 0.0000
     30 ****         3.5898  -2.5473   1.6679 H              1 S1                 0.0000
     31 ****         3.6556  -3.1562   0.0298 H              1 S1                 0.0000
     32 ****         5.9392  -1.9806   1.5322 H              1 S1                 0.0000
     33 ****         6.2211  -2.2415  -0.1916 H              1 S1                 0.0000
     34 ****         7.3120  -0.1080   1.2541 H              1 S1                 0.0000
     35 ****         6.9946  -0.0045  -0.4776 H              1 S1                 0.0000
     36 ****         5.6267   1.5449   1.5478 H              1 S1                 0.0000
     37 ****         5.2254   1.4360  -0.1691 H              1 S1                 0.0000
     38 ****         4.2366  -0.2819   2.1153 H              1 S1                 0.0000
     39 ****         2.6034   1.4090   1.3584 H              1 S1                 0.0000
     40 ****         2.7312   0.8406  -0.2952 H              1 S1                 0.0000
     41 ****        -2.0588  -1.0288  -1.2590 H              1 S1                 0.0000
     42 ****        -1.2731   1.9638  -3.2191 H              1 S1                 0.0000
     43 ****        -2.8587   3.8489  -3.4950 H              1 S1                 0.0000
     44 ****        -5.0128   3.8465  -2.1106 H              1 S1                 0.0000
     45 ****        -2.4287  -0.7645   1.0577 H              1 S1                 0.0000
     46 ****        -2.7199   0.9576   1.2977 H              1 S1                 0.0000
     47 ****        -4.1808  -1.3887   2.5016 H              1 S1                 0.0000
     48 ****        -3.7848   0.1495   3.2701 H              1 S1                 0.0000
     49 ****        -6.3181  -0.2560   2.3970 H              1 S1                 0.0000
     50 ****        -5.5383   1.2874   2.0321 H              1 S1                 0.0000
     51 ****        -6.1607   0.5144  -0.1701 H              1 S1                 0.0000
     52 ****        -5.7525  -1.1417   0.2198 H              1 S1                 0.0000
     53 ****        -5.3958   2.1023  -0.6526 H              1 S1                 0.0000
     54 ****         1.4264   0.7538  -1.6975 LP             1 S1                 0.0000
     55 ****         0.0024   1.7096  -1.9395 LP             1 S1                 0.0000
     56 ****         4.3006  -1.1339  -0.6963 LP             1 S1                 0.0000
     57 ****         1.8385  -0.6314   2.0285 LP             1 S1                 0.0000
     58 ****         0.9369  -0.1301   0.7626 LP             1 S1                 0.0000
     59 ****        -3.9040  -0.7684  -0.6149 LP             1 S1                 0.0000
@<TRIPOS>BOND
    1    1    2 2     
    2    2    3 am    
    3    2   14 am    
    4    3    4 1     
    5    3   26 1     
    6    4    5 1     
    7    4   27 1     
    8    4   28 1     
    9    5   13 1     
   10    5    6 1     
   11    5   29 1     
   12    6    7 1     
   13    6   30 1     
   14    6   31 1     
   15    7   11 1     
   16    7    8 1     
   17    8    9 1     
   18    8   32 1     
   19    8   33 1     
   20    9   10 1     
   21    9   34 1     
   22    9   35 1     
   23   10   11 1     
   24   10   36 1     
   25   10   37 1     
   26   11   12 1     
   27   11   38 1     
   28   12   13 1     
   29   12   39 1     
   30   12   40 1     
   31   14   15 1     
   32   14   41 1     
   33   15   20 ar    
   34   15   16 ar    
   35   16   17 ar    
   36   16   42 1     
   37   17   18 ar    
   38   17   43 1     
   39   18   19 ar    
   40   18   44 1     
   41   19   20 ar    
   42   19   53 1     
   43   20   21 1     
   44   21   25 1     
   45   21   22 1     
   46   22   23 1     
   47   22   45 1     
   48   22   46 1     
   49   23   24 1     
   50   23   47 1     
   51   23   48 1     
   52   24   25 1     
   53   24   49 1     
   54   24   50 1     
   55   25   51 1     
   56   25   52 1     
   57    1   54 1     
   58    1   55 1     
   59    7   56 1     
   60   13   57 1     
   61   13   58 1     
   62   21   59 1     
@<TRIPOS>SUBSTRUCTURE
      1 S1             1
@<TRIPOS>SET
LONE_PAIRS      STATIC     ATOMS    <user>   **** ""
6 54 55 56 57 58 59
DONOR_HYDROGENS      STATIC     ATOMS    <user>   **** ""
3 26 41 53
ATOM$BLUE        STATIC     ATOMS    COLORGROUP SYSTEM
6 54 55 56 57 58 59
ATOM$RED        STATIC     ATOMS    COLORGROUP SYSTEM
3 26 41 53
