AV-unprocessed.smi:703|AV-procd|sdf|3438|dock1
  -GOLD-   22720 0423D 1   1.00000     0.00000
 Structure written by MMmdl.
 37 38  0  0  0  0  0  0  0  0  3 V2000
  146.2470  138.1765  152.5586 C   0  0  0  0  0  0  0  0  0  0  0  0
  147.3897  139.0805  153.0400 C   0  0  0  0  0  0  0  0  0  0  0  0
  148.3981  138.3305  153.8255 N   0  3  1  0  0  0  0  0  0  0  0  0
  149.6348  139.0889  154.1076 C   0  0  0  0  0  0  0  0  0  0  0  0
  150.2256  138.4359  155.3601 C   0  0  1  0  0  0  0  0  0  0  0  0
  151.2599  139.3221  156.0814 C   0  0  0  0  0  0  0  0  0  0  0  0
  148.9700  138.0856  156.1750 C   0  0  2  0  0  0  0  0  0  0  0  0
  149.2112  136.9637  157.0679 N   0  5  0  0  0  0  0  0  0  0  0  0
  149.0275  137.1588  158.6679 S   0  0  0  0  0  0  0  0  0  0  0  0
  150.0645  136.4622  159.4468 O   0  0  0  0  0  0  0  0  0  0  0  0
  148.7536  138.5609  159.0224 O   0  0  0  0  0  0  0  0  0  0  0  0
  147.4467  136.2471  158.9537 C   0  0  0  0  0  0  0  0  0  0  0  0
  147.2272  136.0093  160.4229 C   0  0  0  0  0  0  0  0  0  0  0  0
  147.0487  134.7727  161.1036 C   0  0  0  0  0  0  0  0  0  0  0  0
  146.8953  135.1451  162.4077 C   0  0  0  0  0  0  0  0  0  0  0  0
  146.9821  136.4937  162.5304 O   0  0  0  0  0  0  0  0  0  0  0  0
  147.1993  137.0363  161.2588 N   0  0  0  0  0  0  0  0  0  0  0  0
  147.9109  137.7613  155.1061 C   0  0  0  0  0  0  0  0  0  0  0  0
  145.5415  138.7401  151.9478 H   0  0  0  0  0  0  0  0  0  0  0  0
  145.6901  137.7513  153.3940 H   0  0  0  0  0  0  0  0  0  0  0  0
  146.6251  137.3523  151.9530 H   0  0  0  0  0  0  0  0  0  0  0  0
  147.8801  139.5182  152.1695 H   0  0  0  0  0  0  0  0  0  0  0  0
  146.9989  139.9100  153.6313 H   0  0  0  0  0  0  0  0  0  0  0  0
  150.3199  139.0468  153.2602 H   0  0  0  0  0  0  0  0  0  0  0  0
  149.4000  140.1424  154.2851 H   0  0  0  0  0  0  0  0  0  0  0  0
  150.7176  137.5114  155.0502 H   0  0  0  0  0  0  0  0  0  0  0  0
  150.8396  140.2794  156.3946 H   0  0  0  0  0  0  0  0  0  0  0  0
  152.1004  139.5395  155.4220 H   0  0  0  0  0  0  0  0  0  0  0  0
  151.6667  138.8299  156.9667 H   0  0  0  0  0  0  0  0  0  0  0  0
  148.6535  138.9813  156.7115 H   0  0  0  0  0  0  0  0  0  0  0  0
  146.6381  136.8547  158.5483 H   0  0  0  0  0  0  0  0  0  0  0  0
  147.4713  135.3167  158.3860 H   0  0  0  0  0  0  0  0  0  0  0  0
  147.0267  133.7728  160.6961 H   0  0  0  0  0  0  0  0  0  0  0  0
  146.7267  134.5952  163.3216 H   0  0  0  0  0  0  0  0  0  0  0  0
  146.9427  138.1700  155.3991 H   0  0  0  0  0  0  0  0  0  0  0  0
  147.7813  136.6872  154.9646 H   0  0  0  0  0  0  0  0  0  0  0  0
  148.6851  137.5403  153.2660 H   0  0  0  0  0  0  0  0  0  0  0  0
  1  2  1  0  0  0  0
  1 19  1  0  0  0  0
  1 20  1  0  0  0  0
  1 21  1  0  0  0  0
  2  3  1  0  0  0  0
  2 22  1  0  0  0  0
  2 23  1  0  0  0  0
  3 18  1  0  0  0  0
  3  4  1  0  0  0  0
  3 37  1  0  0  0  0
  4  5  1  0  0  0  0
  4 24  1  0  0  0  0
  4 25  1  0  0  0  0
  5  6  1  0  0  0  0
  5  7  1  0  0  0  0
  5 26  1  0  0  0  0
  6 27  1  0  0  0  0
  6 28  1  0  0  0  0
  6 29  1  0  0  0  0
  7  8  1  0  0  0  0
  7 18  1  0  0  0  0
  7 30  1  0  0  0  0
  8  9  1  0  0  0  0
  9 10  2  0  0  0  0
  9 11  2  0  0  0  0
  9 12  1  0  0  0  0
 12 13  1  0  0  0  0
 12 31  1  0  0  0  0
 12 32  1  0  0  0  0
 13 17  2  0  0  0  0
 13 14  1  0  0  0  0
 14 15  2  0  0  0  0
 14 33  1  0  0  0  0
 15 16  1  0  0  0  0
 15 34  1  0  0  0  0
 16 17  1  0  0  0  0
 18 35  1  0  0  0  0
 18 36  1  0  0  0  0
M  CHG  1   3   1
M  CHG  1   8  -1
M  END
> <s_m_source_file>
AV-unprocessed.smi

> <i_m_source_file_index>
703

> <i_lp_mmshare_version>
43012

> <i_f3d_flags>
0

> <s_epik_input>
W0NIM11bQ0gyXU4xW0NIMl1bQ0BASF0oW0NIM10pW0NASF0oW0NIMl0xKVtOSF1TKD1PKSg9TylbQ0gyXWMyW2NIXVtjSF1vbjI=

> <s_epik_cmdline>
J2VwaWtfcHl0aG9uJywgJy1waCcsICc3LjAnLCAnLXRuJywgJzgnLCAnLW1hJywgJzIwMCcsICctbWV0YWxfYmluZGluZycsICctaW1hZScsICc8aW5maWxlLm1hZT4nLCAnLW9tYWUnLCAnPG91dGZpbGUubWFlPic=

> <r_epik_Ionization_Penalty>
3.62494

> <r_epik_Ionization_Penalty_Charging>
3.62494

> <r_epik_Ionization_Penalty_Neutral>
2.0321e-10

> <r_epik_State_Penalty>
3.62558

> <r_epik_Charging_Adjusted_Penalty>
7.25052

> <i_epik_Tot_Q>
0

> <i_epik_Tot_abs_Q>
2

> <r_epik_Metal_State_Penalty>
0.530836

> <b_epik_Metal_Only>
1

> <s_lp_Force_Field>
OPLS_2005

> <r_lp_Energy>
15.7429

> <b_lp_Chiralities_Consistent>
1

> <s_lp_Variant>
AV-unprocessed.smi:703-13

> <Gold.Version>
5.8.1

> <Gold.Id.Protein>
6NUR|6NUR_protein|mol2

> <Gold.PLP.Fitness>
39.5191

> <Gold.PLP.PLP>
-26.6251

> <Gold.PLP.part.hbond>
-6.2441

> <Gold.PLP.part.metal>
0.0000

> <Gold.PLP.part.buried>
-0.9137

> <Gold.PLP.part.nonpolar>
-20.0390

> <Gold.PLP.part.repulsive>
0.0056

> <Gold.PLP.ligand.clash>
0.0000

> <Gold.PLP.ligand.torsion>
0.7946

> <Gold.PLP.Chemscore.Hbond>
4.4824

> <Gold.PLP.Chemscore.CHOScore>
0.0000

> <Gold.PLP.Chemscore.Metal>
0.0000

> <Gold.Chemscore.Hbonds>
donor molecule, donor type, donor heavy atom, donor atom, acceptor molecule, acceptor atom, score
      L1  H     3    37       P1  7948  2.00
      P1  H  6896  6909       L1    10  1.00
      P1  H  6931  6943       L1    17  0.22
      P1  H  6934  6947       L1    17  1.00

> <Gold.PLP.Chemscore.Internal.Correction>
1.0360

> <Gold.Rescore>
     Score         DG    S(hbond)    S(metal)    S(lipo)     H(rot)  DE(clash)    DE(int)     intcor
     16.99     -18.11       2.94        0.00      59.94       1.63       0.34       0.78       ----

> <Gold.Chemscore.Fitness>
16.9924

> <Gold.Chemscore.DG>
-18.1143

> <Gold.Chemscore.ZeroCoef>
-5.4800

> <Gold.Chemscore.Hbond>
2.9354

> <Gold.Chemscore.Metal>
0.0000

> <Gold.Chemscore.Lipo>
59.9375

> <Gold.Chemscore.Internal_Hbond>
0.0000

> <Gold.Chemscore.DEClash>
0.3401

> <Gold.Chemscore.DEInternal>
0.7818

> <Gold.Chemscore.Rot>
1.6338

> <Gold.Chemscore.Internal.Correction>
   9.000000E+99

> <Gold.Chemscore.Hbonds>
donor molecule, donor type, donor heavy atom, donor atom, acceptor molecule, acceptor atom, score
      L1  H     3    37       P1  7948  1.00
      P1  H  6896  6909       L1    10  1.00
      P1  H  6931  6943       L1    17  0.02
      P1  H  6934  6947       L1    17  0.92

> <Gold.Chemscore.Hbond.Weighted>
-9.8041

> <Gold.Chemscore.Metal.Weighted>
-0.0000

> <Gold.Chemscore.Lipo.Weighted>
-7.0127

> <Gold.Chemscore.Internal_Hbond.Weighted>
0.0000

> <Gold.Chemscore.DEClash.Weighted>
0.3401

> <Gold.Chemscore.DEInternal.Weighted>
0.7818

> <Gold.Chemscore.Rot.Weighted>
4.1825

> <Gold.Chemscore.Internal.Correction.Weighted>
   9.000000E+99

> <Gold.Protein.RotatedTorsions>
[ 6907 6896 6895 6894 ] final   84.48 input  -60.11 | X-H torsion
[ 7974 7965 7964 7962 ] final  100.30 input  175.53 | X-H torsion
[ 8008 7997 7996 7995 ] final -119.47 input   59.86 | X-H torsion
[ 10167 10162 10161 10158 ] final   -0.59 input  -65.29 | X-H torsion
[ 10718 10713 10712 10709 ] final  -58.97 input   66.30 | X-H torsion
[ 10763 10752 10751 10750 ] final  -58.54 input  -60.55 | X-H torsion
[ 11005 11000 10999 10996 ] final   70.05 input  -57.11 | X-H torsion

> <Gold.Protein.ActiveResidues>
 VAL166  LYS551  ARG553  GLY616  TRP617  ASP618  TYR619  PRO620  LYS621  CYS622 
 ASP623  PHE694  ASN695  SER759  ASP760  ASP761  ALA762  ILE779  LEU786  VAL792 
 PHE793  MET794  SER795  GLU796  ALA797  LYS798  CYS799  TRP800  GLU811  SER814 

> <Gold.Protein.RotatedAtoms>
  152.5353  134.2735  159.8980 H   0  0  0  0  0  0  0  0  0  0  0  0  # atno 6907 bound_to 6896
  151.2691  133.4257  159.2628 H   0  0  0  0  0  0  0  0  0  0  0  0  # atno 6908 bound_to 6896
  151.0384  134.9604  159.8205 H   0  0  0  0  0  0  0  0  0  0  0  0  # atno 6909 bound_to 6896
  145.3874  139.2369  143.3370 H   0  0  0  0  0  0  0  0  0  0  0  0  # atno 7974 bound_to 7965
  155.1163  140.0398  157.2738 H   0  0  0  0  0  0  0  0  0  0  0  0  # atno 8008 bound_to 7997
  154.6647  140.2599  155.7045 H   0  0  0  0  0  0  0  0  0  0  0  0  # atno 8009 bound_to 7997
  156.2634  140.2810  156.1133 H   0  0  0  0  0  0  0  0  0  0  0  0  # atno 8010 bound_to 7997
  140.6774  143.6876  150.8054 H   0  0  0  0  0  0  0  0  0  0  0  0  # atno 10167 bound_to 10162
  156.1096  130.4176  150.0650 H   0  0  0  0  0  0  0  0  0  0  0  0  # atno 10718 bound_to 10713
  154.2397  135.6346  153.5203 H   0  0  0  0  0  0  0  0  0  0  0  0  # atno 10763 bound_to 10752
  152.9932  135.5539  154.5924 H   0  0  0  0  0  0  0  0  0  0  0  0  # atno 10764 bound_to 10752
  154.5426  135.2896  155.1056 H   0  0  0  0  0  0  0  0  0  0  0  0  # atno 10765 bound_to 10752
  139.9619  134.7046  156.0627 H   0  0  0  0  0  0  0  0  0  0  0  0  # atno 11005 bound_to 11000
  146.2813  140.4552  142.8775 LP  0  0  0  0  0  0  0  0  0  0  0  0  # atno 17320 bound_to 7965
  144.8464  140.6935  143.6196 LP  0  0  0  0  0  0  0  0  0  0  0  0  # atno 17321 bound_to 7965
  140.0571  143.5192  152.2646 LP  0  0  0  0  0  0  0  0  0  0  0  0  # atno 17342 bound_to 10162
  139.6075  144.7600  151.3029 LP  0  0  0  0  0  0  0  0  0  0  0  0  # atno 17343 bound_to 10162
  156.8617  130.9494  151.3617 LP  0  0  0  0  0  0  0  0  0  0  0  0  # atno 17370 bound_to 10713
  157.6276  130.8704  149.9216 LP  0  0  0  0  0  0  0  0  0  0  0  0  # atno 17371 bound_to 10713
  141.1297  133.6590  156.3431 LP  0  0  0  0  0  0  0  0  0  0  0  0  # atno 17394 bound_to 11000
  140.5481  134.6055  157.5399 LP  0  0  0  0  0  0  0  0  0  0  0  0  # atno 17395 bound_to 11000

$$$$
