#       Name:                AV-unprocessed.smi:3031
#       Creating user name   scv26
#       Creation time:       Fri Mar 27 16:51:19 2020


#       File generated by GOLD software.
#

@<TRIPOS>MOLECULE
AV-unprocessed.smi:3031
    53    54     1
SMALL
NO_CHARGES


@<TRIPOS>ATOM
      1 ****        -2.8057  -0.0123  -3.7470 C.3            1 S1                 0.0000
      2 ****        -2.7864  -0.3527  -2.2846 C.2            1 S1                 0.0000
      3 ****        -2.9824   0.5268  -1.1831 C.2            1 S1                 0.0000
      4 ****        -2.9058  -0.0891  -0.0151 N.2            1 S1                 0.0000
      5 ****        -2.6466  -1.3781  -0.3255 N.pl3          1 S1                 0.0000
      6 ****        -2.5151  -2.3737   0.7270 C.3            1 S1                 0.0000
      7 ****        -1.5308  -1.9865   1.8605 C.3            1 S1                 0.0000
      8 ****        -1.7472  -2.8895   3.0828 C.3            1 S1                 0.0000
      9 ****        -0.1077  -2.0767   1.4510 N.4            1 S1                 1.0000
     10 ****         0.3633  -1.0623   0.4824 C.3            1 S1                 0.0000
     11 ****         1.8994  -0.9694   0.4515 C.3            1 S1                 0.0000
     12 ****         2.4119  -2.2118   0.0136 O.3            1 S1                 0.0000
     13 ****         2.4035   0.1111  -0.5292 C.3            1 S1                 0.0000
     14 ****         1.9863   1.4861  -0.1506 N.4            1 S1                 1.0000
     15 ****         2.7511   2.0492   0.9898 C.3            1 S1                 0.0000
     16 ****         2.2399   3.4581   1.3385 C.3            1 S1                 0.0000
     17 ****         2.3225   4.2950   0.1919 O.3            1 S1                 0.0000
     18 ****         1.5182   3.8134  -0.8770 C.3            1 S1                 0.0000
     19 ****         2.0095   2.4195  -1.3020 C.3            1 S1                 0.0000
     20 ****        -2.5899  -1.5673  -1.6907 C.2            1 S1                 0.0000
     21 ****        -3.6425   0.6406  -3.9964 H              1 S1                 0.0000
     22 ****        -2.8977  -0.9019  -4.3706 H              1 S1                 0.0000
     23 ****        -1.8940   0.5016  -4.0520 H              1 S1                 0.0000
     24 ****        -3.1792   1.5886  -1.1983 H              1 S1                 0.0000
     25 ****        -3.5128  -2.5243   1.1418 H              1 S1                 0.0000
     26 ****        -2.2239  -3.3252   0.2798 H              1 S1                 0.0000
     27 ****        -1.7274  -0.9658   2.1907 H              1 S1                 0.0000
     28 ****        -2.7697  -2.8117   3.4539 H              1 S1                 0.0000
     29 ****        -1.0822  -2.6119   3.9011 H              1 S1                 0.0000
     30 ****        -1.5604  -3.9369   2.8422 H              1 S1                 0.0000
     31 ****         0.4440  -1.9634   2.2894 H              1 S1                 0.0000
     32 ****        -0.0091  -1.3008  -0.5132 H              1 S1                 0.0000
     33 ****        -0.0532  -0.0937   0.7606 H              1 S1                 0.0000
     34 ****         2.2844  -0.7861   1.4547 H              1 S1                 0.0000
     35 ****         3.3569  -2.1752   0.0263 H              1 S1                 0.0000
     36 ****         3.4912   0.0773  -0.6146 H              1 S1                 0.0000
     37 ****         2.0144  -0.1201  -1.5224 H              1 S1                 0.0000
     38 ****         2.6599   1.4071   1.8653 H              1 S1                 0.0000
     39 ****         3.8111   2.0932   0.7343 H              1 S1                 0.0000
     40 ****         1.2123   3.4216   1.7037 H              1 S1                 0.0000
     41 ****         2.8454   3.8911   2.1351 H              1 S1                 0.0000
     42 ****         0.4700   3.7824  -0.5755 H              1 S1                 0.0000
     43 ****         1.5884   4.5080  -1.7141 H              1 S1                 0.0000
     44 ****         3.0232   2.4851  -1.7007 H              1 S1                 0.0000
     45 ****         1.3735   2.0376  -2.1017 H              1 S1                 0.0000
     46 ****        -2.4088  -2.5404  -2.1239 H              1 S1                 0.0000
     47 ****         0.0760  -2.9977   1.0780 H              1 S1                 0.0000
     48 ****         1.0207   1.4292   0.1400 H              1 S1                 0.0000
     49 ****        -3.0153   0.3105   0.8951 LP             1 S1                 0.0000
     50 ****         2.0957  -2.3961  -0.9169 LP             1 S1                 0.0000
     51 ****         2.0960  -2.9388   0.6232 LP             1 S1                 0.0000
     52 ****         3.2744   4.3335  -0.1120 LP             1 S1                 0.0000
     53 ****         2.0144   5.2136   0.4396 LP             1 S1                 0.0000
@<TRIPOS>BOND
    1    1    2 1     
    2    1   21 1     
    3    1   22 1     
    4    1   23 1     
    5    2   20 2     
    6    2    3 1     
    7    3    4 2     
    8    3   24 1     
    9    4    5 1     
   10    5    6 1     
   11    5   20 1     
   12    6    7 1     
   13    6   25 1     
   14    6   26 1     
   15    7    8 1     
   16    7    9 1     
   17    7   27 1     
   18    8   28 1     
   19    8   29 1     
   20    8   30 1     
   21    9   10 1     
   22    9   31 1     
   23    9   47 1     
   24   10   11 1     
   25   10   32 1     
   26   10   33 1     
   27   11   12 1     
   28   11   13 1     
   29   11   34 1     
   30   12   35 1     
   31   13   14 1     
   32   13   36 1     
   33   13   37 1     
   34   14   19 1     
   35   14   15 1     
   36   14   48 1     
   37   15   16 1     
   38   15   38 1     
   39   15   39 1     
   40   16   17 1     
   41   16   40 1     
   42   16   41 1     
   43   17   18 1     
   44   18   19 1     
   45   18   42 1     
   46   18   43 1     
   47   19   44 1     
   48   19   45 1     
   49   20   46 1     
   50    4   49 1     
   51   12   50 1     
   52   12   51 1     
   53   17   52 1     
   54   17   53 1     
@<TRIPOS>SUBSTRUCTURE
      1 S1             1
@<TRIPOS>SET
LONE_PAIRS      STATIC     ATOMS    <user>   **** ""
5 49 50 51 52 53
DONOR_HYDROGENS      STATIC     ATOMS    <user>   **** ""
4 31 47 35 48
ATOM$BLUE        STATIC     ATOMS    COLORGROUP SYSTEM
5 49 50 51 52 53
ATOM$RED        STATIC     ATOMS    COLORGROUP SYSTEM
4 31 47 35 48
