AV-unprocessed.smi:2691|AV-procd|sdf|10391|dock2
  -GOLD-   2272014423D 1   1.00000     0.00000
 Structure written by MMmdl.
 49 51  0  0  0  0  0  0  0  0  1 V2000
  152.0937  145.3068  160.1686 C   0  0  0  0  0  0  0  0  0  0  0  0
  151.9005  143.9299  159.5582 C   0  0  0  0  0  0  0  0  0  0  0  0
  151.3148  143.8224  158.2766 C   0  0  0  0  0  0  0  0  0  0  0  0
  151.1190  142.5608  157.6732 C   0  0  0  0  0  0  0  0  0  0  0  0
  150.5732  142.2260  156.4455 N   0  0  0  0  0  0  0  0  0  0  0  0
  150.6698  140.8996  156.4625 C   0  0  0  0  0  0  0  0  0  0  0  0
  151.2148  140.3353  157.5573 N   0  0  0  0  0  0  0  0  0  0  0  0
  151.4315  138.9212  157.8035 C   0  0  0  0  0  0  0  0  0  0  0  0
  150.6223  138.0255  156.8456 C   0  0  1  0  0  0  0  0  0  0  0  0
  151.2174  138.0903  155.5637 O   0  0  0  0  0  0  0  0  0  0  0  0
  150.6102  136.5540  157.3131 C   0  0  0  0  0  0  0  0  0  0  0  0
  149.6370  136.3245  158.3928 N   0  0  0  0  0  0  0  0  0  0  0  0
  149.8169  137.0759  159.5693 C   0  0  0  0  0  0  0  0  0  0  0  0
  149.0131  136.9649  160.5784 N   0  0  0  0  0  0  0  0  0  0  0  0
  147.9343  136.0738  160.5149 C   0  0  0  0  0  0  0  0  0  0  0  0
  147.0214  135.9771  161.7307 C   0  0  0  0  0  0  0  0  0  0  0  0
  147.4899  136.9171  162.8516 C   0  0  0  0  0  0  0  0  0  0  0  0
  146.8809  134.5296  162.2299 C   0  0  0  0  0  0  0  0  0  0  0  0
  147.7325  135.3148  159.4114 C   0  0  0  0  0  0  0  0  0  0  0  0
  148.6253  135.4183  158.2570 C   0  0  0  0  0  0  0  0  0  0  0  0
  148.4767  134.7397  157.2402 O   0  0  0  0  0  0  0  0  0  0  0  0
  151.5304  141.4010  158.3923 C   0  0  0  0  0  0  0  0  0  0  0  0
  152.1143  141.4943  159.6679 C   0  0  0  0  0  0  0  0  0  0  0  0
  152.2997  142.7623  160.2575 C   0  0  0  0  0  0  0  0  0  0  0  0
  152.9277  142.8526  161.6370 C   0  0  0  0  0  0  0  0  0  0  0  0
  151.7859  146.0941  159.4798 H   0  0  0  0  0  0  0  0  0  0  0  0
  153.1423  145.4724  160.4169 H   0  0  0  0  0  0  0  0  0  0  0  0
  151.5012  145.4071  161.0782 H   0  0  0  0  0  0  0  0  0  0  0  0
  151.0099  144.7110  157.7440 H   0  0  0  0  0  0  0  0  0  0  0  0
  150.3236  140.3030  155.6312 H   0  0  0  0  0  0  0  0  0  0  0  0
  152.4984  138.7071  157.7224 H   0  0  0  0  0  0  0  0  0  0  0  0
  151.1496  138.7167  158.8371 H   0  0  0  0  0  0  0  0  0  0  0  0
  149.6046  138.4123  156.7767 H   0  0  0  0  0  0  0  0  0  0  0  0
  150.6684  138.6163  155.0027 H   0  0  0  0  0  0  0  0  0  0  0  0
  150.4559  135.8809  156.4671 H   0  0  0  0  0  0  0  0  0  0  0  0
  151.5991  136.2845  157.6887 H   0  0  0  0  0  0  0  0  0  0  0  0
  150.6757  137.7495  159.5690 H   0  0  0  0  0  0  0  0  0  0  0  0
  146.0277  136.3075  161.4245 H   0  0  0  0  0  0  0  0  0  0  0  0
  147.5612  137.9458  162.4970 H   0  0  0  0  0  0  0  0  0  0  0  0
  148.4701  136.6275  163.2319 H   0  0  0  0  0  0  0  0  0  0  0  0
  146.7925  136.9054  163.6895 H   0  0  0  0  0  0  0  0  0  0  0  0
  146.5369  133.8714  161.4315 H   0  0  0  0  0  0  0  0  0  0  0  0
  146.1575  134.4658  163.0433 H   0  0  0  0  0  0  0  0  0  0  0  0
  147.8282  134.1371  162.6014 H   0  0  0  0  0  0  0  0  0  0  0  0
  146.9029  134.6240  159.3721 H   0  0  0  0  0  0  0  0  0  0  0  0
  152.4144  140.5964  160.1883 H   0  0  0  0  0  0  0  0  0  0  0  0
  153.1050  141.8628  162.0587 H   0  0  0  0  0  0  0  0  0  0  0  0
  152.2744  143.3939  162.3218 H   0  0  0  0  0  0  0  0  0  0  0  0
  153.8845  143.3727  161.5861 H   0  0  0  0  0  0  0  0  0  0  0  0
  1  2  1  0  0  0  0
  1 26  1  0  0  0  0
  1 27  1  0  0  0  0
  1 28  1  0  0  0  0
  2 24  1  0  0  0  0
  2  3  2  0  0  0  0
  3  4  1  0  0  0  0
  3 29  1  0  0  0  0
  4 22  2  0  0  0  0
  4  5  1  0  0  0  0
  5  6  2  0  0  0  0
  6  7  1  0  0  0  0
  6 30  1  0  0  0  0
  7  8  1  0  0  0  0
  7 22  1  0  0  0  0
  8  9  1  0  0  0  0
  8 31  1  0  0  0  0
  8 32  1  0  0  0  0
  9 10  1  0  0  0  0
  9 11  1  0  0  0  0
  9 33  1  0  0  0  0
 10 34  1  0  0  0  0
 11 12  1  0  0  0  0
 11 35  1  0  0  0  0
 11 36  1  0  0  0  0
 12 20  1  0  0  0  0
 12 13  1  0  0  0  0
 13 14  2  0  0  0  0
 13 37  1  0  0  0  0
 14 15  1  0  0  0  0
 15 16  1  0  0  0  0
 15 19  2  0  0  0  0
 16 17  1  0  0  0  0
 16 18  1  0  0  0  0
 16 38  1  0  0  0  0
 17 39  1  0  0  0  0
 17 40  1  0  0  0  0
 17 41  1  0  0  0  0
 18 42  1  0  0  0  0
 18 43  1  0  0  0  0
 18 44  1  0  0  0  0
 19 20  1  0  0  0  0
 19 45  1  0  0  0  0
 20 21  2  0  0  0  0
 22 23  1  0  0  0  0
 23 24  2  0  0  0  0
 23 46  1  0  0  0  0
 24 25  1  0  0  0  0
 25 47  1  0  0  0  0
 25 48  1  0  0  0  0
 25 49  1  0  0  0  0
M  END
> <s_m_source_file>
AV-unprocessed.smi

> <i_m_source_file_index>
2691

> <i_lp_mmshare_version>
43012

> <i_f3d_flags>
0

> <s_epik_input>
W0NIM11jKFtjSF0xKWMoW0NIM10pW2NIXWMoYzEyKW4oW2NIXW4yKVtDSDJdW0NASF0oW09IXSlbQ0gyXW4zW2NIXW5jKFtDSF0oW0NIM10pW0NIM10pW2NIXWMzPU8=

> <s_epik_cmdline>
J2VwaWtfcHl0aG9uJywgJy1waCcsICc3LjAnLCAnLXRuJywgJzgnLCAnLW1hJywgJzIwMCcsICctbWV0YWxfYmluZGluZycsICctaW1hZScsICc8aW5maWxlLm1hZT4nLCAnLW9tYWUnLCAnPG91dGZpbGUubWFlPic=

> <r_lp_tautomer_probability>
1

> <r_epik_Ionization_Penalty>
0.113357

> <r_epik_Ionization_Penalty_Charging>
3.84185e-08

> <r_epik_Ionization_Penalty_Neutral>
0.113357

> <r_epik_State_Penalty>
0.103025

> <r_epik_Charging_Adjusted_Penalty>
0.103025

> <i_epik_Tot_Q>
0

> <i_epik_Tot_abs_Q>
0

> <r_epik_Metal_State_Penalty>
0.0863451

> <b_epik_Metal_Only>
0

> <s_lp_Force_Field>
OPLS_2005

> <r_lp_Energy>
17.2292

> <b_lp_Chiralities_Consistent>
1

> <s_lp_Variant>
AV-unprocessed.smi:2691-2

> <Gold.Version>
5.8.1

> <Gold.Id.Protein>
6NUR|6NUR_protein|mol2

> <Gold.PLP.Fitness>
49.8751

> <Gold.PLP.PLP>
-48.4828

> <Gold.PLP.part.hbond>
-1.0000

> <Gold.PLP.part.metal>
0.0000

> <Gold.PLP.part.buried>
-5.4677

> <Gold.PLP.part.nonpolar>
-43.6636

> <Gold.PLP.part.repulsive>
0.1154

> <Gold.PLP.ligand.clash>
0.0001

> <Gold.PLP.ligand.torsion>
0.5016

> <Gold.PLP.Chemscore.Hbond>
0.7520

> <Gold.PLP.Chemscore.CHOScore>
0.0000

> <Gold.PLP.Chemscore.Metal>
0.0000

> <Gold.Chemscore.Hbonds>
donor molecule, donor type, donor heavy atom, donor atom, acceptor molecule, acceptor atom, score
      P1  H  6931  6943       L1    14  0.74

> <Gold.PLP.Chemscore.Internal.Correction>
0.1396

> <Gold.Rescore>
     Score         DG    S(hbond)    S(metal)    S(lipo)     H(rot)  DE(clash)    DE(int)     intcor
     15.37     -16.93       0.74        0.00     130.36       2.45       0.32       1.24       ----

> <Gold.Chemscore.Fitness>
15.3701

> <Gold.Chemscore.DG>
-16.9277

> <Gold.Chemscore.ZeroCoef>
-5.4800

> <Gold.Chemscore.Hbond>
0.7415

> <Gold.Chemscore.Metal>
0.0000

> <Gold.Chemscore.Lipo>
130.3618

> <Gold.Chemscore.Internal_Hbond>
0.0000

> <Gold.Chemscore.DEClash>
0.3177

> <Gold.Chemscore.DEInternal>
1.2399

> <Gold.Chemscore.Rot>
2.4536

> <Gold.Chemscore.Internal.Correction>
   9.000000E+99

> <Gold.Chemscore.Hbonds>
donor molecule, donor type, donor heavy atom, donor atom, acceptor molecule, acceptor atom, score
      P1  H  6931  6943       L1    14  0.69

> <Gold.Chemscore.Hbond.Weighted>
-2.4766

> <Gold.Chemscore.Metal.Weighted>
-0.0000

> <Gold.Chemscore.Lipo.Weighted>
-15.2523

> <Gold.Chemscore.Internal_Hbond.Weighted>
0.0000

> <Gold.Chemscore.DEClash.Weighted>
0.3177

> <Gold.Chemscore.DEInternal.Weighted>
1.2399

> <Gold.Chemscore.Rot.Weighted>
6.2812

> <Gold.Chemscore.Internal.Correction.Weighted>
   9.000000E+99

> <Gold.Protein.RotatedTorsions>
[ 6907 6896 6895 6894 ] final    8.02 input  -60.11 | X-H torsion
[ 7974 7965 7964 7962 ] final   49.21 input  175.53 | X-H torsion
[ 8008 7997 7996 7995 ] final  -70.65 input   59.86 | X-H torsion
[ 10167 10162 10161 10158 ] final -112.44 input  -65.29 | X-H torsion
[ 10718 10713 10712 10709 ] final   17.83 input   66.30 | X-H torsion
[ 10763 10752 10751 10750 ] final  170.23 input  -60.55 | X-H torsion
[ 11005 11000 10999 10996 ] final  163.45 input  -57.11 | X-H torsion

> <Gold.Protein.ActiveResidues>
 VAL166  LYS551  ARG553  GLY616  TRP617  ASP618  TYR619  PRO620  LYS621  CYS622 
 ASP623  PHE694  ASN695  SER759  ASP760  ASP761  ALA762  ILE779  LEU786  VAL792 
 PHE793  MET794  SER795  GLU796  ALA797  LYS798  CYS799  TRP800  GLU811  SER814 

> <Gold.Protein.RotatedAtoms>
  151.6993  135.0933  160.0247 H   0  0  0  0  0  0  0  0  0  0  0  0  # atno 6907 bound_to 6896
  152.3730  133.6440  159.6110 H   0  0  0  0  0  0  0  0  0  0  0  0  # atno 6908 bound_to 6896
  150.7688  133.9155  159.3424 H   0  0  0  0  0  0  0  0  0  0  0  0  # atno 6909 bound_to 6896
  146.0131  139.4565  142.9944 H   0  0  0  0  0  0  0  0  0  0  0  0  # atno 7974 bound_to 7965
  154.5028  140.0830  156.7833 H   0  0  0  0  0  0  0  0  0  0  0  0  # atno 8008 bound_to 7997
  155.3963  140.3435  155.4236 H   0  0  0  0  0  0  0  0  0  0  0  0  # atno 8009 bound_to 7997
  156.1478  140.1549  156.8806 H   0  0  0  0  0  0  0  0  0  0  0  0  # atno 8010 bound_to 7997
  140.1227  143.4429  152.1680 H   0  0  0  0  0  0  0  0  0  0  0  0  # atno 10167 bound_to 10162
  157.0878  130.6415  149.5841 H   0  0  0  0  0  0  0  0  0  0  0  0  # atno 10718 bound_to 10713
  154.3946  135.2754  155.2134 H   0  0  0  0  0  0  0  0  0  0  0  0  # atno 10763 bound_to 10752
  154.4186  135.6005  153.5999 H   0  0  0  0  0  0  0  0  0  0  0  0  # atno 10764 bound_to 10752
  152.9831  135.5967  154.4205 H   0  0  0  0  0  0  0  0  0  0  0  0  # atno 10765 bound_to 10752
  140.2359  134.8088  157.3363 H   0  0  0  0  0  0  0  0  0  0  0  0  # atno 11005 bound_to 11000
  145.7311  141.0042  143.1351 LP  0  0  0  0  0  0  0  0  0  0  0  0  # atno 17320 bound_to 7965
  144.6960  139.8986  143.7457 LP  0  0  0  0  0  0  0  0  0  0  0  0  # atno 17321 bound_to 7965
  139.5560  144.7373  151.4292 LP  0  0  0  0  0  0  0  0  0  0  0  0  # atno 17342 bound_to 10162
  140.6863  143.7967  150.7190 LP  0  0  0  0  0  0  0  0  0  0  0  0  # atno 17343 bound_to 10162
  155.9906  130.4958  150.7264 LP  0  0  0  0  0  0  0  0  0  0  0  0  # atno 17370 bound_to 10713
  157.4747  131.0896  151.0604 LP  0  0  0  0  0  0  0  0  0  0  0  0  # atno 17371 bound_to 10713
  140.1702  134.4618  155.7836 LP  0  0  0  0  0  0  0  0  0  0  0  0  # atno 17394 bound_to 11000
  141.2214  133.6938  156.7695 LP  0  0  0  0  0  0  0  0  0  0  0  0  # atno 17395 bound_to 11000

$$$$
