AV-unprocessed.smi:2222|AV-procd|sdf|8986|dock6
  -GOLD-   2272012203D 1   1.00000     0.00000
 Structure written by MMmdl.
 34 35  0  0  0  0  0  0  0  0  1 V2000
  146.0806  142.2222  154.3757 C   0  0  0  0  0  0  0  0  0  0  0  0
  147.4032  142.2862  154.8887 O   0  0  0  0  0  0  0  0  0  0  0  0
  148.2254  141.1897  154.7156 C   0  0  0  0  0  0  0  0  0  0  0  0
  147.8108  139.9903  154.0820 C   0  0  0  0  0  0  0  0  0  0  0  0
  148.7204  138.9264  153.9539 C   0  0  0  0  0  0  0  0  0  0  0  0
  150.0192  139.0977  154.4649 C   0  0  0  0  0  0  0  0  0  0  0  0
  151.0498  137.9931  154.3654 C   0  0  0  0  0  0  0  0  0  0  0  0
  150.4248  140.2326  155.0688 N   0  0  0  0  0  0  0  0  0  0  0  0
  149.5576  141.2671  155.1981 C   0  0  0  0  0  0  0  0  0  0  0  0
  149.9088  142.4952  155.8228 N   0  0  0  0  0  0  0  0  0  0  0  0
  150.8909  142.7383  156.7133 C   0  0  0  0  0  0  0  0  0  0  0  0
  151.7029  141.9025  157.1064 O   0  0  0  0  0  0  0  0  0  0  0  0
  150.9532  144.0150  157.1321 N   0  0  0  0  0  0  0  0  0  0  0  0
  151.8738  144.5920  158.0671 C   0  0  1  0  0  0  0  0  0  0  0  0
  151.2888  145.1793  159.3332 C   0  0  0  0  0  0  0  0  0  0  0  0
  152.0946  143.9093  159.4045 C   0  0  1  0  0  0  0  0  0  0  0  0
  151.4322  142.5912  159.7554 C   0  0  0  0  0  0  0  0  0  0  0  0
  145.5642  143.1557  154.5981 H   0  0  0  0  0  0  0  0  0  0  0  0
  145.5125  141.4135  154.8375 H   0  0  0  0  0  0  0  0  0  0  0  0
  146.0780  142.0945  153.2924 H   0  0  0  0  0  0  0  0  0  0  0  0
  146.8128  139.8637  153.6913 H   0  0  0  0  0  0  0  0  0  0  0  0
  148.4242  138.0042  153.4759 H   0  0  0  0  0  0  0  0  0  0  0  0
  150.6876  137.1682  153.7514 H   0  0  0  0  0  0  0  0  0  0  0  0
  151.2828  137.6042  155.3570 H   0  0  0  0  0  0  0  0  0  0  0  0
  151.9703  138.3699  153.9187 H   0  0  0  0  0  0  0  0  0  0  0  0
  149.3331  143.2848  155.5698 H   0  0  0  0  0  0  0  0  0  0  0  0
  150.3154  144.6622  156.6916 H   0  0  0  0  0  0  0  0  0  0  0  0
  152.7192  145.1455  157.6609 H   0  0  0  0  0  0  0  0  0  0  0  0
  151.7472  146.0849  159.7253 H   0  0  0  0  0  0  0  0  0  0  0  0
  150.2120  145.1064  159.4762 H   0  0  0  0  0  0  0  0  0  0  0  0
  153.0990  144.0050  159.8127 H   0  0  0  0  0  0  0  0  0  0  0  0
  150.4018  142.5607  159.4003 H   0  0  0  0  0  0  0  0  0  0  0  0
  151.4264  142.4539  160.8368 H   0  0  0  0  0  0  0  0  0  0  0  0
  151.9812  141.7652  159.3032 H   0  0  0  0  0  0  0  0  0  0  0  0
  1  2  1  0  0  0  0
  1 18  1  0  0  0  0
  1 19  1  0  0  0  0
  1 20  1  0  0  0  0
  2  3  1  0  0  0  0
  3  9  1  0  0  0  0
  3  4  2  0  0  0  0
  4  5  1  0  0  0  0
  4 21  1  0  0  0  0
  5  6  2  0  0  0  0
  5 22  1  0  0  0  0
  6  7  1  0  0  0  0
  6  8  1  0  0  0  0
  7 23  1  0  0  0  0
  7 24  1  0  0  0  0
  7 25  1  0  0  0  0
  8  9  2  0  0  0  0
  9 10  1  0  0  0  0
 10 11  1  0  0  0  0
 10 26  1  0  0  0  0
 11 12  2  0  0  0  0
 11 13  1  0  0  0  0
 13 14  1  0  0  0  0
 13 27  1  0  0  0  0
 14 16  1  0  0  0  0
 14 15  1  0  0  0  0
 14 28  1  0  0  0  0
 15 16  1  0  0  0  0
 15 29  1  0  0  0  0
 15 30  1  0  0  0  0
 16 17  1  0  0  0  0
 16 31  1  0  0  0  0
 17 32  1  0  0  0  0
 17 33  1  0  0  0  0
 17 34  1  0  0  0  0
M  END
> <s_m_source_file>
AV-unprocessed.smi

> <i_m_source_file_index>
2222

> <i_lp_mmshare_version>
43012

> <i_f3d_flags>
0

> <s_epik_input>
W0NIM11PYzFbY0hdW2NIXWMoW0NIM10pbmMxW05IXUMoPU8pW05IXVtDQEBIXTJbQ0gyXVtDQEhdMltDSDNd

> <s_epik_cmdline>
J2VwaWtfcHl0aG9uJywgJy1waCcsICc3LjAnLCAnLXRuJywgJzgnLCAnLW1hJywgJzIwMCcsICctbWV0YWxfYmluZGluZycsICctaW1hZScsICc8aW5maWxlLm1hZT4nLCAnLW9tYWUnLCAnPG91dGZpbGUubWFlPic=

> <r_lp_tautomer_probability>
1

> <r_epik_Ionization_Penalty>
6.59103e-05

> <r_epik_Ionization_Penalty_Charging>
0

> <r_epik_Ionization_Penalty_Neutral>
6.59103e-05

> <r_epik_State_Penalty>
-0

> <r_epik_Charging_Adjusted_Penalty>
0

> <i_epik_Tot_Q>
0

> <i_epik_Tot_abs_Q>
0

> <r_epik_Metal_State_Penalty>
-0

> <b_epik_Metal_Only>
0

> <s_lp_Force_Field>
OPLS_2005

> <r_lp_Energy>
34.1661

> <b_lp_Chiralities_Consistent>
1

> <s_lp_Variant>
AV-unprocessed.smi:2222-2

> <Gold.Version>
5.8.1

> <Gold.Id.Protein>
6NUR|6NUR_protein|mol2

> <Gold.PLP.Fitness>
43.0419

> <Gold.PLP.PLP>
-34.8404

> <Gold.PLP.part.hbond>
-3.0000

> <Gold.PLP.part.metal>
0.0000

> <Gold.PLP.part.buried>
-1.4969

> <Gold.PLP.part.nonpolar>
-33.0116

> <Gold.PLP.part.repulsive>
2.1674

> <Gold.PLP.ligand.clash>
0.0000

> <Gold.PLP.ligand.torsion>
0.1631

> <Gold.PLP.Chemscore.Hbond>
2.8300

> <Gold.PLP.Chemscore.CHOScore>
0.0000

> <Gold.PLP.Chemscore.Metal>
0.0000

> <Gold.Chemscore.Hbonds>
donor molecule, donor type, donor heavy atom, donor atom, acceptor molecule, acceptor atom, score
      L1  H    10    26       P1  8028  0.93
      L1  H    13    27       P1  8028  0.88
      P1  H  7989  7998       L1     8  0.70

> <Gold.PLP.Chemscore.Internal.Correction>
0.0376

> <Gold.Rescore>
     Score         DG    S(hbond)    S(metal)    S(lipo)     H(rot)  DE(clash)    DE(int)     intcor
     14.89     -19.02       1.93        0.00      87.24       1.22       1.55       2.59       ----

> <Gold.Chemscore.Fitness>
14.8861

> <Gold.Chemscore.DG>
-19.0237

> <Gold.Chemscore.ZeroCoef>
-5.4800

> <Gold.Chemscore.Hbond>
1.9318

> <Gold.Chemscore.Metal>
0.0000

> <Gold.Chemscore.Lipo>
87.2354

> <Gold.Chemscore.Internal_Hbond>
0.0000

> <Gold.Chemscore.DEClash>
1.5484

> <Gold.Chemscore.DEInternal>
2.5891

> <Gold.Chemscore.Rot>
1.2168

> <Gold.Chemscore.Internal.Correction>
   9.000000E+99

> <Gold.Chemscore.Hbonds>
donor molecule, donor type, donor heavy atom, donor atom, acceptor molecule, acceptor atom, score
      L1  H    10    26       P1  8028  0.87
      L1  H    13    27       P1  8028  0.74
      P1  H  7989  7998       L1     8  0.03

> <Gold.Chemscore.Hbond.Weighted>
-6.4521

> <Gold.Chemscore.Metal.Weighted>
-0.0000

> <Gold.Chemscore.Lipo.Weighted>
-10.2065

> <Gold.Chemscore.Internal_Hbond.Weighted>
0.0000

> <Gold.Chemscore.DEClash.Weighted>
1.5484

> <Gold.Chemscore.DEInternal.Weighted>
2.5891

> <Gold.Chemscore.Rot.Weighted>
3.1150

> <Gold.Chemscore.Internal.Correction.Weighted>
   9.000000E+99

> <Gold.Protein.RotatedTorsions>
[ 6907 6896 6895 6894 ] final   43.99 input  -60.11 | X-H torsion
[ 7974 7965 7964 7962 ] final   56.05 input  175.53 | X-H torsion
[ 8008 7997 7996 7995 ] final  177.02 input   59.86 | X-H torsion
[ 10167 10162 10161 10158 ] final -114.22 input  -65.29 | X-H torsion
[ 10718 10713 10712 10709 ] final   47.50 input   66.30 | X-H torsion
[ 10763 10752 10751 10750 ] final  143.72 input  -60.55 | X-H torsion
[ 11005 11000 10999 10996 ] final  -20.74 input  -57.11 | X-H torsion

> <Gold.Protein.ActiveResidues>
 VAL166  LYS551  ARG553  GLY616  TRP617  ASP618  TYR619  PRO620  LYS621  CYS622 
 ASP623  PHE694  ASN695  SER759  ASP760  ASP761  ALA762  ILE779  LEU786  VAL792 
 PHE793  MET794  SER795  GLU796  ALA797  LYS798  CYS799  TRP800  GLU811  SER814 

> <Gold.Protein.RotatedAtoms>
  152.2271  134.8358  160.0478 H   0  0  0  0  0  0  0  0  0  0  0  0  # atno 6907 bound_to 6896
  151.9120  133.3558  159.3875 H   0  0  0  0  0  0  0  0  0  0  0  0  # atno 6908 bound_to 6896
  150.7015  134.4647  159.5441 H   0  0  0  0  0  0  0  0  0  0  0  0  # atno 6909 bound_to 6896
  145.9439  139.3912  143.0347 H   0  0  0  0  0  0  0  0  0  0  0  0  # atno 7974 bound_to 7965
  156.0701  140.1369  156.9838 H   0  0  0  0  0  0  0  0  0  0  0  0  # atno 8008 bound_to 7997
  154.4527  140.0973  156.6718 H   0  0  0  0  0  0  0  0  0  0  0  0  # atno 8009 bound_to 7997
  155.5241  140.3457  155.4415 H   0  0  0  0  0  0  0  0  0  0  0  0  # atno 8010 bound_to 7997
  140.1033  143.4593  152.1799 H   0  0  0  0  0  0  0  0  0  0  0  0  # atno 10167 bound_to 10162
  157.4591  130.8185  149.7867 H   0  0  0  0  0  0  0  0  0  0  0  0  # atno 10718 bound_to 10713
  153.9770  135.2945  155.3423 H   0  0  0  0  0  0  0  0  0  0  0  0  # atno 10763 bound_to 10752
  154.7290  135.5076  153.8937 H   0  0  0  0  0  0  0  0  0  0  0  0  # atno 10764 bound_to 10752
  153.0873  135.6697  154.0038 H   0  0  0  0  0  0  0  0  0  0  0  0  # atno 10765 bound_to 10752
  140.8494  133.7868  155.9948 H   0  0  0  0  0  0  0  0  0  0  0  0  # atno 11005 bound_to 11000
  145.8262  140.9654  143.0872 LP  0  0  0  0  0  0  0  0  0  0  0  0  # atno 17320 bound_to 7965
  144.6784  140.0105  143.7484 LP  0  0  0  0  0  0  0  0  0  0  0  0  # atno 17321 bound_to 7965
  139.5659  144.7435  151.4023 LP  0  0  0  0  0  0  0  0  0  0  0  0  # atno 17342 bound_to 10162
  140.6966  143.7734  150.7336 LP  0  0  0  0  0  0  0  0  0  0  0  0  # atno 17343 bound_to 10162
  156.0020  130.3875  150.2569 LP  0  0  0  0  0  0  0  0  0  0  0  0  # atno 17370 bound_to 10713
  157.0746  131.0126  151.3178 LP  0  0  0  0  0  0  0  0  0  0  0  0  # atno 17371 bound_to 10713
  140.8807  134.2614  157.5145 LP  0  0  0  0  0  0  0  0  0  0  0  0  # atno 17394 bound_to 11000
  139.8704  134.9614  156.4394 LP  0  0  0  0  0  0  0  0  0  0  0  0  # atno 17395 bound_to 11000

$$$$
