#       Name:                AV-unprocessed.smi:1306
#       Creating user name   scv26
#       Creation time:       Fri Mar 27 04:59:48 2020


#       File generated by GOLD software.
#

@<TRIPOS>MOLECULE
AV-unprocessed.smi:1306
    45    46     1
SMALL
NO_CHARGES


@<TRIPOS>ATOM
      1 ****        -0.7040   1.8799   1.8474 O.2            1 S1                 0.0000
      2 ****        -1.0650   0.7287   2.0970 C.2            1 S1                 0.0000
      3 ****        -2.5526   0.3476   2.0852 C.3            1 S1                 0.0000
      4 ****        -3.3940   1.3181   1.3697 N.am           1 S1                 0.0000
      5 ****        -4.0988   2.2852   2.0724 C.2            1 S1                 0.0000
      6 ****        -4.8850   3.2139   1.4785 C.2            1 S1                 0.0000
      7 ****        -5.0300   3.2397   0.0271 C.2            1 S1                 0.0000
      8 ****        -5.7193   4.0389  -0.6026 O.2            1 S1                 0.0000
      9 ****        -4.3034   2.2530  -0.6448 N.am           1 S1                 0.0000
     10 ****        -3.4894   1.2943  -0.0391 C.2            1 S1                 0.0000
     11 ****        -2.8869   0.4707  -0.7266 O.2            1 S1                 0.0000
     12 ****        -0.2092  -0.2571   2.4054 N.am           1 S1                 0.0000
     13 ****         1.2431  -0.1255   2.4547 C.3            1 S1                 0.0000
     14 ****         1.8731  -0.1612   1.0528 C.3            1 S1                 0.0000
     15 ****         1.6062  -1.7556   0.2253 S.3            1 S1                 0.0000
     16 ****         2.3605  -1.4151  -1.3909 C.3            1 S1                 0.0000
     17 ****         2.1141  -2.5401  -2.3988 C.3            1 S1                 0.0000
     18 ****         3.2624  -2.4466  -3.4131 C.3            1 S1                 0.0000
     19 ****         4.3336  -1.5468  -2.7784 C.3            1 S1                 0.0000
     20 ****         3.8847  -1.3098  -1.3348 C.3            1 S1                 0.0000
     21 ****        -4.3713   2.2335  -1.6519 H              1 S1                 0.0000
     22 ****        -2.6726  -0.6462   1.6486 H              1 S1                 0.0000
     23 ****        -2.8860   0.2490   3.1193 H              1 S1                 0.0000
     24 ****        -4.0181   2.3066   3.1500 H              1 S1                 0.0000
     25 ****        -5.4086   3.9422   2.0807 H              1 S1                 0.0000
     26 ****        -0.5898  -1.1720   2.5994 H              1 S1                 0.0000
     27 ****         1.5127   0.8016   2.9631 H              1 S1                 0.0000
     28 ****         1.6431  -0.9366   3.0634 H              1 S1                 0.0000
     29 ****         1.4695   0.6382   0.4305 H              1 S1                 0.0000
     30 ****         2.9462   0.0124   1.1324 H              1 S1                 0.0000
     31 ****         1.9466  -0.4870  -1.7881 H              1 S1                 0.0000
     32 ****         2.1604  -3.5069  -1.8951 H              1 S1                 0.0000
     33 ****         1.1342  -2.4647  -2.8710 H              1 S1                 0.0000
     34 ****         3.6580  -3.4378  -3.6374 H              1 S1                 0.0000
     35 ****         2.9168  -2.0147  -4.3528 H              1 S1                 0.0000
     36 ****         5.3293  -1.9889  -2.8281 H              1 S1                 0.0000
     37 ****         4.3713  -0.5954  -3.3107 H              1 S1                 0.0000
     38 ****         4.2284  -0.3506  -0.9469 H              1 S1                 0.0000
     39 ****         4.2901  -2.0935  -0.6932 H              1 S1                 0.0000
     40 ****        -1.3835   2.5816   1.6332 LP             1 S1                 0.0000
     41 ****         0.2685   2.1125   1.8591 LP             1 S1                 0.0000
     42 ****        -6.2375   4.7431  -0.1173 LP             1 S1                 0.0000
     43 ****        -5.7620   3.9849  -1.6002 LP             1 S1                 0.0000
     44 ****        -2.3038  -0.2144  -0.2898 LP             1 S1                 0.0000
     45 ****        -2.9803   0.4864  -1.7221 LP             1 S1                 0.0000
@<TRIPOS>BOND
    1    1    2 2     
    2    2    3 1     
    3    2   12 am    
    4    3    4 1     
    5    3   22 1     
    6    3   23 1     
    7    4   10 1     
    8    4    5 1     
    9    5    6 2     
   10    5   24 1     
   11    6    7 1     
   12    6   25 1     
   13    7    8 2     
   14    7    9 1     
   15    9   21 1     
   16    9   10 1     
   17   10   11 2     
   18   12   13 1     
   19   12   26 1     
   20   13   14 1     
   21   13   27 1     
   22   13   28 1     
   23   14   15 1     
   24   14   29 1     
   25   14   30 1     
   26   15   16 1     
   27   16   20 1     
   28   16   17 1     
   29   16   31 1     
   30   17   18 1     
   31   17   32 1     
   32   17   33 1     
   33   18   19 1     
   34   18   34 1     
   35   18   35 1     
   36   19   20 1     
   37   19   36 1     
   38   19   37 1     
   39   20   38 1     
   40   20   39 1     
   41    1   40 1     
   42    1   41 1     
   43    8   42 1     
   44    8   43 1     
   45   11   44 1     
   46   11   45 1     
@<TRIPOS>SUBSTRUCTURE
      1 S1             1
@<TRIPOS>SET
LONE_PAIRS      STATIC     ATOMS    <user>   **** ""
6 40 41 42 43 44 45
DONOR_HYDROGENS      STATIC     ATOMS    <user>   **** ""
2 21 26
ATOM$BLUE        STATIC     ATOMS    COLORGROUP SYSTEM
6 40 41 42 43 44 45
ATOM$RED        STATIC     ATOMS    COLORGROUP SYSTEM
2 21 26
