AV-unprocessed.smi:1456|AV-procd|sdf|5918|dock2
  -GOLD-   22720 6 03D 1   1.00000     0.00000
 Structure written by MMmdl.
 41 42  0  0  0  0  0  0  0  0  3 V2000
  149.1897  140.9854  156.7104 C   0  0  0  0  0  0  0  0  0  0  0  0
  150.7328  140.9923  156.6342 C   0  0  0  0  0  0  0  0  0  0  0  0
  151.1540  142.4613  156.4326 C   0  0  0  0  0  0  0  0  0  0  0  0
  151.3947  140.4824  157.9409 C   0  0  0  0  0  0  0  0  0  0  0  0
  151.4250  138.9545  158.1029 C   0  0  0  0  0  0  0  0  0  0  0  0
  150.1182  138.4260  158.4853 N   0  0  0  0  0  0  0  0  0  0  0  0
  149.8547  137.1943  158.9424 C   0  0  0  0  0  0  0  0  0  0  0  0
  150.7719  136.3874  159.1072 O   0  0  0  0  0  0  0  0  0  0  0  0
  148.5399  136.9757  159.1674 N   0  5  0  0  0  0  0  0  0  0  0  0
  148.1296  136.5215  160.3625 C   0  0  0  0  0  0  0  0  0  0  0  0
  147.9606  137.3154  161.4259 N   0  0  0  0  0  0  0  0  0  0  0  0
  147.5215  136.6339  162.5627 C   0  0  0  0  0  0  0  0  0  0  0  0
  147.3428  135.2915  162.3569 C   0  0  0  0  0  0  0  0  0  0  0  0
  147.7226  134.8403  160.7194 S   0  0  0  0  0  0  0  0  0  0  0  0
  152.0065  138.3009  156.8345 C   0  0  0  0  0  0  0  0  0  0  0  0
  151.3564  138.7553  155.5034 C   0  0  0  0  0  0  0  0  0  0  0  0
  152.2995  138.3501  154.3538 C   0  0  0  0  0  0  0  0  0  0  0  0
  150.0078  138.0510  155.2340 C   0  0  0  0  0  0  0  0  0  0  0  0
  151.2237  140.2386  155.4457 N   0  3  0  0  0  0  0  0  0  0  0  0
  148.8373  141.6575  157.4939 H   0  0  0  0  0  0  0  0  0  0  0  0
  148.7642  140.0131  156.9347 H   0  0  0  0  0  0  0  0  0  0  0  0
  148.7459  141.3228  155.7731 H   0  0  0  0  0  0  0  0  0  0  0  0
  150.8453  143.0835  157.2737 H   0  0  0  0  0  0  0  0  0  0  0  0
  150.7085  142.8851  155.5315 H   0  0  0  0  0  0  0  0  0  0  0  0
  152.2361  142.5593  156.3353 H   0  0  0  0  0  0  0  0  0  0  0  0
  152.4313  140.8228  157.9617 H   0  0  0  0  0  0  0  0  0  0  0  0
  150.9235  140.9435  158.8103 H   0  0  0  0  0  0  0  0  0  0  0  0
  152.0989  138.7335  158.9329 H   0  0  0  0  0  0  0  0  0  0  0  0
  149.3300  139.0482  158.3823 H   0  0  0  0  0  0  0  0  0  0  0  0
  147.3603  137.1853  163.4769 H   0  0  0  0  0  0  0  0  0  0  0  0
  147.0122  134.5448  163.0628 H   0  0  0  0  0  0  0  0  0  0  0  0
  153.0665  138.5580  156.8075 H   0  0  0  0  0  0  0  0  0  0  0  0
  151.9820  137.2133  156.9138 H   0  0  0  0  0  0  0  0  0  0  0  0
  152.4744  137.2735  154.3431 H   0  0  0  0  0  0  0  0  0  0  0  0
  153.2719  138.8364  154.4419 H   0  0  0  0  0  0  0  0  0  0  0  0
  151.8865  138.6240  153.3819 H   0  0  0  0  0  0  0  0  0  0  0  0
  150.1491  136.9757  155.1182 H   0  0  0  0  0  0  0  0  0  0  0  0
  149.5462  138.4168  154.3160 H   0  0  0  0  0  0  0  0  0  0  0  0
  149.2816  138.1717  156.0307 H   0  0  0  0  0  0  0  0  0  0  0  0
  150.6609  140.4861  154.6446 H   0  0  0  0  0  0  0  0  0  0  0  0
  152.1590  140.5818  155.2813 H   0  0  0  0  0  0  0  0  0  0  0  0
  1  2  1  0  0  0  0
  1 20  1  0  0  0  0
  1 21  1  0  0  0  0
  1 22  1  0  0  0  0
  2 19  1  0  0  0  0
  2  3  1  0  0  0  0
  2  4  1  0  0  0  0
  3 23  1  0  0  0  0
  3 24  1  0  0  0  0
  3 25  1  0  0  0  0
  4  5  1  0  0  0  0
  4 26  1  0  0  0  0
  4 27  1  0  0  0  0
  5  6  1  0  0  0  0
  5 15  1  0  0  0  0
  5 28  1  0  0  0  0
  6  7  1  0  0  0  0
  6 29  1  0  0  0  0
  7  8  2  0  0  0  0
  7  9  1  0  0  0  0
  9 10  1  0  0  0  0
 10 14  1  0  0  0  0
 10 11  2  0  0  0  0
 11 12  1  0  0  0  0
 12 13  2  0  0  0  0
 12 30  1  0  0  0  0
 13 14  1  0  0  0  0
 13 31  1  0  0  0  0
 15 16  1  0  0  0  0
 15 32  1  0  0  0  0
 15 33  1  0  0  0  0
 16 17  1  0  0  0  0
 16 18  1  0  0  0  0
 16 19  1  0  0  0  0
 17 34  1  0  0  0  0
 17 35  1  0  0  0  0
 17 36  1  0  0  0  0
 18 37  1  0  0  0  0
 18 38  1  0  0  0  0
 18 39  1  0  0  0  0
 19 40  1  0  0  0  0
 19 41  1  0  0  0  0
M  CHG  1   9  -1
M  CHG  1  19   1
M  END
> <s_m_source_file>
AV-unprocessed.smi

> <i_m_source_file_index>
1456

> <i_lp_mmshare_version>
43012

> <i_f3d_flags>
0

> <s_epik_input>
W0NIM11DMShbQ0gzXSlbQ0gyXVtDSF0oW0NIMl1DKFtDSDNdKShbQ0gzXSlbTkhdMSlbTkhdQyg9TylbTkhdYzJuW2NIXVtjSF1zMg==

> <s_epik_cmdline>
J2VwaWtfcHl0aG9uJywgJy1waCcsICc3LjAnLCAnLXRuJywgJzgnLCAnLW1hJywgJzIwMCcsICctbWV0YWxfYmluZGluZycsICctaW1hZScsICc8aW5maWxlLm1hZT4nLCAnLW9tYWUnLCAnPG91dGZpbGUubWFlPic=

> <r_lp_tautomer_probability>
1

> <r_epik_Ionization_Penalty>
7.98581

> <r_epik_Ionization_Penalty_Charging>
6.48842

> <r_epik_Ionization_Penalty_Neutral>
1.49739

> <r_epik_State_Penalty>
6.48831

> <r_epik_Charging_Adjusted_Penalty>
12.9767

> <i_epik_Tot_Q>
0

> <i_epik_Tot_abs_Q>
2

> <r_epik_Metal_State_Penalty>
2.41622

> <b_epik_Metal_Only>
1

> <s_lp_Force_Field>
OPLS_2005

> <r_lp_Energy>
15.6093

> <b_lp_Chiralities_Consistent>
1

> <s_lp_Variant>
AV-unprocessed.smi:1456-2

> <Gold.Version>
5.8.1

> <Gold.Id.Protein>
6NUR|6NUR_protein|mol2

> <Gold.PLP.Fitness>
39.0970

> <Gold.PLP.PLP>
-33.4491

> <Gold.PLP.part.hbond>
-3.0000

> <Gold.PLP.part.metal>
0.0000

> <Gold.PLP.part.buried>
-4.4447

> <Gold.PLP.part.nonpolar>
-26.2584

> <Gold.PLP.part.repulsive>
0.8521

> <Gold.PLP.ligand.clash>
0.0000

> <Gold.PLP.ligand.torsion>
1.3204

> <Gold.PLP.Chemscore.Hbond>
2.7520

> <Gold.PLP.Chemscore.CHOScore>
0.0000

> <Gold.PLP.Chemscore.Metal>
0.0000

> <Gold.Chemscore.Hbonds>
donor molecule, donor type, donor heavy atom, donor atom, acceptor molecule, acceptor atom, score
      P1  H  6896  6909       L1     8  1.00
      P1  H  6931  6943       L1    11  0.93
      P1  H  6934  6947       L1    11  0.64

> <Gold.PLP.Chemscore.Internal.Correction>
0.0326

> <Gold.Rescore>
     Score         DG    S(hbond)    S(metal)    S(lipo)     H(rot)  DE(clash)    DE(int)     intcor
     18.53     -19.88       2.38        0.00      76.92       1.00       0.02       1.33       ----

> <Gold.Chemscore.Fitness>
18.5269

> <Gold.Chemscore.DG>
-19.8753

> <Gold.Chemscore.ZeroCoef>
-5.4800

> <Gold.Chemscore.Hbond>
2.3818

> <Gold.Chemscore.Metal>
0.0000

> <Gold.Chemscore.Lipo>
76.9234

> <Gold.Chemscore.Internal_Hbond>
0.0000

> <Gold.Chemscore.DEClash>
0.0217

> <Gold.Chemscore.DEInternal>
1.3266

> <Gold.Chemscore.Rot>
1.0000

> <Gold.Chemscore.Internal.Correction>
   9.000000E+99

> <Gold.Chemscore.Hbonds>
donor molecule, donor type, donor heavy atom, donor atom, acceptor molecule, acceptor atom, score
      P1  H  6896  6909       L1     8  0.93
      P1  H  6931  6943       L1    11  0.46
      P1  H  6934  6947       L1    11  0.51

> <Gold.Chemscore.Hbond.Weighted>
-7.9552

> <Gold.Chemscore.Metal.Weighted>
-0.0000

> <Gold.Chemscore.Lipo.Weighted>
-9.0000

> <Gold.Chemscore.Internal_Hbond.Weighted>
0.0000

> <Gold.Chemscore.DEClash.Weighted>
0.0217

> <Gold.Chemscore.DEInternal.Weighted>
1.3266

> <Gold.Chemscore.Rot.Weighted>
2.5600

> <Gold.Chemscore.Internal.Correction.Weighted>
   9.000000E+99

> <Gold.Protein.RotatedTorsions>
[ 6907 6896 6895 6894 ] final   87.59 input  -60.11 | X-H torsion
[ 7974 7965 7964 7962 ] final   70.79 input  175.53 | X-H torsion
[ 8008 7997 7996 7995 ] final  -33.35 input   59.86 | X-H torsion
[ 10167 10162 10161 10158 ] final  -85.98 input  -65.29 | X-H torsion
[ 10718 10713 10712 10709 ] final  -36.85 input   66.30 | X-H torsion
[ 10763 10752 10751 10750 ] final -159.15 input  -60.55 | X-H torsion
[ 11005 11000 10999 10996 ] final -166.44 input  -57.11 | X-H torsion

> <Gold.Protein.ActiveResidues>
 VAL166  LYS551  ARG553  GLY616  TRP617  ASP618  TYR619  PRO620  LYS621  CYS622 
 ASP623  PHE694  ASN695  SER759  ASP760  ASP761  ALA762  ILE779  LEU786  VAL792 
 PHE793  MET794  SER795  GLU796  ALA797  LYS798  CYS799  TRP800  GLU811  SER814 

> <Gold.Protein.RotatedAtoms>
  152.5413  134.2253  159.8803 H   0  0  0  0  0  0  0  0  0  0  0  0  # atno 6907 bound_to 6896
  151.2228  133.4486  159.2609 H   0  0  0  0  0  0  0  0  0  0  0  0  # atno 6908 bound_to 6896
  151.0789  134.9859  159.8402 H   0  0  0  0  0  0  0  0  0  0  0  0  # atno 6909 bound_to 6896
  145.7738  139.2855  143.1306 H   0  0  0  0  0  0  0  0  0  0  0  0  # atno 7974 bound_to 7965
  154.4151  140.1713  156.1874 H   0  0  0  0  0  0  0  0  0  0  0  0  # atno 8008 bound_to 7997
  155.9632  140.3392  155.6485 H   0  0  0  0  0  0  0  0  0  0  0  0  # atno 8009 bound_to 7997
  155.6722  140.0713  157.2506 H   0  0  0  0  0  0  0  0  0  0  0  0  # atno 8010 bound_to 7997
  140.3985  143.2673  151.9173 H   0  0  0  0  0  0  0  0  0  0  0  0  # atno 10167 bound_to 10162
  156.3221  130.4267  149.7950 H   0  0  0  0  0  0  0  0  0  0  0  0  # atno 10718 bound_to 10713
  154.7498  135.3089  154.8578 H   0  0  0  0  0  0  0  0  0  0  0  0  # atno 10763 bound_to 10752
  153.9368  135.6779  153.4749 H   0  0  0  0  0  0  0  0  0  0  0  0  # atno 10764 bound_to 10752
  153.1094  135.4873  154.8937 H   0  0  0  0  0  0  0  0  0  0  0  0  # atno 10765 bound_to 10752
  140.5644  134.5300  157.5150 H   0  0  0  0  0  0  0  0  0  0  0  0  # atno 11005 bound_to 11000
  146.0143  140.8406  142.9955 LP  0  0  0  0  0  0  0  0  0  0  0  0  # atno 17320 bound_to 7965
  144.6808  140.2536  143.7328 LP  0  0  0  0  0  0  0  0  0  0  0  0  # atno 17321 bound_to 7965
  139.4785  144.5657  151.8168 LP  0  0  0  0  0  0  0  0  0  0  0  0  # atno 17342 bound_to 10162
  140.4765  144.1512  150.5925 LP  0  0  0  0  0  0  0  0  0  0  0  0  # atno 17343 bound_to 10162
  156.5255  130.8234  151.3218 LP  0  0  0  0  0  0  0  0  0  0  0  0  # atno 17370 bound_to 10713
  157.7414  130.9869  150.2441 LP  0  0  0  0  0  0  0  0  0  0  0  0  # atno 17371 bound_to 10713
  139.9392  134.7819  156.0723 LP  0  0  0  0  0  0  0  0  0  0  0  0  # atno 17394 bound_to 11000
  141.1094  133.6648  156.2943 LP  0  0  0  0  0  0  0  0  0  0  0  0  # atno 17395 bound_to 11000

$$$$
