AV-unprocessed.smi:907|AV-procd|sdf|4106|dock9
  -GOLD-   22720 2 03D 1   1.00000     0.00000
 Structure written by MMmdl.
 53 56  0  0  0  0  0  0  0  0  2 V2000
  148.5278  141.2764  155.4670 O   0  0  0  0  0  0  0  0  0  0  0  0
  149.5398  140.6227  155.2113 C   0  0  0  0  0  0  0  0  0  0  0  0
  150.7604  141.0016  155.6276 N   0  0  0  0  0  0  0  0  0  0  0  0
  151.0396  142.1851  156.4332 C   0  0  0  0  0  0  0  0  0  0  0  0
  150.2909  142.1456  157.7760 C   0  0  0  0  0  0  0  0  0  0  0  0
  150.9210  143.0575  158.8112 C   0  0  0  0  0  0  0  0  0  0  0  0
  150.9030  144.4582  158.6401 C   0  0  0  0  0  0  0  0  0  0  0  0
  151.4952  145.2630  159.6322 C   0  0  0  0  0  0  0  0  0  0  0  0
  152.0781  144.6395  160.7521 C   0  0  0  0  0  0  0  0  0  0  0  0
  152.0425  143.2328  160.8303 C   0  0  0  0  0  0  0  0  0  0  0  0
  151.4773  142.4516  159.8845 N   0  0  0  0  0  0  0  0  0  0  0  0
  149.5241  139.5069  154.4402 N   0  0  0  0  0  0  0  0  0  0  0  0
  150.6785  138.6546  154.1279 C   0  0  0  0  0  0  0  0  0  0  0  0
  150.5874  137.3664  154.9671 C   0  0  0  0  0  0  0  0  0  0  0  0
  149.2953  136.6525  154.7504 N   0  3  0  0  0  0  0  0  0  0  0  0
  149.1897  135.4032  155.5581 C   0  0  2  0  0  0  0  0  0  0  0  0
  150.3546  134.4053  155.3450 C   0  0  0  0  0  0  0  0  0  0  0  0
  149.6299  133.0697  155.0907 C   0  0  2  0  0  0  0  0  0  0  0  0
  149.0580  133.0804  153.6628 C   0  0  0  0  0  0  0  0  0  0  0  0
  147.9058  134.0946  153.7730 C   0  0  0  0  0  0  0  0  0  0  0  0
  147.9546  134.5167  155.2580 C   0  0  1  0  0  0  0  0  0  0  0  0
  148.3665  133.2116  155.9311 C   0  0  0  0  0  0  0  0  0  0  0  0
  148.1201  137.5573  154.9087 C   0  0  0  0  0  0  0  0  0  0  0  0
  148.2744  138.8388  154.0705 C   0  0  0  0  0  0  0  0  0  0  0  0
  151.5522  140.4350  155.3605 H   0  0  0  0  0  0  0  0  0  0  0  0
  152.1144  142.2787  156.5982 H   0  0  0  0  0  0  0  0  0  0  0  0
  150.7366  143.0637  155.8631 H   0  0  0  0  0  0  0  0  0  0  0  0
  149.2496  142.4380  157.6331 H   0  0  0  0  0  0  0  0  0  0  0  0
  150.2710  141.1282  158.1687 H   0  0  0  0  0  0  0  0  0  0  0  0
  150.4451  144.9073  157.7708 H   0  0  0  0  0  0  0  0  0  0  0  0
  151.5015  146.3386  159.5359 H   0  0  0  0  0  0  0  0  0  0  0  0
  152.5406  145.2249  161.5329 H   0  0  0  0  0  0  0  0  0  0  0  0
  152.4798  142.7218  161.6751 H   0  0  0  0  0  0  0  0  0  0  0  0
  150.6636  138.4088  153.0652 H   0  0  0  0  0  0  0  0  0  0  0  0
  151.6413  139.1356  154.3005 H   0  0  0  0  0  0  0  0  0  0  0  0
  151.4283  136.7218  154.7143 H   0  0  0  0  0  0  0  0  0  0  0  0
  150.6891  137.6120  156.0255 H   0  0  0  0  0  0  0  0  0  0  0  0
  149.1556  135.6887  156.6114 H   0  0  0  0  0  0  0  0  0  0  0  0
  151.0004  134.6614  154.5044 H   0  0  0  0  0  0  0  0  0  0  0  0
  150.9783  134.3508  156.2381 H   0  0  0  0  0  0  0  0  0  0  0  0
  150.2371  132.1912  155.3108 H   0  0  0  0  0  0  0  0  0  0  0  0
  149.7995  133.3687  152.9168 H   0  0  0  0  0  0  0  0  0  0  0  0
  148.6769  132.0952  153.3905 H   0  0  0  0  0  0  0  0  0  0  0  0
  148.0242  134.9334  153.0872 H   0  0  0  0  0  0  0  0  0  0  0  0
  146.9548  133.6132  153.5416 H   0  0  0  0  0  0  0  0  0  0  0  0
  147.0153  134.9274  155.6294 H   0  0  0  0  0  0  0  0  0  0  0  0
  147.6525  132.3999  155.7790 H   0  0  0  0  0  0  0  0  0  0  0  0
  148.5664  133.3155  156.9992 H   0  0  0  0  0  0  0  0  0  0  0  0
  147.2051  137.0526  154.6005 H   0  0  0  0  0  0  0  0  0  0  0  0
  148.0017  137.8156  155.9622 H   0  0  0  0  0  0  0  0  0  0  0  0
  147.4009  139.4796  154.2002 H   0  0  0  0  0  0  0  0  0  0  0  0
  148.2998  138.5905  153.0083 H   0  0  0  0  0  0  0  0  0  0  0  0
  149.2919  136.3646  153.7823 H   0  0  0  0  0  0  0  0  0  0  0  0
  1  2  2  0  0  0  0
  2  3  1  0  0  0  0
  2 12  1  0  0  0  0
  3  4  1  0  0  0  0
  3 25  1  0  0  0  0
  4  5  1  0  0  0  0
  4 26  1  0  0  0  0
  4 27  1  0  0  0  0
  5  6  1  0  0  0  0
  5 28  1  0  0  0  0
  5 29  1  0  0  0  0
  6 11  1  0  0  0  0
  6  7  2  0  0  0  0
  7  8  1  0  0  0  0
  7 30  1  0  0  0  0
  8  9  2  0  0  0  0
  8 31  1  0  0  0  0
  9 10  1  0  0  0  0
  9 32  1  0  0  0  0
 10 11  2  0  0  0  0
 10 33  1  0  0  0  0
 12 24  1  0  0  0  0
 12 13  1  0  0  0  0
 13 14  1  0  0  0  0
 13 34  1  0  0  0  0
 13 35  1  0  0  0  0
 14 15  1  0  0  0  0
 14 36  1  0  0  0  0
 14 37  1  0  0  0  0
 15 16  1  0  0  0  0
 15 23  1  0  0  0  0
 15 53  1  0  0  0  0
 16 21  1  0  0  0  0
 16 17  1  0  0  0  0
 16 38  1  0  0  0  0
 17 18  1  0  0  0  0
 17 39  1  0  0  0  0
 17 40  1  0  0  0  0
 18 22  1  0  0  0  0
 18 19  1  0  0  0  0
 18 41  1  0  0  0  0
 19 20  1  0  0  0  0
 19 42  1  0  0  0  0
 19 43  1  0  0  0  0
 20 21  1  0  0  0  0
 20 44  1  0  0  0  0
 20 45  1  0  0  0  0
 21 22  1  0  0  0  0
 21 46  1  0  0  0  0
 22 47  1  0  0  0  0
 22 48  1  0  0  0  0
 23 24  1  0  0  0  0
 23 49  1  0  0  0  0
 23 50  1  0  0  0  0
 24 51  1  0  0  0  0
 24 52  1  0  0  0  0
M  CHG  1  15   1
M  END
> <s_m_source_file>
AV-unprocessed.smi

> <i_m_source_file_index>
907

> <i_lp_mmshare_version>
43012

> <i_f3d_flags>
0

> <s_epik_input>
W0NIMl0xW0NIMl1bQ0BASF0oW0NIMl0yKVtDQEBIXShbQ0gyXVtDQEhdMTIpTihbQ0gyXVtDSDJdMylbQ0gyXVtDSDJdTjNDKD1PKVtOSF1bQ0gyXVtDSDJdYzRbY0hdW2NIXVtjSF1bY0hdbjQ=

> <s_epik_cmdline>
J2VwaWtfcHl0aG9uJywgJy1waCcsICc3LjAnLCAnLXRuJywgJzgnLCAnLW1hJywgJzIwMCcsICctbWV0YWxfYmluZGluZycsICctaW1hZScsICc8aW5maWxlLm1hZT4nLCAnLW9tYWUnLCAnPG91dGZpbGUubWFlPic=

> <r_epik_Ionization_Penalty>
0.0419258

> <r_epik_Ionization_Penalty_Charging>
0.00262064

> <r_epik_Ionization_Penalty_Neutral>
0.0393052

> <r_epik_State_Penalty>
0.0329887

> <r_epik_Charging_Adjusted_Penalty>
0.0356093

> <i_epik_Tot_Q>
1

> <i_epik_Tot_abs_Q>
1

> <r_epik_Metal_State_Penalty>
0.0309172

> <b_epik_Metal_Only>
0

> <s_lp_Force_Field>
OPLS_2005

> <r_lp_Energy>
94.5265

> <b_lp_Chiralities_Consistent>
1

> <s_lp_Variant>
AV-unprocessed.smi:907-1

> <Gold.Version>
5.8.1

> <Gold.Id.Protein>
6NUR|6NUR_protein|mol2

> <Gold.PLP.Fitness>
50.0887

> <Gold.PLP.PLP>
-44.3696

> <Gold.PLP.part.hbond>
-1.4262

> <Gold.PLP.part.metal>
0.0000

> <Gold.PLP.part.buried>
-6.8641

> <Gold.PLP.part.nonpolar>
-36.0882

> <Gold.PLP.part.repulsive>
0.6040

> <Gold.PLP.ligand.clash>
0.0000

> <Gold.PLP.ligand.torsion>
0.1934

> <Gold.PLP.Chemscore.Hbond>
2.0000

> <Gold.PLP.Chemscore.CHOScore>
0.0000

> <Gold.PLP.Chemscore.Metal>
0.0000

> <Gold.Chemscore.Hbonds>
donor molecule, donor type, donor heavy atom, donor atom, acceptor molecule, acceptor atom, score
      L1  H    15    53       P1  7948  2.00

> <Gold.PLP.Chemscore.Internal.Correction>
0.1059

> <Gold.Rescore>
     Score         DG    S(hbond)    S(metal)    S(lipo)     H(rot)  DE(clash)    DE(int)     intcor
     18.84     -19.08       0.99        0.00     117.95       1.37       0.03       0.21       ----

> <Gold.Chemscore.Fitness>
18.8394

> <Gold.Chemscore.DG>
-19.0803

> <Gold.Chemscore.ZeroCoef>
-5.4800

> <Gold.Chemscore.Hbond>
0.9926

> <Gold.Chemscore.Metal>
0.0000

> <Gold.Chemscore.Lipo>
117.9493

> <Gold.Chemscore.Internal_Hbond>
0.0000

> <Gold.Chemscore.DEClash>
0.0259

> <Gold.Chemscore.DEInternal>
0.2150

> <Gold.Chemscore.Rot>
1.3731

> <Gold.Chemscore.Internal.Correction>
   9.000000E+99

> <Gold.Chemscore.Hbonds>
donor molecule, donor type, donor heavy atom, donor atom, acceptor molecule, acceptor atom, score
      L1  H    15    53       P1  7948  0.90

> <Gold.Chemscore.Hbond.Weighted>
-3.3154

> <Gold.Chemscore.Metal.Weighted>
-0.0000

> <Gold.Chemscore.Lipo.Weighted>
-13.8001

> <Gold.Chemscore.Internal_Hbond.Weighted>
0.0000

> <Gold.Chemscore.DEClash.Weighted>
0.0259

> <Gold.Chemscore.DEInternal.Weighted>
0.2150

> <Gold.Chemscore.Rot.Weighted>
3.5152

> <Gold.Chemscore.Internal.Correction.Weighted>
   9.000000E+99

> <Gold.Protein.RotatedTorsions>
[ 6907 6896 6895 6894 ] final -170.51 input  -60.11 | X-H torsion
[ 7974 7965 7964 7962 ] final   39.19 input  175.53 | X-H torsion
[ 8008 7997 7996 7995 ] final -141.45 input   59.86 | X-H torsion
[ 10167 10162 10161 10158 ] final  132.98 input  -65.29 | X-H torsion
[ 10718 10713 10712 10709 ] final   18.06 input   66.30 | X-H torsion
[ 10763 10752 10751 10750 ] final  -52.00 input  -60.55 | X-H torsion
[ 11005 11000 10999 10996 ] final   20.27 input  -57.11 | X-H torsion

> <Gold.Protein.ActiveResidues>
 VAL166  LYS551  ARG553  GLY616  TRP617  ASP618  TYR619  PRO620  LYS621  CYS622 
 ASP623  PHE694  ASN695  SER759  ASP760  ASP761  ALA762  ILE779  LEU786  VAL792 
 PHE793  MET794  SER795  GLU796  ALA797  LYS798  CYS799  TRP800  GLU811  SER814 

> <Gold.Protein.RotatedAtoms>
  151.5089  133.3489  159.2881 H   0  0  0  0  0  0  0  0  0  0  0  0  # atno 6907 bound_to 6896
  150.8725  134.8104  159.7176 H   0  0  0  0  0  0  0  0  0  0  0  0  # atno 6908 bound_to 6896
  152.4708  134.4975  159.9766 H   0  0  0  0  0  0  0  0  0  0  0  0  # atno 6909 bound_to 6896
  146.1003  139.5681  142.9418 H   0  0  0  0  0  0  0  0  0  0  0  0  # atno 7974 bound_to 7965
  155.4780  140.0558  157.2971 H   0  0  0  0  0  0  0  0  0  0  0  0  # atno 8008 bound_to 7997
  154.4671  140.2023  156.0042 H   0  0  0  0  0  0  0  0  0  0  0  0  # atno 8009 bound_to 7997
  156.0994  140.3221  155.7925 H   0  0  0  0  0  0  0  0  0  0  0  0  # atno 8010 bound_to 7997
  139.5316  144.6637  151.4929 H   0  0  0  0  0  0  0  0  0  0  0  0  # atno 10167 bound_to 10162
  157.0909  130.6427  149.5848 H   0  0  0  0  0  0  0  0  0  0  0  0  # atno 10718 bound_to 10713
  154.1357  135.6513  153.4931 H   0  0  0  0  0  0  0  0  0  0  0  0  # atno 10763 bound_to 10752
  153.0181  135.5303  154.6956 H   0  0  0  0  0  0  0  0  0  0  0  0  # atno 10764 bound_to 10752
  154.6203  135.2964  155.0304 H   0  0  0  0  0  0  0  0  0  0  0  0  # atno 10765 bound_to 10752
  140.4045  134.1684  155.7665 H   0  0  0  0  0  0  0  0  0  0  0  0  # atno 11005 bound_to 11000
  145.5867  141.0375  143.2092 LP  0  0  0  0  0  0  0  0  0  0  0  0  # atno 17320 bound_to 7965
  144.7428  139.7403  143.7304 LP  0  0  0  0  0  0  0  0  0  0  0  0  # atno 17321 bound_to 7965
  140.6498  143.8719  150.6774 LP  0  0  0  0  0  0  0  0  0  0  0  0  # atno 17342 bound_to 10162
  140.2080  143.3906  152.1740 LP  0  0  0  0  0  0  0  0  0  0  0  0  # atno 17343 bound_to 10162
  155.9898  130.4947  150.7230 LP  0  0  0  0  0  0  0  0  0  0  0  0  # atno 17370 bound_to 10713
  157.4722  131.0894  151.0630 LP  0  0  0  0  0  0  0  0  0  0  0  0  # atno 17371 bound_to 10713
  141.1844  133.8344  157.1140 LP  0  0  0  0  0  0  0  0  0  0  0  0  # atno 17394 bound_to 11000
  140.0312  134.9900  157.0784 LP  0  0  0  0  0  0  0  0  0  0  0  0  # atno 17395 bound_to 11000

$$$$
