#       Name:                AV-unprocessed.smi:2581
#       Creating user name   scv26
#       Creation time:       Fri Mar 27 14:14:52 2020


#       File generated by GOLD software.
#

@<TRIPOS>MOLECULE
AV-unprocessed.smi:2581
    45    47     1
SMALL
NO_CHARGES


@<TRIPOS>ATOM
      1 ****        -0.7060  -2.1642   1.4931 O.2            1 S1                 0.0000
      2 ****        -0.2314  -1.1458   0.9909 C.2            1 S1                 0.0000
      3 ****         1.2053  -0.8590   0.9904 C.2            1 S1                 0.0000
      4 ****         1.7514   0.2417   0.4100 C.2            1 S1                 0.0000
      5 ****         3.1269   0.4873   0.4210 N.pl3          1 S1                 0.0000
      6 ****         4.0572  -0.0484   1.4116 C.3            1 S1                 0.0000
      7 ****         5.0282  -1.0367   0.7448 C.3            1 S1                 0.0000
      8 ****         5.7309  -0.3674  -0.2976 O.3            1 S1                 0.0000
      9 ****         4.8526   0.1431  -1.2962 C.3            1 S1                 0.0000
     10 ****         3.8621   1.1373  -0.6624 C.3            1 S1                 0.0000
     11 ****         0.8047   1.1477  -0.2233 C.2            1 S1                 0.0000
     12 ****        -0.4665   0.9355  -0.2413 N.2            1 S1                 0.0000
     13 ****        -0.9902  -0.1891   0.3747 N.am           1 S1                 0.0000
     14 ****        -2.4580  -0.3189   0.2767 C.3            1 S1                 0.0000
     15 ****        -3.1989   0.9581   0.7367 C.3            1 S1                 0.0000
     16 ****        -4.7168   0.7695   0.5941 C.3            1 S1                 0.0000
     17 ****        -5.0849   0.3631  -0.8431 C.3            1 S1                 0.0000
     18 ****        -4.3507  -0.8558  -1.2486 N.4            1 S1                 1.0000
     19 ****        -2.8815  -0.7058  -1.1569 C.3            1 S1                 0.0000
     20 ****         1.8446  -1.5875   1.4662 H              1 S1                 0.0000
     21 ****         4.6178   0.7799   1.8468 H              1 S1                 0.0000
     22 ****         3.5352  -0.5231   2.2415 H              1 S1                 0.0000
     23 ****         5.7470  -1.4100   1.4740 H              1 S1                 0.0000
     24 ****         4.4941  -1.9013   0.3473 H              1 S1                 0.0000
     25 ****         5.4427   0.6390  -2.0668 H              1 S1                 0.0000
     26 ****         4.3207  -0.6781  -1.7797 H              1 S1                 0.0000
     27 ****         3.1953   1.5127  -1.4372 H              1 S1                 0.0000
     28 ****         4.3968   1.9998  -0.2629 H              1 S1                 0.0000
     29 ****         1.2293   2.0386  -0.6846 H              1 S1                 0.0000
     30 ****        -2.8078  -1.1143   0.9369 H              1 S1                 0.0000
     31 ****        -2.9469   1.1887   1.7724 H              1 S1                 0.0000
     32 ****        -2.8988   1.8215   0.1418 H              1 S1                 0.0000
     33 ****        -5.0596   0.0048   1.2922 H              1 S1                 0.0000
     34 ****        -5.2338   1.6903   0.8660 H              1 S1                 0.0000
     35 ****        -6.1562   0.1761  -0.9206 H              1 S1                 0.0000
     36 ****        -4.8509   1.1709  -1.5380 H              1 S1                 0.0000
     37 ****        -4.6322  -1.6154  -0.6452 H              1 S1                 0.0000
     38 ****        -2.5580   0.0477  -1.8763 H              1 S1                 0.0000
     39 ****        -2.4149  -1.6468  -1.4497 H              1 S1                 0.0000
     40 ****        -4.5975  -1.0876  -2.2004 H              1 S1                 0.0000
     41 ****        -1.6927  -2.3237   1.4624 LP             1 S1                 0.0000
     42 ****        -0.1050  -2.8321   1.9319 LP             1 S1                 0.0000
     43 ****         6.3643  -1.0124  -0.7249 LP             1 S1                 0.0000
     44 ****         6.2459   0.3932   0.0978 LP             1 S1                 0.0000
     45 ****        -1.0749   1.5831  -0.7001 LP             1 S1                 0.0000
@<TRIPOS>BOND
    1    1    2 2     
    2    2   13 am    
    3    2    3 1     
    4    3    4 2     
    5    3   20 1     
    6    4    5 1     
    7    4   11 1     
    8    5   10 1     
    9    5    6 1     
   10    6    7 1     
   11    6   21 1     
   12    6   22 1     
   13    7    8 1     
   14    7   23 1     
   15    7   24 1     
   16    8    9 1     
   17    9   10 1     
   18    9   25 1     
   19    9   26 1     
   20   10   27 1     
   21   10   28 1     
   22   11   12 2     
   23   11   29 1     
   24   12   13 1     
   25   13   14 1     
   26   14   19 1     
   27   14   15 1     
   28   14   30 1     
   29   15   16 1     
   30   15   31 1     
   31   15   32 1     
   32   16   17 1     
   33   16   33 1     
   34   16   34 1     
   35   17   18 1     
   36   17   35 1     
   37   17   36 1     
   38   18   19 1     
   39   18   37 1     
   40   18   40 1     
   41   19   38 1     
   42   19   39 1     
   43    1   41 1     
   44    1   42 1     
   45    8   43 1     
   46    8   44 1     
   47   12   45 1     
@<TRIPOS>SUBSTRUCTURE
      1 S1             1
@<TRIPOS>SET
LONE_PAIRS      STATIC     ATOMS    <user>   **** ""
5 41 42 43 44 45
DONOR_HYDROGENS      STATIC     ATOMS    <user>   **** ""
2 37 40
ATOM$BLUE        STATIC     ATOMS    COLORGROUP SYSTEM
5 41 42 43 44 45
ATOM$RED        STATIC     ATOMS    COLORGROUP SYSTEM
2 37 40
