#       Name:                AV-unprocessed.smi:72
#       Creating user name   scv26
#       Creation time:       Thu Mar 26 16:57:59 2020


#       File generated by GOLD software.
#

@<TRIPOS>MOLECULE
AV-unprocessed.smi:72
    41    42     1
SMALL
NO_CHARGES


@<TRIPOS>ATOM
      1 ****        -3.9005   2.8214  -1.9402 N.2            1 S1                 0.0000
      2 ****        -2.9028   2.2303  -1.3855 C.2            1 S1                 0.0000
      3 ****        -1.7752   1.7371  -2.0592 N.2            1 S1                 0.0000
      4 ****        -0.8386   1.1617  -1.3696 C.2            1 S1                 0.0000
      5 ****        -0.9229   1.0081   0.0763 N.am           1 S1                 0.0000
      6 ****         0.1694   0.3365   0.8909 C.3            1 S1                 0.0000
      7 ****         1.3697   0.3301   0.1726 O.3            1 S1                 0.0000
      8 ****         1.6685  -0.9896  -0.2734 C.3            1 S1                 0.0000
      9 ****         3.1699  -1.1511  -0.5681 C.3            1 S1                 0.0000
     10 ****         3.4623  -0.6719  -1.8632 O.3            1 S1                 0.0000
     11 ****         1.1161  -1.8657   0.8574 C.3            1 S1                 0.0000
     12 ****         2.0201  -1.9265   1.9461 O.3            1 S1                 0.0000
     13 ****        -0.1550  -1.1317   1.2639 C.3            1 S1                 0.0000
     14 ****        -1.2619  -1.6730   0.5634 O.3            1 S1                 0.0000
     15 ****        -2.0561   1.4990   0.7695 C.2            1 S1                 0.0000
     16 ****        -2.1825   1.3848   1.9885 O.2            1 S1                 0.0000
     17 ****        -2.9980   2.0930   0.0057 N.am           1 S1                 0.0000
     18 ****         0.3161   0.9762   1.7629 H              1 S1                 0.0000
     19 ****         1.0884  -1.2025  -1.1732 H              1 S1                 0.0000
     20 ****         0.9240  -2.8868   0.5243 H              1 S1                 0.0000
     21 ****        -0.3554  -1.2061   2.3336 H              1 S1                 0.0000
     22 ****        -4.5865   3.0839  -1.2479 H              1 S1                 0.0000
     23 ****         0.0628   0.7622  -1.8335 H              1 S1                 0.0000
     24 ****         3.7796  -0.6332   0.1729 H              1 S1                 0.0000
     25 ****         3.4469  -2.2054  -0.5409 H              1 S1                 0.0000
     26 ****         4.3881  -0.7778  -2.0214 H              1 S1                 0.0000
     27 ****         2.8074  -2.3630   1.6593 H              1 S1                 0.0000
     28 ****        -2.0367  -1.1937   0.8145 H              1 S1                 0.0000
     29 ****        -3.8171   2.4524   0.4733 H              1 S1                 0.0000
     30 ****        -3.9852   2.9968  -2.9210 LP             1 S1                 0.0000
     31 ****        -1.6948   1.8273  -3.0518 LP             1 S1                 0.0000
     32 ****         2.1093   0.6551   0.7621 LP             1 S1                 0.0000
     33 ****         1.2842   0.9351  -0.6191 LP             1 S1                 0.0000
     34 ****         3.2178   0.2956  -1.9277 LP             1 S1                 0.0000
     35 ****         2.9429  -1.1928  -2.5405 LP             1 S1                 0.0000
     36 ****         1.6065  -2.4378   2.6995 LP             1 S1                 0.0000
     37 ****         2.2407  -1.0007   2.2532 LP             1 S1                 0.0000
     38 ****        -1.3711  -2.6388   0.7987 LP             1 S1                 0.0000
     39 ****        -1.1144  -1.5845  -0.4217 LP             1 S1                 0.0000
     40 ****        -1.4701   0.9323   2.5249 LP             1 S1                 0.0000
     41 ****        -2.9976   1.7446   2.4426 LP             1 S1                 0.0000
@<TRIPOS>BOND
    1    1    2 2     
    2    1   22 1     
    3    2   17 1     
    4    2    3 1     
    5    3    4 2     
    6    4    5 1     
    7    4   23 1     
    8    5    6 1     
    9    5   15 am    
   10    6   18 1     
   11    6   13 1     
   12    6    7 1     
   13    7    8 1     
   14    8   19 1     
   15    8    9 1     
   16    8   11 1     
   17    9   10 1     
   18    9   24 1     
   19    9   25 1     
   20   10   26 1     
   21   11   20 1     
   22   11   12 1     
   23   11   13 1     
   24   12   27 1     
   25   13   21 1     
   26   13   14 1     
   27   14   28 1     
   28   15   16 2     
   29   15   17 am    
   30   17   29 1     
   31    1   30 1     
   32    3   31 1     
   33    7   32 1     
   34    7   33 1     
   35   10   34 1     
   36   10   35 1     
   37   12   36 1     
   38   12   37 1     
   39   14   38 1     
   40   14   39 1     
   41   16   40 1     
   42   16   41 1     
@<TRIPOS>SUBSTRUCTURE
      1 S1             1
@<TRIPOS>SET
LONE_PAIRS      STATIC     ATOMS    <user>   **** ""
12 30 31 32 33 34 35 36 37 38 39 40 41
DONOR_HYDROGENS      STATIC     ATOMS    <user>   **** ""
5 22 26 27 28 29
ATOM$BLUE        STATIC     ATOMS    COLORGROUP SYSTEM
12 30 31 32 33 34 35 36 37 38 39 40 41
ATOM$RED        STATIC     ATOMS    COLORGROUP SYSTEM
5 22 26 27 28 29
