AV-unprocessed.smi:2822|AV-procd|sdf|10872|dock3
  -GOLD-   2272015313D 1   1.00000     0.00000
 Structure written by MMmdl.
 40 42  0  0  0  0  0  0  0  0  2 V2000
  150.9528  145.0149  158.7340 Cl  0  0  0  0  0  0  0  0  0  0  0  0
  151.8061  143.8485  159.6839 C   0  0  0  0  0  0  0  0  0  0  0  0
  152.1837  144.1640  161.0053 C   0  0  0  0  0  0  0  0  0  0  0  0
  152.8519  143.3128  161.8117 N   0  0  0  0  0  0  0  0  0  0  0  0
  153.1696  142.0984  161.3173 C   0  0  0  0  0  0  0  0  0  0  0  0
  152.8407  141.6817  160.0120 C   0  0  0  0  0  0  0  0  0  0  0  0
  152.1414  142.5757  159.1670 C   0  0  0  0  0  0  0  0  0  0  0  0
  151.7746  142.2423  157.8538 N   0  0  0  0  0  0  0  0  0  0  0  0
  151.8771  140.8695  157.3832 C   0  0  0  0  0  0  0  0  0  0  0  0
  151.3436  140.7189  155.9517 C   0  0  2  0  0  0  0  0  0  0  0  0
  149.9688  141.3923  155.7864 C   0  0  0  0  0  0  0  0  0  0  0  0
  149.4329  141.1602  154.4220 N   0  3  2  0  0  0  0  0  0  0  0  0
  148.1308  141.8294  154.1649 C   0  0  0  0  0  0  0  0  0  0  0  0
  146.9573  141.1053  154.8521 C   0  0  0  0  0  0  0  0  0  0  0  0
  146.9183  139.6219  154.4607 C   0  0  0  0  0  0  0  0  0  0  0  0
  148.2728  138.9572  154.7456 C   0  0  0  0  0  0  0  0  0  0  0  0
  149.4241  139.7181  154.0511 C   0  0  2  0  0  0  0  0  0  0  0  0
  150.8043  139.0891  154.3273 C   0  0  0  0  0  0  0  0  0  0  0  0
  151.1965  139.3304  155.6729 O   0  0  0  0  0  0  0  0  0  0  0  0
  151.9428  145.1285  161.4277 H   0  0  0  0  0  0  0  0  0  0  0  0
  153.7024  141.4357  161.9830 H   0  0  0  0  0  0  0  0  0  0  0  0
  153.1259  140.6923  159.6873 H   0  0  0  0  0  0  0  0  0  0  0  0
  151.7084  142.9817  157.1685 H   0  0  0  0  0  0  0  0  0  0  0  0
  152.9145  140.5360  157.4348 H   0  0  0  0  0  0  0  0  0  0  0  0
  151.2972  140.2341  158.0536 H   0  0  0  0  0  0  0  0  0  0  0  0
  152.0552  141.1654  155.2541 H   0  0  0  0  0  0  0  0  0  0  0  0
  149.2773  141.0093  156.5374 H   0  0  0  0  0  0  0  0  0  0  0  0
  150.0598  142.4654  155.9596 H   0  0  0  0  0  0  0  0  0  0  0  0
  148.1770  142.8713  154.4841 H   0  0  0  0  0  0  0  0  0  0  0  0
  147.9628  141.8463  153.0874 H   0  0  0  0  0  0  0  0  0  0  0  0
  147.0397  141.1984  155.9353 H   0  0  0  0  0  0  0  0  0  0  0  0
  146.0167  141.5842  154.5785 H   0  0  0  0  0  0  0  0  0  0  0  0
  146.1253  139.1096  155.0063 H   0  0  0  0  0  0  0  0  0  0  0  0
  146.6784  139.5284  153.4007 H   0  0  0  0  0  0  0  0  0  0  0  0
  148.4401  138.9131  155.8224 H   0  0  0  0  0  0  0  0  0  0  0  0
  148.2497  137.9231  154.4001 H   0  0  0  0  0  0  0  0  0  0  0  0
  149.2491  139.6644  152.9755 H   0  0  0  0  0  0  0  0  0  0  0  0
  150.7759  138.0134  154.1513 H   0  0  0  0  0  0  0  0  0  0  0  0
  151.5552  139.4957  153.6476 H   0  0  0  0  0  0  0  0  0  0  0  0
  150.0961  141.6010  153.8005 H   0  0  0  0  0  0  0  0  0  0  0  0
  1  2  1  0  0  0  0
  2  7  1  0  0  0  0
  2  3  2  0  0  0  0
  3  4  1  0  0  0  0
  3 20  1  0  0  0  0
  4  5  2  0  0  0  0
  5  6  1  0  0  0  0
  5 21  1  0  0  0  0
  6  7  2  0  0  0  0
  6 22  1  0  0  0  0
  7  8  1  0  0  0  0
  8  9  1  0  0  0  0
  8 23  1  0  0  0  0
  9 10  1  0  0  0  0
  9 24  1  0  0  0  0
  9 25  1  0  0  0  0
 10 19  1  0  0  0  0
 10 11  1  0  0  0  0
 10 26  1  0  0  0  0
 11 12  1  0  0  0  0
 11 27  1  0  0  0  0
 11 28  1  0  0  0  0
 12 17  1  0  0  0  0
 12 13  1  0  0  0  0
 12 40  1  0  0  0  0
 13 14  1  0  0  0  0
 13 29  1  0  0  0  0
 13 30  1  0  0  0  0
 14 15  1  0  0  0  0
 14 31  1  0  0  0  0
 14 32  1  0  0  0  0
 15 16  1  0  0  0  0
 15 33  1  0  0  0  0
 15 34  1  0  0  0  0
 16 17  1  0  0  0  0
 16 35  1  0  0  0  0
 16 36  1  0  0  0  0
 17 18  1  0  0  0  0
 17 37  1  0  0  0  0
 18 19  1  0  0  0  0
 18 38  1  0  0  0  0
 18 39  1  0  0  0  0
M  CHG  1  12   1
M  END
> <s_m_source_file>
AV-unprocessed.smi

> <i_m_source_file_index>
2822

> <i_lp_mmshare_version>
43012

> <i_f3d_flags>
0

> <s_epik_input>
Q2xjMVtjSF1uW2NIXVtjSF1jMVtOSF1bQ0gyXVtDQEhdKFtDSDJdMilPW0NIMl1bQ0BASF0oTjIzKVtDSDJdW0NIMl1bQ0gyXVtDSDJdMw==

> <s_epik_cmdline>
J2VwaWtfcHl0aG9uJywgJy1waCcsICc3LjAnLCAnLXRuJywgJzgnLCAnLW1hJywgJzIwMCcsICctbWV0YWxfYmluZGluZycsICctaW1hZScsICc8aW5maWxlLm1hZT4nLCAnLW9tYWUnLCAnPG91dGZpbGUubWFlPic=

> <r_lp_tautomer_probability>
0.999999

> <r_epik_Ionization_Penalty>
0.88937

> <r_epik_Ionization_Penalty_Charging>
0.0803403

> <r_epik_Ionization_Penalty_Neutral>
0.80903

> <r_epik_State_Penalty>
0.931884

> <r_epik_Charging_Adjusted_Penalty>
1.01222

> <i_epik_Tot_Q>
1

> <i_epik_Tot_abs_Q>
1

> <r_epik_Metal_State_Penalty>
0.0782275

> <b_epik_Metal_Only>
0

> <s_lp_Force_Field>
OPLS_2005

> <r_lp_Energy>
31.6827

> <b_lp_Chiralities_Consistent>
1

> <s_lp_Variant>
AV-unprocessed.smi:2822-13

> <Gold.Version>
5.8.1

> <Gold.Id.Protein>
6NUR|6NUR_protein|mol2

> <Gold.PLP.Fitness>
39.7857

> <Gold.PLP.PLP>
-40.0106

> <Gold.PLP.part.hbond>
0.0000

> <Gold.PLP.part.metal>
0.0000

> <Gold.PLP.part.buried>
-2.5156

> <Gold.PLP.part.nonpolar>
-36.4516

> <Gold.PLP.part.repulsive>
0.9475

> <Gold.PLP.ligand.clash>
0.0000

> <Gold.PLP.ligand.torsion>
0.1135

> <Gold.PLP.Chemscore.Hbond>
0.0000

> <Gold.PLP.Chemscore.CHOScore>
0.0000

> <Gold.PLP.Chemscore.Metal>
0.0000

> <Gold.PLP.Chemscore.Internal.Correction>
0.0022

> <Gold.Rescore>
     Score         DG    S(hbond)    S(metal)    S(lipo)     H(rot)  DE(clash)    DE(int)     intcor
     16.18     -16.44       0.00        0.00     119.26       1.17       0.16       0.10       ----

> <Gold.Chemscore.Fitness>
16.1818

> <Gold.Chemscore.DG>
-16.4401

> <Gold.Chemscore.ZeroCoef>
-5.4800

> <Gold.Chemscore.Hbond>
0.0000

> <Gold.Chemscore.Metal>
0.0000

> <Gold.Chemscore.Lipo>
119.2605

> <Gold.Chemscore.Internal_Hbond>
0.0000

> <Gold.Chemscore.DEClash>
0.1592

> <Gold.Chemscore.DEInternal>
0.0991

> <Gold.Chemscore.Rot>
1.1693

> <Gold.Chemscore.Internal.Correction>
   9.000000E+99

> <Gold.Chemscore.Hbond.Weighted>
-0.0000

> <Gold.Chemscore.Metal.Weighted>
-0.0000

> <Gold.Chemscore.Lipo.Weighted>
-13.9535

> <Gold.Chemscore.Internal_Hbond.Weighted>
0.0000

> <Gold.Chemscore.DEClash.Weighted>
0.1592

> <Gold.Chemscore.DEInternal.Weighted>
0.0991

> <Gold.Chemscore.Rot.Weighted>
2.9934

> <Gold.Chemscore.Internal.Correction.Weighted>
   9.000000E+99

> <Gold.Protein.RotatedTorsions>
[ 6907 6896 6895 6894 ] final  148.79 input  -60.11 | X-H torsion
[ 7974 7965 7964 7962 ] final   56.11 input  175.53 | X-H torsion
[ 8008 7997 7996 7995 ] final   38.04 input   59.86 | X-H torsion
[ 10167 10162 10161 10158 ] final   69.89 input  -65.29 | X-H torsion
[ 10718 10713 10712 10709 ] final   91.60 input   66.30 | X-H torsion
[ 10763 10752 10751 10750 ] final   -9.41 input  -60.55 | X-H torsion
[ 11005 11000 10999 10996 ] final   15.66 input  -57.11 | X-H torsion

> <Gold.Protein.ActiveResidues>
 VAL166  LYS551  ARG553  GLY616  TRP617  ASP618  TYR619  PRO620  LYS621  CYS622 
 ASP623  PHE694  ASN695  SER759  ASP760  ASP761  ALA762  ILE779  LEU786  VAL792 
 PHE793  MET794  SER795  GLU796  ALA797  LYS798  CYS799  TRP800  GLU811  SER814 

> <Gold.Protein.RotatedAtoms>
  152.1368  133.4440  159.4747 H   0  0  0  0  0  0  0  0  0  0  0  0  # atno 6907 bound_to 6896
  150.6882  134.2354  159.4460 H   0  0  0  0  0  0  0  0  0  0  0  0  # atno 6908 bound_to 6896
  152.0242  134.9805  160.0622 H   0  0  0  0  0  0  0  0  0  0  0  0  # atno 6909 bound_to 6896
  145.9433  139.3907  143.0350 H   0  0  0  0  0  0  0  0  0  0  0  0  # atno 7974 bound_to 7965
  155.2137  140.3325  155.4325 H   0  0  0  0  0  0  0  0  0  0  0  0  # atno 8008 bound_to 7997
  156.2360  140.1873  156.7165 H   0  0  0  0  0  0  0  0  0  0  0  0  # atno 8009 bound_to 7997
  154.6061  140.0616  156.9418 H   0  0  0  0  0  0  0  0  0  0  0  0  # atno 8010 bound_to 7997
  140.0629  144.5217  150.7281 H   0  0  0  0  0  0  0  0  0  0  0  0  # atno 10167 bound_to 10162
  157.6960  131.0413  150.3754 H   0  0  0  0  0  0  0  0  0  0  0  0  # atno 10718 bound_to 10713
  153.4544  135.7015  153.6089 H   0  0  0  0  0  0  0  0  0  0  0  0  # atno 10763 bound_to 10752
  153.4409  135.3780  155.2228 H   0  0  0  0  0  0  0  0  0  0  0  0  # atno 10764 bound_to 10752
  154.8728  135.3974  154.3961 H   0  0  0  0  0  0  0  0  0  0  0  0  # atno 10765 bound_to 10752
  140.4558  134.1177  155.7709 H   0  0  0  0  0  0  0  0  0  0  0  0  # atno 11005 bound_to 11000
  145.8270  140.9650  143.0869 LP  0  0  0  0  0  0  0  0  0  0  0  0  # atno 17320 bound_to 7965
  144.6783  140.0114  143.7484 LP  0  0  0  0  0  0  0  0  0  0  0  0  # atno 17321 bound_to 7965
  140.7163  143.2547  151.4424 LP  0  0  0  0  0  0  0  0  0  0  0  0  # atno 17342 bound_to 10162
  139.5882  144.1556  152.2056 LP  0  0  0  0  0  0  0  0  0  0  0  0  # atno 17343 bound_to 10162
  156.4174  130.3946  149.6848 LP  0  0  0  0  0  0  0  0  0  0  0  0  # atno 17370 bound_to 10713
  156.4111  130.7722  151.2735 LP  0  0  0  0  0  0  0  0  0  0  0  0  # atno 17371 bound_to 10713
  141.1643  133.8732  157.1758 LP  0  0  0  0  0  0  0  0  0  0  0  0  # atno 17394 bound_to 11000
  139.9977  135.0040  157.0119 LP  0  0  0  0  0  0  0  0  0  0  0  0  # atno 17395 bound_to 11000

$$$$
