AV-unprocessed.smi:3040|AV-procd|sdf|11595|dock9
  -GOLD-   2272016573D 1   1.00000     0.00000
 Structure written by MMmdl.
 39 40  0  0  0  0  0  0  0  0  1 V2000
  150.0377  137.4269  153.7202 C   0  0  0  0  0  0  0  0  0  0  0  0
  150.8447  138.4323  154.4138 N   0  0  0  0  0  0  0  0  0  0  0  0
  150.0776  139.5251  155.0236 C   0  0  0  0  0  0  0  0  0  0  0  0
  150.9251  140.7753  155.2941 C   0  0  0  0  0  0  0  0  0  0  0  0
  152.2319  140.4257  156.0210 C   0  0  1  0  0  0  0  0  0  0  0  0
  151.9942  140.0350  157.4897 C   0  0  0  0  0  0  0  0  0  0  0  0
  150.8591  139.7712  157.8884 O   0  0  0  0  0  0  0  0  0  0  0  0
  153.0742  140.0248  158.2879 N   0  0  0  0  0  0  0  0  0  0  0  0
  153.0560  139.8129  159.7342 C   0  0  0  0  0  0  0  0  0  0  0  0
  153.7246  140.9733  160.4983 C   0  0  0  0  0  0  0  0  0  0  0  0
  152.9905  142.2801  160.3447 C   0  0  0  0  0  0  0  0  0  0  0  0
  152.2833  143.0110  161.3418 C   0  0  0  0  0  0  0  0  0  0  0  0
  151.7131  144.1072  160.8688 N   0  0  0  0  0  0  0  0  0  0  0  0
  152.0369  144.1161  159.5598 N   0  0  0  0  0  0  0  0  0  0  0  0
  151.5585  145.1877  158.7133 C   0  0  0  0  0  0  0  0  0  0  0  0
  152.8157  143.0324  159.2174 C   0  0  0  0  0  0  0  0  0  0  0  0
  153.0295  139.3529  155.2439 C   0  0  0  0  0  0  0  0  0  0  0  0
  152.1901  138.2933  154.5028 C   0  0  0  0  0  0  0  0  0  0  0  0
  152.7871  137.3441  153.9939 O   0  0  0  0  0  0  0  0  0  0  0  0
  150.2793  136.4213  154.0682 H   0  0  0  0  0  0  0  0  0  0  0  0
  150.2198  137.4700  152.6457 H   0  0  0  0  0  0  0  0  0  0  0  0
  148.9693  137.5734  153.8840 H   0  0  0  0  0  0  0  0  0  0  0  0
  149.2412  139.8013  154.3800 H   0  0  0  0  0  0  0  0  0  0  0  0
  149.6410  139.1564  155.9523 H   0  0  0  0  0  0  0  0  0  0  0  0
  151.1637  141.2595  154.3462 H   0  0  0  0  0  0  0  0  0  0  0  0
  150.3460  141.5017  155.8654 H   0  0  0  0  0  0  0  0  0  0  0  0
  152.8453  141.3283  156.0372 H   0  0  0  0  0  0  0  0  0  0  0  0
  153.9686  140.2431  157.8732 H   0  0  0  0  0  0  0  0  0  0  0  0
  152.0337  139.6750  160.0905 H   0  0  0  0  0  0  0  0  0  0  0  0
  153.5786  138.8812  159.9516 H   0  0  0  0  0  0  0  0  0  0  0  0
  153.8029  140.7021  161.5515 H   0  0  0  0  0  0  0  0  0  0  0  0
  154.7526  141.0756  160.1487 H   0  0  0  0  0  0  0  0  0  0  0  0
  152.1560  142.7692  162.3865 H   0  0  0  0  0  0  0  0  0  0  0  0
  151.7616  144.9560  157.6673 H   0  0  0  0  0  0  0  0  0  0  0  0
  152.0634  146.1174  158.9767 H   0  0  0  0  0  0  0  0  0  0  0  0
  150.4830  145.3125  158.8446 H   0  0  0  0  0  0  0  0  0  0  0  0
  153.1631  142.8770  158.2067 H   0  0  0  0  0  0  0  0  0  0  0  0
  153.6366  139.8530  154.4884 H   0  0  0  0  0  0  0  0  0  0  0  0
  153.7398  138.8450  155.8990 H   0  0  0  0  0  0  0  0  0  0  0  0
  1  2  1  0  0  0  0
  1 20  1  0  0  0  0
  1 21  1  0  0  0  0
  1 22  1  0  0  0  0
  2 18  1  0  0  0  0
  2  3  1  0  0  0  0
  3  4  1  0  0  0  0
  3 23  1  0  0  0  0
  3 24  1  0  0  0  0
  4  5  1  0  0  0  0
  4 25  1  0  0  0  0
  4 26  1  0  0  0  0
  5  6  1  0  0  0  0
  5 17  1  0  0  0  0
  5 27  1  0  0  0  0
  6  7  2  0  0  0  0
  6  8  1  0  0  0  0
  8  9  1  0  0  0  0
  8 28  1  0  0  0  0
  9 10  1  0  0  0  0
  9 29  1  0  0  0  0
  9 30  1  0  0  0  0
 10 11  1  0  0  0  0
 10 31  1  0  0  0  0
 10 32  1  0  0  0  0
 11 16  2  0  0  0  0
 11 12  1  0  0  0  0
 12 13  2  0  0  0  0
 12 33  1  0  0  0  0
 13 14  1  0  0  0  0
 14 15  1  0  0  0  0
 14 16  1  0  0  0  0
 15 34  1  0  0  0  0
 15 35  1  0  0  0  0
 15 36  1  0  0  0  0
 16 37  1  0  0  0  0
 17 18  1  0  0  0  0
 17 38  1  0  0  0  0
 17 39  1  0  0  0  0
 18 19  2  0  0  0  0
M  END
> <s_m_source_file>
AV-unprocessed.smi

> <i_m_source_file_index>
3040

> <i_lp_mmshare_version>
43012

> <i_f3d_flags>
0

> <s_epik_input>
W0NIM11OMVtDSDJdW0NIMl1bQ0BIXShbQ0gyXUMxPU8pQyg9TylbTkhdW0NIMl1bQ0gyXWMyW2NIXW5uKFtDSDNdKVtjSF0y

> <s_epik_cmdline>
J2VwaWtfcHl0aG9uJywgJy1waCcsICc3LjAnLCAnLXRuJywgJzgnLCAnLW1hJywgJzIwMCcsICctbWV0YWxfYmluZGluZycsICctaW1hZScsICc8aW5maWxlLm1hZT4nLCAnLW9tYWUnLCAnPG91dGZpbGUubWFlPic=

> <r_lp_tautomer_probability>
1

> <r_epik_Ionization_Penalty>
0.000456436

> <r_epik_Ionization_Penalty_Charging>
0

> <r_epik_Ionization_Penalty_Neutral>
0.000456436

> <r_epik_State_Penalty>
-0

> <r_epik_Charging_Adjusted_Penalty>
0

> <i_epik_Tot_Q>
0

> <i_epik_Tot_abs_Q>
0

> <r_epik_Metal_State_Penalty>
-0

> <b_epik_Metal_Only>
0

> <s_lp_Force_Field>
OPLS_2005

> <r_lp_Energy>
8.58968

> <b_lp_Chiralities_Consistent>
1

> <s_lp_Variant>
AV-unprocessed.smi:3040-1

> <Gold.Version>
5.8.1

> <Gold.Id.Protein>
6NUR|6NUR_protein|mol2

> <Gold.PLP.Fitness>
44.7752

> <Gold.PLP.PLP>
-42.3971

> <Gold.PLP.part.hbond>
-1.0000

> <Gold.PLP.part.metal>
0.0000

> <Gold.PLP.part.buried>
-1.9305

> <Gold.PLP.part.nonpolar>
-39.5926

> <Gold.PLP.part.repulsive>
1.0847

> <Gold.PLP.ligand.clash>
0.0000

> <Gold.PLP.ligand.torsion>
0.3201

> <Gold.PLP.Chemscore.Hbond>
0.9920

> <Gold.PLP.Chemscore.CHOScore>
0.0000

> <Gold.PLP.Chemscore.Metal>
0.0000

> <Gold.Chemscore.Hbonds>
donor molecule, donor type, donor heavy atom, donor atom, acceptor molecule, acceptor atom, score
      P1  H 10752 10764       L1    19  0.53

> <Gold.PLP.Chemscore.Internal.Correction>
0.0423

> <Gold.Rescore>
     Score         DG    S(hbond)    S(metal)    S(lipo)     H(rot)  DE(clash)    DE(int)     intcor
     12.20     -13.82       0.47        0.00      93.97       1.65       0.03       1.59       ----

> <Gold.Chemscore.Fitness>
12.1976

> <Gold.Chemscore.DG>
-13.8181

> <Gold.Chemscore.ZeroCoef>
-5.4800

> <Gold.Chemscore.Hbond>
0.4722

> <Gold.Chemscore.Metal>
0.0000

> <Gold.Chemscore.Lipo>
93.9671

> <Gold.Chemscore.Internal_Hbond>
0.0000

> <Gold.Chemscore.DEClash>
0.0312

> <Gold.Chemscore.DEInternal>
1.5893

> <Gold.Chemscore.Rot>
1.6536

> <Gold.Chemscore.Internal.Correction>
   9.000000E+99

> <Gold.Chemscore.Hbonds>
donor molecule, donor type, donor heavy atom, donor atom, acceptor molecule, acceptor atom, score
      P1  H 10752 10764       L1    19  0.54

> <Gold.Chemscore.Hbond.Weighted>
-1.5771

> <Gold.Chemscore.Metal.Weighted>
-0.0000

> <Gold.Chemscore.Lipo.Weighted>
-10.9941

> <Gold.Chemscore.Internal_Hbond.Weighted>
0.0000

> <Gold.Chemscore.DEClash.Weighted>
0.0312

> <Gold.Chemscore.DEInternal.Weighted>
1.5893

> <Gold.Chemscore.Rot.Weighted>
4.2332

> <Gold.Chemscore.Internal.Correction.Weighted>
   9.000000E+99

> <Gold.Protein.RotatedTorsions>
[ 6907 6896 6895 6894 ] final  -14.77 input  -60.11 | X-H torsion
[ 7974 7965 7964 7962 ] final  -40.18 input  175.53 | X-H torsion
[ 8008 7997 7996 7995 ] final -178.41 input   59.86 | X-H torsion
[ 10167 10162 10161 10158 ] final   82.81 input  -65.29 | X-H torsion
[ 10718 10713 10712 10709 ] final   18.33 input   66.30 | X-H torsion
[ 10763 10752 10751 10750 ] final  -85.23 input  -60.55 | X-H torsion
[ 11005 11000 10999 10996 ] final   45.35 input  -57.11 | X-H torsion

> <Gold.Protein.ActiveResidues>
 VAL166  LYS551  ARG553  GLY616  TRP617  ASP618  TYR619  PRO620  LYS621  CYS622 
 ASP623  PHE694  ASN695  SER759  ASP760  ASP761  ALA762  ILE779  LEU786  VAL792 
 PHE793  MET794  SER795  GLU796  ALA797  LYS798  CYS799  TRP800  GLU811  SER814 

> <Gold.Protein.RotatedAtoms>
  151.3342  135.0849  159.9348 H   0  0  0  0  0  0  0  0  0  0  0  0  # atno 6907 bound_to 6896
  152.5227  133.9512  159.7683 H   0  0  0  0  0  0  0  0  0  0  0  0  # atno 6908 bound_to 6896
  150.9857  133.6148  159.2745 H   0  0  0  0  0  0  0  0  0  0  0  0  # atno 6909 bound_to 6896
  146.0328  140.6709  142.9124 H   0  0  0  0  0  0  0  0  0  0  0  0  # atno 7974 bound_to 7965
  156.0184  140.1256  157.0382 H   0  0  0  0  0  0  0  0  0  0  0  0  # atno 8008 bound_to 7997
  154.4302  140.1073  156.5999 H   0  0  0  0  0  0  0  0  0  0  0  0  # atno 8009 bound_to 7997
  155.5979  140.3470  155.4587 H   0  0  0  0  0  0  0  0  0  0  0  0  # atno 8010 bound_to 7997
  139.9249  144.6189  150.8403 H   0  0  0  0  0  0  0  0  0  0  0  0  # atno 10167 bound_to 10162
  157.0948  130.6443  149.5857 H   0  0  0  0  0  0  0  0  0  0  0  0  # atno 10718 bound_to 10713
  154.6087  135.5492  153.7450 H   0  0  0  0  0  0  0  0  0  0  0  0  # atno 10763 bound_to 10752
  153.0185  135.6384  154.1610 H   0  0  0  0  0  0  0  0  0  0  0  0  # atno 10764 bound_to 10752
  154.1548  135.2900  155.3105 H   0  0  0  0  0  0  0  0  0  0  0  0  # atno 10765 bound_to 10752
  140.1468  134.4513  155.8410 H   0  0  0  0  0  0  0  0  0  0  0  0  # atno 11005 bound_to 11000
  144.7038  140.3767  143.7134 LP  0  0  0  0  0  0  0  0  0  0  0  0  # atno 17320 bound_to 7965
  145.7012  139.1662  143.2591 LP  0  0  0  0  0  0  0  0  0  0  0  0  # atno 17321 bound_to 7965
  140.7653  143.3271  151.2492 LP  0  0  0  0  0  0  0  0  0  0  0  0  # atno 17342 bound_to 10162
  139.6831  143.9821  152.2819 LP  0  0  0  0  0  0  0  0  0  0  0  0  # atno 17343 bound_to 10162
  155.9889  130.4934  150.7189 LP  0  0  0  0  0  0  0  0  0  0  0  0  # atno 17370 bound_to 10713
  157.4691  131.0891  151.0662 LP  0  0  0  0  0  0  0  0  0  0  0  0  # atno 17371 bound_to 10713
  141.2193  133.6855  156.7348 LP  0  0  0  0  0  0  0  0  0  0  0  0  # atno 17394 bound_to 11000
  140.2654  134.8434  157.3798 LP  0  0  0  0  0  0  0  0  0  0  0  0  # atno 17395 bound_to 11000

$$$$
