AV-unprocessed.smi:37|AV-procd|sdf|333|dock9
  -GOLD-   2262016163D 1   1.00000     0.00000
 Structure written by MMmdl.
 43 44  0  0  0  0  0  0  0  0  2 V2000
  147.3871  136.2665  162.5927 C   0  0  0  0  0  0  0  0  0  0  0  0
  147.4954  135.6376  161.1951 C   0  0  0  0  0  0  0  0  0  0  0  0
  147.7029  136.6619  160.0772 C   0  0  0  0  0  0  0  0  0  0  0  0
  146.8163  137.4422  159.7266 O   0  0  0  0  0  0  0  0  0  0  0  0
  148.9392  136.5870  159.5516 O   0  0  0  0  0  0  0  0  0  0  0  0
  149.3761  137.5390  158.5907 C   0  0  0  0  0  0  0  0  0  0  0  0
  150.7708  137.1669  158.0503 C   0  0  2  0  0  0  0  0  0  0  0  0
  151.6481  136.9760  159.1625 O   0  0  0  0  0  0  0  0  0  0  0  0
  152.8683  137.5869  158.8941 C   0  0  2  0  0  0  0  0  0  0  0  0
  153.5930  137.9038  160.1820 N   0  0  0  0  0  0  0  0  0  0  0  0
  153.1690  137.3873  161.3955 C   0  0  0  0  0  0  0  0  0  0  0  0
  153.8167  137.6771  162.5421 C   0  0  0  0  0  0  0  0  0  0  0  0
  153.3787  137.1660  163.7056 F   0  0  0  0  0  0  0  0  0  0  0  0
  154.9901  138.5485  162.5098 C   0  0  0  0  0  0  0  0  0  0  0  0
  155.5785  138.8075  163.5586 O   0  0  0  0  0  0  0  0  0  0  0  0
  155.3851  139.0421  161.3003 N   0  5  0  0  0  0  0  0  0  0  0  0
  154.7308  138.7534  160.1375 C   0  0  0  0  0  0  0  0  0  0  0  0
  155.0764  139.1952  159.0413 O   0  0  0  0  0  0  0  0  0  0  0  0
  152.5189  138.8328  158.0863 C   0  0  2  0  0  0  0  0  0  0  0  0
  151.7585  140.2714  159.2503 Br  0  0  0  0  0  0  0  0  0  0  0  0
  151.4419  138.2536  157.1797 C   0  0  2  0  0  0  0  0  0  0  0  0
  150.5446  139.2410  156.6809 O   0  0  0  0  0  0  0  0  0  0  0  0
  150.9122  140.0477  155.6700 C   0  0  0  0  0  0  0  0  0  0  0  0
  151.8551  139.8528  154.9011 O   0  0  0  0  0  0  0  0  0  0  0  0
  150.0142  141.2826  155.5716 C   0  0  0  0  0  0  0  0  0  0  0  0
  148.5598  140.9578  155.1987 C   0  0  0  0  0  0  0  0  0  0  0  0
  147.2513  135.4953  163.3508 H   0  0  0  0  0  0  0  0  0  0  0  0
  146.5379  136.9476  162.6596 H   0  0  0  0  0  0  0  0  0  0  0  0
  148.2888  136.8245  162.8484 H   0  0  0  0  0  0  0  0  0  0  0  0
  148.3266  134.9326  161.1754 H   0  0  0  0  0  0  0  0  0  0  0  0
  146.5924  135.0666  160.9781 H   0  0  0  0  0  0  0  0  0  0  0  0
  148.6508  137.5089  157.7779 H   0  0  0  0  0  0  0  0  0  0  0  0
  149.3599  138.5572  158.9821 H   0  0  0  0  0  0  0  0  0  0  0  0
  150.7068  136.2437  157.4731 H   0  0  0  0  0  0  0  0  0  0  0  0
  153.5028  136.8825  158.3520 H   0  0  0  0  0  0  0  0  0  0  0  0
  152.3010  136.7486  161.4418 H   0  0  0  0  0  0  0  0  0  0  0  0
  153.3829  139.2285  157.5519 H   0  0  0  0  0  0  0  0  0  0  0  0
  151.9289  137.7400  156.3487 H   0  0  0  0  0  0  0  0  0  0  0  0
  150.0402  141.8064  156.5274 H   0  0  0  0  0  0  0  0  0  0  0  0
  150.4393  141.9593  154.8298 H   0  0  0  0  0  0  0  0  0  0  0  0
  147.9674  141.8705  155.1343 H   0  0  0  0  0  0  0  0  0  0  0  0
  148.0922  140.3135  155.9440 H   0  0  0  0  0  0  0  0  0  0  0  0
  148.4993  140.4575  154.2316 H   0  0  0  0  0  0  0  0  0  0  0  0
  1  2  1  0  0  0  0
  1 27  1  0  0  0  0
  1 28  1  0  0  0  0
  1 29  1  0  0  0  0
  2  3  1  0  0  0  0
  2 30  1  0  0  0  0
  2 31  1  0  0  0  0
  3  4  2  0  0  0  0
  3  5  1  0  0  0  0
  5  6  1  0  0  0  0
  6  7  1  0  0  0  0
  6 32  1  0  0  0  0
  6 33  1  0  0  0  0
  7 21  1  0  0  0  0
  7  8  1  0  0  0  0
  7 34  1  0  0  0  0
  8  9  1  0  0  0  0
  9 10  1  0  0  0  0
  9 19  1  0  0  0  0
  9 35  1  0  0  0  0
 10 17  1  0  0  0  0
 10 11  1  0  0  0  0
 11 12  2  0  0  0  0
 11 36  1  0  0  0  0
 12 13  1  0  0  0  0
 12 14  1  0  0  0  0
 14 15  2  0  0  0  0
 14 16  1  0  0  0  0
 16 17  1  0  0  0  0
 17 18  2  0  0  0  0
 19 20  1  0  0  0  0
 19 21  1  0  0  0  0
 19 37  1  0  0  0  0
 21 22  1  0  0  0  0
 21 38  1  0  0  0  0
 22 23  1  0  0  0  0
 23 24  2  0  0  0  0
 23 25  1  0  0  0  0
 25 26  1  0  0  0  0
 25 39  1  0  0  0  0
 25 40  1  0  0  0  0
 26 41  1  0  0  0  0
 26 42  1  0  0  0  0
 26 43  1  0  0  0  0
M  CHG  1  16  -1
M  END
> <s_m_source_file>
AV-unprocessed.smi

> <i_m_source_file_index>
37

> <i_lp_mmshare_version>
43012

> <i_f3d_flags>
0

> <s_epik_input>
W0NIM11bQ0gyXUMoPU8pT1tDSDJdW0NAQEhdMU9bQ0BASF0objJbY0hdYyhGKWMoPU8pW25IXWMyPU8pW0NAQEhdKEJyKVtDQEhdMU9DKD1PKVtDSDJdW0NIM10=

> <s_epik_cmdline>
J2VwaWtfcHl0aG9uJywgJy1waCcsICc3LjAnLCAnLXRuJywgJzgnLCAnLW1hJywgJzIwMCcsICctbWV0YWxfYmluZGluZycsICctaW1hZScsICc8aW5maWxlLm1hZT4nLCAnLW9tYWUnLCAnPG91dGZpbGUubWFlPic=

> <r_epik_Ionization_Penalty>
1.08158

> <r_epik_Ionization_Penalty_Charging>
9.05154e-09

> <r_epik_Ionization_Penalty_Neutral>
1.08158

> <r_epik_State_Penalty>
1.13706

> <r_epik_Charging_Adjusted_Penalty>
1.13706

> <i_epik_Tot_Q>
-1

> <i_epik_Tot_abs_Q>
1

> <r_epik_Metal_State_Penalty>
0.00343535

> <b_epik_Metal_Only>
0

> <s_epik_Chemistry_Notes>
This compound has an ester and may undergo hydrolysis at high or low pH. This compound contains an acetal/aminal-like group ( X-CH(R)-Y where X, Y are N, S, or O) that may be acid/base labile, releasing an aldehyde.

> <s_lp_Force_Field>
OPLS_2005

> <r_lp_Energy>
37.8596

> <b_lp_Chiralities_Consistent>
1

> <s_lp_Variant>
AV-unprocessed.smi:37-31

> <Gold.Version>
5.8.1

> <Gold.Id.Protein>
6NUR|6NUR_protein|mol2

> <Gold.PLP.Fitness>
52.1754

> <Gold.PLP.PLP>
-41.6997

> <Gold.PLP.part.hbond>
-4.0000

> <Gold.PLP.part.metal>
0.0000

> <Gold.PLP.part.buried>
-7.4069

> <Gold.PLP.part.nonpolar>
-31.0992

> <Gold.PLP.part.repulsive>
0.0435

> <Gold.PLP.ligand.clash>
0.0000

> <Gold.PLP.ligand.torsion>
0.7755

> <Gold.PLP.Chemscore.Hbond>
3.9600

> <Gold.PLP.Chemscore.CHOScore>
0.0000

> <Gold.PLP.Chemscore.Metal>
0.0000

> <Gold.Chemscore.Hbonds>
donor molecule, donor type, donor heavy atom, donor atom, acceptor molecule, acceptor atom, score
      P1  H  6896  6908       L1     8  1.00
      P1  H  6934  6947       L1     4  1.00
      P1  H  7989  7998       L1    24  0.96
      P1  H  7997  8008       L1    18  1.00

> <Gold.PLP.Chemscore.Internal.Correction>
0.1467

> <Gold.Rescore>
     Score         DG    S(hbond)    S(metal)    S(lipo)     H(rot)  DE(clash)    DE(int)     intcor
     15.58     -17.37       3.89        0.00      62.08       3.27       0.00       1.79       ----

> <Gold.Chemscore.Fitness>
15.5799

> <Gold.Chemscore.DG>
-17.3711

> <Gold.Chemscore.ZeroCoef>
-5.4800

> <Gold.Chemscore.Hbond>
3.8896

> <Gold.Chemscore.Metal>
0.0000

> <Gold.Chemscore.Lipo>
62.0777

> <Gold.Chemscore.Internal_Hbond>
0.0000

> <Gold.Chemscore.DEClash>
0.0000

> <Gold.Chemscore.DEInternal>
1.7912

> <Gold.Chemscore.Rot>
3.2669

> <Gold.Chemscore.Internal.Correction>
   9.000000E+99

> <Gold.Chemscore.Hbonds>
donor molecule, donor type, donor heavy atom, donor atom, acceptor molecule, acceptor atom, score
      P1  H  6896  6908       L1     8  0.81
      P1  H  6934  6947       L1     4  0.32
      P1  H  7989  7998       L1    24  0.65
      P1  H  7997  8008       L1    18  1.00

> <Gold.Chemscore.Hbond.Weighted>
-12.9914

> <Gold.Chemscore.Metal.Weighted>
-0.0000

> <Gold.Chemscore.Lipo.Weighted>
-7.2631

> <Gold.Chemscore.Internal_Hbond.Weighted>
0.0000

> <Gold.Chemscore.DEClash.Weighted>
0.0000

> <Gold.Chemscore.DEInternal.Weighted>
1.7912

> <Gold.Chemscore.Rot.Weighted>
8.3634

> <Gold.Chemscore.Internal.Correction.Weighted>
   9.000000E+99

> <Gold.Protein.RotatedTorsions>
[ 6907 6896 6895 6894 ] final -125.41 input  -60.11 | X-H torsion
[ 7974 7965 7964 7962 ] final  -26.72 input  175.53 | X-H torsion
[ 8008 7997 7996 7995 ] final -122.58 input   59.86 | X-H torsion
[ 10167 10162 10161 10158 ] final  121.01 input  -65.29 | X-H torsion
[ 10718 10713 10712 10709 ] final    1.95 input   66.30 | X-H torsion
[ 10763 10752 10751 10750 ] final   65.26 input  -60.55 | X-H torsion
[ 11005 11000 10999 10996 ] final -139.77 input  -57.11 | X-H torsion

> <Gold.Protein.ActiveResidues>
 VAL166  LYS551  ARG553  GLY616  TRP617  ASP618  TYR619  PRO620  LYS621  CYS622 
 ASP623  PHE694  ASN695  SER759  ASP760  ASP761  ALA762  ILE779  LEU786  VAL792 
 PHE793  MET794  SER795  GLU796  ALA797  LYS798  CYS799  TRP800  GLU811  SER814 

> <Gold.Protein.RotatedAtoms>
  150.8865  133.7301  159.2916 H   0  0  0  0  0  0  0  0  0  0  0  0  # atno 6907 bound_to 6896
  151.4865  135.1054  159.9801 H   0  0  0  0  0  0  0  0  0  0  0  0  # atno 6908 bound_to 6896
  152.4793  133.8168  159.7088 H   0  0  0  0  0  0  0  0  0  0  0  0  # atno 6909 bound_to 6896
  146.1407  140.5056  142.8653 H   0  0  0  0  0  0  0  0  0  0  0  0  # atno 7974 bound_to 7965
  155.1665  140.0407  157.2854 H   0  0  0  0  0  0  0  0  0  0  0  0  # atno 8008 bound_to 7997
  154.6299  140.2521  155.7419 H   0  0  0  0  0  0  0  0  0  0  0  0  # atno 8009 bound_to 7997
  156.2479  140.2877  156.0646 H   0  0  0  0  0  0  0  0  0  0  0  0  # atno 8010 bound_to 7997
  139.5946  144.7037  151.3208 H   0  0  0  0  0  0  0  0  0  0  0  0  # atno 10167 bound_to 10162
  156.8558  130.5569  149.5666 H   0  0  0  0  0  0  0  0  0  0  0  0  # atno 10718 bound_to 10713
  153.0089  135.5363  154.6640 H   0  0  0  0  0  0  0  0  0  0  0  0  # atno 10763 bound_to 10752
  154.5841  135.2852  155.0705 H   0  0  0  0  0  0  0  0  0  0  0  0  # atno 10764 bound_to 10752
  154.1822  135.6514  153.5090 H   0  0  0  0  0  0  0  0  0  0  0  0  # atno 10765 bound_to 10752
  140.8487  134.2313  157.4772 H   0  0  0  0  0  0  0  0  0  0  0  0  # atno 11005 bound_to 11000
  144.7789  140.5798  143.6619 LP  0  0  0  0  0  0  0  0  0  0  0  0  # atno 17320 bound_to 7965
  145.5054  139.1481  143.3634 LP  0  0  0  0  0  0  0  0  0  0  0  0  # atno 17321 bound_to 7965
  140.7201  143.7159  150.7733 LP  0  0  0  0  0  0  0  0  0  0  0  0  # atno 17342 bound_to 10162
  140.0722  143.5050  152.2574 LP  0  0  0  0  0  0  0  0  0  0  0  0  # atno 17343 bound_to 10162
  156.0803  130.5815  150.9551 LP  0  0  0  0  0  0  0  0  0  0  0  0  # atno 17370 bound_to 10713
  157.6278  131.0924  150.8500 LP  0  0  0  0  0  0  0  0  0  0  0  0  # atno 17371 bound_to 10713
  139.8704  134.9672  156.4589 LP  0  0  0  0  0  0  0  0  0  0  0  0  # atno 17394 bound_to 11000
  140.8814  133.7915  155.9471 LP  0  0  0  0  0  0  0  0  0  0  0  0  # atno 17395 bound_to 11000

$$$$
