AV-unprocessed.smi:2633|AV-procd|sdf|10252|dock4
  -GOLD-   2272014263D 1   1.00000     0.00000
 Structure written by MMmdl.
 35 37  0  0  0  0  0  0  0  0  1 V2000
  150.9266  145.7467  160.6683 O   0  0  0  0  0  0  0  0  0  0  0  0
  150.2575  144.9204  159.7388 C   0  0  0  0  0  0  0  0  0  0  0  0
  151.1764  144.5343  158.5672 C   0  0  0  0  0  0  0  0  0  0  0  0
  151.7037  143.1818  158.6939 N   0  0  0  0  0  0  0  0  0  0  0  0
  151.6405  142.1550  157.8059 C   0  0  0  0  0  0  0  0  0  0  0  0
  150.9658  142.2878  156.4673 C   0  0  0  0  0  0  0  0  0  0  0  0
  150.8461  140.9741  155.7133 C   0  0  0  0  0  0  0  0  0  0  0  0
  151.9578  140.1102  155.6215 C   0  0  0  0  0  0  0  0  0  0  0  0
  151.8496  138.8893  154.9278 C   0  0  0  0  0  0  0  0  0  0  0  0
  150.6300  138.5279  154.3235 C   0  0  0  0  0  0  0  0  0  0  0  0
  149.5182  139.3879  154.4129 C   0  0  0  0  0  0  0  0  0  0  0  0
  149.6258  140.6094  155.1063 C   0  0  0  0  0  0  0  0  0  0  0  0
  152.2023  141.0125  158.2096 N   0  0  0  0  0  0  0  0  0  0  0  0
  152.6880  141.3317  159.4611 C   0  0  0  0  0  0  0  0  0  0  0  0
  153.3947  140.5464  160.3998 C   0  0  0  0  0  0  0  0  0  0  0  0
  153.7940  141.0982  161.6346 C   0  0  0  0  0  0  0  0  0  0  0  0
  153.4921  142.4394  161.9480 C   0  0  0  0  0  0  0  0  0  0  0  0
  152.7874  143.2381  161.0268 C   0  0  0  0  0  0  0  0  0  0  0  0
  152.3924  142.6826  159.7950 C   0  0  0  0  0  0  0  0  0  0  0  0
  151.1657  146.5527  160.2366 H   0  0  0  0  0  0  0  0  0  0  0  0
  149.9009  144.0279  160.2537 H   0  0  0  0  0  0  0  0  0  0  0  0
  149.3789  145.4489  159.3683 H   0  0  0  0  0  0  0  0  0  0  0  0
  150.6165  144.5923  157.6332 H   0  0  0  0  0  0  0  0  0  0  0  0
  151.9958  145.2450  158.4630 H   0  0  0  0  0  0  0  0  0  0  0  0
  149.9764  142.7204  156.6186 H   0  0  0  0  0  0  0  0  0  0  0  0
  151.5138  142.9805  155.8304 H   0  0  0  0  0  0  0  0  0  0  0  0
  152.8947  140.3812  156.0865 H   0  0  0  0  0  0  0  0  0  0  0  0
  152.7018  138.2292  154.8607 H   0  0  0  0  0  0  0  0  0  0  0  0
  150.5466  137.5907  153.7930 H   0  0  0  0  0  0  0  0  0  0  0  0
  148.5821  139.1104  153.9514 H   0  0  0  0  0  0  0  0  0  0  0  0
  148.7679  141.2621  155.1751 H   0  0  0  0  0  0  0  0  0  0  0  0
  153.6302  139.5181  160.1685 H   0  0  0  0  0  0  0  0  0  0  0  0
  154.3345  140.4892  162.3444 H   0  0  0  0  0  0  0  0  0  0  0  0
  153.8018  142.8543  162.8960 H   0  0  0  0  0  0  0  0  0  0  0  0
  152.5546  144.2656  161.2633 H   0  0  0  0  0  0  0  0  0  0  0  0
  1  2  1  0  0  0  0
  1 20  1  0  0  0  0
  2  3  1  0  0  0  0
  2 21  1  0  0  0  0
  2 22  1  0  0  0  0
  3  4  1  0  0  0  0
  3 23  1  0  0  0  0
  3 24  1  0  0  0  0
  4 19  1  0  0  0  0
  4  5  1  0  0  0  0
  5  6  1  0  0  0  0
  5 13  2  0  0  0  0
  6  7  1  0  0  0  0
  6 25  1  0  0  0  0
  6 26  1  0  0  0  0
  7 12  1  0  0  0  0
  7  8  2  0  0  0  0
  8  9  1  0  0  0  0
  8 27  1  0  0  0  0
  9 10  2  0  0  0  0
  9 28  1  0  0  0  0
 10 11  1  0  0  0  0
 10 29  1  0  0  0  0
 11 12  2  0  0  0  0
 11 30  1  0  0  0  0
 12 31  1  0  0  0  0
 13 14  1  0  0  0  0
 14 19  2  0  0  0  0
 14 15  1  0  0  0  0
 15 16  2  0  0  0  0
 15 32  1  0  0  0  0
 16 17  1  0  0  0  0
 16 33  1  0  0  0  0
 17 18  2  0  0  0  0
 17 34  1  0  0  0  0
 18 19  1  0  0  0  0
 18 35  1  0  0  0  0
M  END
> <s_m_source_file>
AV-unprocessed.smi

> <i_m_source_file_index>
2633

> <i_lp_mmshare_version>
43012

> <i_f3d_flags>
0

> <s_epik_input>
W2NIXTFbY0hdW2NIXVtjSF1jKGMxMiluKFtDSDJdW0NIMl1bT0hdKWMobjIpW0NIMl1jM1tjSF1bY0hdW2NIXVtjSF1bY0hdMw==

> <s_epik_cmdline>
J2VwaWtfcHl0aG9uJywgJy1waCcsICc3LjAnLCAnLXRuJywgJzgnLCAnLW1hJywgJzIwMCcsICctbWV0YWxfYmluZGluZycsICctaW1hZScsICc8aW5maWxlLm1hZT4nLCAnLW9tYWUnLCAnPG91dGZpbGUubWFlPic=

> <r_epik_Ionization_Penalty>
0.0631471

> <r_epik_Ionization_Penalty_Charging>
0

> <r_epik_Ionization_Penalty_Neutral>
0.0631471

> <r_epik_State_Penalty>
0.0549237

> <r_epik_Charging_Adjusted_Penalty>
0.0549237

> <i_epik_Tot_Q>
0

> <i_epik_Tot_abs_Q>
0

> <r_epik_Metal_State_Penalty>
5.75471e-05

> <b_epik_Metal_Only>
0

> <s_lp_Force_Field>
OPLS_2005

> <r_lp_Energy>
13.1063

> <b_lp_Chiralities_Consistent>
1

> <s_lp_Variant>
AV-unprocessed.smi:2633-1

> <Gold.Version>
5.8.1

> <Gold.Id.Protein>
6NUR|6NUR_protein|mol2

> <Gold.PLP.Fitness>
49.2177

> <Gold.PLP.PLP>
-50.2826

> <Gold.PLP.part.hbond>
-1.9248

> <Gold.PLP.part.metal>
0.0000

> <Gold.PLP.part.buried>
-5.1717

> <Gold.PLP.part.nonpolar>
-43.0013

> <Gold.PLP.part.repulsive>
0.0000

> <Gold.PLP.ligand.clash>
0.0000

> <Gold.PLP.ligand.torsion>
0.5424

> <Gold.PLP.Chemscore.Hbond>
0.0000

> <Gold.PLP.Chemscore.CHOScore>
0.0000

> <Gold.PLP.Chemscore.Metal>
0.0000

> <Gold.PLP.Chemscore.Internal.Correction>
0.0198

> <Gold.Rescore>
     Score         DG    S(hbond)    S(metal)    S(lipo)     H(rot)  DE(clash)    DE(int)     intcor
     13.92     -16.07       0.00        0.00     133.40       1.96       0.19       1.95       ----

> <Gold.Chemscore.Fitness>
13.9233

> <Gold.Chemscore.DG>
-16.0713

> <Gold.Chemscore.ZeroCoef>
-5.4800

> <Gold.Chemscore.Hbond>
0.0000

> <Gold.Chemscore.Metal>
0.0000

> <Gold.Chemscore.Lipo>
133.3960

> <Gold.Chemscore.Internal_Hbond>
0.0000

> <Gold.Chemscore.DEClash>
0.1933

> <Gold.Chemscore.DEInternal>
1.9547

> <Gold.Chemscore.Rot>
1.9594

> <Gold.Chemscore.Internal.Correction>
   9.000000E+99

> <Gold.Chemscore.Hbond.Weighted>
-0.0000

> <Gold.Chemscore.Metal.Weighted>
-0.0000

> <Gold.Chemscore.Lipo.Weighted>
-15.6073

> <Gold.Chemscore.Internal_Hbond.Weighted>
0.0000

> <Gold.Chemscore.DEClash.Weighted>
0.1933

> <Gold.Chemscore.DEInternal.Weighted>
1.9547

> <Gold.Chemscore.Rot.Weighted>
5.0160

> <Gold.Chemscore.Internal.Correction.Weighted>
   9.000000E+99

> <Gold.Protein.RotatedTorsions>
[ 6907 6896 6895 6894 ] final   64.27 input  -60.11 | X-H torsion
[ 7974 7965 7964 7962 ] final   -8.69 input  175.53 | X-H torsion
[ 8008 7997 7996 7995 ] final  118.98 input   59.86 | X-H torsion
[ 10167 10162 10161 10158 ] final -118.41 input  -65.29 | X-H torsion
[ 10718 10713 10712 10709 ] final   93.30 input   66.30 | X-H torsion
[ 10763 10752 10751 10750 ] final  158.48 input  -60.55 | X-H torsion
[ 11005 11000 10999 10996 ] final  120.31 input  -57.11 | X-H torsion

> <Gold.Protein.ActiveResidues>
 VAL166  LYS551  ARG553  GLY616  TRP617  ASP618  TYR619  PRO620  LYS621  CYS622 
 ASP623  PHE694  ASN695  SER759  ASP760  ASP761  ALA762  ILE779  LEU786  VAL792 
 PHE793  MET794  SER795  GLU796  ALA797  LYS798  CYS799  TRP800  GLU811  SER814 

> <Gold.Protein.RotatedAtoms>
  152.4318  134.5763  159.9935 H   0  0  0  0  0  0  0  0  0  0  0  0  # atno 6907 bound_to 6896
  151.5884  133.3363  159.3030 H   0  0  0  0  0  0  0  0  0  0  0  0  # atno 6908 bound_to 6896
  150.8212  134.7456  159.6838 H   0  0  0  0  0  0  0  0  0  0  0  0  # atno 6909 bound_to 6896
  146.2273  140.2505  142.8347 H   0  0  0  0  0  0  0  0  0  0  0  0  # atno 7974 bound_to 7965
  156.2573  140.2863  156.0920 H   0  0  0  0  0  0  0  0  0  0  0  0  # atno 8008 bound_to 7997
  155.1453  140.0396  157.2825 H   0  0  0  0  0  0  0  0  0  0  0  0  # atno 8009 bound_to 7997
  154.6500  140.2542  155.7231 H   0  0  0  0  0  0  0  0  0  0  0  0  # atno 8010 bound_to 7997
  140.0578  143.4997  152.2048 H   0  0  0  0  0  0  0  0  0  0  0  0  # atno 10167 bound_to 10162
  157.6955  131.0473  150.4014 H   0  0  0  0  0  0  0  0  0  0  0  0  # atno 10718 bound_to 10713
  154.2167  135.2784  155.2939 H   0  0  0  0  0  0  0  0  0  0  0  0  # atno 10763 bound_to 10752
  154.5734  135.5611  153.7120 H   0  0  0  0  0  0  0  0  0  0  0  0  # atno 10764 bound_to 10752
  153.0051  135.6327  154.2307 H   0  0  0  0  0  0  0  0  0  0  0  0  # atno 10765 bound_to 10752
  139.9180  134.9634  156.7787 H   0  0  0  0  0  0  0  0  0  0  0  0  # atno 11005 bound_to 11000
  144.9415  140.8083  143.5627 LP  0  0  0  0  0  0  0  0  0  0  0  0  # atno 17320 bound_to 7965
  145.2457  139.2053  143.4969 LP  0  0  0  0  0  0  0  0  0  0  0  0  # atno 17321 bound_to 7965
  139.5912  144.7551  151.3395 LP  0  0  0  0  0  0  0  0  0  0  0  0  # atno 17342 bound_to 10162
  140.7186  143.7198  150.7705 LP  0  0  0  0  0  0  0  0  0  0  0  0  # atno 17343 bound_to 10162
  156.4407  130.3991  149.6699 LP  0  0  0  0  0  0  0  0  0  0  0  0  # atno 17370 bound_to 10713
  156.3884  130.7614  151.2613 LP  0  0  0  0  0  0  0  0  0  0  0  0  # atno 17371 bound_to 10713
  140.6562  133.9687  155.7780 LP  0  0  0  0  0  0  0  0  0  0  0  0  # atno 17394 bound_to 11000
  141.0675  134.0255  157.3574 LP  0  0  0  0  0  0  0  0  0  0  0  0  # atno 17395 bound_to 11000

$$$$
