AV-unprocessed.smi:532|AV-procd|sdf|2851|dock1
  -GOLD-   2262023343D 1   1.00000     0.00000
 Structure written by MMmdl.
 48 50  0  0  0  0  0  0  0  0  2 V2000
  148.9377  141.3994  154.4794 C   0  0  0  0  0  0  0  0  0  0  0  0
  149.1103  141.4348  155.8840 O   0  0  0  0  0  0  0  0  0  0  0  0
  150.4743  141.4170  156.2690 C   0  0  0  0  0  0  0  0  0  0  0  0
  150.5883  141.2465  157.7918 C   0  0  0  0  0  0  0  0  0  0  0  0
  151.6268  140.2931  158.1757 N   0  0  0  0  0  0  0  0  0  0  0  0
  152.6613  140.4864  159.0336 C   0  0  0  0  0  0  0  0  0  0  0  0
  152.8459  141.7054  159.6774 N   0  0  0  0  0  0  0  0  0  0  0  0
  152.6696  143.0054  159.0380 C   0  0  0  0  0  0  0  0  0  0  0  0
  151.8159  143.9534  159.9017 C   0  0  2  0  0  0  0  0  0  0  0  0
  151.5982  145.3027  159.2047 C   0  0  0  0  0  0  0  0  0  0  0  0
  152.4663  144.1235  161.2855 C   0  0  0  0  0  0  0  0  0  0  0  0
  152.7299  142.7507  161.9297 C   0  0  2  0  0  0  0  0  0  0  0  0
  153.4445  142.8887  163.2806 C   0  0  0  0  0  0  0  0  0  0  0  0
  153.5265  141.8554  160.9598 C   0  0  0  0  0  0  0  0  0  0  0  0
  153.4539  139.4286  159.2099 N   0  0  0  0  0  0  0  0  0  0  0  0
  152.8730  138.4737  158.3872 C   0  0  0  0  0  0  0  0  0  0  0  0
  151.7704  138.9665  157.7606 C   0  0  0  0  0  0  0  0  0  0  0  0
  150.9285  138.1808  156.8330 C   0  0  0  0  0  0  0  0  0  0  0  0
  149.9383  138.6776  156.2999 O   0  0  0  0  0  0  0  0  0  0  0  0
  151.3911  136.9001  156.6756 N   0  5  0  0  0  0  0  0  0  0  0  0
  152.5014  136.3585  157.2878 C   0  0  0  0  0  0  0  0  0  0  0  0
  152.8459  135.1919  157.0946 O   0  0  0  0  0  0  0  0  0  0  0  0
  153.2525  137.1262  158.1392 N   0  0  0  0  0  0  0  0  0  0  0  0
  154.4384  136.5774  158.8028 C   0  0  0  0  0  0  0  0  0  0  0  0
  147.8739  141.4231  154.2429 H   0  0  0  0  0  0  0  0  0  0  0  0
  149.3574  140.4869  154.0544 H   0  0  0  0  0  0  0  0  0  0  0  0
  149.4092  142.2590  154.0015 H   0  0  0  0  0  0  0  0  0  0  0  0
  150.9908  140.5951  155.7715 H   0  0  0  0  0  0  0  0  0  0  0  0
  150.9567  142.3419  155.9510 H   0  0  0  0  0  0  0  0  0  0  0  0
  150.7893  142.2114  158.2550 H   0  0  0  0  0  0  0  0  0  0  0  0
  149.6374  140.9172  158.2100 H   0  0  0  0  0  0  0  0  0  0  0  0
  153.6507  143.4437  158.8499 H   0  0  0  0  0  0  0  0  0  0  0  0
  152.2049  142.8647  158.0618 H   0  0  0  0  0  0  0  0  0  0  0  0
  150.8359  143.4961  160.0440 H   0  0  0  0  0  0  0  0  0  0  0  0
  152.5446  145.8129  159.0228 H   0  0  0  0  0  0  0  0  0  0  0  0
  150.9744  145.9612  159.8097 H   0  0  0  0  0  0  0  0  0  0  0  0
  151.1012  145.1693  158.2436 H   0  0  0  0  0  0  0  0  0  0  0  0
  153.4060  144.6687  161.1849 H   0  0  0  0  0  0  0  0  0  0  0  0
  151.8240  144.7240  161.9308 H   0  0  0  0  0  0  0  0  0  0  0  0
  151.7666  142.2736  162.1159 H   0  0  0  0  0  0  0  0  0  0  0  0
  154.4228  143.3561  163.1655 H   0  0  0  0  0  0  0  0  0  0  0  0
  153.5938  141.9140  163.7460 H   0  0  0  0  0  0  0  0  0  0  0  0
  152.8620  143.4984  163.9717 H   0  0  0  0  0  0  0  0  0  0  0  0
  153.6709  140.8685  161.4015 H   0  0  0  0  0  0  0  0  0  0  0  0
  154.5214  142.2688  160.7887 H   0  0  0  0  0  0  0  0  0  0  0  0
  155.1510  136.2008  158.0674 H   0  0  0  0  0  0  0  0  0  0  0  0
  154.1585  135.7531  159.4602 H   0  0  0  0  0  0  0  0  0  0  0  0
  154.9606  137.3169  159.4093 H   0  0  0  0  0  0  0  0  0  0  0  0
  1  2  1  0  0  0  0
  1 25  1  0  0  0  0
  1 26  1  0  0  0  0
  1 27  1  0  0  0  0
  2  3  1  0  0  0  0
  3  4  1  0  0  0  0
  3 28  1  0  0  0  0
  3 29  1  0  0  0  0
  4  5  1  0  0  0  0
  4 30  1  0  0  0  0
  4 31  1  0  0  0  0
  5 17  1  0  0  0  0
  5  6  1  0  0  0  0
  6  7  1  0  0  0  0
  6 15  2  0  0  0  0
  7 14  1  0  0  0  0
  7  8  1  0  0  0  0
  8  9  1  0  0  0  0
  8 32  1  0  0  0  0
  8 33  1  0  0  0  0
  9 10  1  0  0  0  0
  9 11  1  0  0  0  0
  9 34  1  0  0  0  0
 10 35  1  0  0  0  0
 10 36  1  0  0  0  0
 10 37  1  0  0  0  0
 11 12  1  0  0  0  0
 11 38  1  0  0  0  0
 11 39  1  0  0  0  0
 12 13  1  0  0  0  0
 12 14  1  0  0  0  0
 12 40  1  0  0  0  0
 13 41  1  0  0  0  0
 13 42  1  0  0  0  0
 13 43  1  0  0  0  0
 14 44  1  0  0  0  0
 14 45  1  0  0  0  0
 15 16  1  0  0  0  0
 16 23  1  0  0  0  0
 16 17  2  0  0  0  0
 17 18  1  0  0  0  0
 18 19  2  0  0  0  0
 18 20  1  0  0  0  0
 20 21  1  0  0  0  0
 21 22  2  0  0  0  0
 21 23  1  0  0  0  0
 23 24  1  0  0  0  0
 24 46  1  0  0  0  0
 24 47  1  0  0  0  0
 24 48  1  0  0  0  0
M  CHG  1  20  -1
M  END
> <s_m_source_file>
AV-unprocessed.smi

> <i_m_source_file_index>
532

> <i_lp_mmshare_version>
43012

> <i_f3d_flags>
0

> <s_epik_input>
W0NIM11uMWMoPU8pW25IXWMoPU8pYyhjMTIpbihbQ0gyXVtDSDJdT1tDSDNdKWMobjIpTjNbQ0gyXVtDQEBIXShbQ0gzXSlbQ0gyXVtDQEBIXShbQ0gzXSlbQ0gyXTM=

> <s_epik_cmdline>
J2VwaWtfcHl0aG9uJywgJy1waCcsICc3LjAnLCAnLXRuJywgJzgnLCAnLW1hJywgJzIwMCcsICctbWV0YWxfYmluZGluZycsICctaW1hZScsICc8aW5maWxlLm1hZT4nLCAnLW9tYWUnLCAnPG91dGZpbGUubWFlPic=

> <r_lp_tautomer_probability>
1

> <r_epik_Ionization_Penalty>
5.12128

> <r_epik_Ionization_Penalty_Charging>
0.0789629

> <r_epik_Ionization_Penalty_Neutral>
5.04232

> <r_epik_State_Penalty>
5.03111

> <r_epik_Charging_Adjusted_Penalty>
5.11007

> <i_epik_Tot_Q>
-1

> <i_epik_Tot_abs_Q>
1

> <r_epik_Metal_State_Penalty>
1.14201

> <b_epik_Metal_Only>
1

> <s_lp_Force_Field>
OPLS_2005

> <r_lp_Energy>
42.9177

> <b_lp_Chiralities_Consistent>
1

> <s_lp_Variant>
AV-unprocessed.smi:532-4

> <Gold.Version>
5.8.1

> <Gold.Id.Protein>
6NUR|6NUR_protein|mol2

> <Gold.PLP.Fitness>
51.7975

> <Gold.PLP.PLP>
-49.5038

> <Gold.PLP.part.hbond>
-1.2618

> <Gold.PLP.part.metal>
0.0000

> <Gold.PLP.part.buried>
-6.6999

> <Gold.PLP.part.nonpolar>
-40.4515

> <Gold.PLP.part.repulsive>
0.0980

> <Gold.PLP.ligand.clash>
0.1181

> <Gold.PLP.ligand.torsion>
0.8210

> <Gold.PLP.Chemscore.Hbond>
1.0000

> <Gold.PLP.Chemscore.CHOScore>
0.0000

> <Gold.PLP.Chemscore.Metal>
0.0000

> <Gold.Chemscore.Hbonds>
donor molecule, donor type, donor heavy atom, donor atom, acceptor molecule, acceptor atom, score
      P1  H 10752 10763       L1    22  1.00

> <Gold.PLP.Chemscore.Internal.Correction>
1.0537

> <Gold.Rescore>
     Score         DG    S(hbond)    S(metal)    S(lipo)     H(rot)  DE(clash)    DE(int)     intcor
     13.19     -16.49       0.65        0.00     106.57       1.41       0.14       3.16       ----

> <Gold.Chemscore.Fitness>
13.1884

> <Gold.Chemscore.DG>
-16.4851

> <Gold.Chemscore.ZeroCoef>
-5.4800

> <Gold.Chemscore.Hbond>
0.6460

> <Gold.Chemscore.Metal>
0.0000

> <Gold.Chemscore.Lipo>
106.5727

> <Gold.Chemscore.Internal_Hbond>
0.0000

> <Gold.Chemscore.DEClash>
0.1362

> <Gold.Chemscore.DEInternal>
3.1604

> <Gold.Chemscore.Rot>
1.4147

> <Gold.Chemscore.Internal.Correction>
   9.000000E+99

> <Gold.Chemscore.Hbonds>
donor molecule, donor type, donor heavy atom, donor atom, acceptor molecule, acceptor atom, score
      P1  H 10752 10763       L1    22  0.26

> <Gold.Chemscore.Hbond.Weighted>
-2.1576

> <Gold.Chemscore.Metal.Weighted>
-0.0000

> <Gold.Chemscore.Lipo.Weighted>
-12.4690

> <Gold.Chemscore.Internal_Hbond.Weighted>
0.0000

> <Gold.Chemscore.DEClash.Weighted>
0.1362

> <Gold.Chemscore.DEInternal.Weighted>
3.1604

> <Gold.Chemscore.Rot.Weighted>
3.6216

> <Gold.Chemscore.Internal.Correction.Weighted>
   9.000000E+99

> <Gold.Protein.RotatedTorsions>
[ 6907 6896 6895 6894 ] final -173.57 input  -60.11 | X-H torsion
[ 7974 7965 7964 7962 ] final  131.28 input  175.53 | X-H torsion
[ 8008 7997 7996 7995 ] final   77.17 input   59.86 | X-H torsion
[ 10167 10162 10161 10158 ] final  151.80 input  -65.29 | X-H torsion
[ 10718 10713 10712 10709 ] final  174.75 input   66.30 | X-H torsion
[ 10763 10752 10751 10750 ] final  118.96 input  -60.55 | X-H torsion
[ 11005 11000 10999 10996 ] final   90.81 input  -57.11 | X-H torsion

> <Gold.Protein.ActiveResidues>
 VAL166  LYS551  ARG553  GLY616  TRP617  ASP618  TYR619  PRO620  LYS621  CYS622 
 ASP623  PHE694  ASN695  SER759  ASP760  ASP761  ALA762  ILE779  LEU786  VAL792 
 PHE793  MET794  SER795  GLU796  ALA797  LYS798  CYS799  TRP800  GLU811  SER814 

> <Gold.Protein.RotatedAtoms>
  151.5582  133.3407  159.2965 H   0  0  0  0  0  0  0  0  0  0  0  0  # atno 6907 bound_to 6896
  150.8438  134.7742  159.6965 H   0  0  0  0  0  0  0  0  0  0  0  0  # atno 6908 bound_to 6896
  152.4500  134.5421  159.9894 H   0  0  0  0  0  0  0  0  0  0  0  0  # atno 6909 bound_to 6896
  145.0090  139.4239  143.5254 H   0  0  0  0  0  0  0  0  0  0  0  0  # atno 7974 bound_to 7965
  155.8378  140.3463  155.5612 H   0  0  0  0  0  0  0  0  0  0  0  0  # atno 8008 bound_to 7997
  155.8174  140.0908  157.1889 H   0  0  0  0  0  0  0  0  0  0  0  0  # atno 8009 bound_to 7997
  154.4004  140.1436  156.3446 H   0  0  0  0  0  0  0  0  0  0  0  0  # atno 8010 bound_to 7997
  139.4837  144.5411  151.7563 H   0  0  0  0  0  0  0  0  0  0  0  0  # atno 10167 bound_to 10162
  156.9450  131.0013  151.2960 H   0  0  0  0  0  0  0  0  0  0  0  0  # atno 10718 bound_to 10713
  153.5757  135.3493  155.2855 H   0  0  0  0  0  0  0  0  0  0  0  0  # atno 10763 bound_to 10752
  154.8675  135.4170  154.2676 H   0  0  0  0  0  0  0  0  0  0  0  0  # atno 10764 bound_to 10752
  153.3451  135.7052  153.6905 H   0  0  0  0  0  0  0  0  0  0  0  0  # atno 10765 bound_to 10752
  139.8849  134.8636  156.3338 H   0  0  0  0  0  0  0  0  0  0  0  0  # atno 11005 bound_to 11000
  146.3466  139.9523  142.8727 LP  0  0  0  0  0  0  0  0  0  0  0  0  # atno 17320 bound_to 7965
  145.2049  140.9871  143.4134 LP  0  0  0  0  0  0  0  0  0  0  0  0  # atno 17321 bound_to 7965
  140.4951  144.1253  150.5958 LP  0  0  0  0  0  0  0  0  0  0  0  0  # atno 17342 bound_to 10162
  140.4127  143.2649  151.9813 LP  0  0  0  0  0  0  0  0  0  0  0  0  # atno 17343 bound_to 10162
  157.5760  130.8343  149.8456 LP  0  0  0  0  0  0  0  0  0  0  0  0  # atno 17370 bound_to 10713
  156.0388  130.3744  150.1491 LP  0  0  0  0  0  0  0  0  0  0  0  0  # atno 17371 bound_to 10713
  140.9705  133.7330  156.0527 LP  0  0  0  0  0  0  0  0  0  0  0  0  # atno 17394 bound_to 11000
  140.7877  134.3653  157.5472 LP  0  0  0  0  0  0  0  0  0  0  0  0  # atno 17395 bound_to 11000

$$$$
