AV-unprocessed.smi:779|AV-procd|sdf|3704|dock9
  -GOLD-   22720 1123D 1   1.00000     0.00000
 Structure written by MMmdl.
 21 21  0  0  0  0  0  0  0  0  2 V2000
  152.7480  139.1217  155.5400 O   0  0  0  0  0  0  0  0  0  0  0  0
  151.8185  138.3836  155.1443 C   0  0  0  0  0  0  0  0  0  0  0  0
  151.8757  137.1381  155.0375 O   0  5  0  0  0  0  0  0  0  0  0  0
  150.4745  139.1357  154.7494 C   0  0  0  0  0  0  0  0  0  0  0  0
  149.4320  138.5357  154.1163 C   0  0  0  0  0  0  0  0  0  0  0  0
  148.2592  139.1917  153.7772 N   0  0  0  0  0  0  0  0  0  0  0  0
  147.1597  138.5247  153.1242 C   0  0  0  0  0  0  0  0  0  0  0  0
  146.8275  139.1332  151.7516 C   0  0  0  0  0  0  0  0  0  0  0  0
  146.6368  138.1039  150.8053 O   0  0  0  0  0  0  0  0  0  0  0  0
  148.1007  140.5547  154.1075 C   0  0  0  0  0  0  0  0  0  0  0  0
  147.0809  141.1979  153.8567 O   0  0  0  0  0  0  0  0  0  0  0  0
  149.1699  141.1721  154.7530 N   0  0  0  0  0  0  0  0  0  0  0  0
  150.3790  140.5666  155.1112 C   0  0  0  0  0  0  0  0  0  0  0  0
  151.2221  141.2625  155.6768 O   0  0  0  0  0  0  0  0  0  0  0  0
  149.0620  142.1480  154.9871 H   0  0  0  0  0  0  0  0  0  0  0  0
  149.5118  137.4883  153.8622 H   0  0  0  0  0  0  0  0  0  0  0  0
  147.3999  137.4606  153.0692 H   0  0  0  0  0  0  0  0  0  0  0  0
  146.3091  138.6092  153.8026 H   0  0  0  0  0  0  0  0  0  0  0  0
  145.9181  139.7322  151.8081 H   0  0  0  0  0  0  0  0  0  0  0  0
  147.6283  139.7875  151.4060 H   0  0  0  0  0  0  0  0  0  0  0  0
  145.8487  138.2880  150.3173 H   0  0  0  0  0  0  0  0  0  0  0  0
  1  2  2  0  0  0  0
  2  3  1  0  0  0  0
  2  4  1  0  0  0  0
  4 13  1  0  0  0  0
  4  5  2  0  0  0  0
  5  6  1  0  0  0  0
  5 16  1  0  0  0  0
  6  7  1  0  0  0  0
  6 10  1  0  0  0  0
  7  8  1  0  0  0  0
  7 17  1  0  0  0  0
  7 18  1  0  0  0  0
  8  9  1  0  0  0  0
  8 19  1  0  0  0  0
  8 20  1  0  0  0  0
  9 21  1  0  0  0  0
 10 11  2  0  0  0  0
 10 12  1  0  0  0  0
 12 15  1  0  0  0  0
 12 13  1  0  0  0  0
 13 14  2  0  0  0  0
M  CHG  1   3  -1
M  END
> <s_m_source_file>
AV-unprocessed.smi

> <i_m_source_file_index>
779

> <i_lp_mmshare_version>
43012

> <i_f3d_flags>
0

> <s_epik_input>
Tz1DKFtPSF0pYzFbY0hdbihbQ0gyXVtDSDJdW09IXSljKD1PKVtuSF1jMT1P

> <s_epik_cmdline>
J2VwaWtfcHl0aG9uJywgJy1waCcsICc3LjAnLCAnLXRuJywgJzgnLCAnLW1hJywgJzIwMCcsICctbWV0YWxfYmluZGluZycsICctaW1hZScsICc8aW5maWxlLm1hZT4nLCAnLW9tYWUnLCAnPG91dGZpbGUubWFlPic=

> <r_lp_tautomer_probability>
1

> <r_epik_Ionization_Penalty>
0.00105006

> <r_epik_Ionization_Penalty_Charging>
0.0010499

> <r_epik_Ionization_Penalty_Neutral>
1.56052e-07

> <r_epik_State_Penalty>
-0

> <r_epik_Charging_Adjusted_Penalty>
0.0010499

> <i_epik_Tot_Q>
-1

> <i_epik_Tot_abs_Q>
1

> <r_epik_Metal_State_Penalty>
0.521421

> <b_epik_Metal_Only>
0

> <s_lp_Force_Field>
OPLS_2005

> <r_lp_Energy>
14.2726

> <b_lp_Chiralities_Consistent>
1

> <s_lp_Variant>
AV-unprocessed.smi:779-1

> <Gold.Version>
5.8.1

> <Gold.Id.Protein>
6NUR|6NUR_protein|mol2

> <Gold.PLP.Fitness>
44.6094

> <Gold.PLP.PLP>
-24.3480

> <Gold.PLP.part.hbond>
-5.6173

> <Gold.PLP.part.metal>
0.0000

> <Gold.PLP.part.buried>
2.1601

> <Gold.PLP.part.nonpolar>
-20.6480

> <Gold.PLP.part.repulsive>
0.4712

> <Gold.PLP.ligand.clash>
0.0000

> <Gold.PLP.ligand.torsion>
0.3704

> <Gold.PLP.Chemscore.Hbond>
6.0000

> <Gold.PLP.Chemscore.CHOScore>
1.0000

> <Gold.PLP.Chemscore.Metal>
0.0000

> <Gold.Chemscore.Hbonds>
donor molecule, donor type, donor heavy atom, donor atom, acceptor molecule, acceptor atom, score
      L1  H     9    21       P1 10171  0.98
      P1  H  7954  7966       L1     9  1.00
      P1  H  7997  8009       L1     1  2.00
      P1  H 10752 10764       L1     3  1.98
      L1  C     5    16       P1  7948  1.00

> <Gold.PLP.Chemscore.Internal.Correction>
0.0022

> <Gold.Rescore>
     Score         DG    S(hbond)    S(metal)    S(lipo)     H(rot)  DE(clash)    DE(int)     intcor
     12.70     -15.91       3.77        0.00      29.58       2.19       0.01       3.20       ----

> <Gold.Chemscore.Fitness>
12.7037

> <Gold.Chemscore.DG>
-15.9113

> <Gold.Chemscore.ZeroCoef>
-5.4800

> <Gold.Chemscore.Hbond>
3.7655

> <Gold.Chemscore.Metal>
0.0000

> <Gold.Chemscore.Lipo>
29.5843

> <Gold.Chemscore.Internal_Hbond>
0.0000

> <Gold.Chemscore.DEClash>
0.0098

> <Gold.Chemscore.DEInternal>
3.1978

> <Gold.Chemscore.Rot>
2.1902

> <Gold.Chemscore.Internal.Correction>
   9.000000E+99

> <Gold.Chemscore.Hbonds>
donor molecule, donor type, donor heavy atom, donor atom, acceptor molecule, acceptor atom, score
      L1  H     9    21       P1 10171  0.91
      P1  H  7954  7966       L1     9  0.66
      P1  H  7997  8009       L1     1  0.95
      P1  H 10752 10764       L1     3  0.94

> <Gold.Chemscore.Hbond.Weighted>
-12.5768

> <Gold.Chemscore.Metal.Weighted>
-0.0000

> <Gold.Chemscore.Lipo.Weighted>
-3.4614

> <Gold.Chemscore.Internal_Hbond.Weighted>
0.0000

> <Gold.Chemscore.DEClash.Weighted>
0.0098

> <Gold.Chemscore.DEInternal.Weighted>
3.1978

> <Gold.Chemscore.Rot.Weighted>
5.6069

> <Gold.Chemscore.Internal.Correction.Weighted>
   9.000000E+99

> <Gold.Protein.RotatedTorsions>
[ 6907 6896 6895 6894 ] final  144.21 input  -60.11 | X-H torsion
[ 7974 7965 7964 7962 ] final  176.92 input  175.53 | X-H torsion
[ 8008 7997 7996 7995 ] final -143.21 input   59.86 | X-H torsion
[ 10167 10162 10161 10158 ] final  125.10 input  -65.29 | X-H torsion
[ 10718 10713 10712 10709 ] final    8.28 input   66.30 | X-H torsion
[ 10763 10752 10751 10750 ] final  -58.67 input  -60.55 | X-H torsion
[ 11005 11000 10999 10996 ] final  131.66 input  -57.11 | X-H torsion

> <Gold.Protein.ActiveResidues>
 VAL166  LYS551  ARG553  GLY616  TRP617  ASP618  TYR619  PRO620  LYS621  CYS622 
 ASP623  PHE694  ASN695  SER759  ASP760  ASP761  ALA762  ILE779  LEU786  VAL792 
 PHE793  MET794  SER795  GLU796  ALA797  LYS798  CYS799  TRP800  GLU811  SER814 

> <Gold.Protein.RotatedAtoms>
  152.1965  133.4810  159.5035 H   0  0  0  0  0  0  0  0  0  0  0  0  # atno 6907 bound_to 6896
  150.6961  134.1645  159.4198 H   0  0  0  0  0  0  0  0  0  0  0  0  # atno 6908 bound_to 6896
  151.9561  135.0146  160.0595 H   0  0  0  0  0  0  0  0  0  0  0  0  # atno 6909 bound_to 6896
  144.7177  140.0169  143.6440 H   0  0  0  0  0  0  0  0  0  0  0  0  # atno 7974 bound_to 7965
  155.5068  140.0580  157.2930 H   0  0  0  0  0  0  0  0  0  0  0  0  # atno 8008 bound_to 7997
  154.4566  140.1976  156.0310 H   0  0  0  0  0  0  0  0  0  0  0  0  # atno 8009 bound_to 7997
  156.0811  140.3247  155.7699 H   0  0  0  0  0  0  0  0  0  0  0  0  # atno 8010 bound_to 7997
  139.5704  144.6935  151.3794 H   0  0  0  0  0  0  0  0  0  0  0  0  # atno 10167 bound_to 10162
  156.9493  130.5891  149.5656 H   0  0  0  0  0  0  0  0  0  0  0  0  # atno 10718 bound_to 10713
  154.2418  135.6342  153.5210 H   0  0  0  0  0  0  0  0  0  0  0  0  # atno 10763 bound_to 10752
  152.9929  135.5544  154.5902 H   0  0  0  0  0  0  0  0  0  0  0  0  # atno 10764 bound_to 10752
  154.5409  135.2894  155.1070 H   0  0  0  0  0  0  0  0  0  0  0  0  # atno 10765 bound_to 10752
  139.9743  134.9568  156.9470 H   0  0  0  0  0  0  0  0  0  0  0  0  # atno 11005 bound_to 11000
  146.0213  139.3253  143.0811 LP  0  0  0  0  0  0  0  0  0  0  0  0  # atno 17320 bound_to 7965
  145.8565  140.9499  143.0722 LP  0  0  0  0  0  0  0  0  0  0  0  0  # atno 17321 bound_to 7965
  140.6988  143.7682  150.7370 LP  0  0  0  0  0  0  0  0  0  0  0  0  # atno 17342 bound_to 10162
  140.1186  143.4632  152.2327 LP  0  0  0  0  0  0  0  0  0  0  0  0  # atno 17343 bound_to 10162
  156.0370  130.5456  150.8677 LP  0  0  0  0  0  0  0  0  0  0  0  0  # atno 17370 bound_to 10713
  157.5733  131.0946  150.9385 LP  0  0  0  0  0  0  0  0  0  0  0  0  # atno 17371 bound_to 10713
  140.5227  134.0892  155.7296 LP  0  0  0  0  0  0  0  0  0  0  0  0  # atno 17394 bound_to 11000
  141.1421  133.9119  157.2301 LP  0  0  0  0  0  0  0  0  0  0  0  0  # atno 17395 bound_to 11000

$$$$
