#       Name:                AV-unprocessed.smi:769
#       Creating user name   scv26
#       Creation time:       Fri Mar 27 01:08:41 2020


#       File generated by GOLD software.
#

@<TRIPOS>MOLECULE
AV-unprocessed.smi:769
    55    57     1
SMALL
NO_CHARGES


@<TRIPOS>ATOM
      1 ****        -2.6818   1.9093   0.0586 O.2            1 S1                 0.0000
      2 ****        -3.2607   1.5471  -0.9656 C.2            1 S1                 0.0000
      3 ****        -3.0552   0.3561  -1.5459 N.am           1 S1                 0.0000
      4 ****        -2.1344  -0.6624  -1.0563 C.3            1 S1                 0.0000
      5 ****        -0.6792  -0.3230  -1.4335 C.3            1 S1                 0.0000
      6 ****         0.2524  -1.3859  -1.0602 N.3            1 S1                 0.0000
      7 ****         0.4608  -1.4250   0.3934 C.3            1 S1                 0.0000
      8 ****         1.4705  -2.5306   0.7569 C.3            1 S1                 0.0000
      9 ****         2.7382  -2.2543   0.0744 N.am           1 S1                 0.0000
     10 ****         3.9150  -1.9357   0.6655 C.2            1 S1                 0.0000
     11 ****         4.9310  -1.6982   0.0106 O.2            1 S1                 0.0000
     12 ****         3.9704  -1.8242   2.2022 C.3            1 S1                 0.0000
     13 ****         5.3208  -1.3850   2.8055 C.3            1 S1                 0.0000
     14 ****         5.1442  -2.4696   3.8714 C.3            1 S1                 0.0000
     15 ****         4.1689  -3.1697   2.9210 C.3            1 S1                 0.0000
     16 ****         2.5418  -2.2615  -1.3778 C.3            1 S1                 0.0000
     17 ****         1.5306  -1.1574  -1.7430 C.3            1 S1                 0.0000
     18 ****        -4.1523   2.2772  -1.6583 N.am           1 S1                 0.0000
     19 ****        -4.6463   3.5804  -1.3774 C.ar           1 S1                 0.0000
     20 ****        -5.2437   4.2969  -2.4352 C.ar           1 S1                 0.0000
     21 ****        -5.7556   5.5848  -2.1802 C.ar           1 S1                 0.0000
     22 ****        -5.7142   6.1721  -0.9658 N.ar           1 S1                 0.0000
     23 ****        -5.1550   5.4795   0.0489 C.ar           1 S1                 0.0000
     24 ****        -4.6129   4.1870  -0.0986 C.ar           1 S1                 0.0000
     25 ****        -3.5688   0.1389  -2.3875 H              1 S1                 0.0000
     26 ****        -2.2603  -0.7671   0.0217 H              1 S1                 0.0000
     27 ****        -2.4204  -1.6170  -1.4985 H              1 S1                 0.0000
     28 ****        -0.6372  -0.1837  -2.5149 H              1 S1                 0.0000
     29 ****        -0.3683   0.6222  -0.9855 H              1 S1                 0.0000
     30 ****         0.8184  -0.4575   0.7500 H              1 S1                 0.0000
     31 ****        -0.4784  -1.6284   0.9059 H              1 S1                 0.0000
     32 ****         1.5618  -2.6006   1.8390 H              1 S1                 0.0000
     33 ****         1.0942  -3.5031   0.4353 H              1 S1                 0.0000
     34 ****         3.1536  -1.2342   2.6215 H              1 S1                 0.0000
     35 ****         6.1928  -1.5694   2.1759 H              1 S1                 0.0000
     36 ****         5.3276  -0.3701   3.2037 H              1 S1                 0.0000
     37 ****         6.0468  -3.0374   4.0990 H              1 S1                 0.0000
     38 ****         4.6594  -2.0980   4.7754 H              1 S1                 0.0000
     39 ****         3.2753  -3.5592   3.4093 H              1 S1                 0.0000
     40 ****         4.6509  -3.9310   2.3046 H              1 S1                 0.0000
     41 ****         3.4683  -2.1035  -1.9309 H              1 S1                 0.0000
     42 ****         2.1693  -3.2379  -1.6917 H              1 S1                 0.0000
     43 ****         1.3731  -1.1539  -2.8222 H              1 S1                 0.0000
     44 ****         1.9304  -0.1782  -1.4734 H              1 S1                 0.0000
     45 ****        -4.4789   1.8710  -2.5226 H              1 S1                 0.0000
     46 ****        -5.3063   3.8742  -3.4273 H              1 S1                 0.0000
     47 ****        -6.2134   6.1571  -2.9735 H              1 S1                 0.0000
     48 ****        -5.1452   5.9677   1.0121 H              1 S1                 0.0000
     49 ****        -4.2001   3.6904   0.7657 H              1 S1                 0.0000
     50 ****        -2.0199   1.3032   0.4998 LP             1 S1                 0.0000
     51 ****        -2.8733   2.8096   0.4494 LP             1 S1                 0.0000
     52 ****        -0.1339  -2.2659  -1.3364 LP             1 S1                 0.0000
     53 ****         4.9027  -1.7376  -0.9883 LP             1 S1                 0.0000
     54 ****         5.7842  -1.4660   0.4778 LP             1 S1                 0.0000
     55 ****        -6.0853   7.0896  -0.8226 LP             1 S1                 0.0000
@<TRIPOS>BOND
    1    1    2 2     
    2    2    3 am    
    3    2   18 am    
    4    3    4 1     
    5    3   25 1     
    6    4    5 1     
    7    4   26 1     
    8    4   27 1     
    9    5    6 1     
   10    5   28 1     
   11    5   29 1     
   12    6   17 1     
   13    6    7 1     
   14    7    8 1     
   15    7   30 1     
   16    7   31 1     
   17    8    9 1     
   18    8   32 1     
   19    8   33 1     
   20    9   10 am    
   21    9   16 1     
   22   10   11 2     
   23   10   12 1     
   24   12   15 1     
   25   12   13 1     
   26   12   34 1     
   27   13   14 1     
   28   13   35 1     
   29   13   36 1     
   30   14   15 1     
   31   14   37 1     
   32   14   38 1     
   33   15   39 1     
   34   15   40 1     
   35   16   17 1     
   36   16   41 1     
   37   16   42 1     
   38   17   43 1     
   39   17   44 1     
   40   18   19 1     
   41   18   45 1     
   42   19   24 ar    
   43   19   20 ar    
   44   20   21 ar    
   45   20   46 1     
   46   21   22 ar    
   47   21   47 1     
   48   22   23 ar    
   49   23   24 ar    
   50   23   48 1     
   51   24   49 1     
   52    1   50 1     
   53    1   51 1     
   54    6   52 1     
   55   11   53 1     
   56   11   54 1     
   57   22   55 1     
@<TRIPOS>SUBSTRUCTURE
      1 S1             1
@<TRIPOS>SET
LONE_PAIRS      STATIC     ATOMS    <user>   **** ""
6 50 51 52 53 54 55
DONOR_HYDROGENS      STATIC     ATOMS    <user>   **** ""
2 25 45
ATOM$BLUE        STATIC     ATOMS    COLORGROUP SYSTEM
6 50 51 52 53 54 55
ATOM$RED        STATIC     ATOMS    COLORGROUP SYSTEM
2 25 45
