AV-unprocessed.smi:743|AV-procd|sdf|3561|dock7
  -GOLD-   22720 0563D 1   1.00000     0.00000
 Structure written by MMmdl.
 29 30  0  0  0  0  0  0  0  0  2 V2000
  150.8206  138.3512  154.4272 C   0  0  0  0  0  0  0  0  0  0  0  0
  150.7850  139.5347  155.2593 N   0  0  0  0  0  0  0  0  0  0  0  0
  151.0966  139.6552  156.5960 C   0  0  0  0  0  0  0  0  0  0  0  0
  150.9096  140.9643  156.9475 C   0  0  0  0  0  0  0  0  0  0  0  0
  151.1139  141.6344  158.2853 C   0  0  1  0  0  0  0  0  0  0  0  0
  152.4621  141.3701  158.7950 N   0  0  0  0  0  0  0  0  0  0  0  0
  153.2266  142.2021  159.5249 C   0  0  0  0  0  0  0  0  0  0  0  0
  154.3215  141.8517  159.9572 O   0  0  0  0  0  0  0  0  0  0  0  0
  152.7342  143.6333  159.7902 C   0  0  0  0  0  0  0  0  0  0  0  0
  151.2355  143.8345  159.5109 C   0  0  0  0  0  0  0  0  0  0  0  0
  150.8253  143.1515  158.2011 C   0  0  2  0  0  0  0  0  0  0  0  0
  149.4121  143.4219  157.8794 N   0  3  0  0  0  0  0  0  0  0  0  0
  150.4717  141.5671  155.7327 C   0  0  0  0  0  0  0  0  0  0  0  0
  150.4015  140.7124  154.7266 N   0  0  0  0  0  0  0  0  0  0  0  0
  151.4196  143.5815  157.3928 H   0  0  0  0  0  0  0  0  0  0  0  0
  151.4237  137.5779  154.9041 H   0  0  0  0  0  0  0  0  0  0  0  0
  151.2562  138.5894  153.4561 H   0  0  0  0  0  0  0  0  0  0  0  0
  149.8076  137.9744  154.2828 H   0  0  0  0  0  0  0  0  0  0  0  0
  151.4243  138.8079  157.1809 H   0  0  0  0  0  0  0  0  0  0  0  0
  150.4340  141.1985  159.0191 H   0  0  0  0  0  0  0  0  0  0  0  0
  152.8311  140.4462  158.6195 H   0  0  0  0  0  0  0  0  0  0  0  0
  152.9638  143.9123  160.8193 H   0  0  0  0  0  0  0  0  0  0  0  0
  153.3136  144.3006  159.1513 H   0  0  0  0  0  0  0  0  0  0  0  0
  150.6502  143.4347  160.3406 H   0  0  0  0  0  0  0  0  0  0  0  0
  151.0167  144.9020  159.4651 H   0  0  0  0  0  0  0  0  0  0  0  0
  149.3225  143.6283  156.8947 H   0  0  0  0  0  0  0  0  0  0  0  0
  149.0908  144.2122  158.4203 H   0  0  0  0  0  0  0  0  0  0  0  0
  150.2072  142.5987  155.5531 H   0  0  0  0  0  0  0  0  0  0  0  0
  148.8539  142.6111  158.1055 H   0  0  0  0  0  0  0  0  0  0  0  0
  1  2  1  0  0  0  0
  1 16  1  0  0  0  0
  1 17  1  0  0  0  0
  1 18  1  0  0  0  0
  2 14  1  0  0  0  0
  2  3  1  0  0  0  0
  3  4  2  0  0  0  0
  3 19  1  0  0  0  0
  4  5  1  0  0  0  0
  4 13  1  0  0  0  0
  5 11  1  0  0  0  0
  5  6  1  0  0  0  0
  5 20  1  0  0  0  0
  6  7  1  0  0  0  0
  6 21  1  0  0  0  0
  7  8  2  0  0  0  0
  7  9  1  0  0  0  0
  9 10  1  0  0  0  0
  9 22  1  0  0  0  0
  9 23  1  0  0  0  0
 10 11  1  0  0  0  0
 10 24  1  0  0  0  0
 10 25  1  0  0  0  0
 11 15  1  0  0  0  0
 11 12  1  0  0  0  0
 12 26  1  0  0  0  0
 12 27  1  0  0  0  0
 12 29  1  0  0  0  0
 13 14  2  0  0  0  0
 13 28  1  0  0  0  0
M  CHG  1  12   1
M  END
> <s_m_source_file>
AV-unprocessed.smi

> <i_m_source_file_index>
743

> <i_lp_mmshare_version>
43012

> <i_f3d_flags>
0

> <s_epik_input>
W0NIM11uMVtjSF1jKFtjSF1uMSlbQ0BASF0yW05IXUMoPU8pW0NIMl1bQ0gyXVtDQEBIXTJbTkgyXQ==

> <s_epik_cmdline>
J2VwaWtfcHl0aG9uJywgJy1waCcsICc3LjAnLCAnLXRuJywgJzgnLCAnLW1hJywgJzIwMCcsICctbWV0YWxfYmluZGluZycsICctaW1hZScsICc8aW5maWxlLm1hZT4nLCAnLW9tYWUnLCAnPG91dGZpbGUubWFlPic=

> <r_lp_tautomer_probability>
1

> <r_epik_Ionization_Penalty>
0.00878543

> <r_epik_Ionization_Penalty_Charging>
0.00874185

> <r_epik_Ionization_Penalty_Neutral>
4.35793e-05

> <r_epik_State_Penalty>
0.00660351

> <r_epik_Charging_Adjusted_Penalty>
0.0153454

> <i_epik_Tot_Q>
1

> <i_epik_Tot_abs_Q>
1

> <r_epik_Metal_State_Penalty>
0.00660727

> <b_epik_Metal_Only>
0

> <s_lp_Force_Field>
OPLS_2005

> <r_lp_Energy>
10.7235

> <b_lp_Chiralities_Consistent>
1

> <s_lp_Variant>
AV-unprocessed.smi:743-2

> <Gold.Version>
5.8.1

> <Gold.Id.Protein>
6NUR|6NUR_protein|mol2

> <Gold.PLP.Fitness>
40.2702

> <Gold.PLP.PLP>
-28.4707

> <Gold.PLP.part.hbond>
-3.0000

> <Gold.PLP.part.metal>
0.0000

> <Gold.PLP.part.buried>
-2.9762

> <Gold.PLP.part.nonpolar>
-22.6119

> <Gold.PLP.part.repulsive>
0.2404

> <Gold.PLP.ligand.clash>
0.0000

> <Gold.PLP.ligand.torsion>
0.0462

> <Gold.PLP.Chemscore.Hbond>
2.9568

> <Gold.PLP.Chemscore.CHOScore>
1.0000

> <Gold.PLP.Chemscore.Metal>
0.0000

> <Gold.Chemscore.Hbonds>
donor molecule, donor type, donor heavy atom, donor atom, acceptor molecule, acceptor atom, score
      L1  H    12    26       P1  8028  1.92
      L1  H    12    27       P1  8029  0.07
      P1  H  7989  7998       L1    14  0.86
      L1  C    13    28       P1  8028  1.00

> <Gold.PLP.Chemscore.Internal.Correction>
0.0215

> <Gold.Rescore>
     Score         DG    S(hbond)    S(metal)    S(lipo)     H(rot)  DE(clash)    DE(int)     intcor
     15.37     -15.45       1.63        0.00      60.60       1.00       0.01       0.07       ----

> <Gold.Chemscore.Fitness>
15.3728

> <Gold.Chemscore.DG>
-15.4545

> <Gold.Chemscore.ZeroCoef>
-5.4800

> <Gold.Chemscore.Hbond>
1.6300

> <Gold.Chemscore.Metal>
0.0000

> <Gold.Chemscore.Lipo>
60.6006

> <Gold.Chemscore.Internal_Hbond>
0.0000

> <Gold.Chemscore.DEClash>
0.0132

> <Gold.Chemscore.DEInternal>
0.0685

> <Gold.Chemscore.Rot>
1.0000

> <Gold.Chemscore.Internal.Correction>
   9.000000E+99

> <Gold.Chemscore.Hbonds>
donor molecule, donor type, donor heavy atom, donor atom, acceptor molecule, acceptor atom, score
      L1  H    12    26       P1  8028  0.81
      L1  H    12    27       P1  8029  0.02
      P1  H  7989  7998       L1    14  0.20

> <Gold.Chemscore.Hbond.Weighted>
-5.4442

> <Gold.Chemscore.Metal.Weighted>
-0.0000

> <Gold.Chemscore.Lipo.Weighted>
-7.0903

> <Gold.Chemscore.Internal_Hbond.Weighted>
0.0000

> <Gold.Chemscore.DEClash.Weighted>
0.0132

> <Gold.Chemscore.DEInternal.Weighted>
0.0685

> <Gold.Chemscore.Rot.Weighted>
2.5600

> <Gold.Chemscore.Internal.Correction.Weighted>
   9.000000E+99

> <Gold.Protein.RotatedTorsions>
[ 6907 6896 6895 6894 ] final   77.78 input  -60.11 | X-H torsion
[ 7974 7965 7964 7962 ] final   56.72 input  175.53 | X-H torsion
[ 8008 7997 7996 7995 ] final  145.58 input   59.86 | X-H torsion
[ 10167 10162 10161 10158 ] final -134.54 input  -65.29 | X-H torsion
[ 10718 10713 10712 10709 ] final  133.40 input   66.30 | X-H torsion
[ 10763 10752 10751 10750 ] final  162.57 input  -60.55 | X-H torsion
[ 11005 11000 10999 10996 ] final  159.77 input  -57.11 | X-H torsion

> <Gold.Protein.ActiveResidues>
 VAL166  LYS551  ARG553  GLY616  TRP617  ASP618  TYR619  PRO620  LYS621  CYS622 
 ASP623  PHE694  ASN695  SER759  ASP760  ASP761  ALA762  ILE779  LEU786  VAL792 
 PHE793  MET794  SER795  GLU796  ALA797  LYS798  CYS799  TRP800  GLU811  SER814 

> <Gold.Protein.RotatedAtoms>
  152.5132  134.3765  159.9335 H   0  0  0  0  0  0  0  0  0  0  0  0  # atno 6907 bound_to 6896
  151.3720  133.3845  159.2708 H   0  0  0  0  0  0  0  0  0  0  0  0  # atno 6908 bound_to 6896
  150.9570  134.8983  159.7766 H   0  0  0  0  0  0  0  0  0  0  0  0  # atno 6909 bound_to 6896
  145.9367  139.3854  143.0388 H   0  0  0  0  0  0  0  0  0  0  0  0  # atno 7974 bound_to 7965
  156.2879  140.2205  156.5239 H   0  0  0  0  0  0  0  0  0  0  0  0  # atno 8008 bound_to 7997
  154.7506  140.0480  157.0912 H   0  0  0  0  0  0  0  0  0  0  0  0  # atno 8009 bound_to 7997
  155.0115  140.3113  155.4831 H   0  0  0  0  0  0  0  0  0  0  0  0  # atno 8010 bound_to 7997
  139.8869  143.6769  152.2618 H   0  0  0  0  0  0  0  0  0  0  0  0  # atno 10167 bound_to 10162
  157.4777  131.1084  150.9722 H   0  0  0  0  0  0  0  0  0  0  0  0  # atno 10718 bound_to 10713
  154.2805  135.2763  155.2699 H   0  0  0  0  0  0  0  0  0  0  0  0  # atno 10763 bound_to 10752
  154.5222  135.5753  153.6694 H   0  0  0  0  0  0  0  0  0  0  0  0  # atno 10764 bound_to 10752
  152.9930  135.6207  154.2964 H   0  0  0  0  0  0  0  0  0  0  0  0  # atno 10765 bound_to 10752
  140.1994  134.8349  157.3001 H   0  0  0  0  0  0  0  0  0  0  0  0  # atno 11005 bound_to 11000
  145.8354  140.9609  143.0827 LP  0  0  0  0  0  0  0  0  0  0  0  0  # atno 17320 bound_to 7965
  144.6773  140.0215  143.7483 LP  0  0  0  0  0  0  0  0  0  0  0  0  # atno 17321 bound_to 7965
  139.7144  144.7614  151.1058 LP  0  0  0  0  0  0  0  0  0  0  0  0  # atno 17342 bound_to 10162
  140.7734  143.5288  150.9448 LP  0  0  0  0  0  0  0  0  0  0  0  0  # atno 17343 bound_to 10162
  157.0466  130.5770  149.5364 LP  0  0  0  0  0  0  0  0  0  0  0  0  # atno 17370 bound_to 10713
  156.0105  130.5196  150.7973 LP  0  0  0  0  0  0  0  0  0  0  0  0  # atno 17371 bound_to 10713
  140.2071  134.4184  155.7632 LP  0  0  0  0  0  0  0  0  0  0  0  0  # atno 17394 bound_to 11000
  141.2227  133.7100  156.8278 LP  0  0  0  0  0  0  0  0  0  0  0  0  # atno 17395 bound_to 11000

$$$$
