AV-unprocessed.smi:1622|AV-procd|sdf|6499|dock4
  -GOLD-   22720 7163D 1   1.00000     0.00000
 Structure written by MMmdl.
 40 41  0  0  0  0  0  0  0  0  3 V2000
  147.0617  135.9572  156.4931 C   0  0  0  0  0  0  0  0  0  0  0  0
  146.9849  135.9033  154.9593 C   0  0  0  0  0  0  0  0  0  0  0  0
  147.3584  134.5287  154.3395 C   0  0  2  0  0  0  0  0  0  0  0  0
  148.7845  134.0709  154.7350 C   0  0  0  0  0  0  0  0  0  0  0  0
  149.7925  135.0570  154.3656 N   0  0  0  0  0  0  0  0  0  0  0  0
  150.6279  135.6676  155.2154 C   0  0  0  0  0  0  0  0  0  0  0  0
  150.5676  135.4191  156.4216 O   0  0  0  0  0  0  0  0  0  0  0  0
  151.4820  136.5244  154.6126 N   0  5  0  0  0  0  0  0  0  0  0  0
  151.5644  137.7975  155.0334 C   0  0  0  0  0  0  0  0  0  0  0  0
  152.6463  138.2781  155.6625 N   0  0  0  0  0  0  0  0  0  0  0  0
  152.5219  139.6143  156.0150 N   0  0  0  0  0  0  0  0  0  0  0  0
  151.3409  140.1218  155.6542 C   0  0  0  0  0  0  0  0  0  0  0  0
  150.9582  141.5374  155.9202 C   0  0  0  0  0  0  0  0  0  0  0  0
  150.2750  138.9855  154.8453 S   0  0  0  0  0  0  0  0  0  0  0  0
  147.1717  134.5336  152.8587 N   0  3  0  0  0  0  0  0  0  0  0  0
  147.3793  133.2379  152.1762 C   0  0  0  0  0  0  0  0  0  0  0  0
  146.6862  133.3875  150.8270 C   0  0  0  0  0  0  0  0  0  0  0  0
  145.4545  134.2193  151.1642 C   0  0  0  0  0  0  0  0  0  0  0  0
  145.8659  135.0575  152.3827 C   0  0  0  0  0  0  0  0  0  0  0  0
  146.8195  136.9573  156.8529 H   0  0  0  0  0  0  0  0  0  0  0  0
  148.0604  135.7110  156.8533 H   0  0  0  0  0  0  0  0  0  0  0  0
  146.3557  135.2672  156.9554 H   0  0  0  0  0  0  0  0  0  0  0  0
  145.9765  136.1823  154.6526 H   0  0  0  0  0  0  0  0  0  0  0  0
  147.6199  136.6882  154.5498 H   0  0  0  0  0  0  0  0  0  0  0  0
  146.6623  133.7916  154.7435 H   0  0  0  0  0  0  0  0  0  0  0  0
  148.8632  133.9258  155.8126 H   0  0  0  0  0  0  0  0  0  0  0  0
  149.0117  133.1094  154.2715 H   0  0  0  0  0  0  0  0  0  0  0  0
  149.8722  135.2924  153.3871 H   0  0  0  0  0  0  0  0  0  0  0  0
  150.9120  141.7164  156.9945 H   0  0  0  0  0  0  0  0  0  0  0  0
  149.9817  141.7550  155.4872 H   0  0  0  0  0  0  0  0  0  0  0  0
  151.6930  142.2129  155.4817 H   0  0  0  0  0  0  0  0  0  0  0  0
  148.4373  132.9983  152.0649 H   0  0  0  0  0  0  0  0  0  0  0  0
  146.9042  132.4389  152.7483 H   0  0  0  0  0  0  0  0  0  0  0  0
  147.3293  133.9381  150.1391 H   0  0  0  0  0  0  0  0  0  0  0  0
  146.4401  132.4299  150.3668 H   0  0  0  0  0  0  0  0  0  0  0  0
  145.1243  134.8320  150.3250 H   0  0  0  0  0  0  0  0  0  0  0  0
  144.6300  133.5588  151.4354 H   0  0  0  0  0  0  0  0  0  0  0  0
  145.0964  134.9824  153.1522 H   0  0  0  0  0  0  0  0  0  0  0  0
  145.9748  136.1110  152.1229 H   0  0  0  0  0  0  0  0  0  0  0  0
  147.8738  135.1533  152.4803 H   0  0  0  0  0  0  0  0  0  0  0  0
  1  2  1  0  0  0  0
  1 20  1  0  0  0  0
  1 21  1  0  0  0  0
  1 22  1  0  0  0  0
  2  3  1  0  0  0  0
  2 23  1  0  0  0  0
  2 24  1  0  0  0  0
  3  4  1  0  0  0  0
  3 15  1  0  0  0  0
  3 25  1  0  0  0  0
  4  5  1  0  0  0  0
  4 26  1  0  0  0  0
  4 27  1  0  0  0  0
  5  6  1  0  0  0  0
  5 28  1  0  0  0  0
  6  7  2  0  0  0  0
  6  8  1  0  0  0  0
  8  9  1  0  0  0  0
  9 14  1  0  0  0  0
  9 10  2  0  0  0  0
 10 11  1  0  0  0  0
 11 12  2  0  0  0  0
 12 13  1  0  0  0  0
 12 14  1  0  0  0  0
 13 29  1  0  0  0  0
 13 30  1  0  0  0  0
 13 31  1  0  0  0  0
 15 19  1  0  0  0  0
 15 16  1  0  0  0  0
 15 40  1  0  0  0  0
 16 17  1  0  0  0  0
 16 32  1  0  0  0  0
 16 33  1  0  0  0  0
 17 18  1  0  0  0  0
 17 34  1  0  0  0  0
 17 35  1  0  0  0  0
 18 19  1  0  0  0  0
 18 36  1  0  0  0  0
 18 37  1  0  0  0  0
 19 38  1  0  0  0  0
 19 39  1  0  0  0  0
M  CHG  1   8  -1
M  CHG  1  15   1
M  END
> <s_m_source_file>
AV-unprocessed.smi

> <i_m_source_file_index>
1622

> <i_lp_mmshare_version>
43012

> <i_f3d_flags>
0

> <s_epik_input>
W0NIMl0xW0NIMl1bQ0gyXVtDSDJdTjFbQ0BIXShbQ0gyXVtDSDNdKVtDSDJdW05IXUMoPU8pW05IXWMybm5jKHMyKVtDSDNd

> <s_epik_cmdline>
J2VwaWtfcHl0aG9uJywgJy1waCcsICc3LjAnLCAnLXRuJywgJzgnLCAnLW1hJywgJzIwMCcsICctbWV0YWxfYmluZGluZycsICctaW1hZScsICc8aW5maWxlLm1hZT4nLCAnLW9tYWUnLCAnPG91dGZpbGUubWFlPic=

> <r_lp_tautomer_probability>
1

> <r_epik_Ionization_Penalty>
4.34497

> <r_epik_Ionization_Penalty_Charging>
4.23453

> <r_epik_Ionization_Penalty_Neutral>
0.110433

> <r_epik_State_Penalty>
4.23293

> <r_epik_Charging_Adjusted_Penalty>
8.46746

> <i_epik_Tot_Q>
0

> <i_epik_Tot_abs_Q>
2

> <r_epik_Metal_State_Penalty>
0.701092

> <b_epik_Metal_Only>
1

> <s_lp_Force_Field>
OPLS_2005

> <r_lp_Energy>
26.4527

> <b_lp_Chiralities_Consistent>
1

> <s_lp_Variant>
AV-unprocessed.smi:1622-3

> <Gold.Version>
5.8.1

> <Gold.Id.Protein>
6NUR|6NUR_protein|mol2

> <Gold.PLP.Fitness>
42.8573

> <Gold.PLP.PLP>
-29.4408

> <Gold.PLP.part.hbond>
-4.2790

> <Gold.PLP.part.metal>
0.0000

> <Gold.PLP.part.buried>
-4.1299

> <Gold.PLP.part.nonpolar>
-20.6132

> <Gold.PLP.part.repulsive>
0.2540

> <Gold.PLP.ligand.clash>
0.0000

> <Gold.PLP.ligand.torsion>
1.2115

> <Gold.PLP.Chemscore.Hbond>
5.1856

> <Gold.PLP.Chemscore.CHOScore>
0.0000

> <Gold.PLP.Chemscore.Metal>
0.0000

> <Gold.Chemscore.Hbonds>
donor molecule, donor type, donor heavy atom, donor atom, acceptor molecule, acceptor atom, score
      L1  H     5    28       P1  7948  0.18
      L1  H    15    40       P1  7948  2.00
      P1  H  7997  8009       L1    11  1.00
      P1  H 10752 10765       L1     8  2.00

> <Gold.PLP.Chemscore.Internal.Correction>
0.2826

> <Gold.Rescore>
     Score         DG    S(hbond)    S(metal)    S(lipo)     H(rot)  DE(clash)    DE(int)     intcor
     14.75     -15.98       2.65        0.00      52.16       1.73       0.02       1.22       ----

> <Gold.Chemscore.Fitness>
14.7458

> <Gold.Chemscore.DG>
-15.9804

> <Gold.Chemscore.ZeroCoef>
-5.4800

> <Gold.Chemscore.Hbond>
2.6463

> <Gold.Chemscore.Metal>
0.0000

> <Gold.Chemscore.Lipo>
52.1615

> <Gold.Chemscore.Internal_Hbond>
0.0000

> <Gold.Chemscore.DEClash>
0.0164

> <Gold.Chemscore.DEInternal>
1.2182

> <Gold.Chemscore.Rot>
1.7348

> <Gold.Chemscore.Internal.Correction>
   9.000000E+99

> <Gold.Chemscore.Hbonds>
donor molecule, donor type, donor heavy atom, donor atom, acceptor molecule, acceptor atom, score
      L1  H    15    40       P1  7948  0.96
      P1  H  7997  8009       L1    11  0.39
      P1  H 10752 10765       L1     8  0.38

> <Gold.Chemscore.Hbond.Weighted>
-8.8386

> <Gold.Chemscore.Metal.Weighted>
-0.0000

> <Gold.Chemscore.Lipo.Weighted>
-6.1029

> <Gold.Chemscore.Internal_Hbond.Weighted>
0.0000

> <Gold.Chemscore.DEClash.Weighted>
0.0164

> <Gold.Chemscore.DEInternal.Weighted>
1.2182

> <Gold.Chemscore.Rot.Weighted>
4.4411

> <Gold.Chemscore.Internal.Correction.Weighted>
   9.000000E+99

> <Gold.Protein.RotatedTorsions>
[ 6907 6896 6895 6894 ] final    2.89 input  -60.11 | X-H torsion
[ 7974 7965 7964 7962 ] final  -39.23 input  175.53 | X-H torsion
[ 8008 7997 7996 7995 ] final -167.43 input   59.86 | X-H torsion
[ 10167 10162 10161 10158 ] final  -90.15 input  -65.29 | X-H torsion
[ 10718 10713 10712 10709 ] final  165.78 input   66.30 | X-H torsion
[ 10763 10752 10751 10750 ] final  174.35 input  -60.55 | X-H torsion
[ 11005 11000 10999 10996 ] final   91.68 input  -57.11 | X-H torsion

> <Gold.Protein.ActiveResidues>
 VAL166  LYS551  ARG553  GLY616  TRP617  ASP618  TYR619  PRO620  LYS621  CYS622 
 ASP623  PHE694  ASN695  SER759  ASP760  ASP761  ALA762  ILE779  LEU786  VAL792 
 PHE793  MET794  SER795  GLU796  ALA797  LYS798  CYS799  TRP800  GLU811  SER814 

> <Gold.Protein.RotatedAtoms>
  151.6162  135.1036  160.0091 H   0  0  0  0  0  0  0  0  0  0  0  0  # atno 6907 bound_to 6896
  152.4182  133.7068  159.6466 H   0  0  0  0  0  0  0  0  0  0  0  0  # atno 6908 bound_to 6896
  150.8069  133.8419  159.3222 H   0  0  0  0  0  0  0  0  0  0  0  0  # atno 6909 bound_to 6896
  146.0415  140.6603  142.9085 H   0  0  0  0  0  0  0  0  0  0  0  0  # atno 7974 bound_to 7965
  155.8776  140.1003  157.1508 H   0  0  0  0  0  0  0  0  0  0  0  0  # atno 8008 bound_to 7997
  154.4002  140.1335  156.4219 H   0  0  0  0  0  0  0  0  0  0  0  0  # atno 8009 bound_to 7997
  155.7680  140.3461  155.5234 H   0  0  0  0  0  0  0  0  0  0  0  0  # atno 8010 bound_to 7997
  140.3578  143.2858  151.9651 H   0  0  0  0  0  0  0  0  0  0  0  0  # atno 10167 bound_to 10162
  157.0753  131.0377  151.2596 H   0  0  0  0  0  0  0  0  0  0  0  0  # atno 10718 bound_to 10713
  154.4528  135.2765  155.1769 H   0  0  0  0  0  0  0  0  0  0  0  0  # atno 10763 bound_to 10752
  154.3589  135.6134  153.5684 H   0  0  0  0  0  0  0  0  0  0  0  0  # atno 10764 bound_to 10752
  152.9848  135.5829  154.4875 H   0  0  0  0  0  0  0  0  0  0  0  0  # atno 10765 bound_to 10752
  139.8835  134.8689  156.3464 H   0  0  0  0  0  0  0  0  0  0  0  0  # atno 11005 bound_to 11000
  144.7077  140.3916  143.7105 LP  0  0  0  0  0  0  0  0  0  0  0  0  # atno 17320 bound_to 7965
  145.6877  139.1632  143.2664 LP  0  0  0  0  0  0  0  0  0  0  0  0  # atno 17321 bound_to 7965
  139.4818  144.6020  151.7589 LP  0  0  0  0  0  0  0  0  0  0  0  0  # atno 17342 bound_to 10162
  140.5157  144.0957  150.6007 LP  0  0  0  0  0  0  0  0  0  0  0  0  # atno 17343 bound_to 10162
  157.4845  130.7785  149.7446 LP  0  0  0  0  0  0  0  0  0  0  0  0  # atno 17370 bound_to 10713
  155.9939  130.3921  150.2882 LP  0  0  0  0  0  0  0  0  0  0  0  0  # atno 17371 bound_to 10713
  140.9624  133.7380  156.0420 LP  0  0  0  0  0  0  0  0  0  0  0  0  # atno 17394 bound_to 11000
  140.7973  134.3549  157.5449 LP  0  0  0  0  0  0  0  0  0  0  0  0  # atno 17395 bound_to 11000

$$$$
