AV-unprocessed.smi:496|AV-procd|sdf|2722|dock1
  -GOLD-   2262023163D 1   1.00000     0.00000
 Structure written by MMmdl.
 42 44  0  0  0  0  0  0  0  0  3 V2000
  151.9220  139.1714  155.2187 C   0  0  0  0  0  0  0  0  0  0  0  0
  152.8629  139.5697  156.2035 O   0  0  0  0  0  0  0  0  0  0  0  0
  152.5719  139.0875  157.5072 C   0  0  0  0  0  0  0  0  0  0  0  0
  151.2004  139.5779  158.0021 C   0  0  0  0  0  0  0  0  0  0  0  0
  150.9483  140.9772  157.6068 N   0  0  0  0  0  0  0  0  0  0  0  0
  150.0677  141.5256  156.7081 C   0  0  0  0  0  0  0  0  0  0  0  0
  149.0608  140.8240  155.8315 C   0  0  2  0  0  0  0  0  0  0  0  0
  149.2546  141.2332  154.3652 C   0  0  0  0  0  0  0  0  0  0  0  0
  147.6855  141.1205  156.2357 N   0  5  0  0  0  0  0  0  0  0  0  0
  147.1381  140.7294  157.4219 C   0  0  0  0  0  0  0  0  0  0  0  0
  147.1688  139.6252  157.9763 O   0  0  0  0  0  0  0  0  0  0  0  0
  146.4243  141.8341  158.1049 C   0  0  0  0  0  0  0  0  0  0  0  0
  146.2957  143.1510  157.7502 C   0  0  0  0  0  0  0  0  0  0  0  0
  145.5074  143.7743  158.7568 C   0  0  0  0  0  0  0  0  0  0  0  0
  145.2080  142.7944  159.6587 C   0  0  0  0  0  0  0  0  0  0  0  0
  145.7565  141.6090  159.2786 O   0  0  0  0  0  0  0  0  0  0  0  0
  150.2607  142.8761  156.7396 N   0  3  0  0  0  0  0  0  0  0  0  0
  151.2445  143.2005  157.6713 C   0  0  0  0  0  0  0  0  0  0  0  0
  151.7636  144.4329  158.0553 C   0  0  0  0  0  0  0  0  0  0  0  0
  152.7614  144.4161  159.0515 C   0  0  0  0  0  0  0  0  0  0  0  0
  153.2042  143.2070  159.6257 C   0  0  0  0  0  0  0  0  0  0  0  0
  152.6709  141.9639  159.2260 C   0  0  0  0  0  0  0  0  0  0  0  0
  151.6866  141.9880  158.2374 C   0  0  0  0  0  0  0  0  0  0  0  0
  152.2456  139.5327  154.2427 H   0  0  0  0  0  0  0  0  0  0  0  0
  150.9319  139.5840  155.4107 H   0  0  0  0  0  0  0  0  0  0  0  0
  151.8435  138.0850  155.1633 H   0  0  0  0  0  0  0  0  0  0  0  0
  152.6396  137.9989  157.5433 H   0  0  0  0  0  0  0  0  0  0  0  0
  153.3485  139.4656  158.1726 H   0  0  0  0  0  0  0  0  0  0  0  0
  150.3993  138.9482  157.6160 H   0  0  0  0  0  0  0  0  0  0  0  0
  151.1270  139.5154  159.0870 H   0  0  0  0  0  0  0  0  0  0  0  0
  149.2591  139.7533  155.8961 H   0  0  0  0  0  0  0  0  0  0  0  0
  150.2604  140.9878  154.0231 H   0  0  0  0  0  0  0  0  0  0  0  0
  149.1068  142.3046  154.2242 H   0  0  0  0  0  0  0  0  0  0  0  0
  148.5518  140.7115  153.7144 H   0  0  0  0  0  0  0  0  0  0  0  0
  146.7196  143.6104  156.8694 H   0  0  0  0  0  0  0  0  0  0  0  0
  145.1987  144.8076  158.8131 H   0  0  0  0  0  0  0  0  0  0  0  0
  144.6447  142.7677  160.5798 H   0  0  0  0  0  0  0  0  0  0  0  0
  151.4206  145.3597  157.6193 H   0  0  0  0  0  0  0  0  0  0  0  0
  153.1922  145.3492  159.3844 H   0  0  0  0  0  0  0  0  0  0  0  0
  153.9675  143.2329  160.3897 H   0  0  0  0  0  0  0  0  0  0  0  0
  153.0148  141.0451  159.6775 H   0  0  0  0  0  0  0  0  0  0  0  0
  149.7278  143.5217  156.1709 H   0  0  0  0  0  0  0  0  0  0  0  0
  1  2  1  0  0  0  0
  1 24  1  0  0  0  0
  1 25  1  0  0  0  0
  1 26  1  0  0  0  0
  2  3  1  0  0  0  0
  3  4  1  0  0  0  0
  3 27  1  0  0  0  0
  3 28  1  0  0  0  0
  4  5  1  0  0  0  0
  4 29  1  0  0  0  0
  4 30  1  0  0  0  0
  5 23  1  0  0  0  0
  5  6  1  0  0  0  0
  6  7  1  0  0  0  0
  6 17  2  0  0  0  0
  7  8  1  0  0  0  0
  7  9  1  0  0  0  0
  7 31  1  0  0  0  0
  8 32  1  0  0  0  0
  8 33  1  0  0  0  0
  8 34  1  0  0  0  0
  9 10  1  0  0  0  0
 10 11  2  0  0  0  0
 10 12  1  0  0  0  0
 12 16  1  0  0  0  0
 12 13  2  0  0  0  0
 13 14  1  0  0  0  0
 13 35  1  0  0  0  0
 14 15  2  0  0  0  0
 14 36  1  0  0  0  0
 15 16  1  0  0  0  0
 15 37  1  0  0  0  0
 17 18  1  0  0  0  0
 17 42  1  0  0  0  0
 18 23  2  0  0  0  0
 18 19  1  0  0  0  0
 19 20  2  0  0  0  0
 19 38  1  0  0  0  0
 20 21  1  0  0  0  0
 20 39  1  0  0  0  0
 21 22  2  0  0  0  0
 21 40  1  0  0  0  0
 22 23  1  0  0  0  0
 22 41  1  0  0  0  0
M  CHG  1   9  -1
M  CHG  1  17   1
M  END
> <s_m_source_file>
AV-unprocessed.smi

> <i_m_source_file_index>
496

> <i_lp_mmshare_version>
43012

> <i_f3d_flags>
0

> <s_epik_input>
W2NIXTFbY0hdW2NIXVtjSF1jKGMxMiluKFtDSDJdW0NIMl1PW0NIM10pYyhuMilbQ0BIXShbQ0gzXSlbTkhdQyg9TyljM1tjSF1bY0hdW2NIXW8z

> <s_epik_cmdline>
J2VwaWtfcHl0aG9uJywgJy1waCcsICc3LjAnLCAnLXRuJywgJzgnLCAnLW1hJywgJzIwMCcsICctbWV0YWxfYmluZGluZycsICctaW1hZScsICc8aW5maWxlLm1hZT4nLCAnLW9tYWUnLCAnPG91dGZpbGUubWFlPic=

> <r_epik_Ionization_Penalty>
6.2189

> <r_epik_Ionization_Penalty_Charging>
6.2189

> <r_epik_Ionization_Penalty_Neutral>
2.56052e-12

> <r_epik_State_Penalty>
7.14475

> <r_epik_Charging_Adjusted_Penalty>
13.3636

> <i_epik_Tot_Q>
0

> <i_epik_Tot_abs_Q>
2

> <r_epik_Metal_State_Penalty>
3.17915

> <b_epik_Metal_Only>
1

> <s_lp_Force_Field>
OPLS_2005

> <r_lp_Energy>
11.1611

> <b_lp_Chiralities_Consistent>
1

> <s_lp_Variant>
AV-unprocessed.smi:496-7

> <Gold.Version>
5.8.1

> <Gold.Id.Protein>
6NUR|6NUR_protein|mol2

> <Gold.PLP.Fitness>
53.6226

> <Gold.PLP.PLP>
-43.0590

> <Gold.PLP.part.hbond>
-3.9505

> <Gold.PLP.part.metal>
0.0000

> <Gold.PLP.part.buried>
-4.5207

> <Gold.PLP.part.nonpolar>
-34.1089

> <Gold.PLP.part.repulsive>
0.1066

> <Gold.PLP.ligand.clash>
0.0000

> <Gold.PLP.ligand.torsion>
0.7611

> <Gold.PLP.Chemscore.Hbond>
4.0000

> <Gold.PLP.Chemscore.CHOScore>
0.0000

> <Gold.PLP.Chemscore.Metal>
0.0000

> <Gold.Chemscore.Hbonds>
donor molecule, donor type, donor heavy atom, donor atom, acceptor molecule, acceptor atom, score
      L1  H    17    42       P1  8028  2.00
      P1  H  6934  6946       L1    16  0.98
      P1  H  7997  8008       L1     2  1.00

> <Gold.PLP.Chemscore.Internal.Correction>
0.0859

> <Gold.Rescore>
     Score         DG    S(hbond)    S(metal)    S(lipo)     H(rot)  DE(clash)    DE(int)     intcor
     22.06     -22.91       2.94        0.00     105.23       1.83       0.01       0.84       ----

> <Gold.Chemscore.Fitness>
22.0605

> <Gold.Chemscore.DG>
-22.9113

> <Gold.Chemscore.ZeroCoef>
-5.4800

> <Gold.Chemscore.Hbond>
2.9388

> <Gold.Chemscore.Metal>
0.0000

> <Gold.Chemscore.Lipo>
105.2260

> <Gold.Chemscore.Internal_Hbond>
0.0000

> <Gold.Chemscore.DEClash>
0.0126

> <Gold.Chemscore.DEInternal>
0.8382

> <Gold.Chemscore.Rot>
1.8343

> <Gold.Chemscore.Internal.Correction>
   9.000000E+99

> <Gold.Chemscore.Hbonds>
donor molecule, donor type, donor heavy atom, donor atom, acceptor molecule, acceptor atom, score
      L1  H    17    42       P1  8028  0.95
      P1  H  6934  6946       L1    16  0.64
      P1  H  7997  8008       L1     2  0.59

> <Gold.Chemscore.Hbond.Weighted>
-9.8157

> <Gold.Chemscore.Metal.Weighted>
-0.0000

> <Gold.Chemscore.Lipo.Weighted>
-12.3114

> <Gold.Chemscore.Internal_Hbond.Weighted>
0.0000

> <Gold.Chemscore.DEClash.Weighted>
0.0126

> <Gold.Chemscore.DEInternal.Weighted>
0.8382

> <Gold.Chemscore.Rot.Weighted>
4.6958

> <Gold.Chemscore.Internal.Correction.Weighted>
   9.000000E+99

> <Gold.Protein.RotatedTorsions>
[ 6907 6896 6895 6894 ] final  102.62 input  -60.11 | X-H torsion
[ 7974 7965 7964 7962 ] final -134.07 input  175.53 | X-H torsion
[ 8008 7997 7996 7995 ] final  -36.73 input   59.86 | X-H torsion
[ 10167 10162 10161 10158 ] final   74.68 input  -65.29 | X-H torsion
[ 10718 10713 10712 10709 ] final  -43.75 input   66.30 | X-H torsion
[ 10763 10752 10751 10750 ] final   54.91 input  -60.55 | X-H torsion
[ 11005 11000 10999 10996 ] final  126.73 input  -57.11 | X-H torsion

> <Gold.Protein.ActiveResidues>
 VAL166  LYS551  ARG553  GLY616  TRP617  ASP618  TYR619  PRO620  LYS621  CYS622 
 ASP623  PHE694  ASN695  SER759  ASP760  ASP761  ALA762  ILE779  LEU786  VAL792 
 PHE793  MET794  SER795  GLU796  ALA797  LYS798  CYS799  TRP800  GLU811  SER814 

> <Gold.Protein.RotatedAtoms>
  152.5319  133.9948  159.7867 H   0  0  0  0  0  0  0  0  0  0  0  0  # atno 6907 bound_to 6896
  151.0177  133.5897  159.2682 H   0  0  0  0  0  0  0  0  0  0  0  0  # atno 6908 bound_to 6896
  151.2948  135.0759  159.9271 H   0  0  0  0  0  0  0  0  0  0  0  0  # atno 6909 bound_to 6896
  144.9136  140.6926  143.5009 H   0  0  0  0  0  0  0  0  0  0  0  0  # atno 7974 bound_to 7965
  154.4067  140.1623  156.2422 H   0  0  0  0  0  0  0  0  0  0  0  0  # atno 8008 bound_to 7997
  155.9191  140.3422  155.6136 H   0  0  0  0  0  0  0  0  0  0  0  0  # atno 8009 bound_to 7997
  155.7243  140.0772  157.2307 H   0  0  0  0  0  0  0  0  0  0  0  0  # atno 8010 bound_to 7997
  140.0111  144.5613  150.7658 H   0  0  0  0  0  0  0  0  0  0  0  0  # atno 10167 bound_to 10162
  156.2457  130.4183  149.8708 H   0  0  0  0  0  0  0  0  0  0  0  0  # atno 10718 bound_to 10713
  152.9810  135.5728  154.4982 H   0  0  0  0  0  0  0  0  0  0  0  0  # atno 10763 bound_to 10752
  154.4505  135.2778  155.1786 H   0  0  0  0  0  0  0  0  0  0  0  0  # atno 10764 bound_to 10752
  154.3416  135.6228  153.5652 H   0  0  0  0  0  0  0  0  0  0  0  0  # atno 10765 bound_to 10752
  139.9471  134.9628  156.8750 H   0  0  0  0  0  0  0  0  0  0  0  0  # atno 11005 bound_to 11000
  145.3413  139.1731  143.4484 LP  0  0  0  0  0  0  0  0  0  0  0  0  # atno 17320 bound_to 7965
  146.3171  140.3454  142.8651 LP  0  0  0  0  0  0  0  0  0  0  0  0  # atno 17321 bound_to 7965
  140.7381  143.2774  151.3701 LP  0  0  0  0  0  0  0  0  0  0  0  0  # atno 17342 bound_to 10162
  139.6204  144.0918  152.2386 LP  0  0  0  0  0  0  0  0  0  0  0  0  # atno 17343 bound_to 10162
  156.6274  130.8651  151.3488 LP  0  0  0  0  0  0  0  0  0  0  0  0  # atno 17370 bound_to 10713
  157.7194  130.9538  150.1379 LP  0  0  0  0  0  0  0  0  0  0  0  0  # atno 17371 bound_to 10713
  140.5808  134.0354  155.7463 LP  0  0  0  0  0  0  0  0  0  0  0  0  # atno 17394 bound_to 11000
  141.1124  133.9595  157.2885 LP  0  0  0  0  0  0  0  0  0  0  0  0  # atno 17395 bound_to 11000

$$$$
