AV-unprocessed.smi:261|AV-procd|sdf|1996|dock8
  -GOLD-   2262021183D 1   1.00000     0.00000
 Structure written by MMmdl.
 51 54  0  0  0  0  0  0  0  0  1 V2000
  146.7984  136.0763  162.4906 C   0  0  0  0  0  0  0  0  0  0  0  0
  146.0600  135.4623  161.4469 O   0  0  0  0  0  0  0  0  0  0  0  0
  146.6557  135.6132  160.1667 C   0  0  2  0  0  0  0  0  0  0  0  0
  148.1722  135.3971  160.1719 C   0  0  0  0  0  0  0  0  0  0  0  0
  148.6767  136.1988  158.9603 C   0  0  1  0  0  0  0  0  0  0  0  0
  148.7241  135.3394  157.6845 C   0  0  0  0  0  0  0  0  0  0  0  0
  147.9488  135.7285  156.6699 N   0  0  0  0  0  0  0  0  0  0  0  0
  149.4527  134.3514  157.6068 O   0  0  0  0  0  0  0  0  0  0  0  0
  147.7042  137.2890  158.8508 N   0  0  0  0  0  0  0  0  0  0  0  0
  147.9626  138.4713  158.2266 C   0  0  0  0  0  0  0  0  0  0  0  0
  146.9599  139.0622  157.5229 N   0  0  0  0  0  0  0  0  0  0  0  0
  147.1562  140.2245  156.8957 C   0  0  0  0  0  0  0  0  0  0  0  0
  148.2642  140.9632  156.8392 N   0  0  0  0  0  0  0  0  0  0  0  0
  149.2784  140.3816  157.5397 C   0  0  0  0  0  0  0  0  0  0  0  0
  149.2188  139.1497  158.2551 C   0  0  0  0  0  0  0  0  0  0  0  0
  150.4575  138.8958  158.8368 N   0  0  0  0  0  0  0  0  0  0  0  0
  151.1984  139.9115  158.4897 C   0  0  0  0  0  0  0  0  0  0  0  0
  150.5663  140.8540  157.7136 N   0  0  0  0  0  0  0  0  0  0  0  0
  151.1398  142.0818  157.1908 C   0  0  0  0  0  0  0  0  0  0  0  0
  150.9911  143.2663  158.1701 C   0  0  1  0  0  0  0  0  0  0  0  0
  149.7271  143.1601  158.7972 O   0  0  0  0  0  0  0  0  0  0  0  0
  152.0684  143.2782  159.2730 C   0  0  1  0  0  0  0  0  0  0  0  0
  151.9046  144.3849  160.3171 C   0  0  0  0  0  0  0  0  0  0  0  0
  152.6192  143.8344  161.5402 C   0  0  0  0  0  0  0  0  0  0  0  0
  152.7115  142.3320  161.2656 C   0  0  0  0  0  0  0  0  0  0  0  0
  151.9428  142.1228  160.0891 O   0  0  0  0  0  0  0  0  0  0  0  0
  146.5262  137.0556  159.6754 C   0  0  0  0  0  0  0  0  0  0  0  0
  146.1855  134.9479  159.4399 H   0  0  0  0  0  0  0  0  0  0  0  0
  149.6738  136.5867  159.1771 H   0  0  0  0  0  0  0  0  0  0  0  0
  146.3008  135.8957  163.4433 H   0  0  0  0  0  0  0  0  0  0  0  0
  146.8692  137.1554  162.3514 H   0  0  0  0  0  0  0  0  0  0  0  0
  147.8063  135.6643  162.5561 H   0  0  0  0  0  0  0  0  0  0  0  0
  148.5990  135.8163  161.0843 H   0  0  0  0  0  0  0  0  0  0  0  0
  148.4470  134.3418  160.1396 H   0  0  0  0  0  0  0  0  0  0  0  0
  147.9454  135.2034  155.8077 H   0  0  0  0  0  0  0  0  0  0  0  0
  147.3717  136.5512  156.7681 H   0  0  0  0  0  0  0  0  0  0  0  0
  146.3029  140.6191  156.3642 H   0  0  0  0  0  0  0  0  0  0  0  0
  152.2299  140.0040  158.7977 H   0  0  0  0  0  0  0  0  0  0  0  0
  152.1920  141.9065  156.9616 H   0  0  0  0  0  0  0  0  0  0  0  0
  150.6468  142.3000  156.2432 H   0  0  0  0  0  0  0  0  0  0  0  0
  151.0288  144.2033  157.6131 H   0  0  0  0  0  0  0  0  0  0  0  0
  149.4009  144.0321  158.9600 H   0  0  0  0  0  0  0  0  0  0  0  0
  153.0716  143.3225  158.8437 H   0  0  0  0  0  0  0  0  0  0  0  0
  152.3107  145.3416  159.9871 H   0  0  0  0  0  0  0  0  0  0  0  0
  150.8482  144.5286  160.5484 H   0  0  0  0  0  0  0  0  0  0  0  0
  153.6159  144.2647  161.6446 H   0  0  0  0  0  0  0  0  0  0  0  0
  152.0615  144.0503  162.4520 H   0  0  0  0  0  0  0  0  0  0  0  0
  153.7453  142.0382  161.0780 H   0  0  0  0  0  0  0  0  0  0  0  0
  152.3306  141.7311  162.0917 H   0  0  0  0  0  0  0  0  0  0  0  0
  145.6002  137.1920  159.1164 H   0  0  0  0  0  0  0  0  0  0  0  0
  146.5357  137.7534  160.5141 H   0  0  0  0  0  0  0  0  0  0  0  0
  1  2  1  0  0  0  0
  1 30  1  0  0  0  0
  1 31  1  0  0  0  0
  1 32  1  0  0  0  0
  2  3  1  0  0  0  0
  3 28  1  0  0  0  0
  3 27  1  0  0  0  0
  3  4  1  0  0  0  0
  4  5  1  0  0  0  0
  4 33  1  0  0  0  0
  4 34  1  0  0  0  0
  5 29  1  0  0  0  0
  5  6  1  0  0  0  0
  5  9  1  0  0  0  0
  6  7  1  0  0  0  0
  6  8  2  0  0  0  0
  7 35  1  0  0  0  0
  7 36  1  0  0  0  0
  9 10  1  0  0  0  0
  9 27  1  0  0  0  0
 10 15  1  0  0  0  0
 10 11  2  0  0  0  0
 11 12  1  0  0  0  0
 12 13  2  0  0  0  0
 12 37  1  0  0  0  0
 13 14  1  0  0  0  0
 14 18  1  0  0  0  0
 14 15  2  0  0  0  0
 15 16  1  0  0  0  0
 16 17  2  0  0  0  0
 17 18  1  0  0  0  0
 17 38  1  0  0  0  0
 18 19  1  0  0  0  0
 19 20  1  0  0  0  0
 19 39  1  0  0  0  0
 19 40  1  0  0  0  0
 20 21  1  0  0  0  0
 20 22  1  0  0  0  0
 20 41  1  0  0  0  0
 21 42  1  0  0  0  0
 22 26  1  0  0  0  0
 22 23  1  0  0  0  0
 22 43  1  0  0  0  0
 23 24  1  0  0  0  0
 23 44  1  0  0  0  0
 23 45  1  0  0  0  0
 24 25  1  0  0  0  0
 24 46  1  0  0  0  0
 24 47  1  0  0  0  0
 25 26  1  0  0  0  0
 25 48  1  0  0  0  0
 25 49  1  0  0  0  0
 27 50  1  0  0  0  0
 27 51  1  0  0  0  0
M  END
> <s_m_source_file>
AV-unprocessed.smi

> <i_m_source_file_index>
261

> <i_lp_mmshare_version>
43012

> <i_f3d_flags>
0

> <s_epik_input>
W0NIM11PW0NASF0xW0NIMl1bQ0BASF0oQyg9TylbTkgyXSlOKFtDSDJdMSljKG5bY0hdbjIpYyhjMjMpbltjSF1uM1tDSDJdW0NASF0oW09IXSlbQ0BASF00W0NIMl1bQ0gyXVtDSDJdTzQ=

> <s_epik_cmdline>
J2VwaWtfcHl0aG9uJywgJy1waCcsICc3LjAnLCAnLXRuJywgJzgnLCAnLW1hJywgJzIwMCcsICctbWV0YWxfYmluZGluZycsICctaW1hZScsICc8aW5maWxlLm1hZT4nLCAnLW9tYWUnLCAnPG91dGZpbGUubWFlPic=

> <r_lp_tautomer_probability>
1

> <r_epik_Ionization_Penalty>
0.000713824

> <r_epik_Ionization_Penalty_Charging>
0

> <r_epik_Ionization_Penalty_Neutral>
0.000713824

> <r_epik_State_Penalty>
0.000402132

> <r_epik_Charging_Adjusted_Penalty>
0.000402132

> <i_epik_Tot_Q>
0

> <i_epik_Tot_abs_Q>
0

> <r_epik_Metal_State_Penalty>
-0

> <b_epik_Metal_Only>
0

> <s_lp_Force_Field>
OPLS_2005

> <r_lp_Energy>
41.8336

> <b_lp_Chiralities_Consistent>
1

> <s_lp_Variant>
AV-unprocessed.smi:261-14

> <Gold.Version>
5.8.1

> <Gold.Id.Protein>
6NUR|6NUR_protein|mol2

> <Gold.PLP.Fitness>
37.8255

> <Gold.PLP.PLP>
-37.4918

> <Gold.PLP.part.hbond>
-1.7609

> <Gold.PLP.part.metal>
0.0000

> <Gold.PLP.part.buried>
-7.0879

> <Gold.PLP.part.nonpolar>
-28.7048

> <Gold.PLP.part.repulsive>
0.0594

> <Gold.PLP.ligand.clash>
0.0000

> <Gold.PLP.ligand.torsion>
1.3924

> <Gold.PLP.Chemscore.Hbond>
1.0000

> <Gold.PLP.Chemscore.CHOScore>
0.0000

> <Gold.PLP.Chemscore.Metal>
0.0000

> <Gold.Chemscore.Hbonds>
donor molecule, donor type, donor heavy atom, donor atom, acceptor molecule, acceptor atom, score
      P1  H  6896  6908       L1     8  0.67

> <Gold.PLP.Chemscore.Internal.Correction>
0.1186

> <Gold.Rescore>
     Score         DG    S(hbond)    S(metal)    S(lipo)     H(rot)  DE(clash)    DE(int)     intcor
      8.13     -11.59       0.95        0.00      94.72       3.18       0.06       3.40       ----

> <Gold.Chemscore.Fitness>
8.1319

> <Gold.Chemscore.DG>
-11.5919

> <Gold.Chemscore.ZeroCoef>
-5.4800

> <Gold.Chemscore.Hbond>
0.9515

> <Gold.Chemscore.Metal>
0.0000

> <Gold.Chemscore.Lipo>
94.7225

> <Gold.Chemscore.Internal_Hbond>
0.0000

> <Gold.Chemscore.DEClash>
0.0595

> <Gold.Chemscore.DEInternal>
3.4005

> <Gold.Chemscore.Rot>
3.1831

> <Gold.Chemscore.Internal.Correction>
   9.000000E+99

> <Gold.Chemscore.Hbonds>
donor molecule, donor type, donor heavy atom, donor atom, acceptor molecule, acceptor atom, score
      P1  H  6896  6908       L1     8  0.62

> <Gold.Chemscore.Hbond.Weighted>
-3.1780

> <Gold.Chemscore.Metal.Weighted>
-0.0000

> <Gold.Chemscore.Lipo.Weighted>
-11.0825

> <Gold.Chemscore.Internal_Hbond.Weighted>
0.0000

> <Gold.Chemscore.DEClash.Weighted>
0.0595

> <Gold.Chemscore.DEInternal.Weighted>
3.4005

> <Gold.Chemscore.Rot.Weighted>
8.1486

> <Gold.Chemscore.Internal.Correction.Weighted>
   9.000000E+99

> <Gold.Protein.RotatedTorsions>
[ 6907 6896 6895 6894 ] final  124.26 input  -60.11 | X-H torsion
[ 7974 7965 7964 7962 ] final   -7.85 input  175.53 | X-H torsion
[ 8008 7997 7996 7995 ] final -101.53 input   59.86 | X-H torsion
[ 10167 10162 10161 10158 ] final  -53.14 input  -65.29 | X-H torsion
[ 10718 10713 10712 10709 ] final -138.00 input   66.30 | X-H torsion
[ 10763 10752 10751 10750 ] final  176.27 input  -60.55 | X-H torsion
[ 11005 11000 10999 10996 ] final   58.75 input  -57.11 | X-H torsion

> <Gold.Protein.ActiveResidues>
 VAL166  LYS551  ARG553  GLY616  TRP617  ASP618  TYR619  PRO620  LYS621  CYS622 
 ASP623  PHE694  ASN695  SER759  ASP760  ASP761  ALA762  ILE779  LEU786  VAL792 
 PHE793  MET794  SER795  GLU796  ALA797  LYS798  CYS799  TRP800  GLU811  SER814 

> <Gold.Protein.RotatedAtoms>
  152.4093  133.6938  159.6383 H   0  0  0  0  0  0  0  0  0  0  0  0  # atno 6907 bound_to 6896
  150.7975  133.8653  159.3252 H   0  0  0  0  0  0  0  0  0  0  0  0  # atno 6908 bound_to 6896
  151.6399  135.1015  160.0190 H   0  0  0  0  0  0  0  0  0  0  0  0  # atno 6909 bound_to 6896
  146.2296  140.2381  142.8342 H   0  0  0  0  0  0  0  0  0  0  0  0  # atno 7974 bound_to 7965
  154.8438  140.0434  157.1559 H   0  0  0  0  0  0  0  0  0  0  0  0  # atno 8008 bound_to 7997
  154.9017  140.3001  155.5294 H   0  0  0  0  0  0  0  0  0  0  0  0  # atno 8009 bound_to 7997
  156.2993  140.2374  156.4046 H   0  0  0  0  0  0  0  0  0  0  0  0  # atno 8010 bound_to 7997
  140.6501  143.2560  151.4749 H   0  0  0  0  0  0  0  0  0  0  0  0  # atno 10167 bound_to 10162
  156.2944  130.7393  151.1428 H   0  0  0  0  0  0  0  0  0  0  0  0  # atno 10718 bound_to 10713
  154.4788  135.2774  155.1586 H   0  0  0  0  0  0  0  0  0  0  0  0  # atno 10763 bound_to 10752
  154.3305  135.6191  153.5553 H   0  0  0  0  0  0  0  0  0  0  0  0  # atno 10764 bound_to 10752
  152.9873  135.5764  154.5185 H   0  0  0  0  0  0  0  0  0  0  0  0  # atno 10765 bound_to 10752
  140.0355  134.5950  155.9450 H   0  0  0  0  0  0  0  0  0  0  0  0  # atno 11005 bound_to 11000
  144.9506  140.8174  143.5574 LP  0  0  0  0  0  0  0  0  0  0  0  0  # atno 17320 bound_to 7965
  145.2341  139.2101  143.5027 LP  0  0  0  0  0  0  0  0  0  0  0  0  # atno 17321 bound_to 7965
  139.5715  144.1918  152.1843 LP  0  0  0  0  0  0  0  0  0  0  0  0  # atno 17342 bound_to 10162
  140.1216  144.5368  150.6859 LP  0  0  0  0  0  0  0  0  0  0  0  0  # atno 17343 bound_to 10162
  157.7351  131.0575  150.5487 LP  0  0  0  0  0  0  0  0  0  0  0  0  # atno 17370 bound_to 10713
  156.5607  130.4255  149.6064 LP  0  0  0  0  0  0  0  0  0  0  0  0  # atno 17371 bound_to 10713
  141.1855  133.6555  156.5199 LP  0  0  0  0  0  0  0  0  0  0  0  0  # atno 17394 bound_to 11000
  140.4155  134.7234  157.4860 LP  0  0  0  0  0  0  0  0  0  0  0  0  # atno 17395 bound_to 11000

$$$$
