AV-unprocessed.smi:813|AV-procd|sdf|3817|dock3
  -GOLD-   22720 1253D 1   1.00000     0.00000
 Structure written by MMmdl.
 36 37  0  0  0  0  0  0  0  0  1 V2000
  146.4409  138.7099  150.8044 C   0  0  0  0  0  0  0  0  0  0  0  0
  146.4323  138.4684  152.3229 C   0  0  2  0  0  0  0  0  0  0  0  0
  147.8193  138.3544  152.7727 N   0  0  0  0  0  0  0  0  0  0  0  0
  148.3709  139.0633  153.7693 C   0  0  0  0  0  0  0  0  0  0  0  0
  147.7637  139.9262  154.4045 O   0  0  0  0  0  0  0  0  0  0  0  0
  149.6493  138.7009  153.9734 N   0  0  0  0  0  0  0  0  0  0  0  0
  150.5609  139.1960  154.9431 C   0  0  0  0  0  0  0  0  0  0  0  0
  151.8728  139.3653  154.7143 N   0  0  0  0  0  0  0  0  0  0  0  0
  152.5346  139.8642  155.8290 N   0  0  0  0  0  0  0  0  0  0  0  0
  151.6970  140.0510  156.8530 C   0  0  0  0  0  0  0  0  0  0  0  0
  150.0178  139.6348  156.5563 S   0  0  0  0  0  0  0  0  0  0  0  0
  145.6614  137.1673  152.5991 C   0  0  0  0  0  0  0  0  0  0  0  0
  144.5550  137.1953  153.1412 O   0  0  0  0  0  0  0  0  0  0  0  0
  146.2694  136.0310  152.2271 N   0  0  0  0  0  0  0  0  0  0  0  0
  145.7069  134.6920  152.3754 C   0  0  0  0  0  0  0  0  0  0  0  0
  146.7139  133.6273  151.9046 C   0  0  0  0  0  0  0  0  0  0  0  0
  146.1780  133.1041  150.5720 C   0  0  0  0  0  0  0  0  0  0  0  0
  144.6631  133.2157  150.7122 C   0  0  0  0  0  0  0  0  0  0  0  0
  144.4483  134.5083  151.5019 C   0  0  0  0  0  0  0  0  0  0  0  0
  145.4274  138.8008  150.4113 H   0  0  0  0  0  0  0  0  0  0  0  0
  146.9351  137.8992  150.2664 H   0  0  0  0  0  0  0  0  0  0  0  0
  146.9655  139.6344  150.5612 H   0  0  0  0  0  0  0  0  0  0  0  0
  145.9471  139.3082  152.8247 H   0  0  0  0  0  0  0  0  0  0  0  0
  148.3892  137.6632  152.3078 H   0  0  0  0  0  0  0  0  0  0  0  0
  150.0099  137.9747  153.3726 H   0  0  0  0  0  0  0  0  0  0  0  0
  152.0706  140.4373  157.7899 H   0  0  0  0  0  0  0  0  0  0  0  0
  147.1775  136.0991  151.7912 H   0  0  0  0  0  0  0  0  0  0  0  0
  145.4688  134.5091  153.4251 H   0  0  0  0  0  0  0  0  0  0  0  0
  147.7348  134.0019  151.8193 H   0  0  0  0  0  0  0  0  0  0  0  0
  146.7335  132.8096  152.6264 H   0  0  0  0  0  0  0  0  0  0  0  0
  146.5206  133.7463  149.7595 H   0  0  0  0  0  0  0  0  0  0  0  0
  146.5071  132.0873  150.3567 H   0  0  0  0  0  0  0  0  0  0  0  0
  144.1512  133.2224  149.7496 H   0  0  0  0  0  0  0  0  0  0  0  0
  144.2849  132.3680  151.2851 H   0  0  0  0  0  0  0  0  0  0  0  0
  143.5365  134.4733  152.0987 H   0  0  0  0  0  0  0  0  0  0  0  0
  144.3408  135.3382  150.8015 H   0  0  0  0  0  0  0  0  0  0  0  0
  1  2  1  0  0  0  0
  1 20  1  0  0  0  0
  1 21  1  0  0  0  0
  1 22  1  0  0  0  0
  2  3  1  0  0  0  0
  2 12  1  0  0  0  0
  2 23  1  0  0  0  0
  3  4  1  0  0  0  0
  3 24  1  0  0  0  0
  4  5  2  0  0  0  0
  4  6  1  0  0  0  0
  6  7  1  0  0  0  0
  6 25  1  0  0  0  0
  7 11  1  0  0  0  0
  7  8  2  0  0  0  0
  8  9  1  0  0  0  0
  9 10  2  0  0  0  0
 10 11  1  0  0  0  0
 10 26  1  0  0  0  0
 12 13  2  0  0  0  0
 12 14  1  0  0  0  0
 14 15  1  0  0  0  0
 14 27  1  0  0  0  0
 15 19  1  0  0  0  0
 15 16  1  0  0  0  0
 15 28  1  0  0  0  0
 16 17  1  0  0  0  0
 16 29  1  0  0  0  0
 16 30  1  0  0  0  0
 17 18  1  0  0  0  0
 17 31  1  0  0  0  0
 17 32  1  0  0  0  0
 18 19  1  0  0  0  0
 18 33  1  0  0  0  0
 18 34  1  0  0  0  0
 19 35  1  0  0  0  0
 19 36  1  0  0  0  0
M  END
> <s_m_source_file>
AV-unprocessed.smi

> <i_m_source_file_index>
813

> <i_lp_mmshare_version>
43012

> <i_f3d_flags>
0

> <s_epik_input>
W0NIMl0xW0NIMl1bQ0gyXVtDSDJdW0NIXTFbTkhdQyg9TylbQ0BIXShbQ0gzXSlbTkhdQyg9TylbTkhdYzJubltjSF1zMg==

> <s_epik_cmdline>
J2VwaWtfcHl0aG9uJywgJy1waCcsICc3LjAnLCAnLXRuJywgJzgnLCAnLW1hJywgJzIwMCcsICctbWV0YWxfYmluZGluZycsICctaW1hZScsICc8aW5maWxlLm1hZT4nLCAnLW9tYWUnLCAnPG91dGZpbGUubWFlPic=

> <r_lp_tautomer_probability>
1

> <r_epik_Ionization_Penalty>
0.00321247

> <r_epik_Ionization_Penalty_Charging>
0

> <r_epik_Ionization_Penalty_Neutral>
0.00321247

> <r_epik_State_Penalty>
-0

> <r_epik_Charging_Adjusted_Penalty>
0

> <i_epik_Tot_Q>
0

> <i_epik_Tot_abs_Q>
0

> <r_epik_Metal_State_Penalty>
0.363968

> <b_epik_Metal_Only>
0

> <s_lp_Force_Field>
OPLS_2005

> <r_lp_Energy>
16.3209

> <b_lp_Chiralities_Consistent>
1

> <s_lp_Variant>
AV-unprocessed.smi:813-1

> <Gold.Version>
5.8.1

> <Gold.Id.Protein>
6NUR|6NUR_protein|mol2

> <Gold.PLP.Fitness>
39.8856

> <Gold.PLP.PLP>
-29.2452

> <Gold.PLP.part.hbond>
-5.8893

> <Gold.PLP.part.metal>
0.0000

> <Gold.PLP.part.buried>
0.9989

> <Gold.PLP.part.nonpolar>
-25.4600

> <Gold.PLP.part.repulsive>
0.4852

> <Gold.PLP.ligand.clash>
0.0000

> <Gold.PLP.ligand.torsion>
0.5529

> <Gold.PLP.Chemscore.Hbond>
3.9000

> <Gold.PLP.Chemscore.CHOScore>
0.0000

> <Gold.PLP.Chemscore.Metal>
0.0000

> <Gold.Chemscore.Hbonds>
donor molecule, donor type, donor heavy atom, donor atom, acceptor molecule, acceptor atom, score
      L1  H     3    24       P1  7948  1.00
      L1  H    14    27       P1  7948  1.00
      P1  H  7989  7998       L1     8  0.79
      P1  H  7997  8008       L1     9  1.00

> <Gold.PLP.Chemscore.Internal.Correction>
0.0463

> <Gold.Rescore>
     Score         DG    S(hbond)    S(metal)    S(lipo)     H(rot)  DE(clash)    DE(int)     intcor
     16.77     -17.69       3.06        0.00      55.03       1.74       0.39       0.53       ----

> <Gold.Chemscore.Fitness>
16.7701

> <Gold.Chemscore.DG>
-17.6908

> <Gold.Chemscore.ZeroCoef>
-5.4800

> <Gold.Chemscore.Hbond>
3.0645

> <Gold.Chemscore.Metal>
0.0000

> <Gold.Chemscore.Lipo>
55.0266

> <Gold.Chemscore.Internal_Hbond>
0.0000

> <Gold.Chemscore.DEClash>
0.3883

> <Gold.Chemscore.DEInternal>
0.5324

> <Gold.Chemscore.Rot>
1.7433

> <Gold.Chemscore.Internal.Correction>
   9.000000E+99

> <Gold.Chemscore.Hbonds>
donor molecule, donor type, donor heavy atom, donor atom, acceptor molecule, acceptor atom, score
      L1  H     3    24       P1  7948  0.97
      L1  H     6    25       P1  7948  0.01
      L1  H    14    27       P1  7948  0.98
      P1  H  7989  7998       L1     8  0.06
      P1  H  7997  8008       L1     9  0.94

> <Gold.Chemscore.Hbond.Weighted>
-10.2354

> <Gold.Chemscore.Metal.Weighted>
-0.0000

> <Gold.Chemscore.Lipo.Weighted>
-6.4381

> <Gold.Chemscore.Internal_Hbond.Weighted>
0.0000

> <Gold.Chemscore.DEClash.Weighted>
0.3883

> <Gold.Chemscore.DEInternal.Weighted>
0.5324

> <Gold.Chemscore.Rot.Weighted>
4.4628

> <Gold.Chemscore.Internal.Correction.Weighted>
   9.000000E+99

> <Gold.Protein.RotatedTorsions>
[ 6907 6896 6895 6894 ] final   34.42 input  -60.11 | X-H torsion
[ 7974 7965 7964 7962 ] final   97.39 input  175.53 | X-H torsion
[ 8008 7997 7996 7995 ] final  -31.23 input   59.86 | X-H torsion
[ 10167 10162 10161 10158 ] final  -65.54 input  -65.29 | X-H torsion
[ 10718 10713 10712 10709 ] final  -42.71 input   66.30 | X-H torsion
[ 10763 10752 10751 10750 ] final   14.72 input  -60.55 | X-H torsion
[ 11005 11000 10999 10996 ] final  151.49 input  -57.11 | X-H torsion

> <Gold.Protein.ActiveResidues>
 VAL166  LYS551  ARG553  GLY616  TRP617  ASP618  TYR619  PRO620  LYS621  CYS622 
 ASP623  PHE694  ASN695  SER759  ASP760  ASP761  ALA762  ILE779  LEU786  VAL792 
 PHE793  MET794  SER795  GLU796  ALA797  LYS798  CYS799  TRP800  GLU811  SER814 

> <Gold.Protein.RotatedAtoms>
  152.1021  134.9334  160.0569 H   0  0  0  0  0  0  0  0  0  0  0  0  # atno 6907 bound_to 6896
  152.0545  133.4029  159.4399 H   0  0  0  0  0  0  0  0  0  0  0  0  # atno 6908 bound_to 6896
  150.6840  134.3191  159.4822 H   0  0  0  0  0  0  0  0  0  0  0  0  # atno 6909 bound_to 6896
  145.4261  139.2316  143.3169 H   0  0  0  0  0  0  0  0  0  0  0  0  # atno 7974 bound_to 7965
  154.4221  140.1770  156.1534 H   0  0  0  0  0  0  0  0  0  0  0  0  # atno 8008 bound_to 7997
  155.9897  140.3370  155.6716 H   0  0  0  0  0  0  0  0  0  0  0  0  # atno 8009 bound_to 7997
  155.6390  140.0678  157.2615 H   0  0  0  0  0  0  0  0  0  0  0  0  # atno 8010 bound_to 7997
  140.5722  143.2319  151.6515 H   0  0  0  0  0  0  0  0  0  0  0  0  # atno 10167 bound_to 10162
  156.2567  130.4193  149.8588 H   0  0  0  0  0  0  0  0  0  0  0  0  # atno 10718 bound_to 10713
  153.1594  135.6793  153.8764 H   0  0  0  0  0  0  0  0  0  0  0  0  # atno 10763 bound_to 10752
  153.8165  135.3136  155.3407 H   0  0  0  0  0  0  0  0  0  0  0  0  # atno 10764 bound_to 10752
  154.7921  135.4828  154.0166 H   0  0  0  0  0  0  0  0  0  0  0  0  # atno 10765 bound_to 10752
  140.1223  134.8855  157.2089 H   0  0  0  0  0  0  0  0  0  0  0  0  # atno 11005 bound_to 11000
  146.2631  140.4992  142.8845 LP  0  0  0  0  0  0  0  0  0  0  0  0  # atno 17320 bound_to 7965
  144.8213  140.6554  143.6351 LP  0  0  0  0  0  0  0  0  0  0  0  0  # atno 17321 bound_to 7965
  139.5123  144.3479  152.0679 LP  0  0  0  0  0  0  0  0  0  0  0  0  # atno 17342 bound_to 10162
  140.2618  144.4059  150.6183 LP  0  0  0  0  0  0  0  0  0  0  0  0  # atno 17343 bound_to 10162
  156.6117  130.8589  151.3456 LP  0  0  0  0  0  0  0  0  0  0  0  0  # atno 17370 bound_to 10713
  157.7235  130.9591  150.1537 LP  0  0  0  0  0  0  0  0  0  0  0  0  # atno 17371 bound_to 10713
  140.2949  134.3198  155.7305 LP  0  0  0  0  0  0  0  0  0  0  0  0  # atno 17394 bound_to 11000
  141.2154  133.7557  156.9557 LP  0  0  0  0  0  0  0  0  0  0  0  0  # atno 17395 bound_to 11000

$$$$
