#       Name:                AV-unprocessed.smi:59
#       Creating user name   scv26
#       Creation time:       Thu Mar 26 16:48:39 2020


#       File generated by GOLD software.
#

@<TRIPOS>MOLECULE
AV-unprocessed.smi:59
    38    39     1
SMALL
NO_CHARGES


@<TRIPOS>ATOM
      1 ****        -1.5524   1.5681  -1.8668 C.3            1 S1                 0.0000
      2 ****        -1.5566   0.8091  -0.6202 N.am           1 S1                 0.0000
      3 ****        -2.0611   1.2166   0.5523 C.2            1 S1                 0.0000
      4 ****        -2.5842   2.3071   0.7812 O.2            1 S1                 0.0000
      5 ****        -1.8958   0.1419   1.6139 C.3            1 S1                 0.0000
      6 ****        -0.8691   0.5416   2.5059 O.3            1 S1                 0.0000
      7 ****        -1.5846  -1.1092   0.7529 C.3            1 S1                 0.0000
      8 ****        -0.7943  -2.2439   1.4465 C.2            1 S1                 0.0000
      9 ****        -0.8322  -2.3129   2.6950 O.co2          1 S1                 0.0000
     10 ****        -0.2374  -3.0878   0.7100 O.co2          1 S1                -1.0000
     11 ****        -1.0053  -0.5425  -0.5769 C.3            1 S1                 0.0000
     12 ****         0.5094  -0.5190  -0.6725 C.2            1 S1                 0.0000
     13 ****         1.3443  -1.3979  -1.4216 C.2            1 S1                 0.0000
     14 ****         2.6315  -1.1133  -1.3081 N.2            1 S1                 0.0000
     15 ****         2.6663  -0.0495  -0.4807 N.pl3          1 S1                 0.0000
     16 ****         3.9407   0.5347  -0.1229 C.3            1 S1                 0.0000
     17 ****         1.4037   0.3322  -0.0835 C.2            1 S1                 0.0000
     18 ****        -2.8252   0.0115   2.1693 H              1 S1                 0.0000
     19 ****        -2.5525  -1.5504   0.5080 H              1 S1                 0.0000
     20 ****        -1.4243  -1.1087  -1.4102 H              1 S1                 0.0000
     21 ****        -1.9594   2.5723  -1.7429 H              1 S1                 0.0000
     22 ****        -2.1490   1.0536  -2.6202 H              1 S1                 0.0000
     23 ****        -0.5357   1.6661  -2.2477 H              1 S1                 0.0000
     24 ****        -1.1739   1.2917   2.9927 H              1 S1                 0.0000
     25 ****         1.0507  -2.2318  -2.0420 H              1 S1                 0.0000
     26 ****         3.7850   1.4523   0.4450 H              1 S1                 0.0000
     27 ****         4.5078   0.7681  -1.0247 H              1 S1                 0.0000
     28 ****         4.5084  -0.1685   0.4870 H              1 S1                 0.0000
     29 ****         1.2449   1.1685   0.5810 H              1 S1                 0.0000
     30 ****        -2.6625   2.9870   0.0521 LP             1 S1                 0.0000
     31 ****        -2.9309   2.5131   1.6963 LP             1 S1                 0.0000
     32 ****        -0.0481   0.7847   1.9892 LP             1 S1                 0.0000
     33 ****        -0.6577  -0.2065   3.1350 LP             1 S1                 0.0000
     34 ****        -0.3984  -3.0805   3.1667 LP             1 S1                 0.0000
     35 ****        -1.2963  -1.6004   3.2213 LP             1 S1                 0.0000
     36 ****         0.2167  -3.8819   1.1140 LP             1 S1                 0.0000
     37 ****        -0.2463  -2.9684  -0.2828 LP             1 S1                 0.0000
     38 ****         3.4034  -1.5812  -1.7384 LP             1 S1                 0.0000
@<TRIPOS>BOND
    1    1    2 1     
    2    1   21 1     
    3    1   22 1     
    4    1   23 1     
    5    2   11 1     
    6    2    3 am    
    7    3    4 2     
    8    3    5 1     
    9    5   18 1     
   10    5    6 1     
   11    5    7 1     
   12    6   24 1     
   13    7   19 1     
   14    7    8 1     
   15    7   11 1     
   16    8    9 ar    
   17    8   10 ar    
   18   11   20 1     
   19   11   12 1     
   20   12   17 2     
   21   12   13 1     
   22   13   14 2     
   23   13   25 1     
   24   14   15 1     
   25   15   16 1     
   26   15   17 1     
   27   16   26 1     
   28   16   27 1     
   29   16   28 1     
   30   17   29 1     
   31    4   30 1     
   32    4   31 1     
   33    6   32 1     
   34    6   33 1     
   35    9   34 1     
   36    9   35 1     
   37   10   36 1     
   38   10   37 1     
   39   14   38 1     
@<TRIPOS>SUBSTRUCTURE
      1 S1             1
@<TRIPOS>SET
LONE_PAIRS      STATIC     ATOMS    <user>   **** ""
9 30 31 32 33 34 35 36 37 38
DONOR_HYDROGENS      STATIC     ATOMS    <user>   **** ""
1 24
ATOM$BLUE        STATIC     ATOMS    COLORGROUP SYSTEM
9 30 31 32 33 34 35 36 37 38
ATOM$RED        STATIC     ATOMS    COLORGROUP SYSTEM
1 24
