#       Name:                AV-unprocessed.smi:69
#       Creating user name   scv26
#       Creation time:       Thu Mar 26 16:55:35 2020


#       File generated by GOLD software.
#

@<TRIPOS>MOLECULE
AV-unprocessed.smi:69
    43    45     1
SMALL
NO_CHARGES


@<TRIPOS>ATOM
      1 ****        -5.0423   0.6871  -0.1998 N.pl3          1 S1                 0.0000
      2 ****        -3.8285   1.2206  -0.3941 C.ar           1 S1                 0.0000
      3 ****        -3.7413   2.5491  -0.6398 N.ar           1 S1                 0.0000
      4 ****        -2.5413   3.1054  -0.8378 C.ar           1 S1                 0.0000
      5 ****        -1.3385   2.5237  -0.8314 N.ar           1 S1                 0.0000
      6 ****        -1.4313   1.1845  -0.5828 C.ar           1 S1                 0.0000
      7 ****        -2.6330   0.4600  -0.3541 C.ar           1 S1                 0.0000
      8 ****        -2.3422  -0.8797  -0.1354 N.2            1 S1                 0.0000
      9 ****        -1.0406  -0.9383  -0.2306 C.2            1 S1                 0.0000
     10 ****        -0.4118   0.2616  -0.4919 N.pl3          1 S1                 0.0000
     11 ****         1.0506   0.5466  -0.6593 C.3            1 S1                 0.0000
     12 ****         1.6580  -0.6330  -1.0970 O.3            1 S1                 0.0000
     13 ****         2.6725  -1.0572  -0.1867 C.3            1 S1                 0.0000
     14 ****         2.7794  -2.5920  -0.1522 C.3            1 S1                 0.0000
     15 ****         3.5409  -3.0495  -1.2490 O.3            1 S1                 0.0000
     16 ****         2.3123  -0.3862   1.1465 C.3            1 S1                 0.0000
     17 ****         1.3917  -1.1661   1.8919 O.3            1 S1                 0.0000
     18 ****         1.7172   0.9330   0.6746 C.3            1 S1                 0.0000
     19 ****         0.8679   1.5378   1.6342 O.3            1 S1                 0.0000
     20 ****         1.1002   1.3259  -1.4208 H              1 S1                 0.0000
     21 ****         3.6175  -0.6271  -0.5244 H              1 S1                 0.0000
     22 ****         3.1955  -0.2285   1.7663 H              1 S1                 0.0000
     23 ****         2.5297   1.6226   0.4426 H              1 S1                 0.0000
     24 ****        -5.1327  -0.3014  -0.0147 H              1 S1                 0.0000
     25 ****        -5.8633   1.2734  -0.2406 H              1 S1                 0.0000
     26 ****        -2.5455   4.1685  -1.0283 H              1 S1                 0.0000
     27 ****        -0.5027  -1.8670  -0.1101 H              1 S1                 0.0000
     28 ****         3.2923  -2.9125   0.7551 H              1 S1                 0.0000
     29 ****         1.7951  -3.0610  -0.1538 H              1 S1                 0.0000
     30 ****         3.5939  -3.9920  -1.2053 H              1 S1                 0.0000
     31 ****         1.1660  -0.6905   2.6768 H              1 S1                 0.0000
     32 ****         0.1132   0.9811   1.7530 H              1 S1                 0.0000
     33 ****        -4.5682   3.1105  -0.6730 LP             1 S1                 0.0000
     34 ****        -0.4781   3.0085  -0.9890 LP             1 S1                 0.0000
     35 ****        -2.9806  -1.6263   0.0515 LP             1 S1                 0.0000
     36 ****         2.0699  -0.4747  -1.9944 LP             1 S1                 0.0000
     37 ****         0.9645  -1.3497  -1.1703 LP             1 S1                 0.0000
     38 ****         4.4601  -2.6577  -1.2082 LP             1 S1                 0.0000
     39 ****         3.0996  -2.7758  -2.1036 LP             1 S1                 0.0000
     40 ****         1.8098  -2.0412   2.1354 LP             1 S1                 0.0000
     41 ****         0.5690  -1.3297   1.3475 LP             1 S1                 0.0000
     42 ****         0.5770   2.4378   1.3094 LP             1 S1                 0.0000
     43 ****         1.3548   1.6379   2.5019 LP             1 S1                 0.0000
@<TRIPOS>BOND
    1    1    2 1     
    2    1   24 1     
    3    1   25 1     
    4    2    7 ar    
    5    2    3 ar    
    6    3    4 ar    
    7    4    5 ar    
    8    4   26 1     
    9    5    6 ar    
   10    6   10 1     
   11    6    7 ar    
   12    7    8 1     
   13    8    9 2     
   14    9   10 1     
   15    9   27 1     
   16   10   11 1     
   17   11   20 1     
   18   11   18 1     
   19   11   12 1     
   20   12   13 1     
   21   13   21 1     
   22   13   14 1     
   23   13   16 1     
   24   14   15 1     
   25   14   28 1     
   26   14   29 1     
   27   15   30 1     
   28   16   22 1     
   29   16   17 1     
   30   16   18 1     
   31   17   31 1     
   32   18   23 1     
   33   18   19 1     
   34   19   32 1     
   35    3   33 1     
   36    5   34 1     
   37    8   35 1     
   38   12   36 1     
   39   12   37 1     
   40   15   38 1     
   41   15   39 1     
   42   17   40 1     
   43   17   41 1     
   44   19   42 1     
   45   19   43 1     
@<TRIPOS>SUBSTRUCTURE
      1 S1             1
@<TRIPOS>SET
LONE_PAIRS      STATIC     ATOMS    <user>   **** ""
11 33 34 35 36 37 38 39 40 41 42 43
DONOR_HYDROGENS      STATIC     ATOMS    <user>   **** ""
5 24 25 30 31 32
ATOM$BLUE        STATIC     ATOMS    COLORGROUP SYSTEM
11 33 34 35 36 37 38 39 40 41 42 43
ATOM$RED        STATIC     ATOMS    COLORGROUP SYSTEM
5 24 25 30 31 32
