AV-unprocessed.smi:1731|AV-procd|sdf|6975|dock3
  -GOLD-   22720 8183D 1   1.00000     0.00000
 Structure written by MMmdl.
 41 42  0  0  0  0  0  0  0  0  1 V2000
  150.1393  145.0588  161.0839 C   0  0  0  0  0  0  0  0  0  0  0  0
  151.2074  144.4410  160.1705 C   0  0  2  0  0  0  0  0  0  0  0  0
  151.4061  145.2765  158.8913 C   0  0  0  0  0  0  0  0  0  0  0  0
  152.4719  144.6590  157.9680 C   0  0  0  0  0  0  0  0  0  0  0  0
  152.1608  143.1918  157.6156 C   0  0  2  0  0  0  0  0  0  0  0  0
  151.0066  143.1212  156.7209 N   0  0  0  0  0  0  0  0  0  0  0  0
  150.4484  141.9943  156.2566 C   0  0  0  0  0  0  0  0  0  0  0  0
  150.8571  140.8661  156.5329 O   0  0  0  0  0  0  0  0  0  0  0  0
  149.3976  142.2628  155.4648 N   0  0  0  0  0  0  0  0  0  0  0  0
  148.5620  141.3313  154.7988 C   0  0  0  0  0  0  0  0  0  0  0  0
  147.5969  141.6687  153.8149 C   0  0  0  0  0  0  0  0  0  0  0  0
  146.9688  140.5909  153.3706 N   0  0  0  0  0  0  0  0  0  0  0  0
  147.5133  139.5561  154.0587 N   0  0  0  0  0  0  0  0  0  0  0  0
  147.0451  138.2032  153.8144 C   0  0  0  0  0  0  0  0  0  0  0  0
  147.5705  137.2363  154.8776 C   0  0  0  0  0  0  0  0  0  0  0  0
  148.3692  136.2492  154.4636 N   0  0  0  0  0  0  0  0  0  0  0  0
  147.2628  137.3801  156.0591 O   0  0  0  0  0  0  0  0  0  0  0  0
  148.4947  139.9738  154.9372 C   0  0  0  0  0  0  0  0  0  0  0  0
  151.9337  142.3585  158.8947 C   0  0  0  0  0  0  0  0  0  0  0  0
  150.8675  142.9812  159.8135 C   0  0  0  0  0  0  0  0  0  0  0  0
  149.1657  145.0873  160.5936 H   0  0  0  0  0  0  0  0  0  0  0  0
  150.4029  146.0799  161.3609 H   0  0  0  0  0  0  0  0  0  0  0  0
  150.0315  144.4858  162.0053 H   0  0  0  0  0  0  0  0  0  0  0  0
  152.1492  144.4410  160.7208 H   0  0  0  0  0  0  0  0  0  0  0  0
  150.4604  145.3614  158.3545 H   0  0  0  0  0  0  0  0  0  0  0  0
  151.7002  146.2934  159.1537 H   0  0  0  0  0  0  0  0  0  0  0  0
  152.5691  145.2535  157.0588 H   0  0  0  0  0  0  0  0  0  0  0  0
  153.4417  144.7078  158.4651 H   0  0  0  0  0  0  0  0  0  0  0  0
  153.0249  142.7870  157.0857 H   0  0  0  0  0  0  0  0  0  0  0  0
  150.5998  144.0013  156.4402 H   0  0  0  0  0  0  0  0  0  0  0  0
  149.1678  143.2362  155.3274 H   0  0  0  0  0  0  0  0  0  0  0  0
  147.3362  142.6382  153.4166 H   0  0  0  0  0  0  0  0  0  0  0  0
  145.9540  138.1870  153.8155 H   0  0  0  0  0  0  0  0  0  0  0  0
  147.3687  137.8970  152.8186 H   0  0  0  0  0  0  0  0  0  0  0  0
  148.7412  135.5864  155.1285 H   0  0  0  0  0  0  0  0  0  0  0  0
  148.5989  136.1700  153.4835 H   0  0  0  0  0  0  0  0  0  0  0  0
  149.0355  139.2803  155.5637 H   0  0  0  0  0  0  0  0  0  0  0  0
  151.6554  141.3350  158.6404 H   0  0  0  0  0  0  0  0  0  0  0  0
  152.8739  142.2856  159.4426 H   0  0  0  0  0  0  0  0  0  0  0  0
  150.7815  142.3864  160.7234 H   0  0  0  0  0  0  0  0  0  0  0  0
  149.8926  142.9366  159.3260 H   0  0  0  0  0  0  0  0  0  0  0  0
  1  2  1  0  0  0  0
  1 21  1  0  0  0  0
  1 22  1  0  0  0  0
  1 23  1  0  0  0  0
  2 20  1  0  0  0  0
  2  3  1  0  0  0  0
  2 24  1  0  0  0  0
  3  4  1  0  0  0  0
  3 25  1  0  0  0  0
  3 26  1  0  0  0  0
  4  5  1  0  0  0  0
  4 27  1  0  0  0  0
  4 28  1  0  0  0  0
  5  6  1  0  0  0  0
  5 19  1  0  0  0  0
  5 29  1  0  0  0  0
  6  7  1  0  0  0  0
  6 30  1  0  0  0  0
  7  8  2  0  0  0  0
  7  9  1  0  0  0  0
  9 10  1  0  0  0  0
  9 31  1  0  0  0  0
 10 18  2  0  0  0  0
 10 11  1  0  0  0  0
 11 12  2  0  0  0  0
 11 32  1  0  0  0  0
 12 13  1  0  0  0  0
 13 14  1  0  0  0  0
 13 18  1  0  0  0  0
 14 15  1  0  0  0  0
 14 33  1  0  0  0  0
 14 34  1  0  0  0  0
 15 16  1  0  0  0  0
 15 17  2  0  0  0  0
 16 35  1  0  0  0  0
 16 36  1  0  0  0  0
 18 37  1  0  0  0  0
 19 20  1  0  0  0  0
 19 38  1  0  0  0  0
 19 39  1  0  0  0  0
 20 40  1  0  0  0  0
 20 41  1  0  0  0  0
M  END
> <s_m_source_file>
AV-unprocessed.smi

> <i_m_source_file_index>
1731

> <i_lp_mmshare_version>
43012

> <i_f3d_flags>
0

> <s_epik_input>
W0NIM11bQ0BASF0xW0NIMl1bQ0gyXVtDQEhdKFtDSDJdW0NIMl0xKVtOSF1DKD1PKVtOSF1jMltjSF1ubihbY0hdMilbQ0gyXUMoPU8pW05IMl0=

> <s_epik_cmdline>
J2VwaWtfcHl0aG9uJywgJy1waCcsICc3LjAnLCAnLXRuJywgJzgnLCAnLW1hJywgJzIwMCcsICctbWV0YWxfYmluZGluZycsICctaW1hZScsICc8aW5maWxlLm1hZT4nLCAnLW9tYWUnLCAnPG91dGZpbGUubWFlPic=

> <r_lp_tautomer_probability>
1

> <r_epik_Ionization_Penalty>
4.81284e-05

> <r_epik_Ionization_Penalty_Charging>
0

> <r_epik_Ionization_Penalty_Neutral>
4.81284e-05

> <r_epik_State_Penalty>
-0

> <r_epik_Charging_Adjusted_Penalty>
0

> <i_epik_Tot_Q>
0

> <i_epik_Tot_abs_Q>
0

> <r_epik_Metal_State_Penalty>
-0

> <b_epik_Metal_Only>
0

> <s_lp_Force_Field>
OPLS_2005

> <r_lp_Energy>
11.3018

> <b_lp_Chiralities_Consistent>
1

> <s_lp_Variant>
AV-unprocessed.smi:1731-2

> <Gold.Version>
5.8.1

> <Gold.Id.Protein>
6NUR|6NUR_protein|mol2

> <Gold.PLP.Fitness>
36.7947

> <Gold.PLP.PLP>
-28.6736

> <Gold.PLP.part.hbond>
-2.9953

> <Gold.PLP.part.metal>
0.0000

> <Gold.PLP.part.buried>
-0.8007

> <Gold.PLP.part.nonpolar>
-25.5545

> <Gold.PLP.part.repulsive>
0.4423

> <Gold.PLP.ligand.clash>
0.0000

> <Gold.PLP.ligand.torsion>
0.1728

> <Gold.PLP.Chemscore.Hbond>
2.8160

> <Gold.PLP.Chemscore.CHOScore>
0.0000

> <Gold.PLP.Chemscore.Metal>
0.0000

> <Gold.Chemscore.Hbonds>
donor molecule, donor type, donor heavy atom, donor atom, acceptor molecule, acceptor atom, score
      L1  H     6    30       P1  8028  0.82
      L1  H     9    31       P1  8028  1.00
      L1  H    16    36       P1  7948  1.00

> <Gold.PLP.Chemscore.Internal.Correction>
0.0186

> <Gold.Rescore>
     Score         DG    S(hbond)    S(metal)    S(lipo)     H(rot)  DE(clash)    DE(int)     intcor
     17.00     -22.00       2.92        0.00      99.46       1.90       2.98       2.02       ----

> <Gold.Chemscore.Fitness>
17.0031

> <Gold.Chemscore.DG>
-22.0003

> <Gold.Chemscore.ZeroCoef>
-5.4800

> <Gold.Chemscore.Hbond>
2.9207

> <Gold.Chemscore.Metal>
0.0000

> <Gold.Chemscore.Lipo>
99.4577

> <Gold.Chemscore.Internal_Hbond>
0.0000

> <Gold.Chemscore.DEClash>
2.9757

> <Gold.Chemscore.DEInternal>
2.0216

> <Gold.Chemscore.Rot>
1.9029

> <Gold.Chemscore.Internal.Correction>
   9.000000E+99

> <Gold.Chemscore.Hbonds>
donor molecule, donor type, donor heavy atom, donor atom, acceptor molecule, acceptor atom, score
      L1  H     6    30       P1  8028  0.79
      L1  H     9    31       P1  8028  0.94
      L1  H    16    36       P1  7948  1.00

> <Gold.Chemscore.Hbond.Weighted>
-9.7552

> <Gold.Chemscore.Metal.Weighted>
-0.0000

> <Gold.Chemscore.Lipo.Weighted>
-11.6366

> <Gold.Chemscore.Internal_Hbond.Weighted>
0.0000

> <Gold.Chemscore.DEClash.Weighted>
2.9757

> <Gold.Chemscore.DEInternal.Weighted>
2.0216

> <Gold.Chemscore.Rot.Weighted>
4.8714

> <Gold.Chemscore.Internal.Correction.Weighted>
   9.000000E+99

> <Gold.Protein.RotatedTorsions>
[ 6907 6896 6895 6894 ] final  104.45 input  -60.11 | X-H torsion
[ 7974 7965 7964 7962 ] final  161.67 input  175.53 | X-H torsion
[ 8008 7997 7996 7995 ] final    3.99 input   59.86 | X-H torsion
[ 10167 10162 10161 10158 ] final  -89.89 input  -65.29 | X-H torsion
[ 10718 10713 10712 10709 ] final   42.09 input   66.30 | X-H torsion
[ 10763 10752 10751 10750 ] final   67.57 input  -60.55 | X-H torsion
[ 11005 11000 10999 10996 ] final  151.53 input  -57.11 | X-H torsion

> <Gold.Protein.ActiveResidues>
 VAL166  LYS551  ARG553  GLY616  TRP617  ASP618  TYR619  PRO620  LYS621  CYS622 
 ASP623  PHE694  ASN695  SER759  ASP760  ASP761  ALA762  ILE779  LEU786  VAL792 
 PHE793  MET794  SER795  GLU796  ALA797  LYS798  CYS799  TRP800  GLU811  SER814 

> <Gold.Protein.RotatedAtoms>
  152.5264  133.9676  159.7746 H   0  0  0  0  0  0  0  0  0  0  0  0  # atno 6907 bound_to 6896
  150.9954  133.6100  159.2709 H   0  0  0  0  0  0  0  0  0  0  0  0  # atno 6908 bound_to 6896
  151.3228  135.0829  159.9365 H   0  0  0  0  0  0  0  0  0  0  0  0  # atno 6909 bound_to 6896
  144.7674  139.7930  143.6310 H   0  0  0  0  0  0  0  0  0  0  0  0  # atno 7974 bound_to 7965
  154.7104  140.2691  155.6634 H   0  0  0  0  0  0  0  0  0  0  0  0  # atno 8008 bound_to 7997
  156.2793  140.2754  156.1668 H   0  0  0  0  0  0  0  0  0  0  0  0  # atno 8009 bound_to 7997
  155.0642  140.0371  157.2577 H   0  0  0  0  0  0  0  0  0  0  0  0  # atno 8010 bound_to 7997
  140.3603  143.2845  151.9622 H   0  0  0  0  0  0  0  0  0  0  0  0  # atno 10167 bound_to 10162
  157.4009  130.7859  149.7348 H   0  0  0  0  0  0  0  0  0  0  0  0  # atno 10718 bound_to 10713
  153.0192  135.5279  154.7000 H   0  0  0  0  0  0  0  0  0  0  0  0  # atno 10763 bound_to 10752
  154.6111  135.2878  155.0433 H   0  0  0  0  0  0  0  0  0  0  0  0  # atno 10764 bound_to 10752
  154.1454  135.6571  153.5004 H   0  0  0  0  0  0  0  0  0  0  0  0  # atno 10765 bound_to 10752
  140.1227  134.8853  157.2094 H   0  0  0  0  0  0  0  0  0  0  0  0  # atno 11005 bound_to 11000
  146.1793  139.4978  142.9877 LP  0  0  0  0  0  0  0  0  0  0  0  0  # atno 17320 bound_to 7965
  145.6427  141.0281  143.1803 LP  0  0  0  0  0  0  0  0  0  0  0  0  # atno 17321 bound_to 7965
  139.4815  144.5998  151.7626 LP  0  0  0  0  0  0  0  0  0  0  0  0  # atno 17342 bound_to 10162
  140.5133  144.0992  150.6001 LP  0  0  0  0  0  0  0  0  0  0  0  0  # atno 17343 bound_to 10162
  155.9823  130.4011  150.3424 LP  0  0  0  0  0  0  0  0  0  0  0  0  # atno 17370 bound_to 10713
  157.1552  131.0331  151.2867 LP  0  0  0  0  0  0  0  0  0  0  0  0  # atno 17371 bound_to 10713
  140.2945  134.3203  155.7306 LP  0  0  0  0  0  0  0  0  0  0  0  0  # atno 17394 bound_to 11000
  141.2155  133.7554  156.9551 LP  0  0  0  0  0  0  0  0  0  0  0  0  # atno 17395 bound_to 11000

$$$$
