AV-unprocessed.smi:787|AV-procd|sdf|3725|dock7
  -GOLD-   22720 1153D 1   1.00000     0.00000
 Structure written by MMmdl.
 47 49  0  0  0  0  0  0  0  0  2 V2000
  143.9526  134.8435  160.3712 C   0  0  0  0  0  0  0  0  0  0  0  0
  145.1487  135.0826  159.5788 N   0  0  0  0  0  0  0  0  0  0  0  0
  146.3025  135.6052  160.1799 C   0  0  0  0  0  0  0  0  0  0  0  0
  146.2862  135.9365  161.4918 N   0  0  0  0  0  0  0  0  0  0  0  0
  147.4033  136.4487  162.0238 C   0  0  0  0  0  0  0  0  0  0  0  0
  148.5825  136.6981  161.4339 N   0  0  0  0  0  0  0  0  0  0  0  0
  148.6102  136.3709  160.1352 C   0  0  0  0  0  0  0  0  0  0  0  0
  149.6901  136.5266  159.2839 N   0  0  0  0  0  0  0  0  0  0  0  0
  149.2007  136.0594  158.1392 C   0  0  0  0  0  0  0  0  0  0  0  0
  147.9348  135.5949  158.1435 N   0  0  0  0  0  0  0  0  0  0  0  0
  147.2278  135.0064  157.0139 C   0  0  0  0  0  0  0  0  0  0  0  0
  148.0025  135.1036  155.6783 C   0  0  2  0  0  0  0  0  0  0  0  0
  148.0902  136.4588  155.2823 O   0  0  0  0  0  0  0  0  0  0  0  0
  147.3442  134.3120  154.5291 C   0  0  0  0  0  0  0  0  0  0  0  0
  148.3061  134.0064  153.4378 N   0  3  1  0  0  0  0  0  0  0  0  0
  149.6768  133.7548  153.9378 C   0  0  0  0  0  0  0  0  0  0  0  0
  147.8403  132.9368  152.5196 C   0  0  0  0  0  0  0  0  0  0  0  0
  146.6338  133.3781  151.7071 C   0  0  0  0  0  0  0  0  0  0  0  0
  145.9543  132.4606  150.8767 C   0  0  0  0  0  0  0  0  0  0  0  0
  144.8231  132.8708  150.1450 C   0  0  0  0  0  0  0  0  0  0  0  0
  144.3708  134.2014  150.2344 C   0  0  0  0  0  0  0  0  0  0  0  0
  145.0506  135.1220  151.0553 C   0  0  0  0  0  0  0  0  0  0  0  0
  146.1800  134.7116  151.7898 C   0  0  0  0  0  0  0  0  0  0  0  0
  147.4917  135.8068  159.4494 C   0  0  0  0  0  0  0  0  0  0  0  0
  143.1493  134.4774  159.7319 H   0  0  0  0  0  0  0  0  0  0  0  0
  143.6154  135.7636  160.8494 H   0  0  0  0  0  0  0  0  0  0  0  0
  144.1422  134.0966  161.1430 H   0  0  0  0  0  0  0  0  0  0  0  0
  145.0793  135.0552  158.5724 H   0  0  0  0  0  0  0  0  0  0  0  0
  147.3458  136.6999  163.0725 H   0  0  0  0  0  0  0  0  0  0  0  0
  149.8078  136.0338  157.2461 H   0  0  0  0  0  0  0  0  0  0  0  0
  146.9914  133.9681  157.2460 H   0  0  0  0  0  0  0  0  0  0  0  0
  146.2675  135.5143  156.9151 H   0  0  0  0  0  0  0  0  0  0  0  0
  149.0164  134.7403  155.8456 H   0  0  0  0  0  0  0  0  0  0  0  0
  148.1489  136.4987  154.3394 H   0  0  0  0  0  0  0  0  0  0  0  0
  146.9049  133.3855  154.9021 H   0  0  0  0  0  0  0  0  0  0  0  0
  146.5119  134.8951  154.1397 H   0  0  0  0  0  0  0  0  0  0  0  0
  149.7129  132.8426  154.5352 H   0  0  0  0  0  0  0  0  0  0  0  0
  150.0284  134.5814  154.5553 H   0  0  0  0  0  0  0  0  0  0  0  0
  150.3761  133.6465  153.1080 H   0  0  0  0  0  0  0  0  0  0  0  0
  148.6345  132.6792  151.8172 H   0  0  0  0  0  0  0  0  0  0  0  0
  147.6160  132.0296  153.0831 H   0  0  0  0  0  0  0  0  0  0  0  0
  146.2912  131.4367  150.8049 H   0  0  0  0  0  0  0  0  0  0  0  0
  144.3014  132.1647  149.5154 H   0  0  0  0  0  0  0  0  0  0  0  0
  143.5033  134.5160  149.6727 H   0  0  0  0  0  0  0  0  0  0  0  0
  144.7039  136.1426  151.1234 H   0  0  0  0  0  0  0  0  0  0  0  0
  146.6929  135.4223  152.4214 H   0  0  0  0  0  0  0  0  0  0  0  0
  148.3560  134.8415  152.8710 H   0  0  0  0  0  0  0  0  0  0  0  0
  1  2  1  0  0  0  0
  1 25  1  0  0  0  0
  1 26  1  0  0  0  0
  1 27  1  0  0  0  0
  2  3  1  0  0  0  0
  2 28  1  0  0  0  0
  3 24  1  0  0  0  0
  3  4  2  0  0  0  0
  4  5  1  0  0  0  0
  5  6  2  0  0  0  0
  5 29  1  0  0  0  0
  6  7  1  0  0  0  0
  7 24  2  0  0  0  0
  7  8  1  0  0  0  0
  8  9  2  0  0  0  0
  9 10  1  0  0  0  0
  9 30  1  0  0  0  0
 10 11  1  0  0  0  0
 10 24  1  0  0  0  0
 11 12  1  0  0  0  0
 11 31  1  0  0  0  0
 11 32  1  0  0  0  0
 12 13  1  0  0  0  0
 12 14  1  0  0  0  0
 12 33  1  0  0  0  0
 13 34  1  0  0  0  0
 14 15  1  0  0  0  0
 14 35  1  0  0  0  0
 14 36  1  0  0  0  0
 15 16  1  0  0  0  0
 15 17  1  0  0  0  0
 15 47  1  0  0  0  0
 16 37  1  0  0  0  0
 16 38  1  0  0  0  0
 16 39  1  0  0  0  0
 17 18  1  0  0  0  0
 17 40  1  0  0  0  0
 17 41  1  0  0  0  0
 18 23  1  0  0  0  0
 18 19  2  0  0  0  0
 19 20  1  0  0  0  0
 19 42  1  0  0  0  0
 20 21  2  0  0  0  0
 20 43  1  0  0  0  0
 21 22  1  0  0  0  0
 21 44  1  0  0  0  0
 22 23  2  0  0  0  0
 22 45  1  0  0  0  0
 23 46  1  0  0  0  0
M  CHG  1  15   1
M  END
> <s_m_source_file>
AV-unprocessed.smi

> <i_m_source_file_index>
787

> <i_lp_mmshare_version>
43012

> <i_f3d_flags>
0

> <s_epik_input>
bjFbY0hdbmMoW05IXVtDSDNdKWMoYzEyKW4oW2NIXW4yKVtDSDJdW0NASF0oW09IXSlbQ0gyXU4oW0NIM10pW0NIMl1jM1tjSF1bY0hdW2NIXVtjSF1bY0hdMw==

> <s_epik_cmdline>
J2VwaWtfcHl0aG9uJywgJy1waCcsICc3LjAnLCAnLXRuJywgJzgnLCAnLW1hJywgJzIwMCcsICctbWV0YWxfYmluZGluZycsICctaW1hZScsICc8aW5maWxlLm1hZT4nLCAnLW9tYWUnLCAnPG91dGZpbGUubWFlPic=

> <r_lp_tautomer_probability>
0.999987

> <r_epik_Ionization_Penalty>
0.0526284

> <r_epik_Ionization_Penalty_Charging>
0.0475377

> <r_epik_Ionization_Penalty_Neutral>
0.00509065

> <r_epik_State_Penalty>
0.0404888

> <r_epik_Charging_Adjusted_Penalty>
0.0880265

> <i_epik_Tot_Q>
1

> <i_epik_Tot_abs_Q>
1

> <r_epik_Metal_State_Penalty>
0.040507

> <b_epik_Metal_Only>
0

> <s_lp_Force_Field>
OPLS_2005

> <r_lp_Energy>
14.0859

> <b_lp_Chiralities_Consistent>
1

> <s_lp_Variant>
AV-unprocessed.smi:787-1

> <Gold.Version>
5.8.1

> <Gold.Id.Protein>
6NUR|6NUR_protein|mol2

> <Gold.PLP.Fitness>
44.0968

> <Gold.PLP.PLP>
-32.9798

> <Gold.PLP.part.hbond>
-2.9820

> <Gold.PLP.part.metal>
0.0000

> <Gold.PLP.part.buried>
-3.7519

> <Gold.PLP.part.nonpolar>
-25.4380

> <Gold.PLP.part.repulsive>
0.0000

> <Gold.PLP.ligand.clash>
0.0000

> <Gold.PLP.ligand.torsion>
0.5946

> <Gold.PLP.Chemscore.Hbond>
3.9913

> <Gold.PLP.Chemscore.CHOScore>
0.0000

> <Gold.PLP.Chemscore.Metal>
0.0000

> <Gold.Chemscore.Hbonds>
donor molecule, donor type, donor heavy atom, donor atom, acceptor molecule, acceptor atom, score
      L1  H    15    47       P1  7948  2.00
      P1  H  6896  6908       L1     8  0.93
      P1  H  6931  6943       L1     6  1.00

> <Gold.PLP.Chemscore.Internal.Correction>
0.3326

> <Gold.Rescore>
     Score         DG    S(hbond)    S(metal)    S(lipo)     H(rot)  DE(clash)    DE(int)     intcor
     10.64     -11.54       2.13        0.00      60.98       3.19       0.02       0.88       ----

> <Gold.Chemscore.Fitness>
10.6437

> <Gold.Chemscore.DG>
-11.5416

> <Gold.Chemscore.ZeroCoef>
-5.4800

> <Gold.Chemscore.Hbond>
2.1260

> <Gold.Chemscore.Metal>
0.0000

> <Gold.Chemscore.Lipo>
60.9777

> <Gold.Chemscore.Internal_Hbond>
0.0000

> <Gold.Chemscore.DEClash>
0.0217

> <Gold.Chemscore.DEInternal>
0.8763

> <Gold.Chemscore.Rot>
3.1928

> <Gold.Chemscore.Internal.Correction>
   9.000000E+99

> <Gold.Chemscore.Hbonds>
donor molecule, donor type, donor heavy atom, donor atom, acceptor molecule, acceptor atom, score
      L1  H    15    47       P1  7948  0.60
      P1  H  6896  6908       L1     8  0.10
      P1  H  6931  6943       L1     6  0.58

> <Gold.Chemscore.Hbond.Weighted>
-7.1009

> <Gold.Chemscore.Metal.Weighted>
-0.0000

> <Gold.Chemscore.Lipo.Weighted>
-7.1344

> <Gold.Chemscore.Internal_Hbond.Weighted>
0.0000

> <Gold.Chemscore.DEClash.Weighted>
0.0217

> <Gold.Chemscore.DEInternal.Weighted>
0.8763

> <Gold.Chemscore.Rot.Weighted>
8.1736

> <Gold.Chemscore.Internal.Correction.Weighted>
   9.000000E+99

> <Gold.Protein.RotatedTorsions>
[ 6907 6896 6895 6894 ] final -158.81 input  -60.11 | X-H torsion
[ 7974 7965 7964 7962 ] final  118.67 input  175.53 | X-H torsion
[ 8008 7997 7996 7995 ] final  170.17 input   59.86 | X-H torsion
[ 10167 10162 10161 10158 ] final -106.28 input  -65.29 | X-H torsion
[ 10718 10713 10712 10709 ] final  -61.67 input   66.30 | X-H torsion
[ 10763 10752 10751 10750 ] final  174.87 input  -60.55 | X-H torsion
[ 11005 11000 10999 10996 ] final    1.11 input  -57.11 | X-H torsion

> <Gold.Protein.ActiveResidues>
 VAL166  LYS551  ARG553  GLY616  TRP617  ASP618  TYR619  PRO620  LYS621  CYS622 
 ASP623  PHE694  ASN695  SER759  ASP760  ASP761  ALA762  ILE779  LEU786  VAL792 
 PHE793  MET794  SER795  GLU796  ALA797  LYS798  CYS799  TRP800  GLU811  SER814 

> <Gold.Protein.RotatedAtoms>
  151.3239  133.4028  159.2656 H   0  0  0  0  0  0  0  0  0  0  0  0  # atno 6907 bound_to 6896
  151.0012  134.9324  159.7965 H   0  0  0  0  0  0  0  0  0  0  0  0  # atno 6908 bound_to 6896
  152.5275  134.3204  159.9198 H   0  0  0  0  0  0  0  0  0  0  0  0  # atno 6909 bound_to 6896
  145.1523  139.3203  143.4560 H   0  0  0  0  0  0  0  0  0  0  0  0  # atno 7974 bound_to 7965
  156.1390  140.1545  156.8950 H   0  0  0  0  0  0  0  0  0  0  0  0  # atno 8008 bound_to 7997
  154.4971  140.0835  156.7759 H   0  0  0  0  0  0  0  0  0  0  0  0  # atno 8009 bound_to 7997
  155.4114  140.3419  155.4266 H   0  0  0  0  0  0  0  0  0  0  0  0  # atno 8010 bound_to 7997
  140.1895  143.3903  152.1218 H   0  0  0  0  0  0  0  0  0  0  0  0  # atno 10167 bound_to 10162
  156.0906  130.4201  150.1027 H   0  0  0  0  0  0  0  0  0  0  0  0  # atno 10718 bound_to 10713
  154.4598  135.2767  155.1721 H   0  0  0  0  0  0  0  0  0  0  0  0  # atno 10763 bound_to 10752
  154.3513  135.6149  153.5648 H   0  0  0  0  0  0  0  0  0  0  0  0  # atno 10764 bound_to 10752
  152.9854  135.5812  154.4959 H   0  0  0  0  0  0  0  0  0  0  0  0  # atno 10765 bound_to 10752
  140.6191  133.9678  155.8215 H   0  0  0  0  0  0  0  0  0  0  0  0  # atno 11005 bound_to 11000
  146.3493  140.1602  142.8591 LP  0  0  0  0  0  0  0  0  0  0  0  0  # atno 17320 bound_to 7965
  145.0417  140.8950  143.5048 LP  0  0  0  0  0  0  0  0  0  0  0  0  # atno 17321 bound_to 7965
  139.5262  144.7105  151.5222 LP  0  0  0  0  0  0  0  0  0  0  0  0  # atno 17342 bound_to 10162
  140.6465  143.8783  150.6743 LP  0  0  0  0  0  0  0  0  0  0  0  0  # atno 17343 bound_to 10162
  156.9038  130.9629  151.3572 LP  0  0  0  0  0  0  0  0  0  0  0  0  # atno 17370 bound_to 10713
  157.6054  130.8543  149.8867 LP  0  0  0  0  0  0  0  0  0  0  0  0  # atno 17371 bound_to 10713
  141.0755  134.0141  157.3464 LP  0  0  0  0  0  0  0  0  0  0  0  0  # atno 17394 bound_to 11000
  139.9161  135.0197  156.7885 LP  0  0  0  0  0  0  0  0  0  0  0  0  # atno 17395 bound_to 11000

$$$$
