AV-unprocessed.smi:3283|AV-procd|sdf|12571|dock1
  -GOLD-   2272018493D 1   1.00000     0.00000
 Structure written by MMmdl.
 44 45  0  0  0  0  0  0  0  0  2 V2000
  153.3836  140.5347  159.1219 C   0  0  0  0  0  0  0  0  0  0  0  0
  152.8887  141.7977  159.8080 C   0  0  0  0  0  0  0  0  0  0  0  0
  153.0127  141.9511  161.1414 C   0  0  0  0  0  0  0  0  0  0  0  0
  152.6095  143.1955  161.9124 C   0  0  0  0  0  0  0  0  0  0  0  0
  151.8619  144.2251  161.0493 C   0  0  0  0  0  0  0  0  0  0  0  0
  152.4293  144.2811  159.6200 C   0  0  2  0  0  0  0  0  0  0  0  0
  151.8550  145.4603  158.8160 C   0  0  0  0  0  0  0  0  0  0  0  0
  152.3022  142.9005  158.9156 C   0  0  2  0  0  0  0  0  0  0  0  0
  150.8522  142.5870  158.4603 C   0  0  0  0  0  0  0  0  0  0  0  0
  150.6454  142.7866  157.0127 N   0  3  0  0  0  0  0  0  0  0  0  0
  150.1235  141.6012  156.3060 C   0  0  0  0  0  0  0  0  0  0  0  0
  149.7662  141.9420  154.8520 C   0  0  0  0  0  0  0  0  0  0  0  0
  148.7188  141.0550  154.2495 C   0  0  0  0  0  0  0  0  0  0  0  0
  147.4531  141.3355  153.8107 C   0  0  0  0  0  0  0  0  0  0  0  0
  146.9596  140.0867  153.3436 C   0  0  0  0  0  0  0  0  0  0  0  0
  147.8406  139.1122  153.4795 N   0  0  0  0  0  0  0  0  0  0  0  0
  148.9203  139.7014  154.0344 N   0  0  0  0  0  0  0  0  0  0  0  0
  150.0839  138.8813  154.3157 C   0  0  0  0  0  0  0  0  0  0  0  0
  154.0036  140.7844  158.2605 H   0  0  0  0  0  0  0  0  0  0  0  0
  152.5577  139.9085  158.7890 H   0  0  0  0  0  0  0  0  0  0  0  0
  153.9897  139.9333  159.8005 H   0  0  0  0  0  0  0  0  0  0  0  0
  153.4574  141.1621  161.7304 H   0  0  0  0  0  0  0  0  0  0  0  0
  152.0007  142.9113  162.7711 H   0  0  0  0  0  0  0  0  0  0  0  0
  153.5217  143.6429  162.3083 H   0  0  0  0  0  0  0  0  0  0  0  0
  150.8015  143.9743  161.0161 H   0  0  0  0  0  0  0  0  0  0  0  0
  151.9228  145.2050  161.5245 H   0  0  0  0  0  0  0  0  0  0  0  0
  153.4976  144.4843  159.7145 H   0  0  0  0  0  0  0  0  0  0  0  0
  150.7656  145.4423  158.7859 H   0  0  0  0  0  0  0  0  0  0  0  0
  152.2241  145.4561  157.7902 H   0  0  0  0  0  0  0  0  0  0  0  0
  152.1469  146.4105  159.2641 H   0  0  0  0  0  0  0  0  0  0  0  0
  152.9258  142.9514  158.0217 H   0  0  0  0  0  0  0  0  0  0  0  0
  150.5877  141.5603  158.7157 H   0  0  0  0  0  0  0  0  0  0  0  0
  150.1423  143.2355  158.9723 H   0  0  0  0  0  0  0  0  0  0  0  0
  149.9976  143.5506  156.8820 H   0  0  0  0  0  0  0  0  0  0  0  0
  150.8746  140.8103  156.3295 H   0  0  0  0  0  0  0  0  0  0  0  0
  149.2435  141.2316  156.8343 H   0  0  0  0  0  0  0  0  0  0  0  0
  149.4249  142.9768  154.8006 H   0  0  0  0  0  0  0  0  0  0  0  0
  150.6700  141.8874  154.2437 H   0  0  0  0  0  0  0  0  0  0  0  0
  146.9494  142.2909  153.8187 H   0  0  0  0  0  0  0  0  0  0  0  0
  145.9953  139.8612  152.9126 H   0  0  0  0  0  0  0  0  0  0  0  0
  150.8828  139.4745  154.7595 H   0  0  0  0  0  0  0  0  0  0  0  0
  150.4516  138.4357  153.3908 H   0  0  0  0  0  0  0  0  0  0  0  0
  149.8125  138.0851  155.0097 H   0  0  0  0  0  0  0  0  0  0  0  0
  151.5317  143.0405  156.5999 H   0  0  0  0  0  0  0  0  0  0  0  0
  1  2  1  0  0  0  0
  1 19  1  0  0  0  0
  1 20  1  0  0  0  0
  1 21  1  0  0  0  0
  2  8  1  0  0  0  0
  2  3  2  0  0  0  0
  3  4  1  0  0  0  0
  3 22  1  0  0  0  0
  4  5  1  0  0  0  0
  4 23  1  0  0  0  0
  4 24  1  0  0  0  0
  5  6  1  0  0  0  0
  5 25  1  0  0  0  0
  5 26  1  0  0  0  0
  6  7  1  0  0  0  0
  6  8  1  0  0  0  0
  6 27  1  0  0  0  0
  7 28  1  0  0  0  0
  7 29  1  0  0  0  0
  7 30  1  0  0  0  0
  8  9  1  0  0  0  0
  8 31  1  0  0  0  0
  9 10  1  0  0  0  0
  9 32  1  0  0  0  0
  9 33  1  0  0  0  0
 10 11  1  0  0  0  0
 10 34  1  0  0  0  0
 10 44  1  0  0  0  0
 11 12  1  0  0  0  0
 11 35  1  0  0  0  0
 11 36  1  0  0  0  0
 12 13  1  0  0  0  0
 12 37  1  0  0  0  0
 12 38  1  0  0  0  0
 13 17  1  0  0  0  0
 13 14  2  0  0  0  0
 14 15  1  0  0  0  0
 14 39  1  0  0  0  0
 15 16  2  0  0  0  0
 15 40  1  0  0  0  0
 16 17  1  0  0  0  0
 17 18  1  0  0  0  0
 18 41  1  0  0  0  0
 18 42  1  0  0  0  0
 18 43  1  0  0  0  0
M  CHG  1  10   1
M  END
> <s_m_source_file>
AV-unprocessed.smi

> <i_m_source_file_index>
3283

> <i_lp_mmshare_version>
43012

> <i_f3d_flags>
0

> <s_epik_input>
W0NIM11DMT1bQ0hdW0NIMl1bQ0gyXVtDQEBIXShbQ0gzXSlbQ0BIXTFbQ0gyXVtOSF1bQ0gyXVtDSDJdYzJbY0hdW2NIXW5uMltDSDNd

> <s_epik_cmdline>
J2VwaWtfcHl0aG9uJywgJy1waCcsICc3LjAnLCAnLXRuJywgJzgnLCAnLW1hJywgJzIwMCcsICctbWV0YWxfYmluZGluZycsICctaW1hZScsICc8aW5maWxlLm1hZT4nLCAnLW9tYWUnLCAnPG91dGZpbGUubWFlPic=

> <r_lp_tautomer_probability>
1

> <r_epik_Ionization_Penalty>
0.000866911

> <r_epik_Ionization_Penalty_Charging>
0.000836385

> <r_epik_Ionization_Penalty_Neutral>
3.05258e-05

> <r_epik_State_Penalty>
-0

> <r_epik_Charging_Adjusted_Penalty>
0.000836385

> <i_epik_Tot_Q>
1

> <i_epik_Tot_abs_Q>
1

> <r_epik_Metal_State_Penalty>
-0

> <b_epik_Metal_Only>
0

> <s_lp_Force_Field>
OPLS_2005

> <r_lp_Energy>
12.7435

> <b_lp_Chiralities_Consistent>
1

> <s_lp_Variant>
AV-unprocessed.smi:3283-4

> <Gold.Version>
5.8.1

> <Gold.Id.Protein>
6NUR|6NUR_protein|mol2

> <Gold.PLP.Fitness>
52.4351

> <Gold.PLP.PLP>
-45.8348

> <Gold.PLP.part.hbond>
-1.0000

> <Gold.PLP.part.metal>
0.0000

> <Gold.PLP.part.buried>
-1.0880

> <Gold.PLP.part.nonpolar>
-42.8365

> <Gold.PLP.part.repulsive>
0.2267

> <Gold.PLP.ligand.clash>
0.0000

> <Gold.PLP.ligand.torsion>
1.1915

> <Gold.PLP.Chemscore.Hbond>
1.9825

> <Gold.PLP.Chemscore.CHOScore>
1.0000

> <Gold.PLP.Chemscore.Metal>
0.0000

> <Gold.Chemscore.Hbonds>
donor molecule, donor type, donor heavy atom, donor atom, acceptor molecule, acceptor atom, score
      L1  H    10    34       P1  8028  2.00
      L1  C    15    40       P1 10175  1.00

> <Gold.PLP.Chemscore.Internal.Correction>
0.0358

> <Gold.Rescore>
     Score         DG    S(hbond)    S(metal)    S(lipo)     H(rot)  DE(clash)    DE(int)     intcor
     19.64     -21.24       0.94        0.00     140.42       1.48       0.37       1.23       ----

> <Gold.Chemscore.Fitness>
19.6350

> <Gold.Chemscore.DG>
-21.2432

> <Gold.Chemscore.ZeroCoef>
-5.4800

> <Gold.Chemscore.Hbond>
0.9385

> <Gold.Chemscore.Metal>
0.0000

> <Gold.Chemscore.Lipo>
140.4222

> <Gold.Chemscore.Internal_Hbond>
0.0000

> <Gold.Chemscore.DEClash>
0.3733

> <Gold.Chemscore.DEInternal>
1.2348

> <Gold.Chemscore.Rot>
1.4847

> <Gold.Chemscore.Internal.Correction>
   9.000000E+99

> <Gold.Chemscore.Hbonds>
donor molecule, donor type, donor heavy atom, donor atom, acceptor molecule, acceptor atom, score
      L1  H    10    34       P1  8028  0.90

> <Gold.Chemscore.Hbond.Weighted>
-3.1346

> <Gold.Chemscore.Metal.Weighted>
-0.0000

> <Gold.Chemscore.Lipo.Weighted>
-16.4294

> <Gold.Chemscore.Internal_Hbond.Weighted>
0.0000

> <Gold.Chemscore.DEClash.Weighted>
0.3733

> <Gold.Chemscore.DEInternal.Weighted>
1.2348

> <Gold.Chemscore.Rot.Weighted>
3.8008

> <Gold.Chemscore.Internal.Correction.Weighted>
   9.000000E+99

> <Gold.Protein.RotatedTorsions>
[ 6907 6896 6895 6894 ] final   55.44 input  -60.11 | X-H torsion
[ 7974 7965 7964 7962 ] final   19.84 input  175.53 | X-H torsion
[ 8008 7997 7996 7995 ] final  -79.82 input   59.86 | X-H torsion
[ 10167 10162 10161 10158 ] final  -56.61 input  -65.29 | X-H torsion
[ 10718 10713 10712 10709 ] final  175.86 input   66.30 | X-H torsion
[ 10763 10752 10751 10750 ] final  110.00 input  -60.55 | X-H torsion
[ 11005 11000 10999 10996 ] final  -36.45 input  -57.11 | X-H torsion

> <Gold.Protein.ActiveResidues>
 VAL166  LYS551  ARG553  GLY616  TRP617  ASP618  TYR619  PRO620  LYS621  CYS622 
 ASP623  PHE694  ASN695  SER759  ASP760  ASP761  ALA762  ILE779  LEU786  VAL792 
 PHE793  MET794  SER795  GLU796  ALA797  LYS798  CYS799  TRP800  GLU811  SER814 

> <Gold.Protein.RotatedAtoms>
  152.3538  134.6968  160.0227 H   0  0  0  0  0  0  0  0  0  0  0  0  # atno 6907 bound_to 6896
  151.7313  133.3312  159.3349 H   0  0  0  0  0  0  0  0  0  0  0  0  # atno 6908 bound_to 6896
  150.7558  134.6294  159.6223 H   0  0  0  0  0  0  0  0  0  0  0  0  # atno 6909 bound_to 6896
  146.2134  139.8255  142.8671 H   0  0  0  0  0  0  0  0  0  0  0  0  # atno 7974 bound_to 7965
  154.5822  140.0672  156.9121 H   0  0  0  0  0  0  0  0  0  0  0  0  # atno 8008 bound_to 7997
  155.2442  140.3347  155.4271 H   0  0  0  0  0  0  0  0  0  0  0  0  # atno 8009 bound_to 7997
  156.2197  140.1793  156.7489 H   0  0  0  0  0  0  0  0  0  0  0  0  # atno 8010 bound_to 7997
  140.6307  143.2458  151.5249 H   0  0  0  0  0  0  0  0  0  0  0  0  # atno 10167 bound_to 10162
  156.9286  130.9964  151.2991 H   0  0  0  0  0  0  0  0  0  0  0  0  # atno 10718 bound_to 10713
  153.4427  135.3762  155.2237 H   0  0  0  0  0  0  0  0  0  0  0  0  # atno 10763 bound_to 10752
  154.8754  135.3867  154.4133 H   0  0  0  0  0  0  0  0  0  0  0  0  # atno 10764 bound_to 10752
  153.4681  135.7087  153.6073 H   0  0  0  0  0  0  0  0  0  0  0  0  # atno 10765 bound_to 10752
  140.9876  133.7022  156.1792 H   0  0  0  0  0  0  0  0  0  0  0  0  # atno 11005 bound_to 11000
  145.3052  141.0205  143.3586 LP  0  0  0  0  0  0  0  0  0  0  0  0  # atno 17320 bound_to 7965
  144.8976  139.4691  143.6648 LP  0  0  0  0  0  0  0  0  0  0  0  0  # atno 17321 bound_to 7965
  139.5521  144.2368  152.1549 LP  0  0  0  0  0  0  0  0  0  0  0  0  # atno 17342 bound_to 10162
  140.1611  144.5025  150.6632 LP  0  0  0  0  0  0  0  0  0  0  0  0  # atno 17343 bound_to 10162
  157.5861  130.8411  149.8592 LP  0  0  0  0  0  0  0  0  0  0  0  0  # atno 17370 bound_to 10713
  156.0457  130.3728  150.1323 LP  0  0  0  0  0  0  0  0  0  0  0  0  # atno 17371 bound_to 10713
  140.7090  134.4482  157.5582 LP  0  0  0  0  0  0  0  0  0  0  0  0  # atno 17394 bound_to 11000
  139.8977  134.8629  156.2031 LP  0  0  0  0  0  0  0  0  0  0  0  0  # atno 17395 bound_to 11000

$$$$
