AV-unprocessed.smi:1701|AV-procd|sdf|6824|dock3
  -GOLD-   22720 8 03D 1   1.00000     0.00000
 Structure written by MMmdl.
 55 57  0  0  0  0  0  0  0  0  3 V2000
  151.5539  145.2952  159.2101 C   0  0  0  0  0  0  0  0  0  0  0  0
  151.9841  144.5130  157.9621 C   0  0  0  0  0  0  0  0  0  0  0  0
  152.1800  143.0913  158.2422 N   0  0  0  0  0  0  0  0  0  0  0  0
  153.1145  142.7020  159.2952 C   0  0  0  0  0  0  0  0  0  0  0  0
  152.5011  142.8441  160.6943 C   0  0  0  0  0  0  0  0  0  0  0  0
  151.4387  142.1123  157.5398 C   0  0  0  0  0  0  0  0  0  0  0  0
  151.6825  140.7205  157.6489 C   0  0  0  0  0  0  0  0  0  0  0  0
  150.8959  139.8079  156.9161 C   0  0  0  0  0  0  0  0  0  0  0  0
  149.8754  140.2838  156.0673 C   0  0  0  0  0  0  0  0  0  0  0  0
  149.0965  139.3286  155.3596 N   0  0  0  0  0  0  0  0  0  0  0  0
  148.0799  139.5474  154.5021 C   0  0  0  0  0  0  0  0  0  0  0  0
  147.7060  140.6578  154.1327 O   0  0  0  0  0  0  0  0  0  0  0  0
  147.5074  138.4299  154.0185 N   0  0  0  0  0  0  0  0  0  0  0  0
  146.3910  138.3003  153.0766 C   0  0  1  0  0  0  0  0  0  0  0  0
  146.7634  138.7733  151.6573 C   0  0  0  0  0  0  0  0  0  0  0  0
  146.1514  137.7278  150.7198 C   0  0  0  0  0  0  0  0  0  0  0  0
  146.2348  136.4922  151.5068 N   0  3  2  0  0  0  0  0  0  0  0  0
  145.5102  135.2997  151.0225 C   0  0  0  0  0  0  0  0  0  0  0  0
  145.8958  134.0989  151.9123 C   0  0  0  0  0  0  0  0  0  0  0  0
  145.6970  134.3977  153.4156 C   0  0  0  0  0  0  0  0  0  0  0  0
  146.3733  135.7223  153.8308 C   0  0  0  0  0  0  0  0  0  0  0  0
  145.8916  136.8464  152.8953 C   0  0  1  0  0  0  0  0  0  0  0  0
  149.6631  141.6808  155.9979 C   0  0  0  0  0  0  0  0  0  0  0  0
  150.4388  142.5178  156.7194 N   0  3  0  0  0  0  0  0  0  0  0  0
  151.4316  146.3533  158.9789 H   0  0  0  0  0  0  0  0  0  0  0  0
  152.2963  145.2134  160.0045 H   0  0  0  0  0  0  0  0  0  0  0  0
  150.6037  144.9297  159.6005 H   0  0  0  0  0  0  0  0  0  0  0  0
  151.2632  144.6559  157.1567 H   0  0  0  0  0  0  0  0  0  0  0  0
  152.9228  144.9244  157.5897 H   0  0  0  0  0  0  0  0  0  0  0  0
  153.3979  141.6607  159.1390 H   0  0  0  0  0  0  0  0  0  0  0  0
  154.0432  143.2671  159.2195 H   0  0  0  0  0  0  0  0  0  0  0  0
  153.2130  142.5368  161.4605 H   0  0  0  0  0  0  0  0  0  0  0  0
  151.6119  142.2220  160.8014 H   0  0  0  0  0  0  0  0  0  0  0  0
  152.2146  143.8753  160.9025 H   0  0  0  0  0  0  0  0  0  0  0  0
  152.4672  140.3312  158.2792 H   0  0  0  0  0  0  0  0  0  0  0  0
  151.0843  138.7477  157.0038 H   0  0  0  0  0  0  0  0  0  0  0  0
  149.3604  138.3643  155.4988 H   0  0  0  0  0  0  0  0  0  0  0  0
  147.9357  137.5606  154.3034 H   0  0  0  0  0  0  0  0  0  0  0  0
  145.5536  138.9146  153.4124 H   0  0  0  0  0  0  0  0  0  0  0  0
  146.4077  139.7817  151.4429 H   0  0  0  0  0  0  0  0  0  0  0  0
  147.8474  138.7753  151.5303 H   0  0  0  0  0  0  0  0  0  0  0  0
  145.1066  137.9633  150.5104 H   0  0  0  0  0  0  0  0  0  0  0  0
  146.6858  137.6464  149.7728 H   0  0  0  0  0  0  0  0  0  0  0  0
  144.4340  135.4763  151.0503 H   0  0  0  0  0  0  0  0  0  0  0  0
  145.7800  135.1009  149.9846 H   0  0  0  0  0  0  0  0  0  0  0  0
  145.3175  133.2201  151.6257 H   0  0  0  0  0  0  0  0  0  0  0  0
  146.9424  133.8462  151.7364 H   0  0  0  0  0  0  0  0  0  0  0  0
  144.6292  134.4562  153.6306 H   0  0  0  0  0  0  0  0  0  0  0  0
  146.0857  133.5740  154.0152 H   0  0  0  0  0  0  0  0  0  0  0  0
  146.1260  135.9520  154.8674 H   0  0  0  0  0  0  0  0  0  0  0  0
  147.4579  135.6196  153.7771 H   0  0  0  0  0  0  0  0  0  0  0  0
  144.8020  136.8885  152.9601 H   0  0  0  0  0  0  0  0  0  0  0  0
  148.9004  142.1674  155.4087 H   0  0  0  0  0  0  0  0  0  0  0  0
  147.2145  136.2465  151.5171 H   0  0  0  0  0  0  0  0  0  0  0  0
  150.2564  143.5189  156.6448 H   0  0  0  0  0  0  0  0  0  0  0  0
  1  2  1  0  0  0  0
  1 25  1  0  0  0  0
  1 26  1  0  0  0  0
  1 27  1  0  0  0  0
  2  3  1  0  0  0  0
  2 28  1  0  0  0  0
  2 29  1  0  0  0  0
  3  4  1  0  0  0  0
  3  6  1  0  0  0  0
  4  5  1  0  0  0  0
  4 30  1  0  0  0  0
  4 31  1  0  0  0  0
  5 32  1  0  0  0  0
  5 33  1  0  0  0  0
  5 34  1  0  0  0  0
  6 24  1  0  0  0  0
  6  7  2  0  0  0  0
  7  8  1  0  0  0  0
  7 35  1  0  0  0  0
  8  9  2  0  0  0  0
  8 36  1  0  0  0  0
  9 10  1  0  0  0  0
  9 23  1  0  0  0  0
 10 11  1  0  0  0  0
 10 37  1  0  0  0  0
 11 12  2  0  0  0  0
 11 13  1  0  0  0  0
 13 14  1  0  0  0  0
 13 38  1  0  0  0  0
 14 22  1  0  0  0  0
 14 15  1  0  0  0  0
 14 39  1  0  0  0  0
 15 16  1  0  0  0  0
 15 40  1  0  0  0  0
 15 41  1  0  0  0  0
 16 17  1  0  0  0  0
 16 42  1  0  0  0  0
 16 43  1  0  0  0  0
 17 22  1  0  0  0  0
 17 18  1  0  0  0  0
 17 54  1  0  0  0  0
 18 19  1  0  0  0  0
 18 44  1  0  0  0  0
 18 45  1  0  0  0  0
 19 20  1  0  0  0  0
 19 46  1  0  0  0  0
 19 47  1  0  0  0  0
 20 21  1  0  0  0  0
 20 48  1  0  0  0  0
 20 49  1  0  0  0  0
 21 22  1  0  0  0  0
 21 50  1  0  0  0  0
 21 51  1  0  0  0  0
 22 52  1  0  0  0  0
 23 24  2  0  0  0  0
 23 53  1  0  0  0  0
 24 55  1  0  0  0  0
M  CHG  1  17   1
M  CHG  1  24   1
M  END
> <s_m_source_file>
AV-unprocessed.smi

> <i_m_source_file_index>
1701

> <i_lp_mmshare_version>
43012

> <i_f3d_flags>
0

> <s_epik_input>
W0NIM11bQ0gyXU4oW0NIMl1bQ0gzXSljMVtjSF1bY0hdYyhbY0hdbjEpW05IXUMoPU8pW05IXVtDQEhdKFtDSDJdW0NIMl0yKVtDQEBIXShOMjMpW0NIMl1bQ0gyXVtDSDJdW0NIMl0z

> <s_epik_cmdline>
J2VwaWtfcHl0aG9uJywgJy1waCcsICc3LjAnLCAnLXRuJywgJzgnLCAnLW1hJywgJzIwMCcsICctbWV0YWxfYmluZGluZycsICctaW1hZScsICc8aW5maWxlLm1hZT4nLCAnLW9tYWUnLCAnPG91dGZpbGUubWFlPic=

> <r_lp_tautomer_probability>
0.999994

> <r_epik_Ionization_Penalty>
0.302862

> <r_epik_Ionization_Penalty_Charging>
0.302842

> <r_epik_Ionization_Penalty_Neutral>
1.95166e-05

> <r_epik_State_Penalty>
0.019791

> <r_epik_Charging_Adjusted_Penalty>
0.322633

> <i_epik_Tot_Q>
2

> <i_epik_Tot_abs_Q>
2

> <r_epik_Metal_State_Penalty>
0.0536763

> <b_epik_Metal_Only>
0

> <s_lp_Force_Field>
OPLS_2005

> <r_lp_Energy>
67.2082

> <b_lp_Chiralities_Consistent>
1

> <s_lp_Variant>
AV-unprocessed.smi:1701-4

> <Gold.Version>
5.8.1

> <Gold.Id.Protein>
6NUR|6NUR_protein|mol2

> <Gold.PLP.Fitness>
53.5101

> <Gold.PLP.PLP>
-43.7469

> <Gold.PLP.part.hbond>
-2.0000

> <Gold.PLP.part.metal>
0.0000

> <Gold.PLP.part.buried>
1.2115

> <Gold.PLP.part.nonpolar>
-43.1690

> <Gold.PLP.part.repulsive>
0.2917

> <Gold.PLP.ligand.clash>
0.0000

> <Gold.PLP.ligand.torsion>
0.3925

> <Gold.PLP.Chemscore.Hbond>
3.5040

> <Gold.PLP.Chemscore.CHOScore>
0.0000

> <Gold.PLP.Chemscore.Metal>
0.0000

> <Gold.Chemscore.Hbonds>
donor molecule, donor type, donor heavy atom, donor atom, acceptor molecule, acceptor atom, score
      L1  H    17    54       P1  7948  2.00
      L1  H    24    55       P1  8028  1.36

> <Gold.PLP.Chemscore.Internal.Correction>
0.0361

> <Gold.Rescore>
     Score         DG    S(hbond)    S(metal)    S(lipo)     H(rot)  DE(clash)    DE(int)     intcor
     18.63     -22.35       1.83        0.00     120.53       1.30       2.00       1.71       ----

> <Gold.Chemscore.Fitness>
18.6343

> <Gold.Chemscore.DG>
-22.3478

> <Gold.Chemscore.ZeroCoef>
-5.4800

> <Gold.Chemscore.Hbond>
1.8262

> <Gold.Chemscore.Metal>
0.0000

> <Gold.Chemscore.Lipo>
120.5250

> <Gold.Chemscore.Internal_Hbond>
0.0000

> <Gold.Chemscore.DEClash>
2.0006

> <Gold.Chemscore.DEInternal>
1.7129

> <Gold.Chemscore.Rot>
1.3020

> <Gold.Chemscore.Internal.Correction>
   9.000000E+99

> <Gold.Chemscore.Hbonds>
donor molecule, donor type, donor heavy atom, donor atom, acceptor molecule, acceptor atom, score
      L1  H    17    54       P1  7948  1.00
      L1  H    24    55       P1  8028  0.65

> <Gold.Chemscore.Hbond.Weighted>
-6.0994

> <Gold.Chemscore.Metal.Weighted>
-0.0000

> <Gold.Chemscore.Lipo.Weighted>
-14.1014

> <Gold.Chemscore.Internal_Hbond.Weighted>
0.0000

> <Gold.Chemscore.DEClash.Weighted>
2.0006

> <Gold.Chemscore.DEInternal.Weighted>
1.7129

> <Gold.Chemscore.Rot.Weighted>
3.3330

> <Gold.Chemscore.Internal.Correction.Weighted>
   9.000000E+99

> <Gold.Protein.RotatedTorsions>
[ 6907 6896 6895 6894 ] final   98.35 input  -60.11 | X-H torsion
[ 7974 7965 7964 7962 ] final  -90.29 input  175.53 | X-H torsion
[ 8008 7997 7996 7995 ] final -165.04 input   59.86 | X-H torsion
[ 10167 10162 10161 10158 ] final  -87.30 input  -65.29 | X-H torsion
[ 10718 10713 10712 10709 ] final  -54.62 input   66.30 | X-H torsion
[ 10763 10752 10751 10750 ] final  -74.05 input  -60.55 | X-H torsion
[ 11005 11000 10999 10996 ] final -103.91 input  -57.11 | X-H torsion

> <Gold.Protein.ActiveResidues>
 VAL166  LYS551  ARG553  GLY616  TRP617  ASP618  TYR619  PRO620  LYS621  CYS622 
 ASP623  PHE694  ASN695  SER759  ASP760  ASP761  ALA762  ILE779  LEU786  VAL792 
 PHE793  MET794  SER795  GLU796  ALA797  LYS798  CYS799  TRP800  GLU811  SER814 

> <Gold.Protein.RotatedAtoms>
  152.5410  134.0595  159.8145 H   0  0  0  0  0  0  0  0  0  0  0  0  # atno 6907 bound_to 6896
  151.0725  133.5447  159.2633 H   0  0  0  0  0  0  0  0  0  0  0  0  # atno 6908 bound_to 6896
  151.2305  135.0561  159.9040 H   0  0  0  0  0  0  0  0  0  0  0  0  # atno 6909 bound_to 6896
  145.4285  140.9554  143.2141 H   0  0  0  0  0  0  0  0  0  0  0  0  # atno 7974 bound_to 7965
  155.8441  140.0953  157.1716 H   0  0  0  0  0  0  0  0  0  0  0  0  # atno 8008 bound_to 7997
  154.3983  140.1395  156.3826 H   0  0  0  0  0  0  0  0  0  0  0  0  # atno 8009 bound_to 7997
  155.8032  140.3452  155.5417 H   0  0  0  0  0  0  0  0  0  0  0  0  # atno 8010 bound_to 7997
  140.3857  143.2727  151.9327 H   0  0  0  0  0  0  0  0  0  0  0  0  # atno 10167 bound_to 10162
  156.1436  130.4153  150.0062 H   0  0  0  0  0  0  0  0  0  0  0  0  # atno 10718 bound_to 10713
  154.4678  135.5877  153.6300 H   0  0  0  0  0  0  0  0  0  0  0  0  # atno 10763 bound_to 10752
  152.9831  135.6059  154.3405 H   0  0  0  0  0  0  0  0  0  0  0  0  # atno 10764 bound_to 10752
  154.3284  135.2843  155.2463 H   0  0  0  0  0  0  0  0  0  0  0  0  # atno 10765 bound_to 10752
  141.1124  133.8679  157.1545 H   0  0  0  0  0  0  0  0  0  0  0  0  # atno 11005 bound_to 11000
  144.8198  139.5811  143.6992 LP  0  0  0  0  0  0  0  0  0  0  0  0  # atno 17320 bound_to 7965
  146.2620  139.6431  142.9355 LP  0  0  0  0  0  0  0  0  0  0  0  0  # atno 17321 bound_to 7965
  139.4792  144.5775  151.7987 LP  0  0  0  0  0  0  0  0  0  0  0  0  # atno 17342 bound_to 10162
  140.4891  144.1337  150.5947 LP  0  0  0  0  0  0  0  0  0  0  0  0  # atno 17343 bound_to 10162
  156.7940  130.9266  151.3646 LP  0  0  0  0  0  0  0  0  0  0  0  0  # atno 17370 bound_to 10713
  157.6597  130.8955  149.9804 LP  0  0  0  0  0  0  0  0  0  0  0  0  # atno 17371 bound_to 10713
  140.0026  135.0021  157.0223 LP  0  0  0  0  0  0  0  0  0  0  0  0  # atno 17394 bound_to 11000
  140.4738  134.1359  155.7207 LP  0  0  0  0  0  0  0  0  0  0  0  0  # atno 17395 bound_to 11000

$$$$
