AV-unprocessed.smi:644|AV-procd|sdf|3157|dock2
  -GOLD-   22720 0 83D 1   1.00000     0.00000
 Structure written by MMmdl.
 38 40  0  0  0  0  0  0  0  0  2 V2000
  152.1387  144.2702  161.2170 C   0  0  0  0  0  0  0  0  0  0  0  0
  152.0520  143.2971  160.0536 C   0  0  0  0  0  0  0  0  0  0  0  0
  151.2094  143.6204  158.9658 C   0  0  0  0  0  0  0  0  0  0  0  0
  151.1512  142.7104  157.9169 C   0  0  0  0  0  0  0  0  0  0  0  0
  150.4304  142.7366  156.7208 N   0  3  0  0  0  0  0  0  0  0  0  0
  150.7013  141.6116  156.0027 C   0  0  0  0  0  0  0  0  0  0  0  0
  151.5841  140.8685  156.7233 N   0  0  0  0  0  0  0  0  0  0  0  0
  152.2059  139.5757  156.4085 C   0  0  0  0  0  0  0  0  0  0  0  0
  151.2015  138.4071  156.4314 C   0  0  2  0  0  0  0  0  0  0  0  0
  151.4401  137.6025  157.5707 O   0  0  0  0  0  0  0  0  0  0  0  0
  151.3057  137.5382  155.1683 C   0  0  0  0  0  0  0  0  0  0  0  0
  149.9470  136.3329  155.0556 S   0  0  0  0  0  0  0  0  0  0  0  0
  150.7083  134.9343  155.8157 C   0  0  0  0  0  0  0  0  0  0  0  0
  151.8040  134.9743  156.5875 N   0  0  0  0  0  0  0  0  0  0  0  0
  152.1726  133.7176  157.0478 N   0  0  0  0  0  0  0  0  0  0  0  0
  151.3402  132.7720  156.6060 C   0  0  0  0  0  0  0  0  0  0  0  0
  150.0290  133.3277  155.5828 S   0  0  0  0  0  0  0  0  0  0  0  0
  151.8936  141.5139  157.9245 C   0  0  0  0  0  0  0  0  0  0  0  0
  152.7285  141.1794  158.9875 C   0  0  0  0  0  0  0  0  0  0  0  0
  152.8015  142.0920  160.0643 C   0  0  0  0  0  0  0  0  0  0  0  0
  153.7026  141.7546  161.2399 C   0  0  0  0  0  0  0  0  0  0  0  0
  151.5225  145.1533  161.0455 H   0  0  0  0  0  0  0  0  0  0  0  0
  153.1660  144.6052  161.3623 H   0  0  0  0  0  0  0  0  0  0  0  0
  151.7942  143.7972  162.1371 H   0  0  0  0  0  0  0  0  0  0  0  0
  150.6357  144.5356  158.9508 H   0  0  0  0  0  0  0  0  0  0  0  0
  150.2946  141.3569  155.0345 H   0  0  0  0  0  0  0  0  0  0  0  0
  152.6949  139.6542  155.4368 H   0  0  0  0  0  0  0  0  0  0  0  0
  152.9973  139.4082  157.1405 H   0  0  0  0  0  0  0  0  0  0  0  0
  150.1889  138.8052  156.5074 H   0  0  0  0  0  0  0  0  0  0  0  0
  152.0283  136.9045  157.3248 H   0  0  0  0  0  0  0  0  0  0  0  0
  151.2724  138.1745  154.2831 H   0  0  0  0  0  0  0  0  0  0  0  0
  152.2611  137.0118  155.1520 H   0  0  0  0  0  0  0  0  0  0  0  0
  151.5004  131.7406  156.8833 H   0  0  0  0  0  0  0  0  0  0  0  0
  153.2990  140.2624  158.9931 H   0  0  0  0  0  0  0  0  0  0  0  0
  154.2014  140.7954  161.0978 H   0  0  0  0  0  0  0  0  0  0  0  0
  153.1231  141.6948  162.1616 H   0  0  0  0  0  0  0  0  0  0  0  0
  154.4735  142.5157  161.3630 H   0  0  0  0  0  0  0  0  0  0  0  0
  149.8014  143.4675  156.4134 H   0  0  0  0  0  0  0  0  0  0  0  0
  1  2  1  0  0  0  0
  1 22  1  0  0  0  0
  1 23  1  0  0  0  0
  1 24  1  0  0  0  0
  2 20  1  0  0  0  0
  2  3  2  0  0  0  0
  3  4  1  0  0  0  0
  3 25  1  0  0  0  0
  4 18  2  0  0  0  0
  4  5  1  0  0  0  0
  5  6  2  0  0  0  0
  5 38  1  0  0  0  0
  6  7  1  0  0  0  0
  6 26  1  0  0  0  0
  7  8  1  0  0  0  0
  7 18  1  0  0  0  0
  8  9  1  0  0  0  0
  8 27  1  0  0  0  0
  8 28  1  0  0  0  0
  9 10  1  0  0  0  0
  9 11  1  0  0  0  0
  9 29  1  0  0  0  0
 10 30  1  0  0  0  0
 11 12  1  0  0  0  0
 11 31  1  0  0  0  0
 11 32  1  0  0  0  0
 12 13  1  0  0  0  0
 13 17  1  0  0  0  0
 13 14  2  0  0  0  0
 14 15  1  0  0  0  0
 15 16  2  0  0  0  0
 16 17  1  0  0  0  0
 16 33  1  0  0  0  0
 18 19  1  0  0  0  0
 19 20  2  0  0  0  0
 19 34  1  0  0  0  0
 20 21  1  0  0  0  0
 21 35  1  0  0  0  0
 21 36  1  0  0  0  0
 21 37  1  0  0  0  0
M  CHG  1   5   1
M  END
> <s_m_source_file>
AV-unprocessed.smi

> <i_m_source_file_index>
644

> <i_lp_mmshare_version>
43012

> <i_f3d_flags>
0

> <s_epik_input>
W0NIM11jKFtjSF0xKWMoW0NIM10pW2NIXWMoYzEyKW4oW2NIXW4yKVtDSDJdW0NASF0oW09IXSlbQ0gyXVNjM25uW2NIXXMz

> <s_epik_cmdline>
J2VwaWtfcHl0aG9uJywgJy1waCcsICc3LjAnLCAnLXRuJywgJzgnLCAnLW1hJywgJzIwMCcsICctbWV0YWxfYmluZGluZycsICctaW1hZScsICc8aW5maWxlLm1hZT4nLCAnLW9tYWUnLCAnPG91dGZpbGUubWFlPic=

> <r_lp_tautomer_probability>
1

> <r_epik_Ionization_Penalty>
1.07492

> <r_epik_Ionization_Penalty_Charging>
1.07491

> <r_epik_Ionization_Penalty_Neutral>
3.80549e-06

> <r_epik_State_Penalty>
1.12982

> <r_epik_Charging_Adjusted_Penalty>
2.20473

> <i_epik_Tot_Q>
1

> <i_epik_Tot_abs_Q>
1

> <r_epik_Metal_State_Penalty>
1.2206

> <b_epik_Metal_Only>
0

> <s_lp_Force_Field>
OPLS_2005

> <r_lp_Energy>
11.8761

> <b_lp_Chiralities_Consistent>
1

> <s_lp_Variant>
AV-unprocessed.smi:644-3

> <Gold.Version>
5.8.1

> <Gold.Id.Protein>
6NUR|6NUR_protein|mol2

> <Gold.PLP.Fitness>
49.3671

> <Gold.PLP.PLP>
-42.8078

> <Gold.PLP.part.hbond>
-3.0000

> <Gold.PLP.part.metal>
0.0000

> <Gold.PLP.part.buried>
-4.5991

> <Gold.PLP.part.nonpolar>
-34.4943

> <Gold.PLP.part.repulsive>
0.0488

> <Gold.PLP.ligand.clash>
0.0000

> <Gold.PLP.ligand.torsion>
1.2631

> <Gold.PLP.Chemscore.Hbond>
3.0114

> <Gold.PLP.Chemscore.CHOScore>
0.0000

> <Gold.PLP.Chemscore.Metal>
0.0000

> <Gold.Chemscore.Hbonds>
donor molecule, donor type, donor heavy atom, donor atom, acceptor molecule, acceptor atom, score
      L1  H     5    38       P1  8028  2.00
      P1  H  6896  6909       L1    15  0.04
      P1  H 10752 10765       L1    14  0.89

> <Gold.PLP.Chemscore.Internal.Correction>
0.0513

> <Gold.Rescore>
     Score         DG    S(hbond)    S(metal)    S(lipo)     H(rot)  DE(clash)    DE(int)     intcor
     17.03     -18.23       1.71        0.00     115.55       2.53       0.11       1.08       ----

> <Gold.Chemscore.Fitness>
17.0315

> <Gold.Chemscore.DG>
-18.2260

> <Gold.Chemscore.ZeroCoef>
-5.4800

> <Gold.Chemscore.Hbond>
1.7086

> <Gold.Chemscore.Metal>
0.0000

> <Gold.Chemscore.Lipo>
115.5525

> <Gold.Chemscore.Internal_Hbond>
0.0000

> <Gold.Chemscore.DEClash>
0.1139

> <Gold.Chemscore.DEInternal>
1.0806

> <Gold.Chemscore.Rot>
2.5315

> <Gold.Chemscore.Internal.Correction>
   9.000000E+99

> <Gold.Chemscore.Hbonds>
donor molecule, donor type, donor heavy atom, donor atom, acceptor molecule, acceptor atom, score
      L1  H     5    38       P1  8028  1.00
      P1  H 10752 10765       L1    14  0.10

> <Gold.Chemscore.Hbond.Weighted>
-5.7069

> <Gold.Chemscore.Metal.Weighted>
-0.0000

> <Gold.Chemscore.Lipo.Weighted>
-13.5196

> <Gold.Chemscore.Internal_Hbond.Weighted>
0.0000

> <Gold.Chemscore.DEClash.Weighted>
0.1139

> <Gold.Chemscore.DEInternal.Weighted>
1.0806

> <Gold.Chemscore.Rot.Weighted>
6.4805

> <Gold.Chemscore.Internal.Correction.Weighted>
   9.000000E+99

> <Gold.Protein.RotatedTorsions>
[ 6907 6896 6895 6894 ] final  -36.33 input  -60.11 | X-H torsion
[ 7974 7965 7964 7962 ] final -161.11 input  175.53 | X-H torsion
[ 8008 7997 7996 7995 ] final -143.01 input   59.86 | X-H torsion
[ 10167 10162 10161 10158 ] final   87.73 input  -65.29 | X-H torsion
[ 10718 10713 10712 10709 ] final  -21.05 input   66.30 | X-H torsion
[ 10763 10752 10751 10750 ] final -141.84 input  -60.55 | X-H torsion
[ 11005 11000 10999 10996 ] final  105.55 input  -57.11 | X-H torsion

> <Gold.Protein.ActiveResidues>
 VAL166  LYS551  ARG553  GLY616  TRP617  ASP618  TYR619  PRO620  LYS621  CYS622 
 ASP623  PHE694  ASN695  SER759  ASP760  ASP761  ALA762  ILE779  LEU786  VAL792 
 PHE793  MET794  SER795  GLU796  ALA797  LYS798  CYS799  TRP800  GLU811  SER814 

> <Gold.Protein.RotatedAtoms>
  151.0285  134.9521  159.8097 H   0  0  0  0  0  0  0  0  0  0  0  0  # atno 6907 bound_to 6896
  152.5340  134.2811  159.9018 H   0  0  0  0  0  0  0  0  0  0  0  0  # atno 6908 bound_to 6896
  151.2820  133.4163  159.2661 H   0  0  0  0  0  0  0  0  0  0  0  0  # atno 6909 bound_to 6896
  144.7402  140.3445  143.6128 H   0  0  0  0  0  0  0  0  0  0  0  0  # atno 7974 bound_to 7965
  155.5036  140.0577  157.2935 H   0  0  0  0  0  0  0  0  0  0  0  0  # atno 8008 bound_to 7997
  154.4578  140.1981  156.0280 H   0  0  0  0  0  0  0  0  0  0  0  0  # atno 8009 bound_to 7997
  156.0832  140.3244  155.7725 H   0  0  0  0  0  0  0  0  0  0  0  0  # atno 8010 bound_to 7997
  139.8744  144.6475  150.8912 H   0  0  0  0  0  0  0  0  0  0  0  0  # atno 10167 bound_to 10162
  156.5235  130.4638  149.6584 H   0  0  0  0  0  0  0  0  0  0  0  0  # atno 10718 bound_to 10713
  154.8531  135.3513  154.5932 H   0  0  0  0  0  0  0  0  0  0  0  0  # atno 10763 bound_to 10752
  153.6541  135.6993  153.5204 H   0  0  0  0  0  0  0  0  0  0  0  0  # atno 10764 bound_to 10752
  153.2870  135.4246  155.1090 H   0  0  0  0  0  0  0  0  0  0  0  0  # atno 10765 bound_to 10752
  139.8803  134.9339  156.5532 H   0  0  0  0  0  0  0  0  0  0  0  0  # atno 11005 bound_to 11000
  145.7340  139.1744  143.2414 LP  0  0  0  0  0  0  0  0  0  0  0  0  # atno 17320 bound_to 7965
  146.1184  140.7340  142.9469 LP  0  0  0  0  0  0  0  0  0  0  0  0  # atno 17321 bound_to 7965
  140.7755  143.3637  151.1780 LP  0  0  0  0  0  0  0  0  0  0  0  0  # atno 17342 bound_to 10162
  139.7253  143.9158  152.3000 LP  0  0  0  0  0  0  0  0  0  0  0  0  # atno 17343 bound_to 10162
  156.3127  130.7238  151.2134 LP  0  0  0  0  0  0  0  0  0  0  0  0  # atno 17370 bound_to 10713
  157.7433  131.0477  150.4957 LP  0  0  0  0  0  0  0  0  0  0  0  0  # atno 17371 bound_to 10713
  140.8225  133.8343  155.8908 LP  0  0  0  0  0  0  0  0  0  0  0  0  # atno 17394 bound_to 11000
  140.9405  134.1907  157.4801 LP  0  0  0  0  0  0  0  0  0  0  0  0  # atno 17395 bound_to 11000

$$$$
