AV-unprocessed.smi:816|AV-procd|sdf|3826|dock1
  -GOLD-   22720 1263D 1   1.00000     0.00000
 Structure written by MMmdl.
 40 41  0  0  0  0  0  0  0  0  1 V2000
  152.4883  144.1846  158.9046 C   0  0  0  0  0  0  0  0  0  0  0  0
  152.1509  142.7292  158.7236 C   0  0  0  0  0  0  0  0  0  0  0  0
  151.1777  142.4556  157.9183 N   0  0  0  0  0  0  0  0  0  0  0  0
  150.7857  141.1528  157.6803 N   0  0  0  0  0  0  0  0  0  0  0  0
  149.6566  141.0292  156.7516 C   0  0  0  0  0  0  0  0  0  0  0  0
  149.9867  140.0846  155.5735 C   0  0  2  0  0  0  0  0  0  0  0  0
  151.2320  140.4579  155.0189 O   0  0  0  0  0  0  0  0  0  0  0  0
  148.9478  140.1734  154.4454 C   0  0  0  0  0  0  0  0  0  0  0  0
  147.6476  140.1057  155.0170 O   0  0  0  0  0  0  0  0  0  0  0  0
  146.8502  141.2283  154.9633 C   0  0  0  0  0  0  0  0  0  0  0  0
  147.0459  142.1000  153.8725 C   0  0  0  0  0  0  0  0  0  0  0  0
  146.2731  143.2692  153.7348 C   0  0  0  0  0  0  0  0  0  0  0  0
  145.2905  143.5813  154.6947 C   0  0  0  0  0  0  0  0  0  0  0  0
  144.4902  144.7866  154.5562 C   0  0  0  0  0  0  0  0  0  0  0  0
  143.8530  145.7461  154.4459 N   0  0  0  0  0  0  0  0  0  0  0  0
  145.0872  142.7198  155.7909 C   0  0  0  0  0  0  0  0  0  0  0  0
  145.8612  141.5507  155.9268 C   0  0  0  0  0  0  0  0  0  0  0  0
  151.3483  140.0542  158.2583 C   0  0  0  0  0  0  0  0  0  0  0  0
  150.9492  138.9102  158.0354 O   0  0  0  0  0  0  0  0  0  0  0  0
  152.4555  140.3702  159.1637 C   0  0  0  0  0  0  0  0  0  0  0  0
  153.0811  139.2466  159.7835 C   0  0  0  0  0  0  0  0  0  0  0  0
  153.6032  138.3366  160.2729 N   0  0  0  0  0  0  0  0  0  0  0  0
  152.8568  141.6447  159.3985 C   0  0  0  0  0  0  0  0  0  0  0  0
  153.9978  142.0261  160.3318 C   0  0  0  0  0  0  0  0  0  0  0  0
  153.4856  144.3997  158.5213 H   0  0  0  0  0  0  0  0  0  0  0  0
  152.4627  144.4618  159.9584 H   0  0  0  0  0  0  0  0  0  0  0  0
  151.7856  144.8333  158.3794 H   0  0  0  0  0  0  0  0  0  0  0  0
  148.8072  140.6313  157.3106 H   0  0  0  0  0  0  0  0  0  0  0  0
  149.3132  142.0034  156.3978 H   0  0  0  0  0  0  0  0  0  0  0  0
  150.0532  139.0490  155.9104 H   0  0  0  0  0  0  0  0  0  0  0  0
  151.7518  140.8657  155.6953 H   0  0  0  0  0  0  0  0  0  0  0  0
  149.0804  141.1011  153.8855 H   0  0  0  0  0  0  0  0  0  0  0  0
  149.0795  139.3379  153.7554 H   0  0  0  0  0  0  0  0  0  0  0  0
  147.7968  141.8686  153.1311 H   0  0  0  0  0  0  0  0  0  0  0  0
  146.4396  143.9217  152.8896 H   0  0  0  0  0  0  0  0  0  0  0  0
  144.3371  142.9493  156.5342 H   0  0  0  0  0  0  0  0  0  0  0  0
  145.6767  140.9176  156.7812 H   0  0  0  0  0  0  0  0  0  0  0  0
  154.5133  141.1533  160.7316 H   0  0  0  0  0  0  0  0  0  0  0  0
  153.6210  142.6021  161.1777 H   0  0  0  0  0  0  0  0  0  0  0  0
  154.7395  142.6289  159.8070 H   0  0  0  0  0  0  0  0  0  0  0  0
  1  2  1  0  0  0  0
  1 25  1  0  0  0  0
  1 26  1  0  0  0  0
  1 27  1  0  0  0  0
  2 23  1  0  0  0  0
  2  3  2  0  0  0  0
  3  4  1  0  0  0  0
  4  5  1  0  0  0  0
  4 18  1  0  0  0  0
  5  6  1  0  0  0  0
  5 28  1  0  0  0  0
  5 29  1  0  0  0  0
  6  7  1  0  0  0  0
  6  8  1  0  0  0  0
  6 30  1  0  0  0  0
  7 31  1  0  0  0  0
  8  9  1  0  0  0  0
  8 32  1  0  0  0  0
  8 33  1  0  0  0  0
  9 10  1  0  0  0  0
 10 17  1  0  0  0  0
 10 11  2  0  0  0  0
 11 12  1  0  0  0  0
 11 34  1  0  0  0  0
 12 13  2  0  0  0  0
 12 35  1  0  0  0  0
 13 14  1  0  0  0  0
 13 16  1  0  0  0  0
 14 15  3  0  0  0  0
 16 17  2  0  0  0  0
 16 36  1  0  0  0  0
 17 37  1  0  0  0  0
 18 19  2  0  0  0  0
 18 20  1  0  0  0  0
 20 21  1  0  0  0  0
 20 23  2  0  0  0  0
 21 22  3  0  0  0  0
 23 24  1  0  0  0  0
 24 38  1  0  0  0  0
 24 39  1  0  0  0  0
 24 40  1  0  0  0  0
M  END
> <s_m_source_file>
AV-unprocessed.smi

> <i_m_source_file_index>
816

> <i_lp_mmshare_version>
43012

> <i_f3d_flags>
0

> <s_epik_input>
TiNDYyhjMVtDSDNdKWMoPU8pbihuYzFbQ0gzXSlbQ0gyXVtDQEhdKFtPSF0pW0NIMl1PYzJbY0hdW2NIXWMoQyNOKVtjSF1bY0hdMg==

> <s_epik_cmdline>
J2VwaWtfcHl0aG9uJywgJy1waCcsICc3LjAnLCAnLXRuJywgJzgnLCAnLW1hJywgJzIwMCcsICctbWV0YWxfYmluZGluZycsICctaW1hZScsICc8aW5maWxlLm1hZT4nLCAnLW9tYWUnLCAnPG91dGZpbGUubWFlPic=

> <r_lp_tautomer_probability>
1

> <r_epik_Ionization_Penalty>
1.1732e-07

> <r_epik_Ionization_Penalty_Charging>
1.4567e-10

> <r_epik_Ionization_Penalty_Neutral>
1.17174e-07

> <r_epik_State_Penalty>
-0

> <r_epik_Charging_Adjusted_Penalty>
1.4567e-10

> <i_epik_Tot_Q>
0

> <i_epik_Tot_abs_Q>
0

> <r_epik_Metal_State_Penalty>
-0

> <b_epik_Metal_Only>
0

> <s_lp_Force_Field>
OPLS_2005

> <r_lp_Energy>
30.0039

> <b_lp_Chiralities_Consistent>
1

> <s_lp_Variant>
AV-unprocessed.smi:816-1

> <Gold.Version>
5.8.1

> <Gold.Id.Protein>
6NUR|6NUR_protein|mol2

> <Gold.PLP.Fitness>
44.8482

> <Gold.PLP.PLP>
-43.5348

> <Gold.PLP.part.hbond>
-0.9617

> <Gold.PLP.part.metal>
0.0000

> <Gold.PLP.part.buried>
-7.4585

> <Gold.PLP.part.nonpolar>
-34.4654

> <Gold.PLP.part.repulsive>
0.1645

> <Gold.PLP.ligand.clash>
0.0000

> <Gold.PLP.ligand.torsion>
0.9088

> <Gold.PLP.Chemscore.Hbond>
0.9920

> <Gold.PLP.Chemscore.CHOScore>
0.0000

> <Gold.PLP.Chemscore.Metal>
0.0000

> <Gold.Chemscore.Hbonds>
donor molecule, donor type, donor heavy atom, donor atom, acceptor molecule, acceptor atom, score
      P1  H  7989  7998       L1     7  1.00

> <Gold.PLP.Chemscore.Internal.Correction>
0.1550

> <Gold.Rescore>
     Score         DG    S(hbond)    S(metal)    S(lipo)     H(rot)  DE(clash)    DE(int)     intcor
     12.33     -13.37       0.92        0.00      98.53       2.62       0.09       0.95       ----

> <Gold.Chemscore.Fitness>
12.3290

> <Gold.Chemscore.DG>
-13.3698

> <Gold.Chemscore.ZeroCoef>
-5.4800

> <Gold.Chemscore.Hbond>
0.9206

> <Gold.Chemscore.Metal>
0.0000

> <Gold.Chemscore.Lipo>
98.5278

> <Gold.Chemscore.Internal_Hbond>
0.0000

> <Gold.Chemscore.DEClash>
0.0883

> <Gold.Chemscore.DEInternal>
0.9525

> <Gold.Chemscore.Rot>
2.6222

> <Gold.Chemscore.Internal.Correction>
   9.000000E+99

> <Gold.Chemscore.Hbonds>
donor molecule, donor type, donor heavy atom, donor atom, acceptor molecule, acceptor atom, score
      P1  H  7989  7998       L1     7  0.83

> <Gold.Chemscore.Hbond.Weighted>
-3.0748

> <Gold.Chemscore.Metal.Weighted>
-0.0000

> <Gold.Chemscore.Lipo.Weighted>
-11.5277

> <Gold.Chemscore.Internal_Hbond.Weighted>
0.0000

> <Gold.Chemscore.DEClash.Weighted>
0.0883

> <Gold.Chemscore.DEInternal.Weighted>
0.9525

> <Gold.Chemscore.Rot.Weighted>
6.7127

> <Gold.Chemscore.Internal.Correction.Weighted>
   9.000000E+99

> <Gold.Protein.RotatedTorsions>
[ 6907 6896 6895 6894 ] final -105.00 input  -60.11 | X-H torsion
[ 7974 7965 7964 7962 ] final  -92.76 input  175.53 | X-H torsion
[ 8008 7997 7996 7995 ] final   35.18 input   59.86 | X-H torsion
[ 10167 10162 10161 10158 ] final -162.86 input  -65.29 | X-H torsion
[ 10718 10713 10712 10709 ] final  123.84 input   66.30 | X-H torsion
[ 10763 10752 10751 10750 ] final  112.97 input  -60.55 | X-H torsion
[ 11005 11000 10999 10996 ] final -113.59 input  -57.11 | X-H torsion

> <Gold.Protein.ActiveResidues>
 VAL166  LYS551  ARG553  GLY616  TRP617  ASP618  TYR619  PRO620  LYS621  CYS622 
 ASP623  PHE694  ASN695  SER759  ASP760  ASP761  ALA762  ILE779  LEU786  VAL792 
 PHE793  MET794  SER795  GLU796  ALA797  LYS798  CYS799  TRP800  GLU811  SER814 

> <Gold.Protein.RotatedAtoms>
  150.7315  134.0193  159.3695 H   0  0  0  0  0  0  0  0  0  0  0  0  # atno 6907 bound_to 6896
  151.8157  135.0665  160.0428 H   0  0  0  0  0  0  0  0  0  0  0  0  # atno 6908 bound_to 6896
  152.3041  133.5648  159.5674 H   0  0  0  0  0  0  0  0  0  0  0  0  # atno 6909 bound_to 6896
  145.3956  140.9532  143.2316 H   0  0  0  0  0  0  0  0  0  0  0  0  # atno 7974 bound_to 7965
  155.1668  140.3288  155.4400 H   0  0  0  0  0  0  0  0  0  0  0  0  # atno 8008 bound_to 7997
  156.2524  140.1950  156.6724 H   0  0  0  0  0  0  0  0  0  0  0  0  # atno 8009 bound_to 7997
  154.6366  140.0575  156.9782 H   0  0  0  0  0  0  0  0  0  0  0  0  # atno 8010 bound_to 7997
  139.6362  144.0346  152.2056 H   0  0  0  0  0  0  0  0  0  0  0  0  # atno 10167 bound_to 10162
  157.5633  131.1088  150.8499 H   0  0  0  0  0  0  0  0  0  0  0  0  # atno 10718 bound_to 10713
  153.4856  135.3670  155.2465 H   0  0  0  0  0  0  0  0  0  0  0  0  # atno 10763 bound_to 10752
  154.8754  135.3965  154.3649 H   0  0  0  0  0  0  0  0  0  0  0  0  # atno 10764 bound_to 10752
  153.4260  135.7081  153.6328 H   0  0  0  0  0  0  0  0  0  0  0  0  # atno 10765 bound_to 10752
  141.0604  133.9544  157.2676 H   0  0  0  0  0  0  0  0  0  0  0  0  # atno 11005 bound_to 11000
  144.8410  139.5473  143.6900 LP  0  0  0  0  0  0  0  0  0  0  0  0  # atno 17320 bound_to 7965
  146.2777  139.6794  142.9251 LP  0  0  0  0  0  0  0  0  0  0  0  0  # atno 17321 bound_to 7965
  140.0023  144.6284  150.7719 LP  0  0  0  0  0  0  0  0  0  0  0  0  # atno 17342 bound_to 10162
  140.7466  143.2894  151.3373 LP  0  0  0  0  0  0  0  0  0  0  0  0  # atno 17343 bound_to 10162
  156.8991  130.5240  149.5283 LP  0  0  0  0  0  0  0  0  0  0  0  0  # atno 17370 bound_to 10713
  156.0683  130.5722  150.9333 LP  0  0  0  0  0  0  0  0  0  0  0  0  # atno 17371 bound_to 10713
  139.9428  135.0188  156.8760 LP  0  0  0  0  0  0  0  0  0  0  0  0  # atno 17394 bound_to 11000
  140.5879  134.0289  155.7488 LP  0  0  0  0  0  0  0  0  0  0  0  0  # atno 17395 bound_to 11000

$$$$
