AV-unprocessed.smi:2433|AV-procd|sdf|9590|dock8
  -GOLD-   2272013223D 1   1.00000     0.00000
 Structure written by MMmdl.
 38 40  0  0  0  0  0  0  0  0  1 V2000
  151.1581  138.7883  157.4536 O   0  0  0  0  0  0  0  0  0  0  0  0
  151.0592  140.0142  157.5133 C   0  0  0  0  0  0  0  0  0  0  0  0
  152.0140  140.8477  158.2443 C   0  0  0  0  0  0  0  0  0  0  0  0
  151.8745  142.1939  158.2842 C   0  0  0  0  0  0  0  0  0  0  0  0
  152.8681  143.0631  159.0510 C   0  0  0  0  0  0  0  0  0  0  0  0
  152.7623  143.0177  160.5853 C   0  0  0  0  0  0  0  0  0  0  0  0
  152.0276  144.3626  160.5560 C   0  0  0  0  0  0  0  0  0  0  0  0
  152.4945  144.5527  159.1083 C   0  0  0  0  0  0  0  0  0  0  0  0
  150.7939  142.8137  157.6424 N   0  0  0  0  0  0  0  0  0  0  0  0
  149.9341  142.0990  156.9896 C   0  0  0  0  0  0  0  0  0  0  0  0
  150.0509  140.6993  156.8994 N   0  0  0  0  0  0  0  0  0  0  0  0
  149.0235  140.0064  156.1043 C   0  0  0  0  0  0  0  0  0  0  0  0
  148.9730  140.5006  154.6419 C   0  0  1  0  0  0  0  0  0  0  0  0
  148.7901  139.3861  153.7906 O   0  0  0  0  0  0  0  0  0  0  0  0
  147.8675  141.5300  154.4592 C   0  0  0  0  0  0  0  0  0  0  0  0
  147.1304  141.9741  155.5783 C   0  0  0  0  0  0  0  0  0  0  0  0
  146.0954  142.9162  155.4194 C   0  0  0  0  0  0  0  0  0  0  0  0
  145.7886  143.4173  154.1397 C   0  0  0  0  0  0  0  0  0  0  0  0
  144.7930  144.3220  153.9869 F   0  0  0  0  0  0  0  0  0  0  0  0
  146.5165  142.9748  153.0188 C   0  0  0  0  0  0  0  0  0  0  0  0
  147.5514  142.0327  153.1771 C   0  0  0  0  0  0  0  0  0  0  0  0
  152.8434  140.3749  158.7502 H   0  0  0  0  0  0  0  0  0  0  0  0
  153.8917  142.9074  158.7068 H   0  0  0  0  0  0  0  0  0  0  0  0
  152.1791  142.1912  160.9927 H   0  0  0  0  0  0  0  0  0  0  0  0
  153.7364  143.0890  161.0710 H   0  0  0  0  0  0  0  0  0  0  0  0
  150.9453  144.2557  160.6407 H   0  0  0  0  0  0  0  0  0  0  0  0
  152.4147  145.1038  161.2557 H   0  0  0  0  0  0  0  0  0  0  0  0
  153.3650  145.2056  159.0321 H   0  0  0  0  0  0  0  0  0  0  0  0
  151.7062  144.8575  158.4189 H   0  0  0  0  0  0  0  0  0  0  0  0
  149.0738  142.5327  156.4769 H   0  0  0  0  0  0  0  0  0  0  0  0
  149.1352  138.9205  156.1365 H   0  0  0  0  0  0  0  0  0  0  0  0
  148.0567  140.1916  156.5768 H   0  0  0  0  0  0  0  0  0  0  0  0
  149.9196  140.9686  154.3683 H   0  0  0  0  0  0  0  0  0  0  0  0
  149.2840  139.5315  152.9980 H   0  0  0  0  0  0  0  0  0  0  0  0
  147.3538  141.5909  156.5633 H   0  0  0  0  0  0  0  0  0  0  0  0
  145.5354  143.2526  156.2795 H   0  0  0  0  0  0  0  0  0  0  0  0
  146.2796  143.3560  152.0365 H   0  0  0  0  0  0  0  0  0  0  0  0
  148.0989  141.6955  152.3092 H   0  0  0  0  0  0  0  0  0  0  0  0
  1  2  2  0  0  0  0
  2 11  1  0  0  0  0
  2  3  1  0  0  0  0
  3  4  2  0  0  0  0
  3 22  1  0  0  0  0
  4  5  1  0  0  0  0
  4  9  1  0  0  0  0
  5  8  1  0  0  0  0
  5  6  1  0  0  0  0
  5 23  1  0  0  0  0
  6  7  1  0  0  0  0
  6 24  1  0  0  0  0
  6 25  1  0  0  0  0
  7  8  1  0  0  0  0
  7 26  1  0  0  0  0
  7 27  1  0  0  0  0
  8 28  1  0  0  0  0
  8 29  1  0  0  0  0
  9 10  2  0  0  0  0
 10 11  1  0  0  0  0
 10 30  1  0  0  0  0
 11 12  1  0  0  0  0
 12 13  1  0  0  0  0
 12 31  1  0  0  0  0
 12 32  1  0  0  0  0
 13 14  1  0  0  0  0
 13 15  1  0  0  0  0
 13 33  1  0  0  0  0
 14 34  1  0  0  0  0
 15 21  1  0  0  0  0
 15 16  2  0  0  0  0
 16 17  1  0  0  0  0
 16 35  1  0  0  0  0
 17 18  2  0  0  0  0
 17 36  1  0  0  0  0
 18 19  1  0  0  0  0
 18 20  1  0  0  0  0
 20 21  2  0  0  0  0
 20 37  1  0  0  0  0
 21 38  1  0  0  0  0
M  END
> <s_m_source_file>
AV-unprocessed.smi

> <i_m_source_file_index>
2433

> <i_lp_mmshare_version>
43012

> <i_f3d_flags>
0

> <s_epik_input>
W0NIMl0xW0NIMl1bQ0gyXVtDSF0xYyhbY0hdYzI9TyluW2NIXW4yW0NIMl1bQ0BIXShbT0hdKWMzW2NIXVtjSF1jKEYpW2NIXVtjSF0z

> <s_epik_cmdline>
J2VwaWtfcHl0aG9uJywgJy1waCcsICc3LjAnLCAnLXRuJywgJzgnLCAnLW1hJywgJzIwMCcsICctbWV0YWxfYmluZGluZycsICctaW1hZScsICc8aW5maWxlLm1hZT4nLCAnLW9tYWUnLCAnPG91dGZpbGUubWFlPic=

> <r_lp_tautomer_probability>
1

> <r_epik_Ionization_Penalty>
2.57762e-05

> <r_epik_Ionization_Penalty_Charging>
5.39435e-08

> <r_epik_Ionization_Penalty_Neutral>
2.57223e-05

> <r_epik_State_Penalty>
-0

> <r_epik_Charging_Adjusted_Penalty>
5.39435e-08

> <i_epik_Tot_Q>
0

> <i_epik_Tot_abs_Q>
0

> <r_epik_Metal_State_Penalty>
-0

> <b_epik_Metal_Only>
0

> <s_lp_Force_Field>
OPLS_2005

> <r_lp_Energy>
28.3662

> <b_lp_Chiralities_Consistent>
1

> <s_lp_Variant>
AV-unprocessed.smi:2433-2

> <Gold.Version>
5.8.1

> <Gold.Id.Protein>
6NUR|6NUR_protein|mol2

> <Gold.PLP.Fitness>
48.0033

> <Gold.PLP.PLP>
-44.0117

> <Gold.PLP.part.hbond>
-1.0000

> <Gold.PLP.part.metal>
0.0000

> <Gold.PLP.part.buried>
-7.5296

> <Gold.PLP.part.nonpolar>
-35.7299

> <Gold.PLP.part.repulsive>
0.1174

> <Gold.PLP.ligand.clash>
0.0000

> <Gold.PLP.ligand.torsion>
0.8180

> <Gold.PLP.Chemscore.Hbond>
1.0000

> <Gold.PLP.Chemscore.CHOScore>
0.7581

> <Gold.PLP.Chemscore.Metal>
0.0000

> <Gold.Chemscore.Hbonds>
donor molecule, donor type, donor heavy atom, donor atom, acceptor molecule, acceptor atom, score
      L1  H    14    34       P1  7957  1.00
      L1  C    10    30       P1  8028  0.94

> <Gold.PLP.Chemscore.Internal.Correction>
0.3532

> <Gold.Rescore>
     Score         DG    S(hbond)    S(metal)    S(lipo)     H(rot)  DE(clash)    DE(int)     intcor
     14.61     -15.81       0.99        0.00     106.70       2.14       0.03       1.17       ----

> <Gold.Chemscore.Fitness>
14.6122

> <Gold.Chemscore.DG>
-15.8094

> <Gold.Chemscore.ZeroCoef>
-5.4800

> <Gold.Chemscore.Hbond>
0.9930

> <Gold.Chemscore.Metal>
0.0000

> <Gold.Chemscore.Lipo>
106.6962

> <Gold.Chemscore.Internal_Hbond>
0.0000

> <Gold.Chemscore.DEClash>
0.0270

> <Gold.Chemscore.DEInternal>
1.1702

> <Gold.Chemscore.Rot>
2.1370

> <Gold.Chemscore.Internal.Correction>
   9.000000E+99

> <Gold.Chemscore.Hbonds>
donor molecule, donor type, donor heavy atom, donor atom, acceptor molecule, acceptor atom, score
      L1  H    14    34       P1  7957  0.99

> <Gold.Chemscore.Hbond.Weighted>
-3.3167

> <Gold.Chemscore.Metal.Weighted>
-0.0000

> <Gold.Chemscore.Lipo.Weighted>
-12.4835

> <Gold.Chemscore.Internal_Hbond.Weighted>
0.0000

> <Gold.Chemscore.DEClash.Weighted>
0.0270

> <Gold.Chemscore.DEInternal.Weighted>
1.1702

> <Gold.Chemscore.Rot.Weighted>
5.4707

> <Gold.Chemscore.Internal.Correction.Weighted>
   9.000000E+99

> <Gold.Protein.RotatedTorsions>
[ 6907 6896 6895 6894 ] final -112.19 input  -60.11 | X-H torsion
[ 7974 7965 7964 7962 ] final  -35.61 input  175.53 | X-H torsion
[ 8008 7997 7996 7995 ] final  -25.82 input   59.86 | X-H torsion
[ 10167 10162 10161 10158 ] final   -0.19 input  -65.29 | X-H torsion
[ 10718 10713 10712 10709 ] final  160.05 input   66.30 | X-H torsion
[ 10763 10752 10751 10750 ] final   93.73 input  -60.55 | X-H torsion
[ 11005 11000 10999 10996 ] final  -36.63 input  -57.11 | X-H torsion

> <Gold.Protein.ActiveResidues>
 VAL166  LYS551  ARG553  GLY616  TRP617  ASP618  TYR619  PRO620  LYS621  CYS622 
 ASP623  PHE694  ASN695  SER759  ASP760  ASP761  ALA762  ILE779  LEU786  VAL792 
 PHE793  MET794  SER795  GLU796  ALA797  LYS798  CYS799  TRP800  GLU811  SER814 

> <Gold.Protein.RotatedAtoms>
  150.7742  133.9125  159.3373 H   0  0  0  0  0  0  0  0  0  0  0  0  # atno 6907 bound_to 6896
  151.7004  135.0929  160.0259 H   0  0  0  0  0  0  0  0  0  0  0  0  # atno 6908 bound_to 6896
  152.3771  133.6458  159.6168 H   0  0  0  0  0  0  0  0  0  0  0  0  # atno 6909 bound_to 6896
  146.0732  140.6180  142.8943 H   0  0  0  0  0  0  0  0  0  0  0  0  # atno 7974 bound_to 7965
  154.4456  140.1916  156.0679 H   0  0  0  0  0  0  0  0  0  0  0  0  # atno 8008 bound_to 7997
  156.0533  140.3306  155.7349 H   0  0  0  0  0  0  0  0  0  0  0  0  # atno 8009 bound_to 7997
  155.5524  140.0596  157.2838 H   0  0  0  0  0  0  0  0  0  0  0  0  # atno 8010 bound_to 7997
  140.6757  143.6924  150.8017 H   0  0  0  0  0  0  0  0  0  0  0  0  # atno 10167 bound_to 10162
  157.1558  131.0575  151.2257 H   0  0  0  0  0  0  0  0  0  0  0  0  # atno 10718 bound_to 10713
  153.2336  135.4315  155.0621 H   0  0  0  0  0  0  0  0  0  0  0  0  # atno 10763 bound_to 10752
  154.8308  135.3385  154.6752 H   0  0  0  0  0  0  0  0  0  0  0  0  # atno 10764 bound_to 10752
  153.7178  135.7019  153.5077 H   0  0  0  0  0  0  0  0  0  0  0  0  # atno 10765 bound_to 10752
  140.9890  133.7015  156.1816 H   0  0  0  0  0  0  0  0  0  0  0  0  # atno 11005 bound_to 11000
  144.7244  140.4479  143.6984 LP  0  0  0  0  0  0  0  0  0  0  0  0  # atno 17320 bound_to 7965
  145.6354  139.1542  143.2945 LP  0  0  0  0  0  0  0  0  0  0  0  0  # atno 17321 bound_to 7965
  140.0616  143.5149  152.2625 LP  0  0  0  0  0  0  0  0  0  0  0  0  # atno 17342 bound_to 10162
  139.6048  144.7593  151.3088 LP  0  0  0  0  0  0  0  0  0  0  0  0  # atno 17343 bound_to 10162
  157.4178  130.7421  149.6889 LP  0  0  0  0  0  0  0  0  0  0  0  0  # atno 17370 bound_to 10713
  155.9762  130.4078  150.3793 LP  0  0  0  0  0  0  0  0  0  0  0  0  # atno 17371 bound_to 10713
  140.7070  134.4503  157.5583 LP  0  0  0  0  0  0  0  0  0  0  0  0  # atno 17394 bound_to 11000
  139.8983  134.8616  156.2006 LP  0  0  0  0  0  0  0  0  0  0  0  0  # atno 17395 bound_to 11000

$$$$
