AV-unprocessed.smi:1006|AV-procd|sdf|4390|dock7
  -GOLD-   22720 2323D 1   1.00000     0.00000
 Structure written by MMmdl.
 45 47  0  0  0  0  0  0  0  0  1 V2000
  146.7923  137.8079  163.2760 C   0  0  0  0  0  0  0  0  0  0  0  0
  147.2136  136.7188  162.3124 C   0  0  0  0  0  0  0  0  0  0  0  0
  147.0945  135.3534  162.6496 C   0  0  0  0  0  0  0  0  0  0  0  0
  147.5104  134.4302  161.6675 C   0  0  0  0  0  0  0  0  0  0  0  0
  147.4345  133.0597  161.9013 N   0  0  0  0  0  0  0  0  0  0  0  0
  147.9927  134.8314  160.4719 N   0  0  0  0  0  0  0  0  0  0  0  0
  148.0610  136.1491  160.2684 C   0  0  0  0  0  0  0  0  0  0  0  0
  148.6774  136.6444  158.6710 S   0  0  0  0  0  0  0  0  0  0  0  0
  150.0243  137.7818  159.1213 C   0  0  0  0  0  0  0  0  0  0  0  0
  151.2363  137.6428  158.1865 C   0  0  2  0  0  0  0  0  0  0  0  0
  151.7857  136.3447  158.3151 O   0  0  0  0  0  0  0  0  0  0  0  0
  152.3223  138.6917  158.4915 C   0  0  0  0  0  0  0  0  0  0  0  0
  151.9701  140.0103  157.9973 N   0  0  0  0  0  0  0  0  0  0  0  0
  151.5090  140.3280  156.7722 C   0  0  0  0  0  0  0  0  0  0  0  0
  151.2481  141.6104  156.5337 N   0  0  0  0  0  0  0  0  0  0  0  0
  151.5777  142.1921  157.7462 C   0  0  0  0  0  0  0  0  0  0  0  0
  151.5292  143.5414  158.1601 C   0  0  0  0  0  0  0  0  0  0  0  0
  151.9203  143.9134  159.4662 C   0  0  0  0  0  0  0  0  0  0  0  0
  151.8520  145.3760  159.8694 C   0  0  0  0  0  0  0  0  0  0  0  0
  152.3683  142.9278  160.3821 C   0  0  0  0  0  0  0  0  0  0  0  0
  152.7938  143.3036  161.7905 C   0  0  0  0  0  0  0  0  0  0  0  0
  152.4230  141.5754  159.9848 C   0  0  0  0  0  0  0  0  0  0  0  0
  152.0321  141.2181  158.6824 C   0  0  0  0  0  0  0  0  0  0  0  0
  147.6983  137.1173  161.1154 N   0  0  0  0  0  0  0  0  0  0  0  0
  146.8645  137.4616  164.3074 H   0  0  0  0  0  0  0  0  0  0  0  0
  145.7598  138.1001  163.0835 H   0  0  0  0  0  0  0  0  0  0  0  0
  147.4256  138.6893  163.1696 H   0  0  0  0  0  0  0  0  0  0  0  0
  146.7042  135.0349  163.6052 H   0  0  0  0  0  0  0  0  0  0  0  0
  147.0828  132.6900  162.7727 H   0  0  0  0  0  0  0  0  0  0  0  0
  147.7424  132.3919  161.2092 H   0  0  0  0  0  0  0  0  0  0  0  0
  149.6450  138.8027  159.0708 H   0  0  0  0  0  0  0  0  0  0  0  0
  150.3168  137.5983  160.1560 H   0  0  0  0  0  0  0  0  0  0  0  0
  150.9026  137.7668  157.1552 H   0  0  0  0  0  0  0  0  0  0  0  0
  152.5115  136.2633  157.7156 H   0  0  0  0  0  0  0  0  0  0  0  0
  152.4812  138.7663  159.5680 H   0  0  0  0  0  0  0  0  0  0  0  0
  153.2779  138.3962  158.0560 H   0  0  0  0  0  0  0  0  0  0  0  0
  151.3538  139.5748  156.0134 H   0  0  0  0  0  0  0  0  0  0  0  0
  151.1873  144.2919  157.4626 H   0  0  0  0  0  0  0  0  0  0  0  0
  152.8367  145.7365  160.1679 H   0  0  0  0  0  0  0  0  0  0  0  0
  151.1651  145.5096  160.7055 H   0  0  0  0  0  0  0  0  0  0  0  0
  151.5029  146.0003  159.0464 H   0  0  0  0  0  0  0  0  0  0  0  0
  153.0778  142.4236  162.3683 H   0  0  0  0  0  0  0  0  0  0  0  0
  151.9783  143.7995  162.3174 H   0  0  0  0  0  0  0  0  0  0  0  0
  153.6503  143.9775  161.7632 H   0  0  0  0  0  0  0  0  0  0  0  0
  152.7617  140.8136  160.6714 H   0  0  0  0  0  0  0  0  0  0  0  0
  1  2  1  0  0  0  0
  1 25  1  0  0  0  0
  1 26  1  0  0  0  0
  1 27  1  0  0  0  0
  2 24  1  0  0  0  0
  2  3  2  0  0  0  0
  3  4  1  0  0  0  0
  3 28  1  0  0  0  0
  4  5  1  0  0  0  0
  4  6  2  0  0  0  0
  5 29  1  0  0  0  0
  5 30  1  0  0  0  0
  6  7  1  0  0  0  0
  7  8  1  0  0  0  0
  7 24  2  0  0  0  0
  8  9  1  0  0  0  0
  9 10  1  0  0  0  0
  9 31  1  0  0  0  0
  9 32  1  0  0  0  0
 10 11  1  0  0  0  0
 10 12  1  0  0  0  0
 10 33  1  0  0  0  0
 11 34  1  0  0  0  0
 12 13  1  0  0  0  0
 12 35  1  0  0  0  0
 12 36  1  0  0  0  0
 13 23  1  0  0  0  0
 13 14  1  0  0  0  0
 14 15  2  0  0  0  0
 14 37  1  0  0  0  0
 15 16  1  0  0  0  0
 16 23  2  0  0  0  0
 16 17  1  0  0  0  0
 17 18  2  0  0  0  0
 17 38  1  0  0  0  0
 18 19  1  0  0  0  0
 18 20  1  0  0  0  0
 19 39  1  0  0  0  0
 19 40  1  0  0  0  0
 19 41  1  0  0  0  0
 20 21  1  0  0  0  0
 20 22  2  0  0  0  0
 21 42  1  0  0  0  0
 21 43  1  0  0  0  0
 21 44  1  0  0  0  0
 22 23  1  0  0  0  0
 22 45  1  0  0  0  0
M  END
> <s_m_source_file>
AV-unprocessed.smi

> <i_m_source_file_index>
1006

> <i_lp_mmshare_version>
43012

> <i_f3d_flags>
0

> <s_epik_input>
W0NIM11jMVtjSF1jKFtOSDJdKW5jKG4xKVNbQ0gyXVtDQEhdKFtPSF0pW0NIMl1uKFtjSF1uMiljKGMyMylbY0hdYyhbQ0gzXSljKFtjSF0zKVtDSDNd

> <s_epik_cmdline>
J2VwaWtfcHl0aG9uJywgJy1waCcsICc3LjAnLCAnLXRuJywgJzgnLCAnLW1hJywgJzIwMCcsICctbWV0YWxfYmluZGluZycsICctaW1hZScsICc8aW5maWxlLm1hZT4nLCAnLW9tYWUnLCAnPG91dGZpbGUubWFlPic=

> <r_lp_tautomer_probability>
1

> <r_epik_Ionization_Penalty>
0.490208

> <r_epik_Ionization_Penalty_Charging>
0

> <r_epik_Ionization_Penalty_Neutral>
0.490208

> <r_epik_State_Penalty>
0.473203

> <r_epik_Charging_Adjusted_Penalty>
0.473203

> <i_epik_Tot_Q>
0

> <i_epik_Tot_abs_Q>
0

> <r_epik_Metal_State_Penalty>
0.354099

> <b_epik_Metal_Only>
0

> <s_lp_Force_Field>
OPLS_2005

> <r_lp_Energy>
3.13918

> <b_lp_Chiralities_Consistent>
1

> <s_lp_Variant>
AV-unprocessed.smi:1006-1

> <Gold.Version>
5.8.1

> <Gold.Id.Protein>
6NUR|6NUR_protein|mol2

> <Gold.PLP.Fitness>
58.8256

> <Gold.PLP.PLP>
-53.2215

> <Gold.PLP.part.hbond>
-3.0000

> <Gold.PLP.part.metal>
0.0000

> <Gold.PLP.part.buried>
-7.1481

> <Gold.PLP.part.nonpolar>
-44.0665

> <Gold.PLP.part.repulsive>
0.1338

> <Gold.PLP.ligand.clash>
0.0000

> <Gold.PLP.ligand.torsion>
0.5726

> <Gold.PLP.Chemscore.Hbond>
2.2352

> <Gold.PLP.Chemscore.CHOScore>
0.0000

> <Gold.PLP.Chemscore.Metal>
0.0000

> <Gold.Chemscore.Hbonds>
donor molecule, donor type, donor heavy atom, donor atom, acceptor molecule, acceptor atom, score
      P1  H  6896  6909       L1    11  0.48
      P1  H  6931  6943       L1    24  0.67
      P1  H  6934  6947       L1    24  0.88

> <Gold.PLP.Chemscore.Internal.Correction>
0.0437

> <Gold.Rescore>
     Score         DG    S(hbond)    S(metal)    S(lipo)     H(rot)  DE(clash)    DE(int)     intcor
     16.83     -17.84       1.38        0.00     127.88       2.82       0.39       0.63       ----

> <Gold.Chemscore.Fitness>
16.8270

> <Gold.Chemscore.DG>
-17.8449

> <Gold.Chemscore.ZeroCoef>
-5.4800

> <Gold.Chemscore.Hbond>
1.3847

> <Gold.Chemscore.Metal>
0.0000

> <Gold.Chemscore.Lipo>
127.8769

> <Gold.Chemscore.Internal_Hbond>
0.0000

> <Gold.Chemscore.DEClash>
0.3900

> <Gold.Chemscore.DEInternal>
0.6279

> <Gold.Chemscore.Rot>
2.8209

> <Gold.Chemscore.Internal.Correction>
   9.000000E+99

> <Gold.Chemscore.Hbonds>
donor molecule, donor type, donor heavy atom, donor atom, acceptor molecule, acceptor atom, score
      P1  H  6896  6909       L1    11  0.44
      P1  H  6931  6943       L1    24  0.07
      P1  H  6934  6947       L1    24  0.47

> <Gold.Chemscore.Hbond.Weighted>
-4.6248

> <Gold.Chemscore.Metal.Weighted>
-0.0000

> <Gold.Chemscore.Lipo.Weighted>
-14.9616

> <Gold.Chemscore.Internal_Hbond.Weighted>
0.0000

> <Gold.Chemscore.DEClash.Weighted>
0.3900

> <Gold.Chemscore.DEInternal.Weighted>
0.6279

> <Gold.Chemscore.Rot.Weighted>
7.2215

> <Gold.Chemscore.Internal.Correction.Weighted>
   9.000000E+99

> <Gold.Protein.RotatedTorsions>
[ 6907 6896 6895 6894 ] final  106.31 input  -60.11 | X-H torsion
[ 7974 7965 7964 7962 ] final   73.91 input  175.53 | X-H torsion
[ 8008 7997 7996 7995 ] final  -46.98 input   59.86 | X-H torsion
[ 10167 10162 10161 10158 ] final  -18.90 input  -65.29 | X-H torsion
[ 10718 10713 10712 10709 ] final   48.58 input   66.30 | X-H torsion
[ 10763 10752 10751 10750 ] final -109.05 input  -60.55 | X-H torsion
[ 11005 11000 10999 10996 ] final   90.35 input  -57.11 | X-H torsion

> <Gold.Protein.ActiveResidues>
 VAL166  LYS551  ARG553  GLY616  TRP617  ASP618  TYR619  PRO620  LYS621  CYS622 
 ASP623  PHE694  ASN695  SER759  ASP760  ASP761  ALA762  ILE779  LEU786  VAL792 
 PHE793  MET794  SER795  GLU796  ALA797  LYS798  CYS799  TRP800  GLU811  SER814 

> <Gold.Protein.RotatedAtoms>
  152.5198  133.9399  159.7621 H   0  0  0  0  0  0  0  0  0  0  0  0  # atno 6907 bound_to 6896
  150.9731  133.6314  159.2741 H   0  0  0  0  0  0  0  0  0  0  0  0  # atno 6908 bound_to 6896
  151.3519  135.0892  159.9458 H   0  0  0  0  0  0  0  0  0  0  0  0  # atno 6909 bound_to 6896
  145.7350  139.2698  143.1519 H   0  0  0  0  0  0  0  0  0  0  0  0  # atno 7974 bound_to 7965
  154.4012  140.1358  156.4100 H   0  0  0  0  0  0  0  0  0  0  0  0  # atno 8008 bound_to 7997
  155.7742  140.3483  155.5243 H   0  0  0  0  0  0  0  0  0  0  0  0  # atno 8009 bound_to 7997
  155.8737  140.0976  157.1523 H   0  0  0  0  0  0  0  0  0  0  0  0  # atno 8010 bound_to 7997
  140.7263  143.4871  151.0041 H   0  0  0  0  0  0  0  0  0  0  0  0  # atno 10167 bound_to 10162
  157.4700  130.8249  149.7978 H   0  0  0  0  0  0  0  0  0  0  0  0  # atno 10718 bound_to 10713
  154.8171  135.4615  154.0674 H   0  0  0  0  0  0  0  0  0  0  0  0  # atno 10763 bound_to 10752
  153.2058  135.6875  153.8181 H   0  0  0  0  0  0  0  0  0  0  0  0  # atno 10764 bound_to 10752
  153.7650  135.3278  155.3320 H   0  0  0  0  0  0  0  0  0  0  0  0  # atno 10765 bound_to 10752
  139.8857  134.8608  156.3273 H   0  0  0  0  0  0  0  0  0  0  0  0  # atno 11005 bound_to 11000
  146.0502  140.8077  142.9785 LP  0  0  0  0  0  0  0  0  0  0  0  0  # atno 17320 bound_to 7965
  144.6884  140.3041  143.7258 LP  0  0  0  0  0  0  0  0  0  0  0  0  # atno 17321 bound_to 7965
  139.8573  143.7360  152.3175 LP  0  0  0  0  0  0  0  0  0  0  0  0  # atno 17342 bound_to 10162
  139.7563  144.7519  151.0430 LP  0  0  0  0  0  0  0  0  0  0  0  0  # atno 17343 bound_to 10162
  156.0069  130.3851  150.2400 LP  0  0  0  0  0  0  0  0  0  0  0  0  # atno 17370 bound_to 10713
  157.0582  131.0082  151.3231 LP  0  0  0  0  0  0  0  0  0  0  0  0  # atno 17371 bound_to 10713
  140.9747  133.7305  156.0584 LP  0  0  0  0  0  0  0  0  0  0  0  0  # atno 17394 bound_to 11000
  140.7826  134.3708  157.5483 LP  0  0  0  0  0  0  0  0  0  0  0  0  # atno 17395 bound_to 11000

$$$$
