#       Name:                AV-unprocessed.smi:2072
#       Creating user name   scv26
#       Creation time:       Fri Mar 27 11:14:33 2020


#       File generated by GOLD software.
#

@<TRIPOS>MOLECULE
AV-unprocessed.smi:2072
    43    45     1
SMALL
NO_CHARGES


@<TRIPOS>ATOM
      1 ****         1.7158   0.8409  -0.1822 O.2            1 S1                 0.0000
      2 ****         1.4439  -0.2220  -0.7383 C.2            1 S1                 0.0000
      3 ****         2.3141  -1.2099  -1.0107 N.am           1 S1                 0.0000
      4 ****         3.7098  -1.2834  -0.7445 C.ar           1 S1                 0.0000
      5 ****         4.5077  -0.2058  -0.2858 C.ar           1 S1                 0.0000
      6 ****         5.8827  -0.4209  -0.0703 C.ar           1 S1                 0.0000
      7 ****         6.4124  -1.7006  -0.3240 C.ar           1 S1                 0.0000
      8 ****         5.6672  -2.7342  -0.7676 N.ar           1 S1                 0.0000
      9 ****         4.3501  -2.5206  -0.9719 C.ar           1 S1                 0.0000
     10 ****         0.2075  -0.5427  -1.1453 N.am           1 S1                 0.0000
     11 ****        -0.9705   0.3090  -1.0073 C.3            1 S1                 0.0000
     12 ****        -2.0274   0.0443  -2.0728 C.3            1 S1                 0.0000
     13 ****        -3.2818   0.6553  -1.4449 C.3            1 S1                 0.0000
     14 ****        -3.1460   0.4587   0.0173 N.4            1 S1                 1.0000
     15 ****        -3.6713   1.5773   0.8381 C.3            1 S1                 0.0000
     16 ****        -3.5180   1.2748   2.3408 C.3            1 S1                 0.0000
     17 ****        -2.1081   0.7739   2.7182 C.3            1 S1                 0.0000
     18 ****        -1.1411   0.7994   1.5252 C.3            1 S1                 0.0000
     19 ****        -1.7373   0.0632   0.3033 C.3            1 S1                 0.0000
     20 ****         1.9217  -2.0329  -1.4442 H              1 S1                 0.0000
     21 ****         4.1081   0.7782  -0.1012 H              1 S1                 0.0000
     22 ****         6.5179   0.3791   0.2799 H              1 S1                 0.0000
     23 ****         7.4628  -1.8981  -0.1690 H              1 S1                 0.0000
     24 ****         3.7868  -3.3705  -1.3288 H              1 S1                 0.0000
     25 ****         0.0728  -1.4384  -1.5913 H              1 S1                 0.0000
     26 ****        -0.6851   1.3613  -1.0766 H              1 S1                 0.0000
     27 ****        -1.7796   0.4865  -3.0383 H              1 S1                 0.0000
     28 ****        -2.1669  -1.0285  -2.2158 H              1 S1                 0.0000
     29 ****        -3.3166   1.7212  -1.6767 H              1 S1                 0.0000
     30 ****        -4.1991   0.2035  -1.8228 H              1 S1                 0.0000
     31 ****        -3.1411   2.4970   0.5853 H              1 S1                 0.0000
     32 ****        -4.7214   1.7456   0.5972 H              1 S1                 0.0000
     33 ****        -3.7593   2.1706   2.9140 H              1 S1                 0.0000
     34 ****        -4.2523   0.5242   2.6358 H              1 S1                 0.0000
     35 ****        -1.7040   1.3685   3.5380 H              1 S1                 0.0000
     36 ****        -2.1804  -0.2476   3.0934 H              1 S1                 0.0000
     37 ****        -0.9151   1.8352   1.2677 H              1 S1                 0.0000
     38 ****        -0.1919   0.3456   1.8105 H              1 S1                 0.0000
     39 ****        -1.7629  -1.0079   0.5115 H              1 S1                 0.0000
     40 ****        -3.7056  -0.3487   0.2525 H              1 S1                 0.0000
     41 ****         2.6542   1.0270   0.1092 LP             1 S1                 0.0000
     42 ****         0.9986   1.5189  -0.0214 LP             1 S1                 0.0000
     43 ****         6.0775  -3.6298  -0.9395 LP             1 S1                 0.0000
@<TRIPOS>BOND
    1    1    2 2     
    2    2    3 am    
    3    2   10 am    
    4    3    4 1     
    5    3   20 1     
    6    4    9 ar    
    7    4    5 ar    
    8    5    6 ar    
    9    5   21 1     
   10    6    7 ar    
   11    6   22 1     
   12    7    8 ar    
   13    7   23 1     
   14    8    9 ar    
   15    9   24 1     
   16   10   11 1     
   17   10   25 1     
   18   11   19 1     
   19   11   12 1     
   20   11   26 1     
   21   12   13 1     
   22   12   27 1     
   23   12   28 1     
   24   13   14 1     
   25   13   29 1     
   26   13   30 1     
   27   14   19 1     
   28   14   15 1     
   29   14   40 1     
   30   15   16 1     
   31   15   31 1     
   32   15   32 1     
   33   16   17 1     
   34   16   33 1     
   35   16   34 1     
   36   17   18 1     
   37   17   35 1     
   38   17   36 1     
   39   18   19 1     
   40   18   37 1     
   41   18   38 1     
   42   19   39 1     
   43    1   41 1     
   44    1   42 1     
   45    8   43 1     
@<TRIPOS>SUBSTRUCTURE
      1 S1             1
@<TRIPOS>SET
LONE_PAIRS      STATIC     ATOMS    <user>   **** ""
3 41 42 43
DONOR_HYDROGENS      STATIC     ATOMS    <user>   **** ""
3 20 25 40
ATOM$BLUE        STATIC     ATOMS    COLORGROUP SYSTEM
3 41 42 43
ATOM$RED        STATIC     ATOMS    COLORGROUP SYSTEM
3 20 25 40
