AV-unprocessed.smi:2022|AV-procd|sdf|8188|dock7
  -GOLD-   2272010443D 1   1.00000     0.00000
 Structure written by MMmdl.
 34 35  0  0  0  0  0  0  0  0  1 V2000
  155.4417  143.1234  167.4971 C   0  0  0  0  0  0  0  0  0  0  0  0
  155.4382  142.3443  166.2268 C   0  0  0  0  0  0  0  0  0  0  0  0
  154.8970  142.5781  164.9940 C   0  0  0  0  0  0  0  0  0  0  0  0
  155.2800  141.4284  164.2532 C   0  0  0  0  0  0  0  0  0  0  0  0
  154.9076  141.2823  162.8927 N   0  0  0  0  0  0  0  0  0  0  0  0
  153.9747  141.9775  162.2201 C   0  0  0  0  0  0  0  0  0  0  0  0
  153.2806  142.8774  162.6944 O   0  0  0  0  0  0  0  0  0  0  0  0
  153.8870  141.5671  160.9463 N   0  0  0  0  0  0  0  0  0  0  0  0
  152.9510  142.0815  159.9451 C   0  0  1  0  0  0  0  0  0  0  0  0
  153.3715  143.5005  159.5002 C   0  0  0  0  0  0  0  0  0  0  0  0
  152.2260  144.3334  158.9018 C   0  0  0  0  0  0  0  0  0  0  0  0
  151.6143  143.7631  157.6133 C   0  0  0  0  0  0  0  0  0  0  0  0
  150.9016  142.4143  157.8115 C   0  0  0  0  0  0  0  0  0  0  0  0
  151.8323  141.2939  157.8686 N   0  0  0  0  0  0  0  0  0  0  0  0
  152.7863  141.0792  158.7871 C   0  0  0  0  0  0  0  0  0  0  0  0
  153.5260  140.0991  158.7014 O   0  0  0  0  0  0  0  0  0  0  0  0
  155.9878  140.5686  164.9702 N   0  0  0  0  0  0  0  0  0  0  0  0
  156.0934  141.1519  166.2384 O   0  0  0  0  0  0  0  0  0  0  0  0
  154.7791  143.9862  167.4267 H   0  0  0  0  0  0  0  0  0  0  0  0
  156.4446  143.4853  167.7240 H   0  0  0  0  0  0  0  0  0  0  0  0
  155.1060  142.5066  168.3310 H   0  0  0  0  0  0  0  0  0  0  0  0
  154.3226  143.4354  164.6758 H   0  0  0  0  0  0  0  0  0  0  0  0
  155.4006  140.5679  162.3779 H   0  0  0  0  0  0  0  0  0  0  0  0
  154.4935  140.8179  160.6459 H   0  0  0  0  0  0  0  0  0  0  0  0
  151.9756  142.1474  160.4309 H   0  0  0  0  0  0  0  0  0  0  0  0
  153.7562  144.0527  160.3584 H   0  0  0  0  0  0  0  0  0  0  0  0
  154.2011  143.4415  158.7940 H   0  0  0  0  0  0  0  0  0  0  0  0
  151.4429  144.4627  159.6497 H   0  0  0  0  0  0  0  0  0  0  0  0
  152.6024  145.3349  158.6915 H   0  0  0  0  0  0  0  0  0  0  0  0
  150.8848  144.4834  157.2413 H   0  0  0  0  0  0  0  0  0  0  0  0
  152.3742  143.6804  156.8351 H   0  0  0  0  0  0  0  0  0  0  0  0
  150.2667  142.4291  158.6985 H   0  0  0  0  0  0  0  0  0  0  0  0
  150.2390  142.2337  156.9648 H   0  0  0  0  0  0  0  0  0  0  0  0
  151.7547  140.6153  157.1249 H   0  0  0  0  0  0  0  0  0  0  0  0
  1  2  1  0  0  0  0
  1 19  1  0  0  0  0
  1 20  1  0  0  0  0
  1 21  1  0  0  0  0
  2 18  1  0  0  0  0
  2  3  2  0  0  0  0
  3  4  1  0  0  0  0
  3 22  1  0  0  0  0
  4  5  1  0  0  0  0
  4 17  2  0  0  0  0
  5  6  1  0  0  0  0
  5 23  1  0  0  0  0
  6  7  2  0  0  0  0
  6  8  1  0  0  0  0
  8  9  1  0  0  0  0
  8 24  1  0  0  0  0
  9 15  1  0  0  0  0
  9 10  1  0  0  0  0
  9 25  1  0  0  0  0
 10 11  1  0  0  0  0
 10 26  1  0  0  0  0
 10 27  1  0  0  0  0
 11 12  1  0  0  0  0
 11 28  1  0  0  0  0
 11 29  1  0  0  0  0
 12 13  1  0  0  0  0
 12 30  1  0  0  0  0
 12 31  1  0  0  0  0
 13 14  1  0  0  0  0
 13 32  1  0  0  0  0
 13 33  1  0  0  0  0
 14 15  1  0  0  0  0
 14 34  1  0  0  0  0
 15 16  2  0  0  0  0
 17 18  1  0  0  0  0
M  END
> <s_m_source_file>
AV-unprocessed.smi

> <i_m_source_file_index>
2022

> <i_lp_mmshare_version>
43012

> <i_f3d_flags>
0

> <s_epik_input>
W0NIM11jMVtjSF1jKG5vMSlbTkhdQyg9TylbTkhdW0NAQEhdMltDSDJdW0NIMl1bQ0gyXVtDSDJdW05IXUMyPU8=

> <s_epik_cmdline>
J2VwaWtfcHl0aG9uJywgJy1waCcsICc3LjAnLCAnLXRuJywgJzgnLCAnLW1hJywgJzIwMCcsICctbWV0YWxfYmluZGluZycsICctaW1hZScsICc8aW5maWxlLm1hZT4nLCAnLW9tYWUnLCAnPG91dGZpbGUubWFlPic=

> <r_lp_tautomer_probability>
1

> <r_epik_Ionization_Penalty>
2.27343e-05

> <r_epik_Ionization_Penalty_Charging>
0

> <r_epik_Ionization_Penalty_Neutral>
2.27343e-05

> <r_epik_State_Penalty>
-0

> <r_epik_Charging_Adjusted_Penalty>
0

> <i_epik_Tot_Q>
0

> <i_epik_Tot_abs_Q>
0

> <r_epik_Metal_State_Penalty>
-0

> <b_epik_Metal_Only>
0

> <s_lp_Force_Field>
OPLS_2005

> <r_lp_Energy>
7.86792

> <b_lp_Chiralities_Consistent>
1

> <s_lp_Variant>
AV-unprocessed.smi:2022-2

> <Gold.Version>
5.8.1

> <Gold.Id.Protein>
6NUR|6NUR_protein|mol2

> <Gold.PLP.Fitness>
38.3303

> <Gold.PLP.PLP>
-36.5199

> <Gold.PLP.part.hbond>
-2.0000

> <Gold.PLP.part.metal>
0.0000

> <Gold.PLP.part.buried>
-2.1288

> <Gold.PLP.part.nonpolar>
-28.9360

> <Gold.PLP.part.repulsive>
0.1890

> <Gold.PLP.ligand.clash>
0.0000

> <Gold.PLP.ligand.torsion>
0.2606

> <Gold.PLP.Chemscore.Hbond>
0.7680

> <Gold.PLP.Chemscore.CHOScore>
0.0000

> <Gold.PLP.Chemscore.Metal>
0.0000

> <Gold.Chemscore.Hbonds>
donor molecule, donor type, donor heavy atom, donor atom, acceptor molecule, acceptor atom, score
      P1  H  7997  8008       L1    16  0.75

> <Gold.PLP.Chemscore.Internal.Correction>
0.0275

> <Gold.Rescore>
     Score         DG    S(hbond)    S(metal)    S(lipo)     H(rot)  DE(clash)    DE(int)     intcor
     12.07     -14.44       0.89        0.00      73.07       1.00       0.76       1.61       ----

> <Gold.Chemscore.Fitness>
12.0730

> <Gold.Chemscore.DG>
-14.4423

> <Gold.Chemscore.ZeroCoef>
-5.4800

> <Gold.Chemscore.Hbond>
0.8901

> <Gold.Chemscore.Metal>
0.0000

> <Gold.Chemscore.Lipo>
73.0710

> <Gold.Chemscore.Internal_Hbond>
0.0000

> <Gold.Chemscore.DEClash>
0.7642

> <Gold.Chemscore.DEInternal>
1.6051

> <Gold.Chemscore.Rot>
1.0000

> <Gold.Chemscore.Internal.Correction>
   9.000000E+99

> <Gold.Chemscore.Hbonds>
donor molecule, donor type, donor heavy atom, donor atom, acceptor molecule, acceptor atom, score
      P1  H  7997  8008       L1    16  0.70

> <Gold.Chemscore.Hbond.Weighted>
-2.9730

> <Gold.Chemscore.Metal.Weighted>
-0.0000

> <Gold.Chemscore.Lipo.Weighted>
-8.5493

> <Gold.Chemscore.Internal_Hbond.Weighted>
0.0000

> <Gold.Chemscore.DEClash.Weighted>
0.7642

> <Gold.Chemscore.DEInternal.Weighted>
1.6051

> <Gold.Chemscore.Rot.Weighted>
2.5600

> <Gold.Chemscore.Internal.Correction.Weighted>
   9.000000E+99

> <Gold.Protein.RotatedTorsions>
[ 6907 6896 6895 6894 ] final  -33.21 input  -60.11 | X-H torsion
[ 7974 7965 7964 7962 ] final -103.26 input  175.53 | X-H torsion
[ 8008 7997 7996 7995 ] final -116.23 input   59.86 | X-H torsion
[ 10167 10162 10161 10158 ] final   18.44 input  -65.29 | X-H torsion
[ 10718 10713 10712 10709 ] final  173.25 input   66.30 | X-H torsion
[ 10763 10752 10751 10750 ] final   95.01 input  -60.55 | X-H torsion
[ 11005 11000 10999 10996 ] final  -87.23 input  -57.11 | X-H torsion

> <Gold.Protein.ActiveResidues>
 VAL166  LYS551  ARG553  GLY616  TRP617  ASP618  TYR619  PRO620  LYS621  CYS622 
 ASP623  PHE694  ASN695  SER759  ASP760  ASP761  ALA762  ILE779  LEU786  VAL792 
 PHE793  MET794  SER795  GLU796  ALA797  LYS798  CYS799  TRP800  GLU811  SER814 

> <Gold.Protein.RotatedAtoms>
  151.0685  134.9783  159.8296 H   0  0  0  0  0  0  0  0  0  0  0  0  # atno 6907 bound_to 6896
  152.5405  134.2328  159.8842 H   0  0  0  0  0  0  0  0  0  0  0  0  # atno 6908 bound_to 6896
  151.2352  133.4386  159.2639 H   0  0  0  0  0  0  0  0  0  0  0  0  # atno 6909 bound_to 6896
  145.2581  140.9260  143.3056 H   0  0  0  0  0  0  0  0  0  0  0  0  # atno 7974 bound_to 7965
  155.0645  140.0393  157.2588 H   0  0  0  0  0  0  0  0  0  0  0  0  # atno 8008 bound_to 7997
  154.7033  140.2677  155.6674 H   0  0  0  0  0  0  0  0  0  0  0  0  # atno 8009 bound_to 7997
  156.2767  140.2736  156.1650 H   0  0  0  0  0  0  0  0  0  0  0  0  # atno 8010 bound_to 7997
  140.5653  143.9263  150.6672 H   0  0  0  0  0  0  0  0  0  0  0  0  # atno 10167 bound_to 10162
  156.9670  131.0078  151.2914 H   0  0  0  0  0  0  0  0  0  0  0  0  # atno 10718 bound_to 10713
  153.2482  135.4269  155.0770 H   0  0  0  0  0  0  0  0  0  0  0  0  # atno 10763 bound_to 10752
  154.8370  135.3419  154.6551 H   0  0  0  0  0  0  0  0  0  0  0  0  # atno 10764 bound_to 10752
  153.6973  135.7030  153.5130 H   0  0  0  0  0  0  0  0  0  0  0  0  # atno 10765 bound_to 10752
  141.1620  133.7499  156.9276 H   0  0  0  0  0  0  0  0  0  0  0  0  # atno 11005 bound_to 11000
  144.9442  139.4154  143.6434 LP  0  0  0  0  0  0  0  0  0  0  0  0  # atno 17320 bound_to 7965
  146.3283  139.8418  142.8889 LP  0  0  0  0  0  0  0  0  0  0  0  0  # atno 17321 bound_to 7965
  140.2724  143.3447  152.1226 LP  0  0  0  0  0  0  0  0  0  0  0  0  # atno 17342 bound_to 10162
  139.5090  144.6859  151.5888 LP  0  0  0  0  0  0  0  0  0  0  0  0  # atno 17343 bound_to 10162
  157.5619  130.8251  149.8276 LP  0  0  0  0  0  0  0  0  0  0  0  0  # atno 17370 bound_to 10713
  156.0298  130.3768  150.1719 LP  0  0  0  0  0  0  0  0  0  0  0  0  # atno 17371 bound_to 10713
  140.1408  134.9294  157.2464 LP  0  0  0  0  0  0  0  0  0  0  0  0  # atno 17394 bound_to 11000
  140.2839  134.3319  155.7335 LP  0  0  0  0  0  0  0  0  0  0  0  0  # atno 17395 bound_to 11000

$$$$
