AV-unprocessed.smi:2824|AV-procd|sdf|10887|dock10
  -GOLD-   2272015333D 1   1.00000     0.00000
 Structure written by MMmdl.
 38 39  0  0  0  0  0  0  0  0  1 V2000
  152.8720  138.5911  154.4862 C   0  0  0  0  0  0  0  0  0  0  0  0
  151.4482  138.0849  154.6245 C   0  0  0  0  0  0  0  0  0  0  0  0
  151.2042  136.6961  154.6717 C   0  0  0  0  0  0  0  0  0  0  0  0
  149.8904  136.2108  154.8007 C   0  0  0  0  0  0  0  0  0  0  0  0
  148.8162  137.1144  154.8842 C   0  0  0  0  0  0  0  0  0  0  0  0
  149.0542  138.5014  154.8380 C   0  0  0  0  0  0  0  0  0  0  0  0
  150.3747  139.0028  154.7071 C   0  0  0  0  0  0  0  0  0  0  0  0
  150.6825  140.3469  154.6564 O   0  0  0  0  0  0  0  0  0  0  0  0
  149.7671  141.2758  155.2215 C   0  0  0  0  0  0  0  0  0  0  0  0
  150.2680  141.6764  156.6193 C   0  0  1  0  0  0  0  0  0  0  0  0
  149.1829  141.5234  157.5142 O   0  0  0  0  0  0  0  0  0  0  0  0
  151.4149  140.7611  157.1022 C   0  0  0  0  0  0  0  0  0  0  0  0
  152.0805  141.2939  158.2972 N   0  0  0  0  0  0  0  0  0  0  0  0
  151.5730  142.5067  158.7295 N   0  0  0  0  0  0  0  0  0  0  0  0
  152.0636  143.1116  159.7630 C   0  0  0  0  0  0  0  0  0  0  0  0
  151.4486  144.4337  160.1507 C   0  0  0  0  0  0  0  0  0  0  0  0
  151.9650  144.8873  161.2930 F   0  0  0  0  0  0  0  0  0  0  0  0
  151.6704  145.3386  159.1968 F   0  0  0  0  0  0  0  0  0  0  0  0
  150.1311  144.2981  160.3057 F   0  0  0  0  0  0  0  0  0  0  0  0
  153.1645  142.4953  160.4849 C   0  0  0  0  0  0  0  0  0  0  0  0
  153.6568  141.3112  160.0621 C   0  0  0  0  0  0  0  0  0  0  0  0
  153.1124  140.6267  158.8920 C   0  0  0  0  0  0  0  0  0  0  0  0
  153.5443  139.5516  158.4770 O   0  0  0  0  0  0  0  0  0  0  0  0
  153.5810  137.7688  154.3876 H   0  0  0  0  0  0  0  0  0  0  0  0
  153.1512  139.1772  155.3621 H   0  0  0  0  0  0  0  0  0  0  0  0
  152.9655  139.2255  153.6044 H   0  0  0  0  0  0  0  0  0  0  0  0
  152.0245  135.9962  154.6093 H   0  0  0  0  0  0  0  0  0  0  0  0
  149.7074  135.1470  154.8365 H   0  0  0  0  0  0  0  0  0  0  0  0
  147.8066  136.7440  154.9847 H   0  0  0  0  0  0  0  0  0  0  0  0
  148.2029  139.1609  154.9066 H   0  0  0  0  0  0  0  0  0  0  0  0
  149.6386  142.1551  154.5873 H   0  0  0  0  0  0  0  0  0  0  0  0
  148.7972  140.7837  155.3110 H   0  0  0  0  0  0  0  0  0  0  0  0
  150.5929  142.7175  156.6034 H   0  0  0  0  0  0  0  0  0  0  0  0
  149.5252  141.3127  158.3694 H   0  0  0  0  0  0  0  0  0  0  0  0
  151.0482  139.7478  157.2786 H   0  0  0  0  0  0  0  0  0  0  0  0
  152.1606  140.6527  156.3125 H   0  0  0  0  0  0  0  0  0  0  0  0
  153.5833  142.9837  161.3521 H   0  0  0  0  0  0  0  0  0  0  0  0
  154.4748  140.8568  160.6016 H   0  0  0  0  0  0  0  0  0  0  0  0
  1  2  1  0  0  0  0
  1 24  1  0  0  0  0
  1 25  1  0  0  0  0
  1 26  1  0  0  0  0
  2  7  1  0  0  0  0
  2  3  2  0  0  0  0
  3  4  1  0  0  0  0
  3 27  1  0  0  0  0
  4  5  2  0  0  0  0
  4 28  1  0  0  0  0
  5  6  1  0  0  0  0
  5 29  1  0  0  0  0
  6  7  2  0  0  0  0
  6 30  1  0  0  0  0
  7  8  1  0  0  0  0
  8  9  1  0  0  0  0
  9 10  1  0  0  0  0
  9 31  1  0  0  0  0
  9 32  1  0  0  0  0
 10 11  1  0  0  0  0
 10 12  1  0  0  0  0
 10 33  1  0  0  0  0
 11 34  1  0  0  0  0
 12 13  1  0  0  0  0
 12 35  1  0  0  0  0
 12 36  1  0  0  0  0
 13 22  1  0  0  0  0
 13 14  1  0  0  0  0
 14 15  2  0  0  0  0
 15 16  1  0  0  0  0
 15 20  1  0  0  0  0
 16 17  1  0  0  0  0
 16 18  1  0  0  0  0
 16 19  1  0  0  0  0
 20 21  2  0  0  0  0
 20 37  1  0  0  0  0
 21 22  1  0  0  0  0
 21 38  1  0  0  0  0
 22 23  2  0  0  0  0
M  END
> <s_m_source_file>
AV-unprocessed.smi

> <i_m_source_file_index>
2824

> <i_lp_mmshare_version>
43012

> <i_f3d_flags>
0

> <s_epik_input>
W0NIM11jMVtjSF1bY0hdW2NIXVtjSF1jMU9bQ0gyXVtDQEhdKFtPSF0pW0NIMl1uMm5jKEMoRikoRilGKVtjSF1bY0hdYzI9Tw==

> <s_epik_cmdline>
J2VwaWtfcHl0aG9uJywgJy1waCcsICc3LjAnLCAnLXRuJywgJzgnLCAnLW1hJywgJzIwMCcsICctbWV0YWxfYmluZGluZycsICctaW1hZScsICc8aW5maWxlLm1hZT4nLCAnLW9tYWUnLCAnPG91dGZpbGUubWFlPic=

> <r_lp_tautomer_probability>
1

> <r_epik_Ionization_Penalty>
1.2156e-07

> <r_epik_Ionization_Penalty_Charging>
4.38548e-09

> <r_epik_Ionization_Penalty_Neutral>
1.17174e-07

> <r_epik_State_Penalty>
-0

> <r_epik_Charging_Adjusted_Penalty>
4.38548e-09

> <i_epik_Tot_Q>
0

> <i_epik_Tot_abs_Q>
0

> <r_epik_Metal_State_Penalty>
-0

> <b_epik_Metal_Only>
0

> <s_lp_Force_Field>
OPLS_2005

> <r_lp_Energy>
34.0789

> <b_lp_Chiralities_Consistent>
1

> <s_lp_Variant>
AV-unprocessed.smi:2824-2

> <Gold.Version>
5.8.1

> <Gold.Id.Protein>
6NUR|6NUR_protein|mol2

> <Gold.PLP.Fitness>
51.9385

> <Gold.PLP.PLP>
-48.8627

> <Gold.PLP.part.hbond>
-2.0000

> <Gold.PLP.part.metal>
0.0000

> <Gold.PLP.part.buried>
-3.9005

> <Gold.PLP.part.nonpolar>
-43.1860

> <Gold.PLP.part.repulsive>
0.1016

> <Gold.PLP.ligand.clash>
0.0000

> <Gold.PLP.ligand.torsion>
1.4795

> <Gold.PLP.Chemscore.Hbond>
2.0000

> <Gold.PLP.Chemscore.CHOScore>
0.0000

> <Gold.PLP.Chemscore.Metal>
0.0000

> <Gold.Chemscore.Hbonds>
donor molecule, donor type, donor heavy atom, donor atom, acceptor molecule, acceptor atom, score
      P1  H  7989  7998       L1     8  1.00
      P1  H  7997  8010       L1    23  1.00

> <Gold.PLP.Chemscore.Internal.Correction>
0.0348

> <Gold.Rescore>
     Score         DG    S(hbond)    S(metal)    S(lipo)     H(rot)  DE(clash)    DE(int)     intcor
     12.26     -16.48       1.64        0.00     104.00       2.60       1.44       2.78       ----

> <Gold.Chemscore.Fitness>
12.2636

> <Gold.Chemscore.DG>
-16.4776

> <Gold.Chemscore.ZeroCoef>
-5.4800

> <Gold.Chemscore.Hbond>
1.6406

> <Gold.Chemscore.Metal>
0.0000

> <Gold.Chemscore.Lipo>
104.0042

> <Gold.Chemscore.Internal_Hbond>
0.0000

> <Gold.Chemscore.DEClash>
1.4368

> <Gold.Chemscore.DEInternal>
2.7773

> <Gold.Chemscore.Rot>
2.5978

> <Gold.Chemscore.Internal.Correction>
   9.000000E+99

> <Gold.Chemscore.Hbonds>
donor molecule, donor type, donor heavy atom, donor atom, acceptor molecule, acceptor atom, score
      P1  H  7989  7998       L1     8  0.89
      P1  H  7997  8010       L1    23  0.45

> <Gold.Chemscore.Hbond.Weighted>
-5.4795

> <Gold.Chemscore.Metal.Weighted>
-0.0000

> <Gold.Chemscore.Lipo.Weighted>
-12.1685

> <Gold.Chemscore.Internal_Hbond.Weighted>
0.0000

> <Gold.Chemscore.DEClash.Weighted>
1.4368

> <Gold.Chemscore.DEInternal.Weighted>
2.7773

> <Gold.Chemscore.Rot.Weighted>
6.6504

> <Gold.Chemscore.Internal.Correction.Weighted>
   9.000000E+99

> <Gold.Protein.RotatedTorsions>
[ 6907 6896 6895 6894 ] final  -56.11 input  -60.11 | X-H torsion
[ 7974 7965 7964 7962 ] final  -99.11 input  175.53 | X-H torsion
[ 8008 7997 7996 7995 ] final   26.09 input   59.86 | X-H torsion
[ 10167 10162 10161 10158 ] final -128.60 input  -65.29 | X-H torsion
[ 10718 10713 10712 10709 ] final  -72.78 input   66.30 | X-H torsion
[ 10763 10752 10751 10750 ] final  139.99 input  -60.55 | X-H torsion
[ 11005 11000 10999 10996 ] final -106.05 input  -57.11 | X-H torsion

> <Gold.Protein.ActiveResidues>
 VAL166  LYS551  ARG553  GLY616  TRP617  ASP618  TYR619  PRO620  LYS621  CYS622 
 ASP623  PHE694  ASN695  SER759  ASP760  ASP761  ALA762  ILE779  LEU786  VAL792 
 PHE793  MET794  SER795  GLU796  ALA797  LYS798  CYS799  TRP800  GLU811  SER814 

> <Gold.Protein.RotatedAtoms>
  150.8194  134.7394  159.6758 H   0  0  0  0  0  0  0  0  0  0  0  0  # atno 6907 bound_to 6896
  152.4311  134.5772  159.9947 H   0  0  0  0  0  0  0  0  0  0  0  0  # atno 6908 bound_to 6896
  151.5960  133.3324  159.3073 H   0  0  0  0  0  0  0  0  0  0  0  0  # atno 6909 bound_to 6896
  145.3119  140.9402  143.2765 H   0  0  0  0  0  0  0  0  0  0  0  0  # atno 7974 bound_to 7965
  155.0219  140.3148  155.4790 H   0  0  0  0  0  0  0  0  0  0  0  0  # atno 8008 bound_to 7997
  156.2890  140.2196  156.5279 H   0  0  0  0  0  0  0  0  0  0  0  0  # atno 8009 bound_to 7997
  154.7445  140.0471  157.0828 H   0  0  0  0  0  0  0  0  0  0  0  0  # atno 8010 bound_to 7997
  139.9486  143.6082  152.2482 H   0  0  0  0  0  0  0  0  0  0  0  0  # atno 10167 bound_to 10162
  156.0306  130.4379  150.2644 H   0  0  0  0  0  0  0  0  0  0  0  0  # atno 10718 bound_to 10713
  153.9152  135.3006  155.3448 H   0  0  0  0  0  0  0  0  0  0  0  0  # atno 10763 bound_to 10752
  154.7603  135.4937  153.9455 H   0  0  0  0  0  0  0  0  0  0  0  0  # atno 10764 bound_to 10752
  153.1171  135.6773  153.9501 H   0  0  0  0  0  0  0  0  0  0  0  0  # atno 10765 bound_to 10752
  141.1023  133.8860  157.1809 H   0  0  0  0  0  0  0  0  0  0  0  0  # atno 11005 bound_to 11000
  144.9009  139.4651  143.6633 LP  0  0  0  0  0  0  0  0  0  0  0  0  # atno 17320 bound_to 7965
  146.3115  139.7763  142.9016 LP  0  0  0  0  0  0  0  0  0  0  0  0  # atno 17321 bound_to 7965
  139.6647  144.7662  151.1896 LP  0  0  0  0  0  0  0  0  0  0  0  0  # atno 17342 bound_to 10162
  140.7590  143.5956  150.8751 LP  0  0  0  0  0  0  0  0  0  0  0  0  # atno 17343 bound_to 10162
  157.0746  131.0126  151.3178 LP  0  0  0  0  0  0  0  0  0  0  0  0  # atno 17370 bound_to 10713
  157.4973  130.7858  149.7569 LP  0  0  0  0  0  0  0  0  0  0  0  0  # atno 17371 bound_to 10713
  139.9880  135.0075  156.9908 LP  0  0  0  0  0  0  0  0  0  0  0  0  # atno 17394 bound_to 11000
  140.4990  134.1117  155.7247 LP  0  0  0  0  0  0  0  0  0  0  0  0  # atno 17395 bound_to 11000

$$$$
