AV-unprocessed.smi:187|AV-procd|sdf|1470|dock4
  -GOLD-   2262019283D 1   1.00000     0.00000
 Structure written by MMmdl.
 53 56  0  0  0  0  0  0  0  0  1 V2000
  149.8980  138.3086  154.4088 C   0  0  0  0  0  0  0  0  0  0  0  0
  148.8279  139.3935  154.1646 C   0  0  2  0  0  0  0  0  0  0  0  0
  149.3894  140.7743  154.5632 C   0  0  0  0  0  0  0  0  0  0  0  0
  148.3418  141.8891  154.3999 C   0  0  0  0  0  0  0  0  0  0  0  0
  147.0210  141.5619  155.1284 C   0  0  2  0  0  0  0  0  0  0  0  0
  147.1299  141.7256  156.6568 C   0  0  0  0  0  0  0  0  0  0  0  0
  147.9082  142.7148  157.1040 N   0  0  0  0  0  0  0  0  0  0  0  0
  146.5196  140.9861  157.4268 O   0  0  0  0  0  0  0  0  0  0  0  0
  146.5366  140.1553  154.7156 C   0  0  0  0  0  0  0  0  0  0  0  0
  147.5720  139.1332  154.8829 N   0  0  0  0  0  0  0  0  0  0  0  0
  147.0692  137.8876  154.7316 C   0  0  0  0  0  0  0  0  0  0  0  0
  147.1174  137.0046  155.7636 N   0  0  0  0  0  0  0  0  0  0  0  0
  146.6042  135.7800  155.6126 C   0  0  0  0  0  0  0  0  0  0  0  0
  146.0089  135.2504  154.5416 N   0  0  0  0  0  0  0  0  0  0  0  0
  145.9588  136.1381  153.5058 C   0  0  0  0  0  0  0  0  0  0  0  0
  146.4661  137.4669  153.5184 C   0  0  0  0  0  0  0  0  0  0  0  0
  146.2400  138.0793  152.2934 N   0  0  0  0  0  0  0  0  0  0  0  0
  145.6293  137.1630  151.5928 C   0  0  0  0  0  0  0  0  0  0  0  0
  145.4169  135.9658  152.2414 N   0  0  0  0  0  0  0  0  0  0  0  0
  144.7665  134.8056  151.6993 C   0  0  0  0  0  0  0  0  0  0  0  0
  144.7806  133.4665  152.4414 C   0  0  0  0  0  0  0  0  0  0  0  0
  144.8148  132.7260  151.0834 C   0  0  0  0  0  0  0  0  0  0  0  0
  145.7487  131.5047  150.9708 C   0  0  0  0  0  0  0  0  0  0  0  0
  147.0355  131.7558  151.5000 O   0  0  0  0  0  0  0  0  0  0  0  0
  143.4411  132.3033  150.5302 C   0  0  0  0  0  0  0  0  0  0  0  0
  143.5095  131.9769  149.1567 O   0  0  0  0  0  0  0  0  0  0  0  0
  145.3465  134.0554  150.4972 C   0  0  0  0  0  0  0  0  0  0  0  0
  150.8335  138.5640  153.9107 H   0  0  0  0  0  0  0  0  0  0  0  0
  149.5900  137.3359  154.0240 H   0  0  0  0  0  0  0  0  0  0  0  0
  150.1095  138.1953  155.4727 H   0  0  0  0  0  0  0  0  0  0  0  0
  148.6011  139.4153  153.0975 H   0  0  0  0  0  0  0  0  0  0  0  0
  149.7407  140.7460  155.5951 H   0  0  0  0  0  0  0  0  0  0  0  0
  150.2644  141.0087  153.9561 H   0  0  0  0  0  0  0  0  0  0  0  0
  148.7495  142.8371  154.7535 H   0  0  0  0  0  0  0  0  0  0  0  0
  148.1354  142.0281  153.3380 H   0  0  0  0  0  0  0  0  0  0  0  0
  146.2694  142.2748  154.7855 H   0  0  0  0  0  0  0  0  0  0  0  0
  148.0132  142.8654  158.0967 H   0  0  0  0  0  0  0  0  0  0  0  0
  148.3891  143.3097  156.4449 H   0  0  0  0  0  0  0  0  0  0  0  0
  145.6559  139.8830  155.3002 H   0  0  0  0  0  0  0  0  0  0  0  0
  146.2201  140.1771  153.6715 H   0  0  0  0  0  0  0  0  0  0  0  0
  146.6784  135.1320  156.4734 H   0  0  0  0  0  0  0  0  0  0  0  0
  145.3137  137.3403  150.5749 H   0  0  0  0  0  0  0  0  0  0  0  0
  143.7361  135.0986  151.4892 H   0  0  0  0  0  0  0  0  0  0  0  0
  145.6814  133.3222  153.0387 H   0  0  0  0  0  0  0  0  0  0  0  0
  143.8903  133.2822  153.0433 H   0  0  0  0  0  0  0  0  0  0  0  0
  145.3383  130.6458  151.5024 H   0  0  0  0  0  0  0  0  0  0  0  0
  145.8687  131.2027  149.9299 H   0  0  0  0  0  0  0  0  0  0  0  0
  147.6551  131.1888  151.0673 H   0  0  0  0  0  0  0  0  0  0  0  0
  143.0533  131.4327  151.0597 H   0  0  0  0  0  0  0  0  0  0  0  0
  142.7036  133.0955  150.6653 H   0  0  0  0  0  0  0  0  0  0  0  0
  144.1559  132.5320  148.7475 H   0  0  0  0  0  0  0  0  0  0  0  0
  144.9076  134.3396  149.5404 H   0  0  0  0  0  0  0  0  0  0  0  0
  146.4343  134.1135  150.4496 H   0  0  0  0  0  0  0  0  0  0  0  0
  1  2  1  0  0  0  0
  1 28  1  0  0  0  0
  1 29  1  0  0  0  0
  1 30  1  0  0  0  0
  2 10  1  0  0  0  0
  2  3  1  0  0  0  0
  2 31  1  0  0  0  0
  3  4  1  0  0  0  0
  3 32  1  0  0  0  0
  3 33  1  0  0  0  0
  4  5  1  0  0  0  0
  4 34  1  0  0  0  0
  4 35  1  0  0  0  0
  5  6  1  0  0  0  0
  5  9  1  0  0  0  0
  5 36  1  0  0  0  0
  6  7  1  0  0  0  0
  6  8  2  0  0  0  0
  7 37  1  0  0  0  0
  7 38  1  0  0  0  0
  9 10  1  0  0  0  0
  9 39  1  0  0  0  0
  9 40  1  0  0  0  0
 10 11  1  0  0  0  0
 11 16  1  0  0  0  0
 11 12  2  0  0  0  0
 12 13  1  0  0  0  0
 13 14  2  0  0  0  0
 13 41  1  0  0  0  0
 14 15  1  0  0  0  0
 15 19  1  0  0  0  0
 15 16  2  0  0  0  0
 16 17  1  0  0  0  0
 17 18  2  0  0  0  0
 18 19  1  0  0  0  0
 18 42  1  0  0  0  0
 19 20  1  0  0  0  0
 20 27  1  0  0  0  0
 20 21  1  0  0  0  0
 20 43  1  0  0  0  0
 21 22  1  0  0  0  0
 21 44  1  0  0  0  0
 21 45  1  0  0  0  0
 22 23  1  0  0  0  0
 22 25  1  0  0  0  0
 22 27  1  0  0  0  0
 23 24  1  0  0  0  0
 23 46  1  0  0  0  0
 23 47  1  0  0  0  0
 24 48  1  0  0  0  0
 25 26  1  0  0  0  0
 25 49  1  0  0  0  0
 25 50  1  0  0  0  0
 26 51  1  0  0  0  0
 27 52  1  0  0  0  0
 27 53  1  0  0  0  0
M  END
> <s_m_source_file>
AV-unprocessed.smi

> <i_m_source_file_index>
187

> <i_lp_mmshare_version>
43012

> <i_f3d_flags>
0

> <s_epik_input>
W0NIM11bQ0BASF0xW0NIMl1bQ0gyXVtDQEBIXShDKD1PKVtOSDJdKVtDSDJdTjFjKG5bY0hdbjIpYyhjMjMpbltjSF1uM1tDSF0oW0NIMl00KVtDSDJdQzQoW0NIMl1bT0hdKVtDSDJdW09IXQ==

> <s_epik_cmdline>
J2VwaWtfcHl0aG9uJywgJy1waCcsICc3LjAnLCAnLXRuJywgJzgnLCAnLW1hJywgJzIwMCcsICctbWV0YWxfYmluZGluZycsICctaW1hZScsICc8aW5maWxlLm1hZT4nLCAnLW9tYWUnLCAnPG91dGZpbGUubWFlPic=

> <r_lp_tautomer_probability>
1

> <r_epik_Ionization_Penalty>
0.0017711

> <r_epik_Ionization_Penalty_Charging>
0

> <r_epik_Ionization_Penalty_Neutral>
0.0017711

> <r_epik_State_Penalty>
0.00107211

> <r_epik_Charging_Adjusted_Penalty>
0.00107211

> <i_epik_Tot_Q>
0

> <i_epik_Tot_abs_Q>
0

> <r_epik_Metal_State_Penalty>
-0

> <b_epik_Metal_Only>
0

> <s_lp_Force_Field>
OPLS_2005

> <r_lp_Energy>
40.7321

> <b_lp_Chiralities_Consistent>
1

> <s_lp_Variant>
AV-unprocessed.smi:187-3

> <Gold.Version>
5.8.1

> <Gold.Id.Protein>
6NUR|6NUR_protein|mol2

> <Gold.PLP.Fitness>
44.7614

> <Gold.PLP.PLP>
-34.3246

> <Gold.PLP.part.hbond>
-3.6703

> <Gold.PLP.part.metal>
0.0000

> <Gold.PLP.part.buried>
-0.0791

> <Gold.PLP.part.nonpolar>
-30.4397

> <Gold.PLP.part.repulsive>
0.4793

> <Gold.PLP.ligand.clash>
0.0000

> <Gold.PLP.ligand.torsion>
1.0091

> <Gold.PLP.Chemscore.Hbond>
2.9440

> <Gold.PLP.Chemscore.CHOScore>
1.0000

> <Gold.PLP.Chemscore.Metal>
0.0000

> <Gold.Chemscore.Hbonds>
donor molecule, donor type, donor heavy atom, donor atom, acceptor molecule, acceptor atom, score
      L1  H     7    38       P1  8028  1.00
      L1  H    24    48       P1 10747  1.00
      P1  H 10785 10796       L1    26  0.94
      L1  C    18    42       P1 10171  1.00

> <Gold.PLP.Chemscore.Internal.Correction>
0.6230

> <Gold.Rescore>
     Score         DG    S(hbond)    S(metal)    S(lipo)     H(rot)  DE(clash)    DE(int)     intcor
     10.42     -13.42       2.68        0.00      78.67       3.99       0.88       2.12       ----

> <Gold.Chemscore.Fitness>
10.4193

> <Gold.Chemscore.DG>
-13.4173

> <Gold.Chemscore.ZeroCoef>
-5.4800

> <Gold.Chemscore.Hbond>
2.6789

> <Gold.Chemscore.Metal>
0.0000

> <Gold.Chemscore.Lipo>
78.6706

> <Gold.Chemscore.Internal_Hbond>
0.0000

> <Gold.Chemscore.DEClash>
0.8756

> <Gold.Chemscore.DEInternal>
2.1224

> <Gold.Chemscore.Rot>
3.9902

> <Gold.Chemscore.Internal.Correction>
   9.000000E+99

> <Gold.Chemscore.Hbonds>
donor molecule, donor type, donor heavy atom, donor atom, acceptor molecule, acceptor atom, score
      L1  H     7    38       P1  8028  0.55
      L1  H    24    48       P1 10747  0.95
      P1  H 10785 10796       L1    26  0.84

> <Gold.Chemscore.Hbond.Weighted>
-8.9477

> <Gold.Chemscore.Metal.Weighted>
-0.0000

> <Gold.Chemscore.Lipo.Weighted>
-9.2045

> <Gold.Chemscore.Internal_Hbond.Weighted>
0.0000

> <Gold.Chemscore.DEClash.Weighted>
0.8756

> <Gold.Chemscore.DEInternal.Weighted>
2.1224

> <Gold.Chemscore.Rot.Weighted>
10.2148

> <Gold.Chemscore.Internal.Correction.Weighted>
   9.000000E+99

> <Gold.Protein.RotatedTorsions>
[ 6907 6896 6895 6894 ] final  106.23 input  -60.11 | X-H torsion
[ 7974 7965 7964 7962 ] final   86.49 input  175.53 | X-H torsion
[ 8008 7997 7996 7995 ] final  -47.68 input   59.86 | X-H torsion
[ 10167 10162 10161 10158 ] final  141.04 input  -65.29 | X-H torsion
[ 10718 10713 10712 10709 ] final  168.08 input   66.30 | X-H torsion
[ 10763 10752 10751 10750 ] final   63.85 input  -60.55 | X-H torsion
[ 11005 11000 10999 10996 ] final   56.64 input  -57.11 | X-H torsion

> <Gold.Protein.ActiveResidues>
 VAL166  LYS551  ARG553  GLY616  TRP617  ASP618  TYR619  PRO620  LYS621  CYS622 
 ASP623  PHE694  ASN695  SER759  ASP760  ASP761  ALA762  ILE779  LEU786  VAL792 
 PHE793  MET794  SER795  GLU796  ALA797  LYS798  CYS799  TRP800  GLU811  SER814 

> <Gold.Protein.RotatedAtoms>
  152.5201  133.9412  159.7626 H   0  0  0  0  0  0  0  0  0  0  0  0  # atno 6907 bound_to 6896
  150.9742  133.6304  159.2740 H   0  0  0  0  0  0  0  0  0  0  0  0  # atno 6908 bound_to 6896
  151.3505  135.0889  159.9454 H   0  0  0  0  0  0  0  0  0  0  0  0  # atno 6909 bound_to 6896
  145.5715  139.2314  143.2403 H   0  0  0  0  0  0  0  0  0  0  0  0  # atno 7974 bound_to 7965
  154.4019  140.1340  156.4215 H   0  0  0  0  0  0  0  0  0  0  0  0  # atno 8008 bound_to 7997
  155.7638  140.3485  155.5191 H   0  0  0  0  0  0  0  0  0  0  0  0  # atno 8009 bound_to 7997
  155.8833  140.0991  157.1460 H   0  0  0  0  0  0  0  0  0  0  0  0  # atno 8010 bound_to 7997
  139.5032  144.6197  151.6081 H   0  0  0  0  0  0  0  0  0  0  0  0  # atno 10167 bound_to 10162
  157.0422  131.0290  151.2709 H   0  0  0  0  0  0  0  0  0  0  0  0  # atno 10718 bound_to 10713
  153.0033  135.5414  154.6417 H   0  0  0  0  0  0  0  0  0  0  0  0  # atno 10763 bound_to 10752
  154.5670  135.2838  155.0866 H   0  0  0  0  0  0  0  0  0  0  0  0  # atno 10764 bound_to 10752
  154.2046  135.6478  153.5150 H   0  0  0  0  0  0  0  0  0  0  0  0  # atno 10765 bound_to 10752
  140.0513  134.5732  155.9260 H   0  0  0  0  0  0  0  0  0  0  0  0  # atno 11005 bound_to 11000
  146.1781  140.6541  142.9202 LP  0  0  0  0  0  0  0  0  0  0  0  0  # atno 17320 bound_to 7965
  144.7435  140.5007  143.6852 LP  0  0  0  0  0  0  0  0  0  0  0  0  # atno 17321 bound_to 7965
  140.5895  143.9805  150.6316 LP  0  0  0  0  0  0  0  0  0  0  0  0  # atno 17342 bound_to 10162
  140.2980  143.3279  152.0999 LP  0  0  0  0  0  0  0  0  0  0  0  0  # atno 17343 bound_to 10162
  157.5095  130.7930  149.7690 LP  0  0  0  0  0  0  0  0  0  0  0  0  # atno 17370 bound_to 10713
  156.0034  130.3868  150.2519 LP  0  0  0  0  0  0  0  0  0  0  0  0  # atno 17371 bound_to 10713
  141.1932  133.6578  156.5535 LP  0  0  0  0  0  0  0  0  0  0  0  0  # atno 17394 bound_to 11000
  140.3912  134.7438  157.4723 LP  0  0  0  0  0  0  0  0  0  0  0  0  # atno 17395 bound_to 11000

$$$$
