AV-unprocessed.smi:1437|AV-procd|sdf|5865|dock2
  -GOLD-   22720 5543D 1   1.00000     0.00000
 Structure written by MMmdl.
 35 36  0  0  0  0  0  0  0  0  3 V2000
  151.5179  131.7832  157.6314 C   0  0  0  0  0  0  0  0  0  0  0  0
  150.6996  132.7353  156.8278 C   0  0  0  0  0  0  0  0  0  0  0  0
  150.1727  132.6710  155.5693 C   0  0  0  0  0  0  0  0  0  0  0  0
  149.5117  133.9217  155.4289 C   0  0  0  0  0  0  0  0  0  0  0  0
  148.8243  134.3327  154.3521 N   0  5  0  0  0  0  0  0  0  0  0  0
  147.8442  133.5578  153.8343 C   0  0  0  0  0  0  0  0  0  0  0  0
  147.3308  132.5720  154.3684 O   0  0  0  0  0  0  0  0  0  0  0  0
  147.4324  133.9510  152.6202 N   0  0  0  0  0  0  0  0  0  0  0  0
  146.3877  133.3160  151.8226 C   0  0  2  0  0  0  0  0  0  0  0  0
  146.9885  132.6294  150.5821 C   0  0  0  0  0  0  0  0  0  0  0  0
  145.8860  132.0460  149.6835 C   0  0  0  0  0  0  0  0  0  0  0  0
  144.9093  133.0919  149.2904 N   0  3  1  0  0  0  0  0  0  0  0  0
  143.9034  132.5906  148.3298 C   0  0  0  0  0  0  0  0  0  0  0  0
  144.2877  133.7448  150.4695 C   0  0  0  0  0  0  0  0  0  0  0  0
  145.3563  134.3675  151.3828 C   0  0  0  0  0  0  0  0  0  0  0  0
  149.6140  134.6719  156.5133 N   0  0  0  0  0  0  0  0  0  0  0  0
  150.3803  133.9211  157.4127 O   0  0  0  0  0  0  0  0  0  0  0  0
  150.9476  130.8826  157.8589 H   0  0  0  0  0  0  0  0  0  0  0  0
  151.8324  132.2314  158.5743 H   0  0  0  0  0  0  0  0  0  0  0  0
  152.4127  131.4879  157.0835 H   0  0  0  0  0  0  0  0  0  0  0  0
  150.2499  131.8610  154.8601 H   0  0  0  0  0  0  0  0  0  0  0  0
  147.8836  134.7620  152.2226 H   0  0  0  0  0  0  0  0  0  0  0  0
  145.8737  132.5693  152.4310 H   0  0  0  0  0  0  0  0  0  0  0  0
  147.5802  133.3470  150.0115 H   0  0  0  0  0  0  0  0  0  0  0  0
  147.6731  131.8359  150.8838 H   0  0  0  0  0  0  0  0  0  0  0  0
  146.3375  131.6128  148.7902 H   0  0  0  0  0  0  0  0  0  0  0  0
  145.3685  131.2376  150.2025 H   0  0  0  0  0  0  0  0  0  0  0  0
  143.2911  131.8067  148.7776 H   0  0  0  0  0  0  0  0  0  0  0  0
  144.3884  132.1817  147.4427 H   0  0  0  0  0  0  0  0  0  0  0  0
  143.2449  133.3973  148.0060 H   0  0  0  0  0  0  0  0  0  0  0  0
  143.5977  134.5209  150.1366 H   0  0  0  0  0  0  0  0  0  0  0  0
  143.6987  133.0133  151.0254 H   0  0  0  0  0  0  0  0  0  0  0  0
  144.8802  134.8132  152.2572 H   0  0  0  0  0  0  0  0  0  0  0  0
  145.8559  135.1809  150.8543 H   0  0  0  0  0  0  0  0  0  0  0  0
  145.4345  133.8082  148.8092 H   0  0  0  0  0  0  0  0  0  0  0  0
  1  2  1  0  0  0  0
  1 18  1  0  0  0  0
  1 19  1  0  0  0  0
  1 20  1  0  0  0  0
  2 17  1  0  0  0  0
  2  3  2  0  0  0  0
  3  4  1  0  0  0  0
  3 21  1  0  0  0  0
  4  5  1  0  0  0  0
  4 16  2  0  0  0  0
  5  6  1  0  0  0  0
  6  7  2  0  0  0  0
  6  8  1  0  0  0  0
  8  9  1  0  0  0  0
  8 22  1  0  0  0  0
  9 15  1  0  0  0  0
  9 10  1  0  0  0  0
  9 23  1  0  0  0  0
 10 11  1  0  0  0  0
 10 24  1  0  0  0  0
 10 25  1  0  0  0  0
 11 12  1  0  0  0  0
 11 26  1  0  0  0  0
 11 27  1  0  0  0  0
 12 13  1  0  0  0  0
 12 14  1  0  0  0  0
 12 35  1  0  0  0  0
 13 28  1  0  0  0  0
 13 29  1  0  0  0  0
 13 30  1  0  0  0  0
 14 15  1  0  0  0  0
 14 31  1  0  0  0  0
 14 32  1  0  0  0  0
 15 33  1  0  0  0  0
 15 34  1  0  0  0  0
 16 17  1  0  0  0  0
M  CHG  1   5  -1
M  CHG  1  12   1
M  END
> <s_m_source_file>
AV-unprocessed.smi

> <i_m_source_file_index>
1437

> <i_lp_mmshare_version>
43012

> <i_f3d_flags>
0

> <s_epik_input>
W0NIM11jMVtjSF1jKG5vMSlbTkhdQyg9TylbTkhdW0NIXTJbQ0gyXVtDSDJdTihbQ0gzXSlbQ0gyXVtDSDJdMg==

> <s_epik_cmdline>
J2VwaWtfcHl0aG9uJywgJy1waCcsICc3LjAnLCAnLXRuJywgJzgnLCAnLW1hJywgJzIwMCcsICctbWV0YWxfYmluZGluZycsICctaW1hZScsICc8aW5maWxlLm1hZT4nLCAnLW9tYWUnLCAnPG91dGZpbGUubWFlPic=

> <r_epik_Ionization_Penalty>
6.28535

> <r_epik_Ionization_Penalty_Charging>
6.28525

> <r_epik_Ionization_Penalty_Neutral>
9.66055e-05

> <r_epik_State_Penalty>
6.28414

> <r_epik_Charging_Adjusted_Penalty>
12.5694

> <i_epik_Tot_Q>
0

> <i_epik_Tot_abs_Q>
2

> <r_epik_Metal_State_Penalty>
2.21724

> <b_epik_Metal_Only>
1

> <s_lp_Force_Field>
OPLS_2005

> <r_lp_Energy>
2.83336

> <b_lp_Chiralities_Consistent>
1

> <s_lp_Variant>
AV-unprocessed.smi:1437-3

> <Gold.Version>
5.8.1

> <Gold.Id.Protein>
6NUR|6NUR_protein|mol2

> <Gold.PLP.Fitness>
36.1371

> <Gold.PLP.PLP>
-28.9267

> <Gold.PLP.part.hbond>
-3.0000

> <Gold.PLP.part.metal>
0.0000

> <Gold.PLP.part.buried>
-1.8343

> <Gold.PLP.part.nonpolar>
-24.7466

> <Gold.PLP.part.repulsive>
0.4318

> <Gold.PLP.ligand.clash>
0.0000

> <Gold.PLP.ligand.torsion>
0.5883

> <Gold.PLP.Chemscore.Hbond>
2.7930

> <Gold.PLP.Chemscore.CHOScore>
0.0000

> <Gold.PLP.Chemscore.Metal>
0.0000

> <Gold.Chemscore.Hbonds>
donor molecule, donor type, donor heavy atom, donor atom, acceptor molecule, acceptor atom, score
      L1  H     8    22       P1  7948  1.00
      L1  H    12    35       P1  7921  1.00
      P1  H  6896  6908       L1    17  0.67

> <Gold.PLP.Chemscore.Internal.Correction>
0.0081

> <Gold.Rescore>
     Score         DG    S(hbond)    S(metal)    S(lipo)     H(rot)  DE(clash)    DE(int)     intcor
     18.61     -19.55       2.66        0.00      66.30       1.00       0.24       0.70       ----

> <Gold.Chemscore.Fitness>
18.6052

> <Gold.Chemscore.DG>
-19.5482

> <Gold.Chemscore.ZeroCoef>
-5.4800

> <Gold.Chemscore.Hbond>
2.6559

> <Gold.Chemscore.Metal>
0.0000

> <Gold.Chemscore.Lipo>
66.3023

> <Gold.Chemscore.Internal_Hbond>
0.0000

> <Gold.Chemscore.DEClash>
0.2386

> <Gold.Chemscore.DEInternal>
0.7045

> <Gold.Chemscore.Rot>
1.0000

> <Gold.Chemscore.Internal.Correction>
   9.000000E+99

> <Gold.Chemscore.Hbonds>
donor molecule, donor type, donor heavy atom, donor atom, acceptor molecule, acceptor atom, score
      L1  H     8    22       P1  7948  0.60
      L1  H    12    35       P1  7921  0.65
      P1  H  6896  6908       L1    17  0.15

> <Gold.Chemscore.Hbond.Weighted>
-8.8709

> <Gold.Chemscore.Metal.Weighted>
-0.0000

> <Gold.Chemscore.Lipo.Weighted>
-7.7574

> <Gold.Chemscore.Internal_Hbond.Weighted>
0.0000

> <Gold.Chemscore.DEClash.Weighted>
0.2386

> <Gold.Chemscore.DEInternal.Weighted>
0.7045

> <Gold.Chemscore.Rot.Weighted>
2.5600

> <Gold.Chemscore.Internal.Correction.Weighted>
   9.000000E+99

> <Gold.Protein.RotatedTorsions>
[ 6907 6896 6895 6894 ] final   99.65 input  -60.11 | X-H torsion
[ 7974 7965 7964 7962 ] final  162.69 input  175.53 | X-H torsion
[ 8008 7997 7996 7995 ] final -128.91 input   59.86 | X-H torsion
[ 10167 10162 10161 10158 ] final  -39.89 input  -65.29 | X-H torsion
[ 10718 10713 10712 10709 ] final  -69.98 input   66.30 | X-H torsion
[ 10763 10752 10751 10750 ] final  -11.54 input  -60.55 | X-H torsion
[ 11005 11000 10999 10996 ] final -124.41 input  -57.11 | X-H torsion

> <Gold.Protein.ActiveResidues>
 VAL166  LYS551  ARG553  GLY616  TRP617  ASP618  TYR619  PRO620  LYS621  CYS622 
 ASP623  PHE694  ASN695  SER759  ASP760  ASP761  ALA762  ILE779  LEU786  VAL792 
 PHE793  MET794  SER795  GLU796  ALA797  LYS798  CYS799  TRP800  GLU811  SER814 

> <Gold.Protein.RotatedAtoms>
  152.5388  134.0396  159.8061 H   0  0  0  0  0  0  0  0  0  0  0  0  # atno 6907 bound_to 6896
  151.0554  133.5581  159.2646 H   0  0  0  0  0  0  0  0  0  0  0  0  # atno 6908 bound_to 6896
  151.2500  135.0626  159.9112 H   0  0  0  0  0  0  0  0  0  0  0  0  # atno 6909 bound_to 6896
  144.7625  139.8076  143.6327 H   0  0  0  0  0  0  0  0  0  0  0  0  # atno 7974 bound_to 7965
  155.2705  140.0440  157.3006 H   0  0  0  0  0  0  0  0  0  0  0  0  # atno 8008 bound_to 7997
  154.5656  140.2359  155.8237 H   0  0  0  0  0  0  0  0  0  0  0  0  # atno 8009 bound_to 7997
  156.2082  140.3006  155.9682 H   0  0  0  0  0  0  0  0  0  0  0  0  # atno 8010 bound_to 7997
  140.7051  143.3187  151.2846 H   0  0  0  0  0  0  0  0  0  0  0  0  # atno 10167 bound_to 10162
  156.0429  130.4322  150.2227 H   0  0  0  0  0  0  0  0  0  0  0  0  # atno 10718 bound_to 10713
  153.4853  135.7017  153.5915 H   0  0  0  0  0  0  0  0  0  0  0  0  # atno 10763 bound_to 10752
  153.4110  135.3848  155.2050 H   0  0  0  0  0  0  0  0  0  0  0  0  # atno 10764 bound_to 10752
  154.8719  135.3904  154.4307 H   0  0  0  0  0  0  0  0  0  0  0  0  # atno 10765 bound_to 10752
  140.9843  134.0629  157.3729 H   0  0  0  0  0  0  0  0  0  0  0  0  # atno 11005 bound_to 11000
  146.1701  139.4848  142.9933 LP  0  0  0  0  0  0  0  0  0  0  0  0  # atno 17320 bound_to 7965
  145.6575  141.0248  143.1727 LP  0  0  0  0  0  0  0  0  0  0  0  0  # atno 17321 bound_to 7965
  139.6634  144.0149  152.2707 LP  0  0  0  0  0  0  0  0  0  0  0  0  # atno 17342 bound_to 10162
  139.9724  144.6485  150.7977 LP  0  0  0  0  0  0  0  0  0  0  0  0  # atno 17343 bound_to 10162
  157.0320  131.0010  151.3309 LP  0  0  0  0  0  0  0  0  0  0  0  0  # atno 17370 bound_to 10713
  157.5270  130.8034  149.7874 LP  0  0  0  0  0  0  0  0  0  0  0  0  # atno 17371 bound_to 10713
  139.8964  135.0145  156.7048 LP  0  0  0  0  0  0  0  0  0  0  0  0  # atno 17394 bound_to 11000
  140.7138  133.9200  155.8102 LP  0  0  0  0  0  0  0  0  0  0  0  0  # atno 17395 bound_to 11000

$$$$
