#       Name:                AV-unprocessed.smi:241
#       Creating user name   scv26
#       Creation time:       Thu Mar 26 20:46:05 2020


#       File generated by GOLD software.
#

@<TRIPOS>MOLECULE
AV-unprocessed.smi:241
    66    69     1
SMALL
NO_CHARGES


@<TRIPOS>ATOM
      1 ****        -3.3943  -4.1903  -2.1274 C.3            1 S1                 0.0000
      2 ****        -3.4638  -2.7910  -1.9193 O.3            1 S1                 0.0000
      3 ****        -2.8327  -2.0554  -2.9559 C.3            1 S1                 0.0000
      4 ****        -2.9225  -0.5460  -2.6591 C.3            1 S1                 0.0000
      5 ****        -4.3599  -0.0097  -2.5762 C.3            1 S1                 0.0000
      6 ****        -4.3419   1.0194  -1.4332 C.3            1 S1                 0.0000
      7 ****        -4.8110   2.2991  -1.8321 O.3            1 S1                 0.0000
      8 ****        -6.2225   2.3694  -1.9540 C.3            1 S1                 0.0000
      9 ****        -2.8717   1.1110  -1.0189 C.3            1 S1                 0.0000
     10 ****        -2.2841  -0.1605  -1.4036 N.3            1 S1                 0.0000
     11 ****        -0.9353  -0.2191  -1.2630 C.ar           1 S1                 0.0000
     12 ****        -0.1334  -0.3591  -2.3524 N.ar           1 S1                 0.0000
     13 ****         1.1941  -0.4128  -2.2120 C.ar           1 S1                 0.0000
     14 ****         1.9181  -0.3422  -1.0938 N.ar           1 S1                 0.0000
     15 ****         1.1206  -0.1956   0.0030 C.ar           1 S1                 0.0000
     16 ****        -0.3015  -0.1290   0.0076 C.ar           1 S1                 0.0000
     17 ****        -0.7647  -0.0024   1.3118 N.2            1 S1                 0.0000
     18 ****         0.3210   0.0042   2.0362 C.2            1 S1                 0.0000
     19 ****         1.4993  -0.0790   1.3290 N.pl3          1 S1                 0.0000
     20 ****         2.8235  -0.1369   1.8742 C.3            1 S1                 0.0000
     21 ****         3.1871   0.6207   3.1526 C.3            1 S1                 0.0000
     22 ****         4.6233   0.8213   2.6162 C.3            1 S1                 0.0000
     23 ****         5.2470   2.2100   2.8384 C.3            1 S1                 0.0000
     24 ****         5.2929   2.5476   4.2089 O.3            1 S1                 0.0000
     25 ****         5.6550  -0.2631   2.9919 C.3            1 S1                 0.0000
     26 ****         5.8645  -0.3399   4.3871 O.3            1 S1                 0.0000
     27 ****         3.9836   0.6210   1.2240 C.3            1 S1                 0.0000
     28 ****        -2.4244  -0.0064  -3.4662 H              1 S1                 0.0000
     29 ****        -4.9182   0.6414  -0.5866 H              1 S1                 0.0000
     30 ****        -3.8941  -4.7082  -1.3089 H              1 S1                 0.0000
     31 ****        -2.3593  -4.5328  -2.1598 H              1 S1                 0.0000
     32 ****        -3.8875  -4.4755  -3.0575 H              1 S1                 0.0000
     33 ****        -1.7933  -2.3694  -3.0557 H              1 S1                 0.0000
     34 ****        -3.3213  -2.2689  -3.9077 H              1 S1                 0.0000
     35 ****        -4.6557   0.4311  -3.5288 H              1 S1                 0.0000
     36 ****        -5.0767  -0.7989  -2.3475 H              1 S1                 0.0000
     37 ****        -6.5105   3.3714  -2.2717 H              1 S1                 0.0000
     38 ****        -6.7092   2.1684  -0.9989 H              1 S1                 0.0000
     39 ****        -6.6006   1.6628  -2.6937 H              1 S1                 0.0000
     40 ****        -2.3684   1.9157  -1.5576 H              1 S1                 0.0000
     41 ****        -2.7758   1.3072   0.0490 H              1 S1                 0.0000
     42 ****         1.7565  -0.5269  -3.1269 H              1 S1                 0.0000
     43 ****         0.2901   0.0744   3.1139 H              1 S1                 0.0000
     44 ****         3.0611  -1.1973   1.9736 H              1 S1                 0.0000
     45 ****         2.6399   1.5602   3.2522 H              1 S1                 0.0000
     46 ****         3.1117   0.0280   4.0644 H              1 S1                 0.0000
     47 ****         6.2551   2.2633   2.4263 H              1 S1                 0.0000
     48 ****         4.6684   2.9831   2.3323 H              1 S1                 0.0000
     49 ****         5.7570   1.8636   4.6681 H              1 S1                 0.0000
     50 ****         5.3316  -1.2482   2.6552 H              1 S1                 0.0000
     51 ****         6.6131  -0.0788   2.5049 H              1 S1                 0.0000
     52 ****         6.4868  -1.0300   4.5597 H              1 S1                 0.0000
     53 ****         4.5748   0.0267   0.5264 H              1 S1                 0.0000
     54 ****         3.6576   1.5536   0.7595 H              1 S1                 0.0000
     55 ****        -3.0153  -2.5730  -1.0525 LP             1 S1                 0.0000
     56 ****        -4.4256  -2.5209  -1.8741 LP             1 S1                 0.0000
     57 ****        -4.4048   2.5235  -2.7179 LP             1 S1                 0.0000
     58 ****        -4.5179   2.9704  -1.1513 LP             1 S1                 0.0000
     59 ****        -2.4824  -0.9019  -0.7624 LP             1 S1                 0.0000
     60 ****        -0.5398  -0.4222  -3.2639 LP             1 S1                 0.0000
     61 ****         2.9165  -0.3905  -1.0635 LP             1 S1                 0.0000
     62 ****        -1.7123   0.0675   1.6237 LP             1 S1                 0.0000
     63 ****         4.3633   2.6260   4.5691 LP             1 S1                 0.0000
     64 ****         5.7706   3.4182   4.3268 LP             1 S1                 0.0000
     65 ****         5.0001  -0.5425   4.8473 LP             1 S1                 0.0000
     66 ****         6.2247   0.5306   4.7225 LP             1 S1                 0.0000
@<TRIPOS>BOND
    1    1    2 1     
    2    1   30 1     
    3    1   31 1     
    4    1   32 1     
    5    2    3 1     
    6    3    4 1     
    7    3   33 1     
    8    3   34 1     
    9    4   28 1     
   10    4   10 1     
   11    4    5 1     
   12    5    6 1     
   13    5   35 1     
   14    5   36 1     
   15    6   29 1     
   16    6    7 1     
   17    6    9 1     
   18    7    8 1     
   19    8   37 1     
   20    8   38 1     
   21    8   39 1     
   22    9   10 1     
   23    9   40 1     
   24    9   41 1     
   25   10   11 1     
   26   11   16 ar    
   27   11   12 ar    
   28   12   13 ar    
   29   13   14 ar    
   30   13   42 1     
   31   14   15 ar    
   32   15   19 1     
   33   15   16 ar    
   34   16   17 1     
   35   17   18 2     
   36   18   19 1     
   37   18   43 1     
   38   19   20 1     
   39   20   27 1     
   40   20   21 1     
   41   20   44 1     
   42   21   22 1     
   43   21   45 1     
   44   21   46 1     
   45   22   23 1     
   46   22   25 1     
   47   22   27 1     
   48   23   24 1     
   49   23   47 1     
   50   23   48 1     
   51   24   49 1     
   52   25   26 1     
   53   25   50 1     
   54   25   51 1     
   55   26   52 1     
   56   27   53 1     
   57   27   54 1     
   58    2   55 1     
   59    2   56 1     
   60    7   57 1     
   61    7   58 1     
   62   10   59 1     
   63   12   60 1     
   64   14   61 1     
   65   17   62 1     
   66   24   63 1     
   67   24   64 1     
   68   26   65 1     
   69   26   66 1     
@<TRIPOS>SUBSTRUCTURE
      1 S1             1
@<TRIPOS>SET
LONE_PAIRS      STATIC     ATOMS    <user>   **** ""
12 55 56 57 58 59 60 61 62 63 64 65 66
DONOR_HYDROGENS      STATIC     ATOMS    <user>   **** ""
2 49 52
ATOM$BLUE        STATIC     ATOMS    COLORGROUP SYSTEM
12 55 56 57 58 59 60 61 62 63 64 65 66
ATOM$RED        STATIC     ATOMS    COLORGROUP SYSTEM
2 49 52
