AV-unprocessed.smi:3176|AV-procd|sdf|12127|dock8
  -GOLD-   2272017563D 1   1.00000     0.00000
 Structure written by MMmdl.
 33 34  0  0  0  0  0  0  0  0  2 V2000
  152.3922  140.4539  158.8068 O   0  0  0  0  0  0  0  0  0  0  0  0
  152.1851  141.6673  158.8236 C   0  0  0  0  0  0  0  0  0  0  0  0
  151.1893  142.2447  158.1334 N   0  0  0  0  0  0  0  0  0  0  0  0
  150.2785  141.5528  157.2267 C   0  0  0  0  0  0  0  0  0  0  0  0
  150.6910  141.6903  155.7464 C   0  0  0  0  0  0  0  0  0  0  0  0
  149.5803  141.3377  154.7716 C   0  0  0  0  0  0  0  0  0  0  0  0
  149.4856  140.0629  154.1711 C   0  0  0  0  0  0  0  0  0  0  0  0
  148.4422  139.8066  153.2579 C   0  0  0  0  0  0  0  0  0  0  0  0
  147.5145  140.8281  152.9665 C   0  0  0  0  0  0  0  0  0  0  0  0
  147.6538  142.0814  153.5972 C   0  0  0  0  0  0  0  0  0  0  0  0
  148.6682  142.2885  154.4656 N   0  3  0  0  0  0  0  0  0  0  0  0
  153.0787  142.6139  159.6434 C   0  0  1  0  0  0  0  0  0  0  0  0
  152.6458  144.0886  159.6064 C   0  0  0  0  0  0  0  0  0  0  0  0
  151.7199  144.1925  160.7983 C   0  0  0  0  0  0  0  0  0  0  0  0
  152.4204  143.2826  161.7988 C   0  0  0  0  0  0  0  0  0  0  0  0
  152.9971  142.2370  161.0217 O   0  0  0  0  0  0  0  0  0  0  0  0
  151.0829  143.2460  158.2145 H   0  0  0  0  0  0  0  0  0  0  0  0
  150.1920  140.5012  157.5040 H   0  0  0  0  0  0  0  0  0  0  0  0
  149.2903  141.9907  157.3685 H   0  0  0  0  0  0  0  0  0  0  0  0
  151.0151  142.7132  155.5505 H   0  0  0  0  0  0  0  0  0  0  0  0
  151.5574  141.0590  155.5451 H   0  0  0  0  0  0  0  0  0  0  0  0
  150.2087  139.2934  154.3998 H   0  0  0  0  0  0  0  0  0  0  0  0
  148.3569  138.8393  152.7850 H   0  0  0  0  0  0  0  0  0  0  0  0
  146.7082  140.6528  152.2691 H   0  0  0  0  0  0  0  0  0  0  0  0
  146.9914  142.9188  153.4328 H   0  0  0  0  0  0  0  0  0  0  0  0
  154.1049  142.5068  159.2903 H   0  0  0  0  0  0  0  0  0  0  0  0
  153.5157  144.7292  159.7573 H   0  0  0  0  0  0  0  0  0  0  0  0
  152.1718  144.4029  158.6759 H   0  0  0  0  0  0  0  0  0  0  0  0
  151.5995  145.2133  161.1615 H   0  0  0  0  0  0  0  0  0  0  0  0
  150.7345  143.7978  160.5481 H   0  0  0  0  0  0  0  0  0  0  0  0
  153.2213  143.8221  162.3060 H   0  0  0  0  0  0  0  0  0  0  0  0
  151.7418  142.8905  162.5563 H   0  0  0  0  0  0  0  0  0  0  0  0
  148.7518  143.2042  154.9076 H   0  0  0  0  0  0  0  0  0  0  0  0
  1  2  2  0  0  0  0
  2  3  1  0  0  0  0
  2 12  1  0  0  0  0
  3  4  1  0  0  0  0
  3 17  1  0  0  0  0
  4  5  1  0  0  0  0
  4 18  1  0  0  0  0
  4 19  1  0  0  0  0
  5  6  1  0  0  0  0
  5 20  1  0  0  0  0
  5 21  1  0  0  0  0
  6 11  1  0  0  0  0
  6  7  2  0  0  0  0
  7  8  1  0  0  0  0
  7 22  1  0  0  0  0
  8  9  2  0  0  0  0
  8 23  1  0  0  0  0
  9 10  1  0  0  0  0
  9 24  1  0  0  0  0
 10 11  2  0  0  0  0
 10 25  1  0  0  0  0
 11 33  1  0  0  0  0
 12 16  1  0  0  0  0
 12 13  1  0  0  0  0
 12 26  1  0  0  0  0
 13 14  1  0  0  0  0
 13 27  1  0  0  0  0
 13 28  1  0  0  0  0
 14 15  1  0  0  0  0
 14 29  1  0  0  0  0
 14 30  1  0  0  0  0
 15 16  1  0  0  0  0
 15 31  1  0  0  0  0
 15 32  1  0  0  0  0
M  CHG  1  11   1
M  END
> <s_m_source_file>
AV-unprocessed.smi

> <i_m_source_file_index>
3176

> <i_lp_mmshare_version>
43012

> <i_f3d_flags>
0

> <s_epik_input>
TzFbQ0gyXVtDSDJdW0NIMl1bQ0BIXTFDKD1PKVtOSF1bQ0gyXVtDSDJdYzJbY0hdW2NIXVtjSF1bY0hdbjI=

> <s_epik_cmdline>
J2VwaWtfcHl0aG9uJywgJy1waCcsICc3LjAnLCAnLXRuJywgJzgnLCAnLW1hJywgJzIwMCcsICctbWV0YWxfYmluZGluZycsICctaW1hZScsICc8aW5maWxlLm1hZT4nLCAnLW9tYWUnLCAnPG91dGZpbGUubWFlPic=

> <r_epik_Ionization_Penalty>
1.81664

> <r_epik_Ionization_Penalty_Charging>
1.81664

> <r_epik_Ionization_Penalty_Neutral>
5.71603e-08

> <r_epik_State_Penalty>
1.93152

> <r_epik_Charging_Adjusted_Penalty>
3.74817

> <i_epik_Tot_Q>
1

> <i_epik_Tot_abs_Q>
1

> <r_epik_Metal_State_Penalty>
1.95876

> <b_epik_Metal_Only>
0

> <s_lp_Force_Field>
OPLS_2005

> <r_lp_Energy>
22.6844

> <b_lp_Chiralities_Consistent>
1

> <s_lp_Variant>
AV-unprocessed.smi:3176-4

> <Gold.Version>
5.8.1

> <Gold.Id.Protein>
6NUR|6NUR_protein|mol2

> <Gold.PLP.Fitness>
42.9141

> <Gold.PLP.PLP>
-38.0040

> <Gold.PLP.part.hbond>
-1.0000

> <Gold.PLP.part.metal>
0.0000

> <Gold.PLP.part.buried>
-4.2896

> <Gold.PLP.part.nonpolar>
-33.0656

> <Gold.PLP.part.repulsive>
0.2594

> <Gold.PLP.ligand.clash>
0.0000

> <Gold.PLP.ligand.torsion>
0.5555

> <Gold.PLP.Chemscore.Hbond>
2.0000

> <Gold.PLP.Chemscore.CHOScore>
0.0000

> <Gold.PLP.Chemscore.Metal>
0.0000

> <Gold.Chemscore.Hbonds>
donor molecule, donor type, donor heavy atom, donor atom, acceptor molecule, acceptor atom, score
      L1  H    11    33       P1  8028  2.00

> <Gold.PLP.Chemscore.Internal.Correction>
0.0210

> <Gold.Rescore>
     Score         DG    S(hbond)    S(metal)    S(lipo)     H(rot)  DE(clash)    DE(int)     intcor
     15.41     -16.03       1.00        0.00      96.78       1.61       0.08       0.55       ----

> <Gold.Chemscore.Fitness>
15.4109

> <Gold.Chemscore.DG>
-16.0328

> <Gold.Chemscore.ZeroCoef>
-5.4800

> <Gold.Chemscore.Hbond>
0.9997

> <Gold.Chemscore.Metal>
0.0000

> <Gold.Chemscore.Lipo>
96.7824

> <Gold.Chemscore.Internal_Hbond>
0.0000

> <Gold.Chemscore.DEClash>
0.0756

> <Gold.Chemscore.DEInternal>
0.5463

> <Gold.Chemscore.Rot>
1.6054

> <Gold.Chemscore.Internal.Correction>
   9.000000E+99

> <Gold.Chemscore.Hbonds>
donor molecule, donor type, donor heavy atom, donor atom, acceptor molecule, acceptor atom, score
      L1  H    11    33       P1  8028  1.00

> <Gold.Chemscore.Hbond.Weighted>
-3.3390

> <Gold.Chemscore.Metal.Weighted>
-0.0000

> <Gold.Chemscore.Lipo.Weighted>
-11.3235

> <Gold.Chemscore.Internal_Hbond.Weighted>
0.0000

> <Gold.Chemscore.DEClash.Weighted>
0.0756

> <Gold.Chemscore.DEInternal.Weighted>
0.5463

> <Gold.Chemscore.Rot.Weighted>
4.1097

> <Gold.Chemscore.Internal.Correction.Weighted>
   9.000000E+99

> <Gold.Protein.RotatedTorsions>
[ 6907 6896 6895 6894 ] final  111.73 input  -60.11 | X-H torsion
[ 7974 7965 7964 7962 ] final -148.76 input  175.53 | X-H torsion
[ 8008 7997 7996 7995 ] final  -24.14 input   59.86 | X-H torsion
[ 10167 10162 10161 10158 ] final  162.11 input  -65.29 | X-H torsion
[ 10718 10713 10712 10709 ] final  103.06 input   66.30 | X-H torsion
[ 10763 10752 10751 10750 ] final -100.02 input  -60.55 | X-H torsion
[ 11005 11000 10999 10996 ] final  -88.47 input  -57.11 | X-H torsion

> <Gold.Protein.ActiveResidues>
 VAL166  LYS551  ARG553  GLY616  TRP617  ASP618  TYR619  PRO620  LYS621  CYS622 
 ASP623  PHE694  ASN695  SER759  ASP760  ASP761  ALA762  ILE779  LEU786  VAL792 
 PHE793  MET794  SER795  GLU796  ALA797  LYS798  CYS799  TRP800  GLU811  SER814 

> <Gold.Protein.RotatedAtoms>
  152.4954  133.8616  159.7252 H   0  0  0  0  0  0  0  0  0  0  0  0  # atno 6907 bound_to 6896
  150.9126  133.6969  159.2858 H   0  0  0  0  0  0  0  0  0  0  0  0  # atno 6908 bound_to 6896
  151.4373  135.1020  159.9712 H   0  0  0  0  0  0  0  0  0  0  0  0  # atno 6909 bound_to 6896
  144.8009  140.5153  143.5708 H   0  0  0  0  0  0  0  0  0  0  0  0  # atno 7974 bound_to 7965
  154.4545  140.1961  156.0419 H   0  0  0  0  0  0  0  0  0  0  0  0  # atno 8008 bound_to 7997
  156.0718  140.3283  155.7558 H   0  0  0  0  0  0  0  0  0  0  0  0  # atno 8009 bound_to 7997
  155.5251  140.0573  157.2890 H   0  0  0  0  0  0  0  0  0  0  0  0  # atno 8010 bound_to 7997
  139.4857  144.4470  151.8879 H   0  0  0  0  0  0  0  0  0  0  0  0  # atno 10167 bound_to 10162
  157.6784  131.0769  150.5499 H   0  0  0  0  0  0  0  0  0  0  0  0  # atno 10718 bound_to 10713
  154.7545  135.4950  153.9350 H   0  0  0  0  0  0  0  0  0  0  0  0  # atno 10763 bound_to 10752
  153.1181  135.6725  153.9391 H   0  0  0  0  0  0  0  0  0  0  0  0  # atno 10764 bound_to 10752
  153.9131  135.3096  155.3427 H   0  0  0  0  0  0  0  0  0  0  0  0  # atno 10765 bound_to 10752
  141.1601  133.7572  156.9456 H   0  0  0  0  0  0  0  0  0  0  0  0  # atno 11005 bound_to 11000
  145.5556  139.1478  143.3370 LP  0  0  0  0  0  0  0  0  0  0  0  0  # atno 17320 bound_to 7965
  146.2290  140.5693  142.8984 LP  0  0  0  0  0  0  0  0  0  0  0  0  # atno 17321 bound_to 7965
  140.3925  144.2597  150.5898 LP  0  0  0  0  0  0  0  0  0  0  0  0  # atno 17342 bound_to 10162
  140.5133  143.2285  151.8502 LP  0  0  0  0  0  0  0  0  0  0  0  0  # atno 17343 bound_to 10162
  156.5804  130.4303  149.5980 LP  0  0  0  0  0  0  0  0  0  0  0  0  # atno 17370 bound_to 10713
  156.2666  130.6993  151.1778 LP  0  0  0  0  0  0  0  0  0  0  0  0  # atno 17371 bound_to 10713
  140.1292  134.9367  157.2313 LP  0  0  0  0  0  0  0  0  0  0  0  0  # atno 17394 bound_to 11000
  140.2974  134.3170  155.7298 LP  0  0  0  0  0  0  0  0  0  0  0  0  # atno 17395 bound_to 11000

$$$$
