AV-unprocessed.smi:1296|AV-procd|sdf|5413|dock1
  -GOLD-   22720 4573D 1   1.00000     0.00000
 Structure written by MMmdl.
 36 36  0  0  0  0  0  0  0  0  1 V2000
  146.5165  138.2667  152.0520 C   0  0  0  0  0  0  0  0  0  0  0  0
  147.2573  139.2930  152.8827 C   0  0  0  0  0  0  0  0  0  0  0  0
  146.7295  140.3935  153.3077 N   0  0  0  0  0  0  0  0  0  0  0  0
  147.5169  141.2682  154.0695 C   0  0  0  0  0  0  0  0  0  0  0  0
  146.8254  142.5386  154.5333 C   0  0  0  0  0  0  0  0  0  0  0  0
  148.8190  140.9848  154.3666 C   0  0  0  0  0  0  0  0  0  0  0  0
  149.7040  141.9174  155.1934 C   0  0  0  0  0  0  0  0  0  0  0  0
  150.0753  141.4335  156.5980 C   0  0  0  0  0  0  0  0  0  0  0  0
  149.5928  140.3969  157.0552 O   0  0  0  0  0  0  0  0  0  0  0  0
  150.9398  142.2017  157.2748 N   0  0  0  0  0  0  0  0  0  0  0  0
  151.4165  141.9170  158.6222 C   0  0  0  0  0  0  0  0  0  0  0  0
  152.4940  142.9237  159.0688 C   0  0  0  0  0  0  0  0  0  0  0  0
  152.9528  142.6866  160.5185 C   0  0  0  0  0  0  0  0  0  0  0  0
  151.9999  144.3664  158.8871 C   0  0  0  0  0  0  0  0  0  0  0  0
  149.4105  139.7239  153.8788 C   0  0  0  0  0  0  0  0  0  0  0  0
  150.5675  139.3666  154.0946 O   0  0  0  0  0  0  0  0  0  0  0  0
  148.5793  138.9430  153.1530 N   0  0  0  0  0  0  0  0  0  0  0  0
  148.9369  138.0689  152.7966 H   0  0  0  0  0  0  0  0  0  0  0  0
  145.6545  137.8898  152.6028 H   0  0  0  0  0  0  0  0  0  0  0  0
  147.1541  137.4199  151.7944 H   0  0  0  0  0  0  0  0  0  0  0  0
  146.1606  138.7195  151.1263 H   0  0  0  0  0  0  0  0  0  0  0  0
  147.2880  143.4137  154.0767 H   0  0  0  0  0  0  0  0  0  0  0  0
  146.8870  142.6375  155.6172 H   0  0  0  0  0  0  0  0  0  0  0  0
  145.7696  142.5373  154.2597 H   0  0  0  0  0  0  0  0  0  0  0  0
  150.6247  142.1426  154.6539 H   0  0  0  0  0  0  0  0  0  0  0  0
  149.1983  142.8783  155.2907 H   0  0  0  0  0  0  0  0  0  0  0  0
  151.2911  143.0369  156.8292 H   0  0  0  0  0  0  0  0  0  0  0  0
  150.5682  141.9520  159.3077 H   0  0  0  0  0  0  0  0  0  0  0  0
  151.8135  140.9011  158.6594 H   0  0  0  0  0  0  0  0  0  0  0  0
  153.3623  142.7944  158.4212 H   0  0  0  0  0  0  0  0  0  0  0  0
  152.1195  142.7775  161.2159 H   0  0  0  0  0  0  0  0  0  0  0  0
  153.7120  143.4120  160.8123 H   0  0  0  0  0  0  0  0  0  0  0  0
  153.3872  141.6951  160.6471 H   0  0  0  0  0  0  0  0  0  0  0  0
  151.1365  144.5724  159.5205 H   0  0  0  0  0  0  0  0  0  0  0  0
  151.7073  144.5554  157.8540 H   0  0  0  0  0  0  0  0  0  0  0  0
  152.7796  145.0844  159.1427 H   0  0  0  0  0  0  0  0  0  0  0  0
  1  2  1  0  0  0  0
  1 19  1  0  0  0  0
  1 20  1  0  0  0  0
  1 21  1  0  0  0  0
  2 17  1  0  0  0  0
  2  3  2  0  0  0  0
  3  4  1  0  0  0  0
  4  5  1  0  0  0  0
  4  6  2  0  0  0  0
  5 22  1  0  0  0  0
  5 23  1  0  0  0  0
  5 24  1  0  0  0  0
  6  7  1  0  0  0  0
  6 15  1  0  0  0  0
  7  8  1  0  0  0  0
  7 25  1  0  0  0  0
  7 26  1  0  0  0  0
  8  9  2  0  0  0  0
  8 10  1  0  0  0  0
 10 11  1  0  0  0  0
 10 27  1  0  0  0  0
 11 12  1  0  0  0  0
 11 28  1  0  0  0  0
 11 29  1  0  0  0  0
 12 13  1  0  0  0  0
 12 14  1  0  0  0  0
 12 30  1  0  0  0  0
 13 31  1  0  0  0  0
 13 32  1  0  0  0  0
 13 33  1  0  0  0  0
 14 34  1  0  0  0  0
 14 35  1  0  0  0  0
 14 36  1  0  0  0  0
 15 16  2  0  0  0  0
 15 17  1  0  0  0  0
 17 18  1  0  0  0  0
M  END
> <s_m_source_file>
AV-unprocessed.smi

> <i_m_source_file_index>
1296

> <i_lp_mmshare_version>
43012

> <i_f3d_flags>
0

> <s_epik_input>
W0NIM11jMW5jKFtDSDNdKWMoYyg9TylbbkhdMSlbQ0gyXUMoPU8pW05IXVtDSDJdW0NIXShbQ0gzXSlbQ0gzXQ==

> <s_epik_cmdline>
J2VwaWtfcHl0aG9uJywgJy1waCcsICc3LjAnLCAnLXRuJywgJzgnLCAnLW1hJywgJzIwMCcsICctbWV0YWxfYmluZGluZycsICctaW1hZScsICc8aW5maWxlLm1hZT4nLCAnLW9tYWUnLCAnPG91dGZpbGUubWFlPic=

> <r_lp_tautomer_probability>
0.839158

> <r_epik_Ionization_Penalty>
0.000395354

> <r_epik_Ionization_Penalty_Charging>
0.00036358

> <r_epik_Ionization_Penalty_Neutral>
3.17744e-05

> <r_epik_State_Penalty>
0.047122

> <r_epik_Charging_Adjusted_Penalty>
0.0474856

> <i_epik_Tot_Q>
0

> <i_epik_Tot_abs_Q>
0

> <r_epik_Metal_State_Penalty>
0.225273

> <b_epik_Metal_Only>
0

> <s_lp_Force_Field>
OPLS_2005

> <r_lp_Energy>
6.44868

> <b_lp_Chiralities_Consistent>
1

> <s_lp_Variant>
AV-unprocessed.smi:1296-1

> <Gold.Version>
5.8.1

> <Gold.Id.Protein>
6NUR|6NUR_protein|mol2

> <Gold.PLP.Fitness>
41.8391

> <Gold.PLP.PLP>
-36.1058

> <Gold.PLP.part.hbond>
-3.0000

> <Gold.PLP.part.metal>
0.0000

> <Gold.PLP.part.buried>
2.9260

> <Gold.PLP.part.nonpolar>
-36.1315

> <Gold.PLP.part.repulsive>
0.5106

> <Gold.PLP.ligand.clash>
0.0000

> <Gold.PLP.ligand.torsion>
0.1533

> <Gold.PLP.Chemscore.Hbond>
2.0000

> <Gold.PLP.Chemscore.CHOScore>
0.0000

> <Gold.PLP.Chemscore.Metal>
0.0000

> <Gold.Chemscore.Hbonds>
donor molecule, donor type, donor heavy atom, donor atom, acceptor molecule, acceptor atom, score
      L1  H    17    18       P1  7948  0.99
      P1  H  7989  7998       L1    16  1.00

> <Gold.PLP.Chemscore.Internal.Correction>
0.0398

> <Gold.Rescore>
     Score         DG    S(hbond)    S(metal)    S(lipo)     H(rot)  DE(clash)    DE(int)     intcor
     14.46     -15.12       1.40        0.00      80.19       1.73       0.47       0.19       ----

> <Gold.Chemscore.Fitness>
14.4617

> <Gold.Chemscore.DG>
-15.1190

> <Gold.Chemscore.ZeroCoef>
-5.4800

> <Gold.Chemscore.Hbond>
1.4024

> <Gold.Chemscore.Metal>
0.0000

> <Gold.Chemscore.Lipo>
80.1944

> <Gold.Chemscore.Internal_Hbond>
0.0000

> <Gold.Chemscore.DEClash>
0.4676

> <Gold.Chemscore.DEInternal>
0.1897

> <Gold.Chemscore.Rot>
1.7296

> <Gold.Chemscore.Internal.Correction>
   9.000000E+99

> <Gold.Chemscore.Hbonds>
donor molecule, donor type, donor heavy atom, donor atom, acceptor molecule, acceptor atom, score
      L1  H    17    18       P1  7948  0.93
      P1  H  7989  7998       L1    16  0.44

> <Gold.Chemscore.Hbond.Weighted>
-4.6839

> <Gold.Chemscore.Metal.Weighted>
-0.0000

> <Gold.Chemscore.Lipo.Weighted>
-9.3827

> <Gold.Chemscore.Internal_Hbond.Weighted>
0.0000

> <Gold.Chemscore.DEClash.Weighted>
0.4676

> <Gold.Chemscore.DEInternal.Weighted>
0.1897

> <Gold.Chemscore.Rot.Weighted>
4.4277

> <Gold.Chemscore.Internal.Correction.Weighted>
   9.000000E+99

> <Gold.Protein.RotatedTorsions>
[ 6907 6896 6895 6894 ] final -168.75 input  -60.11 | X-H torsion
[ 7974 7965 7964 7962 ] final -121.97 input  175.53 | X-H torsion
[ 8008 7997 7996 7995 ] final  133.53 input   59.86 | X-H torsion
[ 10167 10162 10161 10158 ] final   61.11 input  -65.29 | X-H torsion
[ 10718 10713 10712 10709 ] final   45.24 input   66.30 | X-H torsion
[ 10763 10752 10751 10750 ] final   31.02 input  -60.55 | X-H torsion
[ 11005 11000 10999 10996 ] final    9.18 input  -57.11 | X-H torsion

> <Gold.Protein.ActiveResidues>
 VAL166  LYS551  ARG553  GLY616  TRP617  ASP618  TYR619  PRO620  LYS621  CYS622 
 ASP623  PHE694  ASN695  SER759  ASP760  ASP761  ALA762  ILE779  LEU786  VAL792 
 PHE793  MET794  SER795  GLU796  ALA797  LYS798  CYS799  TRP800  GLU811  SER814 

> <Gold.Protein.RotatedAtoms>
  151.4805  133.3547  159.2837 H   0  0  0  0  0  0  0  0  0  0  0  0  # atno 6907 bound_to 6896
  150.8900  134.8305  159.7297 H   0  0  0  0  0  0  0  0  0  0  0  0  # atno 6908 bound_to 6896
  152.4817  134.4714  159.9688 H   0  0  0  0  0  0  0  0  0  0  0  0  # atno 6909 bound_to 6896
  145.0345  140.8095  143.4303 H   0  0  0  0  0  0  0  0  0  0  0  0  # atno 7974 bound_to 7965
  156.2993  140.2519  156.3268 H   0  0  0  0  0  0  0  0  0  0  0  0  # atno 8008 bound_to 7997
  154.9182  140.0401  157.2003 H   0  0  0  0  0  0  0  0  0  0  0  0  # atno 8009 bound_to 7997
  154.8337  140.2880  155.5709 H   0  0  0  0  0  0  0  0  0  0  0  0  # atno 8010 bound_to 7997
  140.1584  144.4395  150.6722 H   0  0  0  0  0  0  0  0  0  0  0  0  # atno 10167 bound_to 10162
  157.4355  130.8050  149.7643 H   0  0  0  0  0  0  0  0  0  0  0  0  # atno 10718 bound_to 10713
  153.0339  135.6449  154.1134 H   0  0  0  0  0  0  0  0  0  0  0  0  # atno 10763 bound_to 10752
  154.0852  135.2870  155.3284 H   0  0  0  0  0  0  0  0  0  0  0  0  # atno 10764 bound_to 10752
  154.6503  135.5428  153.7957 H   0  0  0  0  0  0  0  0  0  0  0  0  # atno 10765 bound_to 10752
  140.5287  134.0488  155.7866 H   0  0  0  0  0  0  0  0  0  0  0  0  # atno 11005 bound_to 11000
  145.1727  139.2395  143.5333 LP  0  0  0  0  0  0  0  0  0  0  0  0  # atno 17320 bound_to 7965
  146.3502  140.1482  142.8593 LP  0  0  0  0  0  0  0  0  0  0  0  0  # atno 17321 bound_to 7965
  140.6659  143.2268  151.5745 LP  0  0  0  0  0  0  0  0  0  0  0  0  # atno 17342 bound_to 10162
  139.5393  144.2693  152.1317 LP  0  0  0  0  0  0  0  0  0  0  0  0  # atno 17343 bound_to 10162
  155.9929  130.3928  150.2924 LP  0  0  0  0  0  0  0  0  0  0  0  0  # atno 17370 bound_to 10713
  157.1084  131.0214  151.3058 LP  0  0  0  0  0  0  0  0  0  0  0  0  # atno 17371 bound_to 10713
  141.1294  133.9328  157.2568 LP  0  0  0  0  0  0  0  0  0  0  0  0  # atno 17394 bound_to 11000
  139.9566  135.0164  156.9145 LP  0  0  0  0  0  0  0  0  0  0  0  0  # atno 17395 bound_to 11000

$$$$
