AV-unprocessed.smi:702|AV-procd|sdf|3418|dock2
  -GOLD-   22720 0403D 1   1.00000     0.00000
 Structure written by MMmdl.
 49 51  0  0  0  0  0  0  0  0  1 V2000
  148.3272  141.6930  154.4528 C   0  0  0  0  0  0  0  0  0  0  0  0
  148.5752  141.2917  155.9255 C   0  0  2  0  0  0  0  0  0  0  0  0
  148.0096  142.3275  156.7972 N   0  0  0  0  0  0  0  0  0  0  0  0
  147.3583  142.1210  157.9509 C   0  0  0  0  0  0  0  0  0  0  0  0
  147.1324  141.0031  158.4133 O   0  0  0  0  0  0  0  0  0  0  0  0
  146.9814  143.2860  158.5054 N   0  0  0  0  0  0  0  0  0  0  0  0
  146.2949  143.5107  159.7296 C   0  0  0  0  0  0  0  0  0  0  0  0
  146.7296  144.5828  160.5361 C   0  0  0  0  0  0  0  0  0  0  0  0
  146.0780  144.8181  161.7632 C   0  0  0  0  0  0  0  0  0  0  0  0
  145.0576  144.0609  162.2180 N   0  0  0  0  0  0  0  0  0  0  0  0
  144.6521  143.0261  161.4521 C   0  0  0  0  0  0  0  0  0  0  0  0
  145.2338  142.7049  160.2090 C   0  0  0  0  0  0  0  0  0  0  0  0
  150.0847  140.9955  156.2684 C   0  0  0  0  0  0  0  0  0  0  0  0
  150.6054  139.8197  155.5018 N   0  0  0  0  0  0  0  0  0  0  0  0
  152.0579  139.6003  155.6003 C   0  0  0  0  0  0  0  0  0  0  0  0
  152.5370  138.4668  154.6787 C   0  0  0  0  0  0  0  0  0  0  0  0
  151.8464  137.2675  155.0042 O   0  0  0  0  0  0  0  0  0  0  0  0
  150.4367  137.4053  154.8804 C   0  0  0  0  0  0  0  0  0  0  0  0
  149.9387  138.5410  155.7915 C   0  0  0  0  0  0  0  0  0  0  0  0
  150.9092  142.2970  155.9795 C   0  0  0  0  0  0  0  0  0  0  0  0
  151.3827  142.8596  157.3224 C   0  0  0  0  0  0  0  0  0  0  0  0
  151.4221  141.6615  158.2578 C   0  0  0  0  0  0  0  0  0  0  0  0
  150.2421  140.7986  157.8110 C   0  0  0  0  0  0  0  0  0  0  0  0
  148.6762  140.9323  153.7554 H   0  0  0  0  0  0  0  0  0  0  0  0
  148.8257  142.6262  154.1922 H   0  0  0  0  0  0  0  0  0  0  0  0
  147.2626  141.8305  154.2606 H   0  0  0  0  0  0  0  0  0  0  0  0
  148.0037  140.3845  156.1231 H   0  0  0  0  0  0  0  0  0  0  0  0
  148.1423  143.2820  156.4973 H   0  0  0  0  0  0  0  0  0  0  0  0
  147.1707  144.1147  157.9613 H   0  0  0  0  0  0  0  0  0  0  0  0
  147.5439  145.2197  160.2220 H   0  0  0  0  0  0  0  0  0  0  0  0
  146.3869  145.6359  162.3972 H   0  0  0  0  0  0  0  0  0  0  0  0
  143.8417  142.4299  161.8451 H   0  0  0  0  0  0  0  0  0  0  0  0
  144.8656  141.8496  159.6640 H   0  0  0  0  0  0  0  0  0  0  0  0
  152.6234  140.4937  155.3492 H   0  0  0  0  0  0  0  0  0  0  0  0
  152.3312  139.3456  156.6243 H   0  0  0  0  0  0  0  0  0  0  0  0
  152.3707  138.7225  153.6311 H   0  0  0  0  0  0  0  0  0  0  0  0
  153.6075  138.3043  154.8039 H   0  0  0  0  0  0  0  0  0  0  0  0
  150.1738  137.6029  153.8400 H   0  0  0  0  0  0  0  0  0  0  0  0
  149.9621  136.4635  155.1562 H   0  0  0  0  0  0  0  0  0  0  0  0
  150.0956  138.2561  156.8316 H   0  0  0  0  0  0  0  0  0  0  0  0
  148.8632  138.6128  155.6474 H   0  0  0  0  0  0  0  0  0  0  0  0
  151.7668  142.1157  155.3360 H   0  0  0  0  0  0  0  0  0  0  0  0
  150.3466  143.0616  155.4450 H   0  0  0  0  0  0  0  0  0  0  0  0
  152.3456  143.3657  157.2483 H   0  0  0  0  0  0  0  0  0  0  0  0
  150.6562  143.5843  157.6923 H   0  0  0  0  0  0  0  0  0  0  0  0
  152.3579  141.1189  158.1223 H   0  0  0  0  0  0  0  0  0  0  0  0
  151.3561  141.9484  159.3078 H   0  0  0  0  0  0  0  0  0  0  0  0
  149.3569  141.1342  158.3504 H   0  0  0  0  0  0  0  0  0  0  0  0
  150.3800  139.7620  158.1152 H   0  0  0  0  0  0  0  0  0  0  0  0
  1  2  1  0  0  0  0
  1 24  1  0  0  0  0
  1 25  1  0  0  0  0
  1 26  1  0  0  0  0
  2  3  1  0  0  0  0
  2 13  1  0  0  0  0
  2 27  1  0  0  0  0
  3  4  1  0  0  0  0
  3 28  1  0  0  0  0
  4  5  2  0  0  0  0
  4  6  1  0  0  0  0
  6  7  1  0  0  0  0
  6 29  1  0  0  0  0
  7 12  1  0  0  0  0
  7  8  2  0  0  0  0
  8  9  1  0  0  0  0
  8 30  1  0  0  0  0
  9 10  2  0  0  0  0
  9 31  1  0  0  0  0
 10 11  1  0  0  0  0
 11 12  2  0  0  0  0
 11 32  1  0  0  0  0
 12 33  1  0  0  0  0
 13 23  1  0  0  0  0
 13 14  1  0  0  0  0
 13 20  1  0  0  0  0
 14 19  1  0  0  0  0
 14 15  1  0  0  0  0
 15 16  1  0  0  0  0
 15 34  1  0  0  0  0
 15 35  1  0  0  0  0
 16 17  1  0  0  0  0
 16 36  1  0  0  0  0
 16 37  1  0  0  0  0
 17 18  1  0  0  0  0
 18 19  1  0  0  0  0
 18 38  1  0  0  0  0
 18 39  1  0  0  0  0
 19 40  1  0  0  0  0
 19 41  1  0  0  0  0
 20 21  1  0  0  0  0
 20 42  1  0  0  0  0
 20 43  1  0  0  0  0
 21 22  1  0  0  0  0
 21 44  1  0  0  0  0
 21 45  1  0  0  0  0
 22 23  1  0  0  0  0
 22 46  1  0  0  0  0
 22 47  1  0  0  0  0
 23 48  1  0  0  0  0
 23 49  1  0  0  0  0
M  END
> <s_m_source_file>
AV-unprocessed.smi

> <i_m_source_file_index>
702

> <i_lp_mmshare_version>
43012

> <i_f3d_flags>
0

> <s_epik_input>
W0NIMl0xW0NIMl1PW0NIMl1bQ0gyXU4xQzIoW0NIMl1bQ0gyXVtDSDJdW0NIMl0yKVtDQEhdKFtDSDNdKVtOSF1DKD1PKVtOSF1jM1tjSF1bY0hdbltjSF1bY0hdMw==

> <s_epik_cmdline>
J2VwaWtfcHl0aG9uJywgJy1waCcsICc3LjAnLCAnLXRuJywgJzgnLCAnLW1hJywgJzIwMCcsICctbWV0YWxfYmluZGluZycsICctaW1hZScsICc8aW5maWxlLm1hZT4nLCAnLW9tYWUnLCAnPG91dGZpbGUubWFlPic=

> <r_epik_Ionization_Penalty>
0.626636

> <r_epik_Ionization_Penalty_Charging>
0

> <r_epik_Ionization_Penalty_Neutral>
0.626636

> <r_epik_State_Penalty>
0.629018

> <r_epik_Charging_Adjusted_Penalty>
0.629018

> <i_epik_Tot_Q>
0

> <i_epik_Tot_abs_Q>
0

> <r_epik_Metal_State_Penalty>
0.606459

> <b_epik_Metal_Only>
0

> <s_lp_Force_Field>
OPLS_2005

> <r_lp_Energy>
67.5809

> <b_lp_Chiralities_Consistent>
1

> <s_lp_Variant>
AV-unprocessed.smi:702-3

> <Gold.Version>
5.8.1

> <Gold.Id.Protein>
6NUR|6NUR_protein|mol2

> <Gold.PLP.Fitness>
42.2860

> <Gold.PLP.PLP>
-34.6987

> <Gold.PLP.part.hbond>
-4.0282

> <Gold.PLP.part.metal>
0.0000

> <Gold.PLP.part.buried>
-5.0925

> <Gold.PLP.part.nonpolar>
-26.6167

> <Gold.PLP.part.repulsive>
0.3128

> <Gold.PLP.ligand.clash>
0.0000

> <Gold.PLP.ligand.torsion>
0.7799

> <Gold.PLP.Chemscore.Hbond>
2.9994

> <Gold.PLP.Chemscore.CHOScore>
0.0000

> <Gold.PLP.Chemscore.Metal>
0.0000

> <Gold.Chemscore.Hbonds>
donor molecule, donor type, donor heavy atom, donor atom, acceptor molecule, acceptor atom, score
      L1  H     3    28       P1  8028  1.00
      L1  H     6    29       P1  8029  0.88
      P1  H  6934  6946       L1     5  0.07
      P1  H 10752 10765       L1    17  0.98

> <Gold.PLP.Chemscore.Internal.Correction>
0.1488

> <Gold.Rescore>
     Score         DG    S(hbond)    S(metal)    S(lipo)     H(rot)  DE(clash)    DE(int)     intcor
     16.69     -17.56       1.37        0.00      95.00       1.41       0.06       0.81       ----

> <Gold.Chemscore.Fitness>
16.6907

> <Gold.Chemscore.DG>
-17.5599

> <Gold.Chemscore.ZeroCoef>
-5.4800

> <Gold.Chemscore.Hbond>
1.3703

> <Gold.Chemscore.Metal>
0.0000

> <Gold.Chemscore.Lipo>
95.0035

> <Gold.Chemscore.Internal_Hbond>
0.0000

> <Gold.Chemscore.DEClash>
0.0565

> <Gold.Chemscore.DEInternal>
0.8127

> <Gold.Chemscore.Rot>
1.4111

> <Gold.Chemscore.Internal.Correction>
   9.000000E+99

> <Gold.Chemscore.Hbonds>
donor molecule, donor type, donor heavy atom, donor atom, acceptor molecule, acceptor atom, score
      L1  H     3    28       P1  8028  0.26
      L1  H     6    29       P1  8029  0.19
      P1  H  6934  6946       L1     5  0.08
      P1  H 10752 10765       L1    17  0.72

> <Gold.Chemscore.Hbond.Weighted>
-4.5768

> <Gold.Chemscore.Metal.Weighted>
-0.0000

> <Gold.Chemscore.Lipo.Weighted>
-11.1154

> <Gold.Chemscore.Internal_Hbond.Weighted>
0.0000

> <Gold.Chemscore.DEClash.Weighted>
0.0565

> <Gold.Chemscore.DEInternal.Weighted>
0.8127

> <Gold.Chemscore.Rot.Weighted>
3.6123

> <Gold.Chemscore.Internal.Correction.Weighted>
   9.000000E+99

> <Gold.Protein.RotatedTorsions>
[ 6907 6896 6895 6894 ] final   58.40 input  -60.11 | X-H torsion
[ 7974 7965 7964 7962 ] final  -21.52 input  175.53 | X-H torsion
[ 8008 7997 7996 7995 ] final -148.24 input   59.86 | X-H torsion
[ 10167 10162 10161 10158 ] final    2.02 input  -65.29 | X-H torsion
[ 10718 10713 10712 10709 ] final    4.44 input   66.30 | X-H torsion
[ 10763 10752 10751 10750 ] final  179.14 input  -60.55 | X-H torsion
[ 11005 11000 10999 10996 ] final  104.70 input  -57.11 | X-H torsion

> <Gold.Protein.ActiveResidues>
 VAL166  LYS551  ARG553  GLY616  TRP617  ASP618  TYR619  PRO620  LYS621  CYS622 
 ASP623  PHE694  ASN695  SER759  ASP760  ASP761  ALA762  ILE779  LEU786  VAL792 
 PHE793  MET794  SER795  GLU796  ALA797  LYS798  CYS799  TRP800  GLU811  SER814 

> <Gold.Protein.RotatedAtoms>
  152.3820  134.6575  160.0139 H   0  0  0  0  0  0  0  0  0  0  0  0  # atno 6907 bound_to 6896
  151.6835  133.3306  159.3233 H   0  0  0  0  0  0  0  0  0  0  0  0  # atno 6908 bound_to 6896
  150.7755  134.6696  159.6429 H   0  0  0  0  0  0  0  0  0  0  0  0  # atno 6909 bound_to 6896
  146.1728  140.4352  142.8525 H   0  0  0  0  0  0  0  0  0  0  0  0  # atno 7974 bound_to 7965
  155.5885  140.0650  157.2765 H   0  0  0  0  0  0  0  0  0  0  0  0  # atno 8008 bound_to 7997
  154.4312  140.1839  156.1096 H   0  0  0  0  0  0  0  0  0  0  0  0  # atno 8009 bound_to 7997
  156.0251  140.3312  155.7083 H   0  0  0  0  0  0  0  0  0  0  0  0  # atno 8010 bound_to 7997
  140.6655  143.7191  150.7819 H   0  0  0  0  0  0  0  0  0  0  0  0  # atno 10167 bound_to 10162
  156.8927  130.5693  149.5649 H   0  0  0  0  0  0  0  0  0  0  0  0  # atno 10718 bound_to 10713
  154.5168  135.2791  155.1296 H   0  0  0  0  0  0  0  0  0  0  0  0  # atno 10763 bound_to 10752
  154.2869  135.6274  153.5373 H   0  0  0  0  0  0  0  0  0  0  0  0  # atno 10764 bound_to 10752
  152.9929  135.5664  154.5647 H   0  0  0  0  0  0  0  0  0  0  0  0  # atno 10765 bound_to 10752
  139.8794  134.9310  156.5402 H   0  0  0  0  0  0  0  0  0  0  0  0  # atno 11005 bound_to 11000
  144.8190  140.6517  143.6365 LP  0  0  0  0  0  0  0  0  0  0  0  0  # atno 17320 bound_to 7965
  145.4293  139.1551  143.4031 LP  0  0  0  0  0  0  0  0  0  0  0  0  # atno 17321 bound_to 7965
  140.0867  143.4917  152.2501 LP  0  0  0  0  0  0  0  0  0  0  0  0  # atno 17342 bound_to 10162
  139.5902  144.7547  151.3419 LP  0  0  0  0  0  0  0  0  0  0  0  0  # atno 17343 bound_to 10162
  156.0621  130.5671  150.9214 LP  0  0  0  0  0  0  0  0  0  0  0  0  # atno 17370 bound_to 10713
  157.6074  131.0938  150.8855 LP  0  0  0  0  0  0  0  0  0  0  0  0  # atno 17371 bound_to 10713
  140.8316  133.8274  155.8989 LP  0  0  0  0  0  0  0  0  0  0  0  0  # atno 17394 bound_to 11000
  140.9323  134.2006  157.4855 LP  0  0  0  0  0  0  0  0  0  0  0  0  # atno 17395 bound_to 11000

$$$$
