AV-unprocessed.smi:344|AV-procd|sdf|2390|dock3
  -GOLD-   2262022323D 1   1.00000     0.00000
 Structure written by MMmdl.
 37 38  0  0  0  0  0  0  0  0  2 V2000
  149.6737  138.1292  153.4222 N   0  0  0  0  0  0  0  0  0  0  0  0
  150.7181  137.9535  154.2372 C   0  0  0  0  0  0  0  0  0  0  0  0
  151.5050  137.0183  154.1033 O   0  0  0  0  0  0  0  0  0  0  0  0
  150.8989  138.9626  155.3740 C   0  0  0  0  0  0  0  0  0  0  0  0
  151.0161  138.2587  156.6951 C   0  0  0  0  0  0  0  0  0  0  0  0
  152.0124  138.4087  157.6254 C   0  0  0  0  0  0  0  0  0  0  0  0
  151.7474  137.4024  159.0204 S   0  0  0  0  0  0  0  0  0  0  0  0
  150.2695  136.7837  158.2798 C   0  0  0  0  0  0  0  0  0  0  0  0
  149.4431  135.8865  158.8392 N   0  5  0  0  0  0  0  0  0  0  0  0
  148.2678  136.2987  159.3723 C   0  0  0  0  0  0  0  0  0  0  0  0
  147.7140  137.3945  159.2732 O   0  0  0  0  0  0  0  0  0  0  0  0
  147.6008  135.1978  160.2022 C   0  0  0  0  0  0  0  0  0  0  0  0
  146.8351  135.7752  161.4068 C   0  0  0  0  0  0  0  0  0  0  0  0
  145.9432  134.7380  162.1116 C   0  0  0  0  0  0  0  0  0  0  0  0
  145.8274  133.4167  161.3483 C   0  0  0  0  0  0  0  0  0  0  0  0
  144.5728  132.7404  161.9106 C   0  0  0  0  0  0  0  0  0  0  0  0
  143.6995  133.8660  162.4857 C   0  0  0  0  0  0  0  0  0  0  0  0
  144.4822  135.1678  162.2784 C   0  0  0  0  0  0  0  0  0  0  0  0
  150.0415  137.3339  157.0824 N   0  0  0  0  0  0  0  0  0  0  0  0
  149.5286  137.4994  152.6468 H   0  0  0  0  0  0  0  0  0  0  0  0
  149.0451  138.9057  153.5740 H   0  0  0  0  0  0  0  0  0  0  0  0
  151.7840  139.5683  155.1748 H   0  0  0  0  0  0  0  0  0  0  0  0
  150.0525  139.6504  155.3837 H   0  0  0  0  0  0  0  0  0  0  0  0
  152.8785  139.0515  157.5779 H   0  0  0  0  0  0  0  0  0  0  0  0
  146.9140  134.6457  159.5595 H   0  0  0  0  0  0  0  0  0  0  0  0
  148.3495  134.4764  160.5345 H   0  0  0  0  0  0  0  0  0  0  0  0
  147.5377  136.2017  162.1247 H   0  0  0  0  0  0  0  0  0  0  0  0
  146.2110  136.6030  161.0666 H   0  0  0  0  0  0  0  0  0  0  0  0
  146.3561  134.5226  163.0985 H   0  0  0  0  0  0  0  0  0  0  0  0
  145.6862  133.6144  160.2845 H   0  0  0  0  0  0  0  0  0  0  0  0
  146.7174  132.7951  161.4521 H   0  0  0  0  0  0  0  0  0  0  0  0
  144.0503  132.1689  161.1429 H   0  0  0  0  0  0  0  0  0  0  0  0
  144.8466  132.0454  162.7052 H   0  0  0  0  0  0  0  0  0  0  0  0
  142.7233  133.9110  162.0014 H   0  0  0  0  0  0  0  0  0  0  0  0
  143.5281  133.6936  163.5489 H   0  0  0  0  0  0  0  0  0  0  0  0
  144.3432  135.8684  163.1025 H   0  0  0  0  0  0  0  0  0  0  0  0
  144.1340  135.6588  161.3683 H   0  0  0  0  0  0  0  0  0  0  0  0
  1  2  1  0  0  0  0
  1 20  1  0  0  0  0
  1 21  1  0  0  0  0
  2  3  2  0  0  0  0
  2  4  1  0  0  0  0
  4  5  1  0  0  0  0
  4 22  1  0  0  0  0
  4 23  1  0  0  0  0
  5 19  1  0  0  0  0
  5  6  2  0  0  0  0
  6  7  1  0  0  0  0
  6 24  1  0  0  0  0
  7  8  1  0  0  0  0
  8  9  1  0  0  0  0
  8 19  2  0  0  0  0
  9 10  1  0  0  0  0
 10 11  2  0  0  0  0
 10 12  1  0  0  0  0
 12 13  1  0  0  0  0
 12 25  1  0  0  0  0
 12 26  1  0  0  0  0
 13 14  1  0  0  0  0
 13 27  1  0  0  0  0
 13 28  1  0  0  0  0
 14 18  1  0  0  0  0
 14 15  1  0  0  0  0
 14 29  1  0  0  0  0
 15 16  1  0  0  0  0
 15 30  1  0  0  0  0
 15 31  1  0  0  0  0
 16 17  1  0  0  0  0
 16 32  1  0  0  0  0
 16 33  1  0  0  0  0
 17 18  1  0  0  0  0
 17 34  1  0  0  0  0
 17 35  1  0  0  0  0
 18 36  1  0  0  0  0
 18 37  1  0  0  0  0
M  CHG  1   9  -1
M  END
> <s_m_source_file>
AV-unprocessed.smi

> <i_m_source_file_index>
344

> <i_lp_mmshare_version>
43012

> <i_f3d_flags>
0

> <s_epik_input>
W05IMl1DKD1PKVtDSDJdYzFbY0hdc2MobjEpW05IXUMoPU8pW0NIMl1bQ0gyXVtDSF0yW0NIMl1bQ0gyXVtDSDJdW0NIMl0y

> <s_epik_cmdline>
J2VwaWtfcHl0aG9uJywgJy1waCcsICc3LjAnLCAnLXRuJywgJzgnLCAnLW1hJywgJzIwMCcsICctbWV0YWxfYmluZGluZycsICctaW1hZScsICc8aW5maWxlLm1hZT4nLCAnLW9tYWUnLCAnPG91dGZpbGUubWFlPic=

> <r_lp_tautomer_probability>
1

> <r_epik_Ionization_Penalty>
5.48595

> <r_epik_Ionization_Penalty_Charging>
4.99802

> <r_epik_Ionization_Penalty_Neutral>
0.48793

> <r_epik_State_Penalty>
4.99789

> <r_epik_Charging_Adjusted_Penalty>
9.99592

> <i_epik_Tot_Q>
-1

> <i_epik_Tot_abs_Q>
1

> <r_epik_Metal_State_Penalty>
1.11866

> <b_epik_Metal_Only>
1

> <s_lp_Force_Field>
OPLS_2005

> <r_lp_Energy>
17.7805

> <b_lp_Chiralities_Consistent>
1

> <s_lp_Variant>
AV-unprocessed.smi:344-2

> <Gold.Version>
5.8.1

> <Gold.Id.Protein>
6NUR|6NUR_protein|mol2

> <Gold.PLP.Fitness>
47.4778

> <Gold.PLP.PLP>
-38.0637

> <Gold.PLP.part.hbond>
-5.6481

> <Gold.PLP.part.metal>
0.0000

> <Gold.PLP.part.buried>
-5.8340

> <Gold.PLP.part.nonpolar>
-28.3816

> <Gold.PLP.part.repulsive>
0.2294

> <Gold.PLP.ligand.clash>
0.0000

> <Gold.PLP.ligand.torsion>
1.9377

> <Gold.PLP.Chemscore.Hbond>
4.3582

> <Gold.PLP.Chemscore.CHOScore>
0.0000

> <Gold.PLP.Chemscore.Metal>
0.0000

> <Gold.Chemscore.Hbonds>
donor molecule, donor type, donor heavy atom, donor atom, acceptor molecule, acceptor atom, score
      L1  H     1    20       P1  7948  1.00
      P1  H  6896  6909       L1     9  1.90
      P1  H  6934  6947       L1    11  0.11
      P1  H 10752 10763       L1     3  1.00

> <Gold.PLP.Chemscore.Internal.Correction>
0.2150

> <Gold.Rescore>
     Score         DG    S(hbond)    S(metal)    S(lipo)     H(rot)  DE(clash)    DE(int)     intcor
     16.94     -18.70       3.24        0.00      72.74       2.39       0.15       1.61       ----

> <Gold.Chemscore.Fitness>
16.9377

> <Gold.Chemscore.DG>
-18.7001

> <Gold.Chemscore.ZeroCoef>
-5.4800

> <Gold.Chemscore.Hbond>
3.2422

> <Gold.Chemscore.Metal>
0.0000

> <Gold.Chemscore.Lipo>
72.7449

> <Gold.Chemscore.Internal_Hbond>
0.0000

> <Gold.Chemscore.DEClash>
0.1536

> <Gold.Chemscore.DEInternal>
1.6088

> <Gold.Chemscore.Rot>
2.3907

> <Gold.Chemscore.Internal.Correction>
   9.000000E+99

> <Gold.Chemscore.Hbonds>
donor molecule, donor type, donor heavy atom, donor atom, acceptor molecule, acceptor atom, score
      L1  H     1    20       P1  7948  0.62
      P1  H  6896  6909       L1     9  0.21
      P1  H  6934  6947       L1    11  0.11
      P1  H 10752 10763       L1     3  0.97

> <Gold.Chemscore.Hbond.Weighted>
-10.8291

> <Gold.Chemscore.Metal.Weighted>
-0.0000

> <Gold.Chemscore.Lipo.Weighted>
-8.5112

> <Gold.Chemscore.Internal_Hbond.Weighted>
0.0000

> <Gold.Chemscore.DEClash.Weighted>
0.1536

> <Gold.Chemscore.DEInternal.Weighted>
1.6088

> <Gold.Chemscore.Rot.Weighted>
6.1201

> <Gold.Chemscore.Internal.Correction.Weighted>
   9.000000E+99

> <Gold.Protein.RotatedTorsions>
[ 6907 6896 6895 6894 ] final   59.23 input  -60.11 | X-H torsion
[ 7974 7965 7964 7962 ] final -129.49 input  175.53 | X-H torsion
[ 8008 7997 7996 7995 ] final  107.91 input   59.86 | X-H torsion
[ 10167 10162 10161 10158 ] final   18.13 input  -65.29 | X-H torsion
[ 10718 10713 10712 10709 ] final -164.91 input   66.30 | X-H torsion
[ 10763 10752 10751 10750 ] final   43.29 input  -60.55 | X-H torsion
[ 11005 11000 10999 10996 ] final   15.50 input  -57.11 | X-H torsion

> <Gold.Protein.ActiveResidues>
 VAL166  LYS551  ARG553  GLY616  TRP617  ASP618  TYR619  PRO620  LYS621  CYS622 
 ASP623  PHE694  ASN695  SER759  ASP760  ASP761  ALA762  ILE779  LEU786  VAL792 
 PHE793  MET794  SER795  GLU796  ALA797  LYS798  CYS799  TRP800  GLU811  SER814 

> <Gold.Protein.RotatedAtoms>
  152.3896  134.6462  160.0112 H   0  0  0  0  0  0  0  0  0  0  0  0  # atno 6907 bound_to 6896
  151.6700  133.3308  159.3202 H   0  0  0  0  0  0  0  0  0  0  0  0  # atno 6908 bound_to 6896
  150.7815  134.6807  159.6487 H   0  0  0  0  0  0  0  0  0  0  0  0  # atno 6909 bound_to 6896
  144.9567  140.7403  143.4754 H   0  0  0  0  0  0  0  0  0  0  0  0  # atno 7974 bound_to 7965
  156.1861  140.3086  155.9242 H   0  0  0  0  0  0  0  0  0  0  0  0  # atno 8008 bound_to 7997
  155.3277  140.0459  157.3058 H   0  0  0  0  0  0  0  0  0  0  0  0  # atno 8009 bound_to 7997
  154.5398  140.2258  155.8671 H   0  0  0  0  0  0  0  0  0  0  0  0  # atno 8010 bound_to 7997
  140.5676  143.9222  150.6688 H   0  0  0  0  0  0  0  0  0  0  0  0  # atno 10167 bound_to 10162
  156.6458  130.8987  151.3004 H   0  0  0  0  0  0  0  0  0  0  0  0  # atno 10718 bound_to 10713
  152.9864  135.6106  154.3087 H   0  0  0  0  0  0  0  0  0  0  0  0  # atno 10763 bound_to 10752
  154.2803  135.2777  155.2701 H   0  0  0  0  0  0  0  0  0  0  0  0  # atno 10764 bound_to 10752
  154.5043  135.5858  153.6612 H   0  0  0  0  0  0  0  0  0  0  0  0  # atno 10765 bound_to 10752
  140.4576  134.1160  155.7711 H   0  0  0  0  0  0  0  0  0  0  0  0  # atno 11005 bound_to 11000
  145.2762  139.1935  143.4815 LP  0  0  0  0  0  0  0  0  0  0  0  0  # atno 17320 bound_to 7965
  146.3339  140.2716  142.8606 LP  0  0  0  0  0  0  0  0  0  0  0  0  # atno 17321 bound_to 7965
  140.2689  143.3470  152.1256 LP  0  0  0  0  0  0  0  0  0  0  0  0  # atno 17342 bound_to 10162
  139.5101  144.6878  151.5842 LP  0  0  0  0  0  0  0  0  0  0  0  0  # atno 17343 bound_to 10162
  157.7156  130.9494  150.1245 LP  0  0  0  0  0  0  0  0  0  0  0  0  # atno 17370 bound_to 10713
  156.2123  130.3667  149.8656 LP  0  0  0  0  0  0  0  0  0  0  0  0  # atno 17371 bound_to 10713
  141.1636  133.8746  157.1779 LP  0  0  0  0  0  0  0  0  0  0  0  0  # atno 17394 bound_to 11000
  139.9966  135.0044  157.0096 LP  0  0  0  0  0  0  0  0  0  0  0  0  # atno 17395 bound_to 11000

$$$$
