#       Name:                AV-unprocessed.smi:2687
#       Creating user name   scv26
#       Creation time:       Fri Mar 27 14:41:45 2020


#       File generated by GOLD software.
#

@<TRIPOS>MOLECULE
AV-unprocessed.smi:2687
    46    47     1
SMALL
NO_CHARGES


@<TRIPOS>ATOM
      1 ****        -0.1552   3.0600  -0.2533 O.2            1 S1                 0.0000
      2 ****         0.4207   1.9915  -0.0514 C.2            1 S1                 0.0000
      3 ****         1.9461   1.9659   0.0204 C.3            1 S1                 0.0000
      4 ****         2.3515   2.6791   1.1768 O.3            1 S1                 0.0000
      5 ****         3.7618   2.7559   1.3106 C.3            1 S1                 0.0000
      6 ****         4.1142   3.5399   2.5808 C.3            1 S1                 0.0000
      7 ****         5.4391   3.6365   2.6841 F              1 S1                 0.0000
      8 ****         3.5996   4.7679   2.5232 F              1 S1                 0.0000
      9 ****         3.6461   2.9082   3.6569 F              1 S1                 0.0000
     10 ****        -0.1975   0.8064   0.0992 N.am           1 S1                 0.0000
     11 ****        -1.5951   0.5342   0.0907 C.ar           1 S1                 0.0000
     12 ****        -2.5600   1.4747   0.5259 C.ar           1 S1                 0.0000
     13 ****        -3.9206   1.1175   0.5126 C.ar           1 S1                 0.0000
     14 ****        -4.2695  -0.1723   0.0733 C.ar           1 S1                 0.0000
     15 ****        -3.3623  -1.0851  -0.3301 N.ar           1 S1                 0.0000
     16 ****        -2.0506  -0.7449  -0.3193 C.ar           1 S1                 0.0000
     17 ****        -1.1293  -1.7159  -0.7464 N.3            1 S1                 0.0000
     18 ****        -1.0493  -2.8744   0.1338 C.3            1 S1                 0.0000
     19 ****         0.0753  -3.8133  -0.3360 C.3            1 S1                 0.0000
     20 ****        -0.1407  -4.1759  -1.6972 O.3            1 S1                 0.0000
     21 ****        -0.1446  -3.0421  -2.5603 C.3            1 S1                 0.0000
     22 ****        -1.2763  -2.0855  -2.1486 C.3            1 S1                 0.0000
     23 ****         2.3131   0.9384   0.0576 H              1 S1                 0.0000
     24 ****         2.3522   2.4315  -0.8790 H              1 S1                 0.0000
     25 ****         4.1882   1.7528   1.3617 H              1 S1                 0.0000
     26 ****         4.1923   3.2505   0.4385 H              1 S1                 0.0000
     27 ****         0.4016  -0.0047   0.1524 H              1 S1                 0.0000
     28 ****        -2.2796   2.4536   0.8834 H              1 S1                 0.0000
     29 ****        -4.6785   1.8143   0.8378 H              1 S1                 0.0000
     30 ****        -5.3038  -0.4818   0.0510 H              1 S1                 0.0000
     31 ****        -0.8630  -2.5479   1.1576 H              1 S1                 0.0000
     32 ****        -2.0011  -3.4073   0.1315 H              1 S1                 0.0000
     33 ****         1.0511  -3.3372  -0.2265 H              1 S1                 0.0000
     34 ****         0.0907  -4.7164   0.2743 H              1 S1                 0.0000
     35 ****         0.8231  -2.5392  -2.5229 H              1 S1                 0.0000
     36 ****        -0.2908  -3.3770  -3.5873 H              1 S1                 0.0000
     37 ****        -2.2421  -2.5679  -2.3052 H              1 S1                 0.0000
     38 ****        -1.2569  -1.1897  -2.7705 H              1 S1                 0.0000
     39 ****         0.3752   3.8999  -0.3685 LP             1 S1                 0.0000
     40 ****        -1.1536   3.0884  -0.3022 LP             1 S1                 0.0000
     41 ****         1.9789   2.2189   1.9827 LP             1 S1                 0.0000
     42 ****         1.9847   3.6079   1.1240 LP             1 S1                 0.0000
     43 ****        -3.6515  -1.9939  -0.6309 LP             1 S1                 0.0000
     44 ****        -0.2404  -1.2630  -0.6780 LP             1 S1                 0.0000
     45 ****        -1.0233  -4.6402  -1.7710 LP             1 S1                 0.0000
     46 ****         0.5880  -4.7975  -1.9848 LP             1 S1                 0.0000
@<TRIPOS>BOND
    1    1    2 2     
    2    2    3 1     
    3    2   10 am    
    4    3    4 1     
    5    3   23 1     
    6    3   24 1     
    7    4    5 1     
    8    5    6 1     
    9    5   25 1     
   10    5   26 1     
   11    6    7 1     
   12    6    8 1     
   13    6    9 1     
   14   10   11 1     
   15   10   27 1     
   16   11   16 ar    
   17   11   12 ar    
   18   12   13 ar    
   19   12   28 1     
   20   13   14 ar    
   21   13   29 1     
   22   14   15 ar    
   23   14   30 1     
   24   15   16 ar    
   25   16   17 1     
   26   17   22 1     
   27   17   18 1     
   28   18   19 1     
   29   18   31 1     
   30   18   32 1     
   31   19   20 1     
   32   19   33 1     
   33   19   34 1     
   34   20   21 1     
   35   21   22 1     
   36   21   35 1     
   37   21   36 1     
   38   22   37 1     
   39   22   38 1     
   40    1   39 1     
   41    1   40 1     
   42    4   41 1     
   43    4   42 1     
   44   15   43 1     
   45   17   44 1     
   46   20   45 1     
   47   20   46 1     
@<TRIPOS>SUBSTRUCTURE
      1 S1             1
@<TRIPOS>SET
LONE_PAIRS      STATIC     ATOMS    <user>   **** ""
8 39 40 41 42 43 44 45 46
DONOR_HYDROGENS      STATIC     ATOMS    <user>   **** ""
1 27
ATOM$BLUE        STATIC     ATOMS    COLORGROUP SYSTEM
8 39 40 41 42 43 44 45 46
ATOM$RED        STATIC     ATOMS    COLORGROUP SYSTEM
1 27
