AV-unprocessed.smi:3116|AV-procd|sdf|11871|dock6
  -GOLD-   2272017253D 1   1.00000     0.00000
 Structure written by MMmdl.
 33 33  0  0  0  0  0  0  0  0  1 V2000
  155.0914  139.5651  162.5652 C   0  0  0  0  0  0  0  0  0  0  0  0
  154.8458  139.2849  161.0668 C   0  0  1  0  0  0  0  0  0  0  0  0
  153.5042  139.7284  160.6538 N   0  0  0  0  0  0  0  0  0  0  0  0
  153.4203  141.1455  160.3045 C   0  0  2  0  0  0  0  0  0  0  0  0
  153.5779  141.9718  161.5984 C   0  0  0  0  0  0  0  0  0  0  0  0
  152.0691  141.3875  159.5790 C   0  0  2  0  0  0  0  0  0  0  0  0
  151.8495  140.4107  158.4066 C   0  0  0  0  0  0  0  0  0  0  0  0
  151.9304  142.7629  159.1155 N   0  0  0  0  0  0  0  0  0  0  0  0
  152.1577  143.9271  159.8204 C   0  0  0  0  0  0  0  0  0  0  0  0
  151.8999  144.9717  158.9797 C   0  0  0  0  0  0  0  0  0  0  0  0
  151.5148  144.3402  157.7646 C   0  0  0  0  0  0  0  0  0  0  0  0
  151.5333  143.0202  157.8481 N   0  0  0  0  0  0  0  0  0  0  0  0
  155.9031  139.9659  160.1859 C   0  0  0  0  0  0  0  0  0  0  0  0
  156.7025  140.8515  160.7866 N   0  0  0  0  0  0  0  0  0  0  0  0
  156.0149  139.6972  158.9908 O   0  0  0  0  0  0  0  0  0  0  0  0
  156.1155  139.3208  162.8502 H   0  0  0  0  0  0  0  0  0  0  0  0
  154.4390  138.9711  163.2041 H   0  0  0  0  0  0  0  0  0  0  0  0
  154.9198  140.6144  162.8090 H   0  0  0  0  0  0  0  0  0  0  0  0
  154.9443  138.2119  160.8966 H   0  0  0  0  0  0  0  0  0  0  0  0
  152.8130  139.5300  161.3629 H   0  0  0  0  0  0  0  0  0  0  0  0
  154.2234  141.4223  159.6217 H   0  0  0  0  0  0  0  0  0  0  0  0
  153.5921  143.0420  161.3915 H   0  0  0  0  0  0  0  0  0  0  0  0
  154.5098  141.7428  162.1152 H   0  0  0  0  0  0  0  0  0  0  0  0
  152.7592  141.7804  162.2929 H   0  0  0  0  0  0  0  0  0  0  0  0
  151.2640  141.2244  160.2979 H   0  0  0  0  0  0  0  0  0  0  0  0
  151.8244  139.3759  158.7486 H   0  0  0  0  0  0  0  0  0  0  0  0
  152.6439  140.4913  157.6639 H   0  0  0  0  0  0  0  0  0  0  0  0
  150.9027  140.6084  157.9034 H   0  0  0  0  0  0  0  0  0  0  0  0
  152.4815  143.9159  160.8506 H   0  0  0  0  0  0  0  0  0  0  0  0
  151.9751  146.0262  159.1993 H   0  0  0  0  0  0  0  0  0  0  0  0
  151.2240  144.7983  156.8308 H   0  0  0  0  0  0  0  0  0  0  0  0
  157.4192  141.3251  160.2562 H   0  0  0  0  0  0  0  0  0  0  0  0
  156.5891  141.0394  161.7721 H   0  0  0  0  0  0  0  0  0  0  0  0
  1  2  1  0  0  0  0
  1 16  1  0  0  0  0
  1 17  1  0  0  0  0
  1 18  1  0  0  0  0
  2  3  1  0  0  0  0
  2 13  1  0  0  0  0
  2 19  1  0  0  0  0
  3  4  1  0  0  0  0
  3 20  1  0  0  0  0
  4  5  1  0  0  0  0
  4  6  1  0  0  0  0
  4 21  1  0  0  0  0
  5 22  1  0  0  0  0
  5 23  1  0  0  0  0
  5 24  1  0  0  0  0
  6  7  1  0  0  0  0
  6  8  1  0  0  0  0
  6 25  1  0  0  0  0
  7 26  1  0  0  0  0
  7 27  1  0  0  0  0
  7 28  1  0  0  0  0
  8 12  1  0  0  0  0
  8  9  1  0  0  0  0
  9 10  2  0  0  0  0
  9 29  1  0  0  0  0
 10 11  1  0  0  0  0
 10 30  1  0  0  0  0
 11 12  2  0  0  0  0
 11 31  1  0  0  0  0
 13 14  1  0  0  0  0
 13 15  2  0  0  0  0
 14 32  1  0  0  0  0
 14 33  1  0  0  0  0
M  END
> <s_m_source_file>
AV-unprocessed.smi

> <i_m_source_file_index>
3116

> <i_lp_mmshare_version>
43012

> <i_f3d_flags>
0

> <s_epik_input>
W05IMl1DKD1PKVtDQEhdKFtDSDNdKVtOSF1bQ0BIXShbQ0gzXSlbQ0BIXShbQ0gzXSluMVtjSF1bY0hdW2NIXW4x

> <s_epik_cmdline>
J2VwaWtfcHl0aG9uJywgJy1waCcsICc3LjAnLCAnLXRuJywgJzgnLCAnLW1hJywgJzIwMCcsICctbWV0YWxfYmluZGluZycsICctaW1hZScsICc8aW5maWxlLm1hZT4nLCAnLW9tYWUnLCAnPG91dGZpbGUubWFlPic=

> <r_lp_tautomer_probability>
1

> <r_epik_Ionization_Penalty>
0.865977

> <r_epik_Ionization_Penalty_Charging>
0

> <r_epik_Ionization_Penalty_Neutral>
0.865977

> <r_epik_State_Penalty>
0.901888

> <r_epik_Charging_Adjusted_Penalty>
0.901888

> <i_epik_Tot_Q>
0

> <i_epik_Tot_abs_Q>
0

> <r_epik_Metal_State_Penalty>
0.901181

> <b_epik_Metal_Only>
0

> <s_lp_Force_Field>
OPLS_2005

> <r_lp_Energy>
9.31489

> <b_lp_Chiralities_Consistent>
1

> <s_lp_Variant>
AV-unprocessed.smi:3116-10

> <Gold.Version>
5.8.1

> <Gold.Id.Protein>
6NUR|6NUR_protein|mol2

> <Gold.PLP.Fitness>
37.4358

> <Gold.PLP.PLP>
-33.6910

> <Gold.PLP.part.hbond>
-2.0000

> <Gold.PLP.part.metal>
0.0000

> <Gold.PLP.part.buried>
-3.9825

> <Gold.PLP.part.nonpolar>
-29.1501

> <Gold.PLP.part.repulsive>
0.1315

> <Gold.PLP.ligand.clash>
0.9832

> <Gold.PLP.ligand.torsion>
0.6755

> <Gold.PLP.Chemscore.Hbond>
1.0000

> <Gold.PLP.Chemscore.CHOScore>
0.9912

> <Gold.PLP.Chemscore.Metal>
0.0000

> <Gold.Chemscore.Hbonds>
donor molecule, donor type, donor heavy atom, donor atom, acceptor molecule, acceptor atom, score
      P1  H  7997  8008       L1    15  1.00
      L1  C    11    31       P1  8028  0.87

> <Gold.PLP.Chemscore.Internal.Correction>
0.1056

> <Gold.Rescore>
     Score         DG    S(hbond)    S(metal)    S(lipo)     H(rot)  DE(clash)    DE(int)     intcor
     10.29     -12.91       0.96        0.00      88.35       2.38       0.32       2.30       ----

> <Gold.Chemscore.Fitness>
10.2902

> <Gold.Chemscore.DG>
-12.9084

> <Gold.Chemscore.ZeroCoef>
-5.4800

> <Gold.Chemscore.Hbond>
0.9560

> <Gold.Chemscore.Metal>
0.0000

> <Gold.Chemscore.Lipo>
88.3523

> <Gold.Chemscore.Internal_Hbond>
0.0000

> <Gold.Chemscore.DEClash>
0.3158

> <Gold.Chemscore.DEInternal>
2.3025

> <Gold.Chemscore.Rot>
2.3836

> <Gold.Chemscore.Internal.Correction>
   9.000000E+99

> <Gold.Chemscore.Hbonds>
donor molecule, donor type, donor heavy atom, donor atom, acceptor molecule, acceptor atom, score
      P1  H  7997  8008       L1    15  0.98

> <Gold.Chemscore.Hbond.Weighted>
-3.1932

> <Gold.Chemscore.Metal.Weighted>
-0.0000

> <Gold.Chemscore.Lipo.Weighted>
-10.3372

> <Gold.Chemscore.Internal_Hbond.Weighted>
0.0000

> <Gold.Chemscore.DEClash.Weighted>
0.3158

> <Gold.Chemscore.DEInternal.Weighted>
2.3025

> <Gold.Chemscore.Rot.Weighted>
6.1020

> <Gold.Chemscore.Internal.Correction.Weighted>
   9.000000E+99

> <Gold.Protein.RotatedTorsions>
[ 6907 6896 6895 6894 ] final -153.95 input  -60.11 | X-H torsion
[ 7974 7965 7964 7962 ] final  -17.13 input  175.53 | X-H torsion
[ 8008 7997 7996 7995 ] final -161.44 input   59.86 | X-H torsion
[ 10167 10162 10161 10158 ] final   92.16 input  -65.29 | X-H torsion
[ 10718 10713 10712 10709 ] final  -18.71 input   66.30 | X-H torsion
[ 10763 10752 10751 10750 ] final -151.03 input  -60.55 | X-H torsion
[ 11005 11000 10999 10996 ] final  -59.15 input  -57.11 | X-H torsion

> <Gold.Protein.ActiveResidues>
 VAL166  LYS551  ARG553  GLY616  TRP617  ASP618  TYR619  PRO620  LYS621  CYS622 
 ASP623  PHE694  ASN695  SER759  ASP760  ASP761  ALA762  ILE779  LEU786  VAL792 
 PHE793  MET794  SER795  GLU796  ALA797  LYS798  CYS799  TRP800  GLU811  SER814 

> <Gold.Protein.RotatedAtoms>
  151.2502  133.4354  159.2610 H   0  0  0  0  0  0  0  0  0  0  0  0  # atno 6907 bound_to 6896
  151.0624  134.9746  159.8277 H   0  0  0  0  0  0  0  0  0  0  0  0  # atno 6908 bound_to 6896
  152.5400  134.2451  159.8930 H   0  0  0  0  0  0  0  0  0  0  0  0  # atno 6909 bound_to 6896
  146.1955  140.3735  142.8442 H   0  0  0  0  0  0  0  0  0  0  0  0  # atno 7974 bound_to 7965
  155.7923  140.0880  157.2002 H   0  0  0  0  0  0  0  0  0  0  0  0  # atno 8008 bound_to 7997
  154.3985  140.1488  156.3235 H   0  0  0  0  0  0  0  0  0  0  0  0  # atno 8009 bound_to 7997
  155.8546  140.3433  155.5719 H   0  0  0  0  0  0  0  0  0  0  0  0  # atno 8010 bound_to 7997
  139.8304  144.6690  150.9407 H   0  0  0  0  0  0  0  0  0  0  0  0  # atno 10167 bound_to 10162
  156.5558  130.4713  149.6430 H   0  0  0  0  0  0  0  0  0  0  0  0  # atno 10718 bound_to 10713
  154.8083  135.3270  154.7373 H   0  0  0  0  0  0  0  0  0  0  0  0  # atno 10763 bound_to 10752
  153.8027  135.6902  153.4857 H   0  0  0  0  0  0  0  0  0  0  0  0  # atno 10764 bound_to 10752
  153.1843  135.4575  155.0014 H   0  0  0  0  0  0  0  0  0  0  0  0  # atno 10765 bound_to 10752
  141.1237  133.6615  156.5029 H   0  0  0  0  0  0  0  0  0  0  0  0  # atno 11005 bound_to 11000
  144.8572  140.7088  143.6130 LP  0  0  0  0  0  0  0  0  0  0  0  0  # atno 17320 bound_to 7965
  145.3656  139.1671  143.4360 LP  0  0  0  0  0  0  0  0  0  0  0  0  # atno 17321 bound_to 7965
  140.7807  143.4006  151.1155 LP  0  0  0  0  0  0  0  0  0  0  0  0  # atno 17342 bound_to 10162
  139.7660  143.8564  152.3111 LP  0  0  0  0  0  0  0  0  0  0  0  0  # atno 17343 bound_to 10162
  156.2844  130.7089  151.1921 LP  0  0  0  0  0  0  0  0  0  0  0  0  # atno 17370 bound_to 10713
  157.7378  131.0547  150.5330 LP  0  0  0  0  0  0  0  0  0  0  0  0  # atno 17371 bound_to 10713
  140.4431  134.6997  157.5002 LP  0  0  0  0  0  0  0  0  0  0  0  0  # atno 17394 bound_to 11000
  140.0215  134.6539  155.9232 LP  0  0  0  0  0  0  0  0  0  0  0  0  # atno 17395 bound_to 11000

$$$$
