AV-unprocessed.smi:2126|AV-procd|sdf|8678|dock9
  -GOLD-   2272011433D 1   1.00000     0.00000
 Structure written by MMmdl.
 41 43  0  0  0  0  0  0  0  0  2 V2000
  146.4036  131.6335  160.9920 C   0  0  0  0  0  0  0  0  0  0  0  0
  146.0220  132.8586  161.6004 O   0  0  0  0  0  0  0  0  0  0  0  0
  146.6900  134.0042  161.2250 C   0  0  0  0  0  0  0  0  0  0  0  0
  146.8500  135.1418  162.0535 C   0  0  0  0  0  0  0  0  0  0  0  0
  147.5520  136.2696  161.5867 C   0  0  0  0  0  0  0  0  0  0  0  0
  148.1059  136.2944  160.2916 C   0  0  0  0  0  0  0  0  0  0  0  0
  148.7771  137.4391  159.9185 O   0  0  0  0  0  0  0  0  0  0  0  0
  149.8432  137.3213  158.9855 C   0  0  0  0  0  0  0  0  0  0  0  0
  149.5291  138.1969  157.7640 C   0  0  1  0  0  0  0  0  0  0  0  0
  148.6191  139.2075  158.1517 O   0  0  0  0  0  0  0  0  0  0  0  0
  150.7945  138.8418  157.1639 C   0  0  0  0  0  0  0  0  0  0  0  0
  150.7130  140.3063  157.0993 N   0  0  0  0  0  0  0  0  0  0  0  0
  150.0046  141.1072  156.2580 C   0  0  0  0  0  0  0  0  0  0  0  0
  150.2635  142.3985  156.6052 N   0  3  0  0  0  0  0  0  0  0  0  0
  151.1513  142.4226  157.6832 C   0  0  0  0  0  0  0  0  0  0  0  0
  151.7075  143.4884  158.3838 C   0  0  0  0  0  0  0  0  0  0  0  0
  152.5859  143.1630  159.4384 C   0  0  0  0  0  0  0  0  0  0  0  0
  152.8810  141.8225  159.7622 C   0  0  0  0  0  0  0  0  0  0  0  0
  152.3103  140.7495  159.0462 C   0  0  0  0  0  0  0  0  0  0  0  0
  151.4440  141.0805  158.0053 C   0  0  0  0  0  0  0  0  0  0  0  0
  147.9441  135.1577  159.4623 C   0  0  0  0  0  0  0  0  0  0  0  0
  147.2444  134.0288  159.9301 C   0  0  0  0  0  0  0  0  0  0  0  0
  145.7844  130.8277  161.3858 H   0  0  0  0  0  0  0  0  0  0  0  0
  147.4436  131.3877  161.2107 H   0  0  0  0  0  0  0  0  0  0  0  0
  146.2580  131.6619  159.9114 H   0  0  0  0  0  0  0  0  0  0  0  0
  146.4444  135.1746  163.0532 H   0  0  0  0  0  0  0  0  0  0  0  0
  147.6658  137.1280  162.2326 H   0  0  0  0  0  0  0  0  0  0  0  0
  150.7713  137.6596  159.4501 H   0  0  0  0  0  0  0  0  0  0  0  0
  149.9756  136.2823  158.6783 H   0  0  0  0  0  0  0  0  0  0  0  0
  149.0342  137.5846  157.0098 H   0  0  0  0  0  0  0  0  0  0  0  0
  149.0912  139.8660  158.6385 H   0  0  0  0  0  0  0  0  0  0  0  0
  151.6697  138.5887  157.7641 H   0  0  0  0  0  0  0  0  0  0  0  0
  150.9896  138.4653  156.1589 H   0  0  0  0  0  0  0  0  0  0  0  0
  149.3568  140.7776  155.4586 H   0  0  0  0  0  0  0  0  0  0  0  0
  151.4833  144.5160  158.1379 H   0  0  0  0  0  0  0  0  0  0  0  0
  153.0425  143.9577  160.0104 H   0  0  0  0  0  0  0  0  0  0  0  0
  153.5592  141.6123  160.5766 H   0  0  0  0  0  0  0  0  0  0  0  0
  152.5420  139.7255  159.3002 H   0  0  0  0  0  0  0  0  0  0  0  0
  148.3493  135.1241  158.4626 H   0  0  0  0  0  0  0  0  0  0  0  0
  147.1318  133.1695  159.2854 H   0  0  0  0  0  0  0  0  0  0  0  0
  149.8629  143.2018  156.1381 H   0  0  0  0  0  0  0  0  0  0  0  0
  1  2  1  0  0  0  0
  1 23  1  0  0  0  0
  1 24  1  0  0  0  0
  1 25  1  0  0  0  0
  2  3  1  0  0  0  0
  3 22  1  0  0  0  0
  3  4  2  0  0  0  0
  4  5  1  0  0  0  0
  4 26  1  0  0  0  0
  5  6  2  0  0  0  0
  5 27  1  0  0  0  0
  6  7  1  0  0  0  0
  6 21  1  0  0  0  0
  7  8  1  0  0  0  0
  8  9  1  0  0  0  0
  8 28  1  0  0  0  0
  8 29  1  0  0  0  0
  9 10  1  0  0  0  0
  9 11  1  0  0  0  0
  9 30  1  0  0  0  0
 10 31  1  0  0  0  0
 11 12  1  0  0  0  0
 11 32  1  0  0  0  0
 11 33  1  0  0  0  0
 12 20  1  0  0  0  0
 12 13  1  0  0  0  0
 13 14  2  0  0  0  0
 13 34  1  0  0  0  0
 14 15  1  0  0  0  0
 14 41  1  0  0  0  0
 15 20  2  0  0  0  0
 15 16  1  0  0  0  0
 16 17  2  0  0  0  0
 16 35  1  0  0  0  0
 17 18  1  0  0  0  0
 17 36  1  0  0  0  0
 18 19  2  0  0  0  0
 18 37  1  0  0  0  0
 19 20  1  0  0  0  0
 19 38  1  0  0  0  0
 21 22  2  0  0  0  0
 21 39  1  0  0  0  0
 22 40  1  0  0  0  0
M  CHG  1  14   1
M  END
> <s_m_source_file>
AV-unprocessed.smi

> <i_m_source_file_index>
2126

> <i_lp_mmshare_version>
43012

> <i_f3d_flags>
0

> <s_epik_input>
W0NIM11PYzFbY0hdW2NIXWMoW2NIXVtjSF0xKU9bQ0gyXVtDQEhdKFtPSF0pW0NIMl1uKFtjSF1uMiljKGMyMylbY0hdW2NIXVtjSF1bY0hdMw==

> <s_epik_cmdline>
J2VwaWtfcHl0aG9uJywgJy1waCcsICc3LjAnLCAnLXRuJywgJzgnLCAnLW1hJywgJzIwMCcsICctbWV0YWxfYmluZGluZycsICctaW1hZScsICc8aW5maWxlLm1hZT4nLCAnLW9tYWUnLCAnPG91dGZpbGUubWFlPic=

> <r_lp_tautomer_probability>
1

> <r_epik_Ionization_Penalty>
1.37822

> <r_epik_Ionization_Penalty_Charging>
1.37822

> <r_epik_Ionization_Penalty_Neutral>
2.3993e-06

> <r_epik_State_Penalty>
1.45852

> <r_epik_Charging_Adjusted_Penalty>
2.83674

> <i_epik_Tot_Q>
1

> <i_epik_Tot_abs_Q>
1

> <r_epik_Metal_State_Penalty>
5.4985

> <b_epik_Metal_Only>
0

> <s_lp_Force_Field>
OPLS_2005

> <r_lp_Energy>
22.1455

> <b_lp_Chiralities_Consistent>
1

> <s_lp_Variant>
AV-unprocessed.smi:2126-4

> <Gold.Version>
5.8.1

> <Gold.Id.Protein>
6NUR|6NUR_protein|mol2

> <Gold.PLP.Fitness>
45.1741

> <Gold.PLP.PLP>
-43.2763

> <Gold.PLP.part.hbond>
-3.8246

> <Gold.PLP.part.metal>
0.0000

> <Gold.PLP.part.buried>
-5.1460

> <Gold.PLP.part.nonpolar>
-35.0257

> <Gold.PLP.part.repulsive>
0.0853

> <Gold.PLP.ligand.clash>
0.0000

> <Gold.PLP.ligand.torsion>
2.5288

> <Gold.PLP.Chemscore.Hbond>
2.2880

> <Gold.PLP.Chemscore.CHOScore>
0.0000

> <Gold.PLP.Chemscore.Metal>
0.0000

> <Gold.Chemscore.Hbonds>
donor molecule, donor type, donor heavy atom, donor atom, acceptor molecule, acceptor atom, score
      L1  H    14    41       P1  8028  2.00
      P1  H  6931  6943       L1     7  0.26

> <Gold.PLP.Chemscore.Internal.Correction>
0.0915

> <Gold.Rescore>
     Score         DG    S(hbond)    S(metal)    S(lipo)     H(rot)  DE(clash)    DE(int)     intcor
     13.41     -15.77       1.08        0.00     114.15       2.60       0.10       2.25       ----

> <Gold.Chemscore.Fitness>
13.4125

> <Gold.Chemscore.DG>
-15.7680

> <Gold.Chemscore.ZeroCoef>
-5.4800

> <Gold.Chemscore.Hbond>
1.0777

> <Gold.Chemscore.Metal>
0.0000

> <Gold.Chemscore.Lipo>
114.1503

> <Gold.Chemscore.Internal_Hbond>
0.0000

> <Gold.Chemscore.DEClash>
0.1044

> <Gold.Chemscore.DEInternal>
2.2512

> <Gold.Chemscore.Rot>
2.6043

> <Gold.Chemscore.Internal.Correction>
   9.000000E+99

> <Gold.Chemscore.Hbonds>
donor molecule, donor type, donor heavy atom, donor atom, acceptor molecule, acceptor atom, score
      L1  H    14    41       P1  8028  1.00
      P1  H  6931  6943       L1     7  0.05

> <Gold.Chemscore.Hbond.Weighted>
-3.5995

> <Gold.Chemscore.Metal.Weighted>
-0.0000

> <Gold.Chemscore.Lipo.Weighted>
-13.3556

> <Gold.Chemscore.Internal_Hbond.Weighted>
0.0000

> <Gold.Chemscore.DEClash.Weighted>
0.1044

> <Gold.Chemscore.DEInternal.Weighted>
2.2512

> <Gold.Chemscore.Rot.Weighted>
6.6670

> <Gold.Chemscore.Internal.Correction.Weighted>
   9.000000E+99

> <Gold.Protein.RotatedTorsions>
[ 6907 6896 6895 6894 ] final -166.65 input  -60.11 | X-H torsion
[ 7974 7965 7964 7962 ] final  130.08 input  175.53 | X-H torsion
[ 8008 7997 7996 7995 ] final  125.02 input   59.86 | X-H torsion
[ 10167 10162 10161 10158 ] final  -60.54 input  -65.29 | X-H torsion
[ 10718 10713 10712 10709 ] final -138.03 input   66.30 | X-H torsion
[ 10763 10752 10751 10750 ] final -148.72 input  -60.55 | X-H torsion
[ 11005 11000 10999 10996 ] final   76.73 input  -57.11 | X-H torsion

> <Gold.Protein.ActiveResidues>
 VAL166  LYS551  ARG553  GLY616  TRP617  ASP618  TYR619  PRO620  LYS621  CYS622 
 ASP623  PHE694  ASN695  SER759  ASP760  ASP761  ALA762  ILE779  LEU786  VAL792 
 PHE793  MET794  SER795  GLU796  ALA797  LYS798  CYS799  TRP800  GLU811  SER814 

> <Gold.Protein.RotatedAtoms>
  151.4469  133.3628  159.2789 H   0  0  0  0  0  0  0  0  0  0  0  0  # atno 6907 bound_to 6896
  150.9118  134.8536  159.7441 H   0  0  0  0  0  0  0  0  0  0  0  0  # atno 6908 bound_to 6896
  152.4936  134.4400  159.9592 H   0  0  0  0  0  0  0  0  0  0  0  0  # atno 6909 bound_to 6896
  145.0217  139.4126  143.5194 H   0  0  0  0  0  0  0  0  0  0  0  0  # atno 7974 bound_to 7965
  156.2820  140.2726  156.1882 H   0  0  0  0  0  0  0  0  0  0  0  0  # atno 8008 bound_to 7997
  155.0486  140.0386  157.2553 H   0  0  0  0  0  0  0  0  0  0  0  0  # atno 8009 bound_to 7997
  154.7214  140.2688  155.6543 H   0  0  0  0  0  0  0  0  0  0  0  0  # atno 8010 bound_to 7997
  140.6064  143.2375  151.5810 H   0  0  0  0  0  0  0  0  0  0  0  0  # atno 10167 bound_to 10162
  156.2948  130.7395  151.1431 H   0  0  0  0  0  0  0  0  0  0  0  0  # atno 10718 bound_to 10713
  154.8217  135.3327  154.7017 H   0  0  0  0  0  0  0  0  0  0  0  0  # atno 10763 bound_to 10752
  153.7649  135.6930  153.4922 H   0  0  0  0  0  0  0  0  0  0  0  0  # atno 10764 bound_to 10752
  153.2085  135.4491  155.0300 H   0  0  0  0  0  0  0  0  0  0  0  0  # atno 10765 bound_to 10752
  139.9285  134.7625  156.1432 H   0  0  0  0  0  0  0  0  0  0  0  0  # atno 11005 bound_to 11000
  146.3486  139.9718  142.8705 LP  0  0  0  0  0  0  0  0  0  0  0  0  # atno 17320 bound_to 7965
  145.1887  140.9801  143.4224 LP  0  0  0  0  0  0  0  0  0  0  0  0  # atno 17321 bound_to 7965
  139.5328  144.2866  152.1186 LP  0  0  0  0  0  0  0  0  0  0  0  0  # atno 17342 bound_to 10162
  140.2056  144.4614  150.6410 LP  0  0  0  0  0  0  0  0  0  0  0  0  # atno 17343 bound_to 10162
  157.7352  131.0574  150.5482 LP  0  0  0  0  0  0  0  0  0  0  0  0  # atno 17370 bound_to 10713
  156.5602  130.4253  149.6066 LP  0  0  0  0  0  0  0  0  0  0  0  0  # atno 17371 bound_to 10713
  141.0859  133.6734  156.2435 LP  0  0  0  0  0  0  0  0  0  0  0  0  # atno 17394 bound_to 11000
  140.6267  134.5306  157.5554 LP  0  0  0  0  0  0  0  0  0  0  0  0  # atno 17395 bound_to 11000

$$$$
