AV-unprocessed.smi:2807|AV-procd|sdf|10817|dock3
  -GOLD-   2272015253D 1   1.00000     0.00000
 Structure written by MMmdl.
 32 33  0  0  0  0  0  0  0  0  1 V2000
  150.0649  135.7515  158.6480 O   0  0  0  0  0  0  0  0  0  0  0  0
  148.9057  135.6815  158.2379 C   0  0  0  0  0  0  0  0  0  0  0  0
  148.5422  134.9212  157.1919 N   0  0  0  0  0  0  0  0  0  0  0  0
  149.4532  134.1473  156.3490 C   0  0  1  0  0  0  0  0  0  0  0  0
  149.0227  132.6698  156.3229 C   0  0  0  0  0  0  0  0  0  0  0  0
  148.4049  132.4398  154.9449 C   0  0  0  0  0  0  0  0  0  0  0  0
  149.2021  133.3605  154.0258 C   0  0  0  0  0  0  0  0  0  0  0  0
  149.4764  134.6143  154.8660 C   0  0  1  0  0  0  0  0  0  0  0  0
  148.4906  135.5881  154.5655 O   0  0  0  0  0  0  0  0  0  0  0  0
  147.7937  136.5111  158.8959 C   0  0  0  0  0  0  0  0  0  0  0  0
  148.1202  137.8026  158.8089 F   0  0  0  0  0  0  0  0  0  0  0  0
  146.6505  136.3302  158.2297 F   0  0  0  0  0  0  0  0  0  0  0  0
  147.6202  136.0897  160.3534 C   0  0  0  0  0  0  0  0  0  0  0  0
  147.3169  134.7518  160.6961 C   0  0  0  0  0  0  0  0  0  0  0  0
  147.1342  134.4273  162.0541 C   0  0  0  0  0  0  0  0  0  0  0  0
  147.2605  135.4450  163.0184 C   0  0  0  0  0  0  0  0  0  0  0  0
  147.5645  136.7482  162.5798 C   0  0  0  0  0  0  0  0  0  0  0  0
  147.7393  137.0702  161.2805 N   0  0  0  0  0  0  0  0  0  0  0  0
  147.5695  134.9261  156.9207 H   0  0  0  0  0  0  0  0  0  0  0  0
  150.4606  134.1979  156.7661 H   0  0  0  0  0  0  0  0  0  0  0  0
  149.9054  132.0373  156.4269 H   0  0  0  0  0  0  0  0  0  0  0  0
  148.3408  132.4006  157.1310 H   0  0  0  0  0  0  0  0  0  0  0  0
  148.4472  131.3955  154.6344 H   0  0  0  0  0  0  0  0  0  0  0  0
  147.3574  132.7447  154.9538 H   0  0  0  0  0  0  0  0  0  0  0  0
  150.1487  132.8797  153.7760 H   0  0  0  0  0  0  0  0  0  0  0  0
  148.6878  133.5694  153.0866 H   0  0  0  0  0  0  0  0  0  0  0  0
  150.4468  135.0405  154.6099 H   0  0  0  0  0  0  0  0  0  0  0  0
  148.5523  135.8020  153.6470 H   0  0  0  0  0  0  0  0  0  0  0  0
  147.2152  133.9889  159.9386 H   0  0  0  0  0  0  0  0  0  0  0  0
  146.8980  133.4160  162.3504 H   0  0  0  0  0  0  0  0  0  0  0  0
  147.1261  135.2328  164.0686 H   0  0  0  0  0  0  0  0  0  0  0  0
  147.6672  137.5542  163.2913 H   0  0  0  0  0  0  0  0  0  0  0  0
  1  2  2  0  0  0  0
  2  3  1  0  0  0  0
  2 10  1  0  0  0  0
  3  4  1  0  0  0  0
  3 19  1  0  0  0  0
  4  8  1  0  0  0  0
  4  5  1  0  0  0  0
  4 20  1  0  0  0  0
  5  6  1  0  0  0  0
  5 21  1  0  0  0  0
  5 22  1  0  0  0  0
  6  7  1  0  0  0  0
  6 23  1  0  0  0  0
  6 24  1  0  0  0  0
  7  8  1  0  0  0  0
  7 25  1  0  0  0  0
  7 26  1  0  0  0  0
  8  9  1  0  0  0  0
  8 27  1  0  0  0  0
  9 28  1  0  0  0  0
 10 11  1  0  0  0  0
 10 12  1  0  0  0  0
 10 13  1  0  0  0  0
 13 18  1  0  0  0  0
 13 14  2  0  0  0  0
 14 15  1  0  0  0  0
 14 29  1  0  0  0  0
 15 16  2  0  0  0  0
 15 30  1  0  0  0  0
 16 17  1  0  0  0  0
 16 31  1  0  0  0  0
 17 18  2  0  0  0  0
 17 32  1  0  0  0  0
M  END
> <s_m_source_file>
AV-unprocessed.smi

> <i_m_source_file_index>
2807

> <i_lp_mmshare_version>
43012

> <i_f3d_flags>
0

> <s_epik_input>
bjFbY0hdW2NIXVtjSF1bY0hdYzFDKEYpKEYpQyg9TylbTkhdW0NAQEhdMltDSDJdW0NIMl1bQ0gyXVtDQEhdMltPSF0=

> <s_epik_cmdline>
J2VwaWtfcHl0aG9uJywgJy1waCcsICc3LjAnLCAnLXRuJywgJzgnLCAnLW1hJywgJzIwMCcsICctbWV0YWxfYmluZGluZycsICctaW1hZScsICc8aW5maWxlLm1hZT4nLCAnLW9tYWUnLCAnPG91dGZpbGUubWFlPic=

> <r_lp_tautomer_probability>
1

> <r_epik_Ionization_Penalty>
4.08325e-05

> <r_epik_Ionization_Penalty_Charging>
0

> <r_epik_Ionization_Penalty_Neutral>
4.08325e-05

> <r_epik_State_Penalty>
-0

> <r_epik_Charging_Adjusted_Penalty>
0

> <i_epik_Tot_Q>
0

> <i_epik_Tot_abs_Q>
0

> <r_epik_Metal_State_Penalty>
0.034564

> <b_epik_Metal_Only>
0

> <s_lp_Force_Field>
OPLS_2005

> <r_lp_Energy>
28.4248

> <b_lp_Chiralities_Consistent>
1

> <s_lp_Variant>
AV-unprocessed.smi:2807-2

> <Gold.Version>
5.8.1

> <Gold.Id.Protein>
6NUR|6NUR_protein|mol2

> <Gold.PLP.Fitness>
39.4591

> <Gold.PLP.PLP>
-30.0049

> <Gold.PLP.part.hbond>
-4.0000

> <Gold.PLP.part.metal>
0.0000

> <Gold.PLP.part.buried>
-2.5536

> <Gold.PLP.part.nonpolar>
-24.1261

> <Gold.PLP.part.repulsive>
0.0566

> <Gold.PLP.ligand.clash>
0.0000

> <Gold.PLP.ligand.torsion>
0.0650

> <Gold.PLP.Chemscore.Hbond>
3.1892

> <Gold.PLP.Chemscore.CHOScore>
0.0000

> <Gold.PLP.Chemscore.Metal>
0.0000

> <Gold.Chemscore.Hbonds>
donor molecule, donor type, donor heavy atom, donor atom, acceptor molecule, acceptor atom, score
      L1  H     9    28       P1  7948  1.00
      P1  H  6896  6909       L1     1  1.00
      P1  H  6931  6943       L1    18  0.25
      P1  H  6934  6947       L1    18  0.78

> <Gold.PLP.Chemscore.Internal.Correction>
0.0167

> <Gold.Rescore>
     Score         DG    S(hbond)    S(metal)    S(lipo)     H(rot)  DE(clash)    DE(int)     intcor
     17.35     -17.47       2.83        0.00      66.47       2.05       0.04       0.08       ----

> <Gold.Chemscore.Fitness>
17.3484

> <Gold.Chemscore.DG>
-17.4697

> <Gold.Chemscore.ZeroCoef>
-5.4800

> <Gold.Chemscore.Hbond>
2.8292

> <Gold.Chemscore.Metal>
0.0000

> <Gold.Chemscore.Lipo>
66.4718

> <Gold.Chemscore.Internal_Hbond>
0.0000

> <Gold.Chemscore.DEClash>
0.0400

> <Gold.Chemscore.DEInternal>
0.0813

> <Gold.Chemscore.Rot>
2.0457

> <Gold.Chemscore.Internal.Correction>
   9.000000E+99

> <Gold.Chemscore.Hbonds>
donor molecule, donor type, donor heavy atom, donor atom, acceptor molecule, acceptor atom, score
      L1  H     9    28       P1  7948  1.00
      P1  H  6896  6909       L1     1  0.94
      P1  H  6934  6947       L1    18  0.55

> <Gold.Chemscore.Hbond.Weighted>
-9.4496

> <Gold.Chemscore.Metal.Weighted>
-0.0000

> <Gold.Chemscore.Lipo.Weighted>
-7.7772

> <Gold.Chemscore.Internal_Hbond.Weighted>
0.0000

> <Gold.Chemscore.DEClash.Weighted>
0.0400

> <Gold.Chemscore.DEInternal.Weighted>
0.0813

> <Gold.Chemscore.Rot.Weighted>
5.2371

> <Gold.Chemscore.Internal.Correction.Weighted>
   9.000000E+99

> <Gold.Protein.RotatedTorsions>
[ 6907 6896 6895 6894 ] final   60.69 input  -60.11 | X-H torsion
[ 7974 7965 7964 7962 ] final  -38.12 input  175.53 | X-H torsion
[ 8008 7997 7996 7995 ] final  -69.36 input   59.86 | X-H torsion
[ 10167 10162 10161 10158 ] final  -97.71 input  -65.29 | X-H torsion
[ 10718 10713 10712 10709 ] final  110.94 input   66.30 | X-H torsion
[ 10763 10752 10751 10750 ] final   86.99 input  -60.55 | X-H torsion
[ 11005 11000 10999 10996 ] final  -98.53 input  -57.11 | X-H torsion

> <Gold.Protein.ActiveResidues>
 VAL166  LYS551  ARG553  GLY616  TRP617  ASP618  TYR619  PRO620  LYS621  CYS622 
 ASP623  PHE694  ASN695  SER759  ASP760  ASP761  ALA762  ILE779  LEU786  VAL792 
 PHE793  MET794  SER795  GLU796  ALA797  LYS798  CYS799  TRP800  GLU811  SER814 

> <Gold.Protein.RotatedAtoms>
  152.4025  134.6263  160.0063 H   0  0  0  0  0  0  0  0  0  0  0  0  # atno 6907 bound_to 6896
  151.6464  133.3317  159.3150 H   0  0  0  0  0  0  0  0  0  0  0  0  # atno 6908 bound_to 6896
  150.7923  134.6999  159.6589 H   0  0  0  0  0  0  0  0  0  0  0  0  # atno 6909 bound_to 6896
  146.0514  140.6475  142.9040 H   0  0  0  0  0  0  0  0  0  0  0  0  # atno 7974 bound_to 7965
  154.4933  140.0855  156.7642 H   0  0  0  0  0  0  0  0  0  0  0  0  # atno 8008 bound_to 7997
  155.4178  140.3444  155.4250 H   0  0  0  0  0  0  0  0  0  0  0  0  # atno 8009 bound_to 7997
  156.1359  140.1515  156.8982 H   0  0  0  0  0  0  0  0  0  0  0  0  # atno 8010 bound_to 7997
  140.2806  143.3284  152.0445 H   0  0  0  0  0  0  0  0  0  0  0  0  # atno 10167 bound_to 10162
  157.6470  131.0942  150.6675 H   0  0  0  0  0  0  0  0  0  0  0  0  # atno 10718 bound_to 10713
  153.1624  135.4560  154.9790 H   0  0  0  0  0  0  0  0  0  0  0  0  # atno 10763 bound_to 10752
  154.7907  135.3219  154.7786 H   0  0  0  0  0  0  0  0  0  0  0  0  # atno 10764 bound_to 10752
  153.8274  135.6941  153.4873 H   0  0  0  0  0  0  0  0  0  0  0  0  # atno 10765 bound_to 10752
  141.1341  133.8253  157.0852 H   0  0  0  0  0  0  0  0  0  0  0  0  # atno 11005 bound_to 11000
  144.7125  140.4090  143.7070 LP  0  0  0  0  0  0  0  0  0  0  0  0  # atno 17320 bound_to 7965
  145.6717  139.1600  143.2750 LP  0  0  0  0  0  0  0  0  0  0  0  0  # atno 17321 bound_to 7965
  139.4964  144.6594  151.6498 LP  0  0  0  0  0  0  0  0  0  0  0  0  # atno 17342 bound_to 10162
  140.5815  143.9938  150.6271 LP  0  0  0  0  0  0  0  0  0  0  0  0  # atno 17343 bound_to 10162
  156.6991  130.4618  149.5578 LP  0  0  0  0  0  0  0  0  0  0  0  0  # atno 17370 bound_to 10713
  156.1808  130.6497  151.0949 LP  0  0  0  0  0  0  0  0  0  0  0  0  # atno 17371 bound_to 10713
  140.0426  134.9846  157.0991 LP  0  0  0  0  0  0  0  0  0  0  0  0  # atno 17394 bound_to 11000
  140.4111  134.1980  155.7163 LP  0  0  0  0  0  0  0  0  0  0  0  0  # atno 17395 bound_to 11000

$$$$
