AV-unprocessed.smi:573|AV-procd|sdf|2968|dock8
  -GOLD-   2262023473D 1   1.00000     0.00000
 Structure written by MMmdl.
 45 47  0  0  0  0  0  0  0  0  2 V2000
  146.6746  140.5278  154.3732 C   0  0  0  0  0  0  0  0  0  0  0  0
  147.4408  141.8370  154.1450 C   0  0  1  0  0  0  0  0  0  0  0  0
  146.9085  142.7937  155.0384 O   0  0  0  0  0  0  0  0  0  0  0  0
  148.9488  141.6653  154.4094 C   0  0  0  0  0  0  0  0  0  0  0  0
  149.2223  141.0577  155.7044 N   0  0  0  0  0  0  0  0  0  0  0  0
  150.0916  141.7035  156.5917 C   0  0  0  0  0  0  0  0  0  0  0  0
  150.4470  143.0155  156.5545 N   0  3  0  0  0  0  0  0  0  0  0  0
  151.3450  143.2581  157.5971 C   0  0  0  0  0  0  0  0  0  0  0  0
  151.9984  144.4263  157.9769 C   0  0  0  0  0  0  0  0  0  0  0  0
  152.8624  144.3366  159.0878 C   0  0  0  0  0  0  0  0  0  0  0  0
  153.0530  143.1200  159.7743 C   0  0  0  0  0  0  0  0  0  0  0  0
  152.3866  141.9402  159.3826 C   0  0  0  0  0  0  0  0  0  0  0  0
  151.5287  142.0351  158.2868 C   0  0  0  0  0  0  0  0  0  0  0  0
  150.7198  141.0969  157.6308 N   0  0  0  0  0  0  0  0  0  0  0  0
  150.6787  139.7020  158.0923 C   0  0  0  0  0  0  0  0  0  0  0  0
  151.1858  138.7251  157.0190 C   0  0  2  0  0  0  0  0  0  0  0  0
  152.1848  139.3932  156.0557 C   0  0  0  0  0  0  0  0  0  0  0  0
  152.6249  138.4057  154.9691 C   0  0  0  0  0  0  0  0  0  0  0  0
  151.3916  137.8075  154.2836 C   0  0  0  0  0  0  0  0  0  0  0  0
  150.4267  137.2259  155.3294 C   0  0  0  0  0  0  0  0  0  0  0  0
  150.0731  138.2298  156.2759 O   0  0  0  0  0  0  0  0  0  0  0  0
  147.0205  139.7490  153.6932 H   0  0  0  0  0  0  0  0  0  0  0  0
  145.6058  140.6615  154.2018 H   0  0  0  0  0  0  0  0  0  0  0  0
  146.8062  140.1615  155.3921 H   0  0  0  0  0  0  0  0  0  0  0  0
  147.2694  142.1715  153.1207 H   0  0  0  0  0  0  0  0  0  0  0  0
  147.6170  143.3304  155.3594 H   0  0  0  0  0  0  0  0  0  0  0  0
  149.4351  141.1201  153.5994 H   0  0  0  0  0  0  0  0  0  0  0  0
  149.4182  142.6491  154.4314 H   0  0  0  0  0  0  0  0  0  0  0  0
  149.0774  140.0630  155.8043 H   0  0  0  0  0  0  0  0  0  0  0  0
  151.8576  145.3592  157.4504 H   0  0  0  0  0  0  0  0  0  0  0  0
  153.3920  145.2185  159.4181 H   0  0  0  0  0  0  0  0  0  0  0  0
  153.7260  143.0899  160.6191 H   0  0  0  0  0  0  0  0  0  0  0  0
  152.5474  141.0135  159.9130 H   0  0  0  0  0  0  0  0  0  0  0  0
  151.2532  139.6102  159.0139 H   0  0  0  0  0  0  0  0  0  0  0  0
  149.6448  139.4722  158.3519 H   0  0  0  0  0  0  0  0  0  0  0  0
  151.6733  137.8865  157.5200 H   0  0  0  0  0  0  0  0  0  0  0  0
  151.7208  140.2640  155.5903 H   0  0  0  0  0  0  0  0  0  0  0  0
  153.0549  139.7569  156.6030 H   0  0  0  0  0  0  0  0  0  0  0  0
  153.2633  138.9029  154.2384 H   0  0  0  0  0  0  0  0  0  0  0  0
  153.2201  137.6084  155.4162 H   0  0  0  0  0  0  0  0  0  0  0  0
  150.8812  138.5807  153.7079 H   0  0  0  0  0  0  0  0  0  0  0  0
  151.6915  137.0354  153.5746 H   0  0  0  0  0  0  0  0  0  0  0  0
  149.5198  136.8660  154.8434 H   0  0  0  0  0  0  0  0  0  0  0  0
  150.8735  136.3712  155.8400 H   0  0  0  0  0  0  0  0  0  0  0  0
  150.1103  143.6825  155.8721 H   0  0  0  0  0  0  0  0  0  0  0  0
  1  2  1  0  0  0  0
  1 22  1  0  0  0  0
  1 23  1  0  0  0  0
  1 24  1  0  0  0  0
  2  3  1  0  0  0  0
  2  4  1  0  0  0  0
  2 25  1  0  0  0  0
  3 26  1  0  0  0  0
  4  5  1  0  0  0  0
  4 27  1  0  0  0  0
  4 28  1  0  0  0  0
  5  6  1  0  0  0  0
  5 29  1  0  0  0  0
  6 14  1  0  0  0  0
  6  7  2  0  0  0  0
  7  8  1  0  0  0  0
  7 45  1  0  0  0  0
  8 13  2  0  0  0  0
  8  9  1  0  0  0  0
  9 10  2  0  0  0  0
  9 30  1  0  0  0  0
 10 11  1  0  0  0  0
 10 31  1  0  0  0  0
 11 12  2  0  0  0  0
 11 32  1  0  0  0  0
 12 13  1  0  0  0  0
 12 33  1  0  0  0  0
 13 14  1  0  0  0  0
 14 15  1  0  0  0  0
 15 16  1  0  0  0  0
 15 34  1  0  0  0  0
 15 35  1  0  0  0  0
 16 21  1  0  0  0  0
 16 17  1  0  0  0  0
 16 36  1  0  0  0  0
 17 18  1  0  0  0  0
 17 37  1  0  0  0  0
 17 38  1  0  0  0  0
 18 19  1  0  0  0  0
 18 39  1  0  0  0  0
 18 40  1  0  0  0  0
 19 20  1  0  0  0  0
 19 41  1  0  0  0  0
 19 42  1  0  0  0  0
 20 21  1  0  0  0  0
 20 43  1  0  0  0  0
 20 44  1  0  0  0  0
M  CHG  1   7   1
M  END
> <s_m_source_file>
AV-unprocessed.smi

> <i_m_source_file_index>
573

> <i_lp_mmshare_version>
43012

> <i_f3d_flags>
0

> <s_epik_input>
W0NIM11bQ0BIXShbT0hdKVtDSDJdW05IXWMobjEpbihjKGMxMilbY0hdW2NIXVtjSF1bY0hdMilbQ0gyXVtDQEBIXTNbQ0gyXVtDSDJdW0NIMl1bQ0gyXU8z

> <s_epik_cmdline>
J2VwaWtfcHl0aG9uJywgJy1waCcsICc3LjAnLCAnLXRuJywgJzgnLCAnLW1hJywgJzIwMCcsICctbWV0YWxfYmluZGluZycsICctaW1hZScsICc8aW5maWxlLm1hZT4nLCAnLW9tYWUnLCAnPG91dGZpbGUubWFlPic=

> <r_epik_Ionization_Penalty>
0.0692245

> <r_epik_Ionization_Penalty_Charging>
0.0692223

> <r_epik_Ionization_Penalty_Neutral>
2.1869e-06

> <r_epik_State_Penalty>
0.0606215

> <r_epik_Charging_Adjusted_Penalty>
0.129844

> <i_epik_Tot_Q>
1

> <i_epik_Tot_abs_Q>
1

> <r_epik_Metal_State_Penalty>
2.77811

> <b_epik_Metal_Only>
0

> <s_lp_Force_Field>
OPLS_2005

> <r_lp_Energy>
22.2685

> <b_lp_Chiralities_Consistent>
1

> <s_lp_Variant>
AV-unprocessed.smi:573-2

> <Gold.Version>
5.8.1

> <Gold.Id.Protein>
6NUR|6NUR_protein|mol2

> <Gold.PLP.Fitness>
53.9248

> <Gold.PLP.PLP>
-46.3704

> <Gold.PLP.part.hbond>
-1.9690

> <Gold.PLP.part.metal>
0.0000

> <Gold.PLP.part.buried>
-4.7026

> <Gold.PLP.part.nonpolar>
-40.4868

> <Gold.PLP.part.repulsive>
0.1494

> <Gold.PLP.ligand.clash>
0.2138

> <Gold.PLP.ligand.torsion>
0.5036

> <Gold.PLP.Chemscore.Hbond>
2.9200

> <Gold.PLP.Chemscore.CHOScore>
0.0000

> <Gold.PLP.Chemscore.Metal>
0.0000

> <Gold.Chemscore.Hbonds>
donor molecule, donor type, donor heavy atom, donor atom, acceptor molecule, acceptor atom, score
      L1  H     3    26       P1  8028  0.95
      L1  H     7    45       P1  8028  1.63

> <Gold.PLP.Chemscore.Internal.Correction>
0.0152

> <Gold.Rescore>
     Score         DG    S(hbond)    S(metal)    S(lipo)     H(rot)  DE(clash)    DE(int)     intcor
     18.18     -19.13       1.46        0.00     120.34       2.07       0.28       0.68       ----

> <Gold.Chemscore.Fitness>
18.1762

> <Gold.Chemscore.DG>
-19.1309

> <Gold.Chemscore.ZeroCoef>
-5.4800

> <Gold.Chemscore.Hbond>
1.4580

> <Gold.Chemscore.Metal>
0.0000

> <Gold.Chemscore.Lipo>
120.3447

> <Gold.Chemscore.Internal_Hbond>
0.0000

> <Gold.Chemscore.DEClash>
0.2797

> <Gold.Chemscore.DEInternal>
0.6750

> <Gold.Chemscore.Rot>
2.0699

> <Gold.Chemscore.Internal.Correction>
   9.000000E+99

> <Gold.Chemscore.Hbonds>
donor molecule, donor type, donor heavy atom, donor atom, acceptor molecule, acceptor atom, score
      L1  H     3    26       P1  8028  0.22
      L1  H     7    45       P1  8028  0.79

> <Gold.Chemscore.Hbond.Weighted>
-4.8696

> <Gold.Chemscore.Metal.Weighted>
-0.0000

> <Gold.Chemscore.Lipo.Weighted>
-14.0803

> <Gold.Chemscore.Internal_Hbond.Weighted>
0.0000

> <Gold.Chemscore.DEClash.Weighted>
0.2797

> <Gold.Chemscore.DEInternal.Weighted>
0.6750

> <Gold.Chemscore.Rot.Weighted>
5.2991

> <Gold.Chemscore.Internal.Correction.Weighted>
   9.000000E+99

> <Gold.Protein.RotatedTorsions>
[ 6907 6896 6895 6894 ] final  -18.29 input  -60.11 | X-H torsion
[ 7974 7965 7964 7962 ] final  -40.85 input  175.53 | X-H torsion
[ 8008 7997 7996 7995 ] final   -9.22 input   59.86 | X-H torsion
[ 10167 10162 10161 10158 ] final  176.97 input  -65.29 | X-H torsion
[ 10718 10713 10712 10709 ] final -137.08 input   66.30 | X-H torsion
[ 10763 10752 10751 10750 ] final -129.54 input  -60.55 | X-H torsion
[ 11005 11000 10999 10996 ] final  -84.81 input  -57.11 | X-H torsion

> <Gold.Protein.ActiveResidues>
 VAL166  LYS551  ARG553  GLY616  TRP617  ASP618  TYR619  PRO620  LYS621  CYS622 
 ASP623  PHE694  ASN695  SER759  ASP760  ASP761  ALA762  ILE779  LEU786  VAL792 
 PHE793  MET794  SER795  GLU796  ALA797  LYS798  CYS799  TRP800  GLU811  SER814 

> <Gold.Protein.RotatedAtoms>
  151.2804  135.0712  159.9166 H   0  0  0  0  0  0  0  0  0  0  0  0  # atno 6907 bound_to 6896
  152.5335  134.0037  159.7917 H   0  0  0  0  0  0  0  0  0  0  0  0  # atno 6908 bound_to 6896
  151.0290  133.5757  159.2693 H   0  0  0  0  0  0  0  0  0  0  0  0  # atno 6909 bound_to 6896
  146.0266  140.6784  142.9153 H   0  0  0  0  0  0  0  0  0  0  0  0  # atno 7974 bound_to 7965
  154.5667  140.2361  155.8252 H   0  0  0  0  0  0  0  0  0  0  0  0  # atno 8008 bound_to 7997
  156.2074  140.3036  155.9616 H   0  0  0  0  0  0  0  0  0  0  0  0  # atno 8009 bound_to 7997
  155.2787  140.0421  157.3004 H   0  0  0  0  0  0  0  0  0  0  0  0  # atno 8010 bound_to 7997
  139.5235  144.2853  152.0511 H   0  0  0  0  0  0  0  0  0  0  0  0  # atno 10167 bound_to 10162
  156.2841  130.7337  151.1344 H   0  0  0  0  0  0  0  0  0  0  0  0  # atno 10718 bound_to 10713
  154.8757  135.3892  154.3937 H   0  0  0  0  0  0  0  0  0  0  0  0  # atno 10763 bound_to 10752
  153.4670  135.7029  153.6021 H   0  0  0  0  0  0  0  0  0  0  0  0  # atno 10764 bound_to 10752
  153.4495  135.3837  155.2244 H   0  0  0  0  0  0  0  0  0  0  0  0  # atno 10765 bound_to 10752
  141.1647  133.7366  156.8923 H   0  0  0  0  0  0  0  0  0  0  0  0  # atno 11005 bound_to 11000
  144.7012  140.3660  143.7154 LP  0  0  0  0  0  0  0  0  0  0  0  0  # atno 17320 bound_to 7965
  145.7108  139.1684  143.2540 LP  0  0  0  0  0  0  0  0  0  0  0  0  # atno 17321 bound_to 7965
  140.2306  144.4372  150.6301 LP  0  0  0  0  0  0  0  0  0  0  0  0  # atno 17342 bound_to 10162
  140.6357  143.2194  151.6399 LP  0  0  0  0  0  0  0  0  0  0  0  0  # atno 17343 bound_to 10162
  157.7323  131.0600  150.5633 LP  0  0  0  0  0  0  0  0  0  0  0  0  # atno 17370 bound_to 10713
  156.5742  130.4288  149.6006 LP  0  0  0  0  0  0  0  0  0  0  0  0  # atno 17371 bound_to 10713
  140.1640  134.9146  157.2750 LP  0  0  0  0  0  0  0  0  0  0  0  0  # atno 17394 bound_to 11000
  140.2578  134.3606  155.7417 LP  0  0  0  0  0  0  0  0  0  0  0  0  # atno 17395 bound_to 11000

$$$$
