AV-unprocessed.smi:72|AV-procd|sdf|676|dock4
  -GOLD-   2262016583D 1   1.00000     0.00000
 Structure written by MMmdl.
 29 30  0  0  0  0  0  0  0  0  1 V2000
  147.5910  142.9809  158.0523 N   0  0  0  0  0  0  0  0  0  0  0  0
  148.0157  141.9813  157.3652 C   0  0  0  0  0  0  0  0  0  0  0  0
  148.1128  140.6612  157.8293 N   0  0  0  0  0  0  0  0  0  0  0  0
  148.5457  139.7452  157.0190 C   0  0  0  0  0  0  0  0  0  0  0  0
  148.9159  140.0380  155.6396 N   0  0  0  0  0  0  0  0  0  0  0  0
  149.4348  138.9773  154.6820 C   0  0  1  0  0  0  0  0  0  0  0  0
  150.7734  139.2333  154.3648 O   0  0  0  0  0  0  0  0  0  0  0  0
  151.6245  138.4205  155.1679 C   0  0  2  0  0  0  0  0  0  0  0  0
  153.0439  138.3450  154.5792 C   0  0  0  0  0  0  0  0  0  0  0  0
  153.6704  139.6061  154.6761 O   0  0  0  0  0  0  0  0  0  0  0  0
  150.8484  137.1010  155.2119 C   0  0  2  0  0  0  0  0  0  0  0  0
  151.0751  136.3537  154.0276 O   0  0  0  0  0  0  0  0  0  0  0  0
  149.4017  137.5786  155.3378 C   0  0  2  0  0  0  0  0  0  0  0  0
  148.4839  136.6911  154.7264 O   0  0  0  0  0  0  0  0  0  0  0  0
  148.8596  141.3744  155.1711 C   0  0  0  0  0  0  0  0  0  0  0  0
  149.2002  141.6881  154.0306 O   0  0  0  0  0  0  0  0  0  0  0  0
  148.4032  142.2881  156.0546 N   0  0  0  0  0  0  0  0  0  0  0  0
  148.8209  139.0738  153.7844 H   0  0  0  0  0  0  0  0  0  0  0  0
  151.6639  138.8235  156.1817 H   0  0  0  0  0  0  0  0  0  0  0  0
  151.1431  136.4858  156.0627 H   0  0  0  0  0  0  0  0  0  0  0  0
  149.1516  137.6795  156.3951 H   0  0  0  0  0  0  0  0  0  0  0  0
  147.6168  143.8267  157.5021 H   0  0  0  0  0  0  0  0  0  0  0  0
  148.6570  138.7063  157.3290 H   0  0  0  0  0  0  0  0  0  0  0  0
  153.6475  137.6352  155.1456 H   0  0  0  0  0  0  0  0  0  0  0  0
  153.0307  138.0093  153.5419 H   0  0  0  0  0  0  0  0  0  0  0  0
  153.1050  140.2515  154.2797 H   0  0  0  0  0  0  0  0  0  0  0  0
  150.2534  136.2735  153.5673 H   0  0  0  0  0  0  0  0  0  0  0  0
  148.6469  136.6894  153.7949 H   0  0  0  0  0  0  0  0  0  0  0  0
  148.3452  143.2468  155.7439 H   0  0  0  0  0  0  0  0  0  0  0  0
  1  2  2  0  0  0  0
  1 22  1  0  0  0  0
  2 17  1  0  0  0  0
  2  3  1  0  0  0  0
  3  4  2  0  0  0  0
  4  5  1  0  0  0  0
  4 23  1  0  0  0  0
  5  6  1  0  0  0  0
  5 15  1  0  0  0  0
  6 18  1  0  0  0  0
  6 13  1  0  0  0  0
  6  7  1  0  0  0  0
  7  8  1  0  0  0  0
  8 19  1  0  0  0  0
  8  9  1  0  0  0  0
  8 11  1  0  0  0  0
  9 10  1  0  0  0  0
  9 24  1  0  0  0  0
  9 25  1  0  0  0  0
 10 26  1  0  0  0  0
 11 20  1  0  0  0  0
 11 12  1  0  0  0  0
 11 13  1  0  0  0  0
 12 27  1  0  0  0  0
 13 21  1  0  0  0  0
 13 14  1  0  0  0  0
 14 28  1  0  0  0  0
 15 16  2  0  0  0  0
 15 17  1  0  0  0  0
 17 29  1  0  0  0  0
M  END
> <s_m_source_file>
AV-unprocessed.smi

> <i_m_source_file_index>
72

> <i_lp_mmshare_version>
43012

> <i_f3d_flags>
0

> <s_epik_input>
W05IMl1jMW5bY0hdbihjKD1PKW4xKVtDQEBIXTJPW0NASF0oW0NIMl1bT0hdKVtDQEBIXShbT0hdKVtDQEhdMltPSF0=

> <s_epik_cmdline>
J2VwaWtfcHl0aG9uJywgJy1waCcsICc3LjAnLCAnLXRuJywgJzgnLCAnLW1hJywgJzIwMCcsICctbWV0YWxfYmluZGluZycsICctaW1hZScsICc8aW5maWxlLm1hZT4nLCAnLW9tYWUnLCAnPG91dGZpbGUubWFlPic=

> <r_lp_tautomer_probability>
7.17554e-07

> <r_epik_Ionization_Penalty>
0.0066451

> <r_epik_Ionization_Penalty_Charging>
0.00663793

> <r_epik_Ionization_Penalty_Neutral>
7.17052e-06

> <r_epik_State_Penalty>
0.419231

> <r_epik_Charging_Adjusted_Penalty>
0.425868

> <i_epik_Tot_Q>
0

> <i_epik_Tot_abs_Q>
0

> <r_epik_Metal_State_Penalty>
1.44144

> <b_epik_Metal_Only>
0

> <s_epik_Chemistry_Notes>
This compound contains an acetal/aminal-like group ( X-CH(R)-Y where X, Y are N, S, or O) that may be acid/base labile, releasing an aldehyde.

> <s_lp_Force_Field>
OPLS_2005

> <r_lp_Energy>
42.8821

> <b_lp_Chiralities_Consistent>
1

> <s_lp_Variant>
AV-unprocessed.smi:72-14

> <Gold.Version>
5.8.1

> <Gold.Id.Protein>
6NUR|6NUR_protein|mol2

> <Gold.PLP.Fitness>
41.9521

> <Gold.PLP.PLP>
-23.5508

> <Gold.PLP.part.hbond>
-11.1168

> <Gold.PLP.part.metal>
0.0000

> <Gold.PLP.part.buried>
-1.2393

> <Gold.PLP.part.nonpolar>
-12.7533

> <Gold.PLP.part.repulsive>
0.4257

> <Gold.PLP.ligand.clash>
0.0000

> <Gold.PLP.ligand.torsion>
0.0623

> <Gold.PLP.Chemscore.Hbond>
6.1679

> <Gold.PLP.Chemscore.CHOScore>
0.0000

> <Gold.PLP.Chemscore.Metal>
0.0000

> <Gold.Chemscore.Hbonds>
donor molecule, donor type, donor heavy atom, donor atom, acceptor molecule, acceptor atom, score
      L1  H     1    22       P1  8029  0.11
      L1  H    12    27       P1  7948  0.38
      L1  H    14    28       P1  7948  1.00
      L1  H    17    29       P1  8028  1.00
      P1  H  7989  7998       L1     7  0.99
      P1  H  7997  8010       L1    10  1.00
      P1  H  8011  8017       L1    16  0.59
      P1  H 10752 10764       L1    12  1.00

> <Gold.PLP.Chemscore.Internal.Correction>
0.0222

> <Gold.Rescore>
     Score         DG    S(hbond)    S(metal)    S(lipo)     H(rot)  DE(clash)    DE(int)     intcor
     13.79     -15.22       5.15        0.00      25.07       4.06       0.20       1.24       ----

> <Gold.Chemscore.Fitness>
13.7861

> <Gold.Chemscore.DG>
-15.2211

> <Gold.Chemscore.ZeroCoef>
-5.4800

> <Gold.Chemscore.Hbond>
5.1502

> <Gold.Chemscore.Metal>
0.0000

> <Gold.Chemscore.Lipo>
25.0683

> <Gold.Chemscore.Internal_Hbond>
0.0000

> <Gold.Chemscore.DEClash>
0.1985

> <Gold.Chemscore.DEInternal>
1.2365

> <Gold.Chemscore.Rot>
4.0600

> <Gold.Chemscore.Internal.Correction>
   9.000000E+99

> <Gold.Chemscore.Hbonds>
donor molecule, donor type, donor heavy atom, donor atom, acceptor molecule, acceptor atom, score
      L1  H    12    27       P1  7948  0.01
      L1  H    14    28       P1  7948  0.96
      L1  H    17    29       P1  8028  0.87
      P1  H  7989  7998       L1     7  0.86
      P1  H  7997  8010       L1    10  0.77
      P1  H  8011  8017       L1    16  0.58
      P1  H 10752 10764       L1    12  0.58

> <Gold.Chemscore.Hbond.Weighted>
-17.2017

> <Gold.Chemscore.Metal.Weighted>
-0.0000

> <Gold.Chemscore.Lipo.Weighted>
-2.9330

> <Gold.Chemscore.Internal_Hbond.Weighted>
0.0000

> <Gold.Chemscore.DEClash.Weighted>
0.1985

> <Gold.Chemscore.DEInternal.Weighted>
1.2365

> <Gold.Chemscore.Rot.Weighted>
10.3936

> <Gold.Chemscore.Internal.Correction.Weighted>
   9.000000E+99

> <Gold.Protein.RotatedTorsions>
[ 6907 6896 6895 6894 ] final   17.61 input  -60.11 | X-H torsion
[ 7974 7965 7964 7962 ] final  -24.37 input  175.53 | X-H torsion
[ 8008 7997 7996 7995 ] final  102.72 input   59.86 | X-H torsion
[ 10167 10162 10161 10158 ] final  -51.49 input  -65.29 | X-H torsion
[ 10718 10713 10712 10709 ] final  -23.20 input   66.30 | X-H torsion
[ 10763 10752 10751 10750 ] final  -86.46 input  -60.55 | X-H torsion
[ 11005 11000 10999 10996 ] final -170.19 input  -57.11 | X-H torsion

> <Gold.Protein.ActiveResidues>
 VAL166  LYS551  ARG553  GLY616  TRP617  ASP618  TYR619  PRO620  LYS621  CYS622 
 ASP623  PHE694  ASN695  SER759  ASP760  ASP761  ALA762  ILE779  LEU786  VAL792 
 PHE793  MET794  SER795  GLU796  ALA797  LYS798  CYS799  TRP800  GLU811  SER814 

> <Gold.Protein.RotatedAtoms>
  151.8523  135.0553  160.0460 H   0  0  0  0  0  0  0  0  0  0  0  0  # atno 6907 bound_to 6896
  152.2727  133.5392  159.5457 H   0  0  0  0  0  0  0  0  0  0  0  0  # atno 6908 bound_to 6896
  150.7158  134.0591  159.3867 H   0  0  0  0  0  0  0  0  0  0  0  0  # atno 6909 bound_to 6896
  146.1559  140.4743  142.8592 H   0  0  0  0  0  0  0  0  0  0  0  0  # atno 7974 bound_to 7965
  156.1419  140.3176  155.8509 H   0  0  0  0  0  0  0  0  0  0  0  0  # atno 8008 bound_to 7997
  155.4138  140.0507  157.3047 H   0  0  0  0  0  0  0  0  0  0  0  0  # atno 8009 bound_to 7997
  154.4983  140.2119  155.9412 H   0  0  0  0  0  0  0  0  0  0  0  0  # atno 8010 bound_to 7997
  140.6586  143.2618  151.4511 H   0  0  0  0  0  0  0  0  0  0  0  0  # atno 10167 bound_to 10162
  156.4942  130.4573  149.6738 H   0  0  0  0  0  0  0  0  0  0  0  0  # atno 10718 bound_to 10713
  154.6227  135.5448  153.7593 H   0  0  0  0  0  0  0  0  0  0  0  0  # atno 10763 bound_to 10752
  153.0246  135.6416  154.1417 H   0  0  0  0  0  0  0  0  0  0  0  0  # atno 10764 bound_to 10752
  154.1351  135.2912  155.3155 H   0  0  0  0  0  0  0  0  0  0  0  0  # atno 10765 bound_to 10752
  140.5223  134.5698  157.5051 H   0  0  0  0  0  0  0  0  0  0  0  0  # atno 11005 bound_to 11000
  144.7962  140.6127  143.6508 LP  0  0  0  0  0  0  0  0  0  0  0  0  # atno 17320 bound_to 7965
  145.4710  139.1503  143.3814 LP  0  0  0  0  0  0  0  0  0  0  0  0  # atno 17321 bound_to 7965
  139.5814  144.1702  152.1972 LP  0  0  0  0  0  0  0  0  0  0  0  0  # atno 17342 bound_to 10162
  140.1028  144.5524  150.6977 LP  0  0  0  0  0  0  0  0  0  0  0  0  # atno 17343 bound_to 10162
  156.3396  130.7375  151.2318 LP  0  0  0  0  0  0  0  0  0  0  0  0  # atno 17370 bound_to 10713
  157.7470  131.0407  150.4612 LP  0  0  0  0  0  0  0  0  0  0  0  0  # atno 17371 bound_to 10713
  139.9599  134.7470  156.0259 LP  0  0  0  0  0  0  0  0  0  0  0  0  # atno 17394 bound_to 11000
  141.1327  133.6582  156.3510 LP  0  0  0  0  0  0  0  0  0  0  0  0  # atno 17395 bound_to 11000

$$$$
