AV-unprocessed.smi:2336|AV-procd|sdf|9332|dock4
  -GOLD-   2272012553D 1   1.00000     0.00000
 Structure written by MMmdl.
 49 50  0  0  0  0  0  0  0  0  1 V2000
  149.8027  138.9584  154.5645 C   0  0  0  0  0  0  0  0  0  0  0  0
  150.5750  139.7751  155.6163 C   0  0  0  0  0  0  0  0  0  0  0  0
  152.0680  139.3956  155.6059 C   0  0  0  0  0  0  0  0  0  0  0  0
  149.9057  139.7678  157.0340 C   0  0  1  0  0  0  0  0  0  0  0  0
  149.9643  138.3566  157.6900 C   0  0  0  0  0  0  0  0  0  0  0  0
  148.8008  138.0898  158.5306 N   0  0  0  0  0  0  0  0  0  0  0  0
  148.6032  136.9880  159.2660 C   0  0  0  0  0  0  0  0  0  0  0  0
  149.3828  136.0359  159.2907 O   0  0  0  0  0  0  0  0  0  0  0  0
  147.4482  137.0687  159.9477 N   0  0  0  0  0  0  0  0  0  0  0  0
  146.8959  136.1513  160.8824 C   0  0  0  0  0  0  0  0  0  0  0  0
  147.5542  134.9815  161.3339 C   0  0  0  0  0  0  0  0  0  0  0  0
  146.9058  134.1670  162.2839 C   0  0  0  0  0  0  0  0  0  0  0  0
  145.6881  134.4451  162.7957 N   0  0  0  0  0  0  0  0  0  0  0  0
  145.0692  135.5671  162.3719 C   0  0  0  0  0  0  0  0  0  0  0  0
  145.6290  136.4498  161.4267 C   0  0  0  0  0  0  0  0  0  0  0  0
  144.9556  137.5635  161.0487 F   0  0  0  0  0  0  0  0  0  0  0  0
  150.3686  140.8519  157.9394 N   0  0  0  0  0  0  0  0  0  0  0  0
  150.1368  142.1924  157.3756 C   0  0  0  0  0  0  0  0  0  0  0  0
  150.5930  143.3164  158.3237 C   0  0  0  0  0  0  0  0  0  0  0  0
  152.0123  143.2034  158.6386 N   0  0  0  0  0  0  0  0  0  0  0  0
  152.4503  144.2704  159.5254 C   0  0  0  0  0  0  0  0  0  0  0  0
  152.2524  141.8886  159.2215 C   0  0  0  0  0  0  0  0  0  0  0  0
  151.7985  140.7601  158.2769 C   0  0  0  0  0  0  0  0  0  0  0  0
  149.9201  137.8846  154.7087 H   0  0  0  0  0  0  0  0  0  0  0  0
  150.1643  139.1836  153.5608 H   0  0  0  0  0  0  0  0  0  0  0  0
  148.7377  139.1904  154.5866 H   0  0  0  0  0  0  0  0  0  0  0  0
  150.5103  140.7923  155.2341 H   0  0  0  0  0  0  0  0  0  0  0  0
  152.2203  138.3360  155.8061 H   0  0  0  0  0  0  0  0  0  0  0  0
  152.6350  139.9625  156.3442 H   0  0  0  0  0  0  0  0  0  0  0  0
  152.5099  139.6016  154.6307 H   0  0  0  0  0  0  0  0  0  0  0  0
  148.8467  139.9507  156.8441 H   0  0  0  0  0  0  0  0  0  0  0  0
  150.0062  137.5830  156.9239 H   0  0  0  0  0  0  0  0  0  0  0  0
  150.8908  138.2205  158.2452 H   0  0  0  0  0  0  0  0  0  0  0  0
  148.1045  138.8200  158.5726 H   0  0  0  0  0  0  0  0  0  0  0  0
  146.8740  137.8757  159.7513 H   0  0  0  0  0  0  0  0  0  0  0  0
  148.5365  134.7011  160.9873 H   0  0  0  0  0  0  0  0  0  0  0  0
  147.3832  133.2693  162.6484 H   0  0  0  0  0  0  0  0  0  0  0  0
  144.0992  135.7698  162.8012 H   0  0  0  0  0  0  0  0  0  0  0  0
  150.6507  142.2887  156.4177 H   0  0  0  0  0  0  0  0  0  0  0  0
  149.0779  142.3514  157.1811 H   0  0  0  0  0  0  0  0  0  0  0  0
  150.3958  144.2825  157.8581 H   0  0  0  0  0  0  0  0  0  0  0  0
  150.0010  143.2852  159.2401 H   0  0  0  0  0  0  0  0  0  0  0  0
  153.5159  144.1816  159.7391 H   0  0  0  0  0  0  0  0  0  0  0  0
  151.9101  144.2433  160.4728 H   0  0  0  0  0  0  0  0  0  0  0  0
  152.2838  145.2457  159.0671 H   0  0  0  0  0  0  0  0  0  0  0  0
  153.3147  141.7708  159.4378 H   0  0  0  0  0  0  0  0  0  0  0  0
  151.7284  141.7996  160.1747 H   0  0  0  0  0  0  0  0  0  0  0  0
  152.0132  139.8245  158.7891 H   0  0  0  0  0  0  0  0  0  0  0  0
  152.4008  140.7722  157.3673 H   0  0  0  0  0  0  0  0  0  0  0  0
  1  2  1  0  0  0  0
  1 24  1  0  0  0  0
  1 25  1  0  0  0  0
  1 26  1  0  0  0  0
  2  3  1  0  0  0  0
  2  4  1  0  0  0  0
  2 27  1  0  0  0  0
  3 28  1  0  0  0  0
  3 29  1  0  0  0  0
  3 30  1  0  0  0  0
  4  5  1  0  0  0  0
  4 17  1  0  0  0  0
  4 31  1  0  0  0  0
  5  6  1  0  0  0  0
  5 32  1  0  0  0  0
  5 33  1  0  0  0  0
  6  7  1  0  0  0  0
  6 34  1  0  0  0  0
  7  8  2  0  0  0  0
  7  9  1  0  0  0  0
  9 10  1  0  0  0  0
  9 35  1  0  0  0  0
 10 15  1  0  0  0  0
 10 11  2  0  0  0  0
 11 12  1  0  0  0  0
 11 36  1  0  0  0  0
 12 13  2  0  0  0  0
 12 37  1  0  0  0  0
 13 14  1  0  0  0  0
 14 15  2  0  0  0  0
 14 38  1  0  0  0  0
 15 16  1  0  0  0  0
 17 23  1  0  0  0  0
 17 18  1  0  0  0  0
 18 19  1  0  0  0  0
 18 39  1  0  0  0  0
 18 40  1  0  0  0  0
 19 20  1  0  0  0  0
 19 41  1  0  0  0  0
 19 42  1  0  0  0  0
 20 21  1  0  0  0  0
 20 22  1  0  0  0  0
 21 43  1  0  0  0  0
 21 44  1  0  0  0  0
 21 45  1  0  0  0  0
 22 23  1  0  0  0  0
 22 46  1  0  0  0  0
 22 47  1  0  0  0  0
 23 48  1  0  0  0  0
 23 49  1  0  0  0  0
M  END
> <s_m_source_file>
AV-unprocessed.smi

> <i_m_source_file_index>
2336

> <i_lp_mmshare_version>
43012

> <i_f3d_flags>
0

> <s_epik_input>
W0NIMl0xW0NIMl1OKFtDSDNdKVtDSDJdW0NIMl1OMVtDQEhdKFtDSF0oW0NIM10pW0NIM10pW0NIMl1bTkhdQyg9TylbTkhdYzJbY0hdW2NIXW5bY0hdYzJG

> <s_epik_cmdline>
J2VwaWtfcHl0aG9uJywgJy1waCcsICc3LjAnLCAnLXRuJywgJzgnLCAnLW1hJywgJzIwMCcsICctbWV0YWxfYmluZGluZycsICctaW1hZScsICc8aW5maWxlLm1hZT4nLCAnLW9tYWUnLCAnPG91dGZpbGUubWFlPic=

> <r_epik_Ionization_Penalty>
2.58102

> <r_epik_Ionization_Penalty_Charging>
0

> <r_epik_Ionization_Penalty_Neutral>
2.58102

> <r_epik_State_Penalty>
2.00874

> <r_epik_Charging_Adjusted_Penalty>
2.00874

> <i_epik_Tot_Q>
0

> <i_epik_Tot_abs_Q>
0

> <r_epik_Metal_State_Penalty>
2.00867

> <b_epik_Metal_Only>
0

> <s_lp_Force_Field>
OPLS_2005

> <r_lp_Energy>
52.4608

> <b_lp_Chiralities_Consistent>
1

> <s_lp_Variant>
AV-unprocessed.smi:2336-6

> <Gold.Version>
5.8.1

> <Gold.Id.Protein>
6NUR|6NUR_protein|mol2

> <Gold.PLP.Fitness>
41.4551

> <Gold.PLP.PLP>
-39.0861

> <Gold.PLP.part.hbond>
-1.6074

> <Gold.PLP.part.metal>
0.0000

> <Gold.PLP.part.buried>
-7.6552

> <Gold.PLP.part.nonpolar>
-31.8782

> <Gold.PLP.part.repulsive>
0.9652

> <Gold.PLP.ligand.clash>
0.0000

> <Gold.PLP.ligand.torsion>
0.4775

> <Gold.PLP.Chemscore.Hbond>
1.0000

> <Gold.PLP.Chemscore.CHOScore>
0.0000

> <Gold.PLP.Chemscore.Metal>
0.0000

> <Gold.Chemscore.Hbonds>
donor molecule, donor type, donor heavy atom, donor atom, acceptor molecule, acceptor atom, score
      P1  H  6896  6909       L1     8  1.00

> <Gold.PLP.Chemscore.Internal.Correction>
0.3240

> <Gold.Rescore>
     Score         DG    S(hbond)    S(metal)    S(lipo)     H(rot)  DE(clash)    DE(int)     intcor
     15.43     -17.25       1.00        0.00     107.64       1.63       0.06       1.76       ----

> <Gold.Chemscore.Fitness>
15.4264

> <Gold.Chemscore.DG>
-17.2465

> <Gold.Chemscore.ZeroCoef>
-5.4800

> <Gold.Chemscore.Hbond>
1.0000

> <Gold.Chemscore.Metal>
0.0000

> <Gold.Chemscore.Lipo>
107.6361

> <Gold.Chemscore.Internal_Hbond>
0.0000

> <Gold.Chemscore.DEClash>
0.0576

> <Gold.Chemscore.DEInternal>
1.7624

> <Gold.Chemscore.Rot>
1.6277

> <Gold.Chemscore.Internal.Correction>
   9.000000E+99

> <Gold.Chemscore.Hbonds>
donor molecule, donor type, donor heavy atom, donor atom, acceptor molecule, acceptor atom, score
      P1  H  6896  6909       L1     8  1.00

> <Gold.Chemscore.Hbond.Weighted>
-3.3400

> <Gold.Chemscore.Metal.Weighted>
-0.0000

> <Gold.Chemscore.Lipo.Weighted>
-12.5934

> <Gold.Chemscore.Internal_Hbond.Weighted>
0.0000

> <Gold.Chemscore.DEClash.Weighted>
0.0576

> <Gold.Chemscore.DEInternal.Weighted>
1.7624

> <Gold.Chemscore.Rot.Weighted>
4.1670

> <Gold.Chemscore.Internal.Correction.Weighted>
   9.000000E+99

> <Gold.Protein.RotatedTorsions>
[ 6907 6896 6895 6894 ] final   72.70 input  -60.11 | X-H torsion
[ 7974 7965 7964 7962 ] final  -89.85 input  175.53 | X-H torsion
[ 8008 7997 7996 7995 ] final -133.65 input   59.86 | X-H torsion
[ 10167 10162 10161 10158 ] final  -95.45 input  -65.29 | X-H torsion
[ 10718 10713 10712 10709 ] final  170.01 input   66.30 | X-H torsion
[ 10763 10752 10751 10750 ] final   85.40 input  -60.55 | X-H torsion
[ 11005 11000 10999 10996 ] final   78.81 input  -57.11 | X-H torsion

> <Gold.Protein.ActiveResidues>
 VAL166  LYS551  ARG553  GLY616  TRP617  ASP618  TYR619  PRO620  LYS621  CYS622 
 ASP623  PHE694  ASN695  SER759  ASP760  ASP761  ALA762  ILE779  LEU786  VAL792 
 PHE793  MET794  SER795  GLU796  ALA797  LYS798  CYS799  TRP800  GLU811  SER814 

> <Gold.Protein.RotatedAtoms>
  152.4882  134.4532  159.9581 H   0  0  0  0  0  0  0  0  0  0  0  0  # atno 6907 bound_to 6896
  151.4524  133.3608  159.2805 H   0  0  0  0  0  0  0  0  0  0  0  0  # atno 6908 bound_to 6896
  150.9012  134.8449  159.7422 H   0  0  0  0  0  0  0  0  0  0  0  0  # atno 6909 bound_to 6896
  145.4343  140.9557  143.2110 H   0  0  0  0  0  0  0  0  0  0  0  0  # atno 7974 bound_to 7965
  155.3490  140.0476  157.3046 H   0  0  0  0  0  0  0  0  0  0  0  0  # atno 8008 bound_to 7997
  154.5237  140.2234  155.8893 H   0  0  0  0  0  0  0  0  0  0  0  0  # atno 8009 bound_to 7997
  156.1717  140.3094  155.8991 H   0  0  0  0  0  0  0  0  0  0  0  0  # atno 8010 bound_to 7997
  140.3040  143.3145  152.0218 H   0  0  0  0  0  0  0  0  0  0  0  0  # atno 10167 bound_to 10162
  157.0143  131.0213  151.2794 H   0  0  0  0  0  0  0  0  0  0  0  0  # atno 10718 bound_to 10713
  153.1472  135.4618  154.9583 H   0  0  0  0  0  0  0  0  0  0  0  0  # atno 10763 bound_to 10752
  154.7795  135.3184  154.8022 H   0  0  0  0  0  0  0  0  0  0  0  0  # atno 10764 bound_to 10752
  153.8534  135.6919  153.4844 H   0  0  0  0  0  0  0  0  0  0  0  0  # atno 10765 bound_to 10752
  139.9197  134.7793  156.1698 H   0  0  0  0  0  0  0  0  0  0  0  0  # atno 11005 bound_to 11000
  144.8162  139.5872  143.7007 LP  0  0  0  0  0  0  0  0  0  0  0  0  # atno 17320 bound_to 7965
  146.2590  139.6368  142.9375 LP  0  0  0  0  0  0  0  0  0  0  0  0  # atno 17321 bound_to 7965
  139.4908  144.6435  151.6828 LP  0  0  0  0  0  0  0  0  0  0  0  0  # atno 17342 bound_to 10162
  140.5626  144.0243  150.6177 LP  0  0  0  0  0  0  0  0  0  0  0  0  # atno 17343 bound_to 10162
  157.5297  130.8050  149.7903 LP  0  0  0  0  0  0  0  0  0  0  0  0  # atno 17370 bound_to 10713
  156.0125  130.3827  150.2219 LP  0  0  0  0  0  0  0  0  0  0  0  0  # atno 17371 bound_to 10713
  141.0707  133.6798  156.2135 LP  0  0  0  0  0  0  0  0  0  0  0  0  # atno 17394 bound_to 11000
  140.6511  134.5066  157.5577 LP  0  0  0  0  0  0  0  0  0  0  0  0  # atno 17395 bound_to 11000

$$$$
