#       Name:                AV-unprocessed.smi:3338
#       Creating user name   scv26
#       Creation time:       Fri Mar 27 19:27:23 2020


#       File generated by GOLD software.
#

@<TRIPOS>MOLECULE
AV-unprocessed.smi:3338
    47    48     1
SMALL
NO_CHARGES


@<TRIPOS>ATOM
      1 ****        -4.7121  -0.2195   2.4260 C.3            1 S1                 0.0000
      2 ****        -4.0529   0.3740   1.1731 C.3            1 S1                 0.0000
      3 ****        -4.6036   1.7746   0.8574 C.3            1 S1                 0.0000
      4 ****        -3.9126   2.3479  -0.3859 C.3            1 S1                 0.0000
      5 ****        -2.3851   2.3457  -0.2162 C.3            1 S1                 0.0000
      6 ****        -1.8813   0.9806   0.0854 N.4            1 S1                 1.0000
      7 ****        -0.3979   0.9268   0.1176 C.3            1 S1                 0.0000
      8 ****         0.1464  -0.4958  -0.1169 C.3            1 S1                 0.0000
      9 ****         1.6040  -0.5139  -0.1364 N.am           1 S1                 0.0000
     10 ****         2.3631  -0.1704  -1.1900 C.2            1 S1                 0.0000
     11 ****         1.8854   0.2253  -2.2542 O.2            1 S1                 0.0000
     12 ****         3.8864  -0.2837  -1.0018 C.3            1 S1                 0.0000
     13 ****         4.6864   0.3832  -2.1396 C.3            1 S1                 0.0000
     14 ****         4.2824  -1.6745  -0.8084 N.pl3          1 S1                 0.0000
     15 ****         4.6974  -2.2859   0.3574 C.2            1 S1                 0.0000
     16 ****         4.9397  -3.5983   0.0692 C.2            1 S1                 0.0000
     17 ****         4.6353  -3.7020  -1.3164 C.2            1 S1                 0.0000
     18 ****         4.2380  -2.5528  -1.8374 N.2            1 S1                 0.0000
     19 ****        -2.5177   0.4228   1.3094 C.3            1 S1                 0.0000
     20 ****        -4.5119   0.3903   3.3075 H              1 S1                 0.0000
     21 ****        -4.3423  -1.2256   2.6260 H              1 S1                 0.0000
     22 ****        -5.7939  -0.2855   2.3054 H              1 S1                 0.0000
     23 ****        -4.2956  -0.2812   0.3351 H              1 S1                 0.0000
     24 ****        -5.6815   1.7320   0.6966 H              1 S1                 0.0000
     25 ****        -4.4405   2.4399   1.7067 H              1 S1                 0.0000
     26 ****        -4.1855   1.7585  -1.2624 H              1 S1                 0.0000
     27 ****        -4.2655   3.3624  -0.5733 H              1 S1                 0.0000
     28 ****        -1.9257   2.7165  -1.1334 H              1 S1                 0.0000
     29 ****        -2.0932   3.0284   0.5834 H              1 S1                 0.0000
     30 ****        -0.0051   1.5767  -0.6657 H              1 S1                 0.0000
     31 ****        -0.0331   1.3312   1.0631 H              1 S1                 0.0000
     32 ****        -0.1717  -1.1713   0.6761 H              1 S1                 0.0000
     33 ****        -0.2437  -0.9068  -1.0497 H              1 S1                 0.0000
     34 ****         2.0708  -0.8311   0.7013 H              1 S1                 0.0000
     35 ****         4.1295   0.2505  -0.0819 H              1 S1                 0.0000
     36 ****         4.4278   1.4380  -2.2389 H              1 S1                 0.0000
     37 ****         4.5025  -0.0945  -3.1028 H              1 S1                 0.0000
     38 ****         5.7577   0.3288  -1.9441 H              1 S1                 0.0000
     39 ****         4.7854  -1.7420   1.2865 H              1 S1                 0.0000
     40 ****         5.2808  -4.3681   0.7455 H              1 S1                 0.0000
     41 ****         4.6875  -4.5722  -1.9541 H              1 S1                 0.0000
     42 ****        -2.2331   1.0259   2.1735 H              1 S1                 0.0000
     43 ****        -2.1509  -0.5856   1.4964 H              1 S1                 0.0000
     44 ****        -2.1704   0.3996  -0.6886 H              1 S1                 0.0000
     45 ****         0.8939   0.3015  -2.3596 LP             1 S1                 0.0000
     46 ****         2.4891   0.4704  -3.0128 LP             1 S1                 0.0000
     47 ****         3.9652  -2.3727  -2.7825 LP             1 S1                 0.0000
@<TRIPOS>BOND
    1    1    2 1     
    2    1   20 1     
    3    1   21 1     
    4    1   22 1     
    5    2   19 1     
    6    2    3 1     
    7    2   23 1     
    8    3    4 1     
    9    3   24 1     
   10    3   25 1     
   11    4    5 1     
   12    4   26 1     
   13    4   27 1     
   14    5    6 1     
   15    5   28 1     
   16    5   29 1     
   17    6    7 1     
   18    6   19 1     
   19    6   44 1     
   20    7    8 1     
   21    7   30 1     
   22    7   31 1     
   23    8    9 1     
   24    8   32 1     
   25    8   33 1     
   26    9   10 am    
   27    9   34 1     
   28   10   11 2     
   29   10   12 1     
   30   12   13 1     
   31   12   14 1     
   32   12   35 1     
   33   13   36 1     
   34   13   37 1     
   35   13   38 1     
   36   14   18 1     
   37   14   15 1     
   38   15   16 2     
   39   15   39 1     
   40   16   17 1     
   41   16   40 1     
   42   17   18 2     
   43   17   41 1     
   44   19   42 1     
   45   19   43 1     
   46   11   45 1     
   47   11   46 1     
   48   18   47 1     
@<TRIPOS>SUBSTRUCTURE
      1 S1             1
@<TRIPOS>SET
LONE_PAIRS      STATIC     ATOMS    <user>   **** ""
3 45 46 47
DONOR_HYDROGENS      STATIC     ATOMS    <user>   **** ""
2 44 34
ATOM$BLUE        STATIC     ATOMS    COLORGROUP SYSTEM
3 45 46 47
ATOM$RED        STATIC     ATOMS    COLORGROUP SYSTEM
2 44 34
