AV-unprocessed.smi:1740|AV-procd|sdf|7012|dock9
  -GOLD-   22720 8223D 1   1.00000     0.00000
 Structure written by MMmdl.
 51 53  0  0  0  0  0  0  0  0  3 V2000
  147.6726  130.5273  152.5517 N   0  5  0  0  0  0  0  0  0  0  0  0
  147.0985  131.5649  153.1934 C   0  0  0  0  0  0  0  0  0  0  0  0
  146.4979  131.5516  154.2652 O   0  0  0  0  0  0  0  0  0  0  0  0
  147.2574  132.8835  152.4285 C   0  0  0  0  0  0  0  0  0  0  0  0
  148.0272  133.8678  153.2316 N   0  3  2  0  0  0  0  0  0  0  0  0
  149.2598  133.2839  153.8177 C   0  0  0  0  0  0  0  0  0  0  0  0
  150.1096  134.3628  154.5105 C   0  0  0  0  0  0  0  0  0  0  0  0
  149.3000  135.1062  155.5855 C   0  0  1  0  0  0  0  0  0  0  0  0
  150.1047  136.1812  156.1587 N   0  0  0  0  0  0  0  0  0  0  0  0
  151.3636  136.0513  156.6011 C   0  0  0  0  0  0  0  0  0  0  0  0
  151.9975  134.9975  156.5473 O   0  0  0  0  0  0  0  0  0  0  0  0
  151.8302  137.2140  157.0867 N   0  0  0  0  0  0  0  0  0  0  0  0
  153.1084  137.4856  157.6537 C   0  0  0  0  0  0  0  0  0  0  0  0
  154.1390  136.5136  157.6690 C   0  0  0  0  0  0  0  0  0  0  0  0
  155.3581  136.8095  158.3029 C   0  0  0  0  0  0  0  0  0  0  0  0
  155.5004  138.0647  158.9169 C   0  0  0  0  0  0  0  0  0  0  0  0
  154.5256  138.9952  158.9237 N   0  0  0  0  0  0  0  0  0  0  0  0
  153.3494  138.7300  158.3035 C   0  0  0  0  0  0  0  0  0  0  0  0
  152.3704  139.7491  158.3250 N   0  0  0  0  0  0  0  0  0  0  0  0
  151.9176  140.2781  157.0417 C   0  0  0  0  0  0  0  0  0  0  0  0
  151.7051  141.7820  157.2439 C   0  0  0  0  0  0  0  0  0  0  0  0
  151.5251  141.9205  158.7522 C   0  0  0  0  0  0  0  0  0  0  0  0
  152.4592  140.8404  159.2899 C   0  0  0  0  0  0  0  0  0  0  0  0
  148.0078  135.6652  154.9616 C   0  0  0  0  0  0  0  0  0  0  0  0
  147.2042  134.5588  154.2597 C   0  0  0  0  0  0  0  0  0  0  0  0
  147.9876  130.6614  151.5832 H   0  0  0  0  0  0  0  0  0  0  0  0
  147.7415  132.7152  151.4651 H   0  0  0  0  0  0  0  0  0  0  0  0
  146.2583  133.2655  152.2118 H   0  0  0  0  0  0  0  0  0  0  0  0
  148.9908  132.4996  154.5270 H   0  0  0  0  0  0  0  0  0  0  0  0
  149.8524  132.8132  153.0322 H   0  0  0  0  0  0  0  0  0  0  0  0
  150.9929  133.9046  154.9570 H   0  0  0  0  0  0  0  0  0  0  0  0
  150.4725  135.0702  153.7631 H   0  0  0  0  0  0  0  0  0  0  0  0
  149.0391  134.3945  156.3714 H   0  0  0  0  0  0  0  0  0  0  0  0
  149.6658  137.0870  156.2372 H   0  0  0  0  0  0  0  0  0  0  0  0
  151.2311  138.0185  156.9719 H   0  0  0  0  0  0  0  0  0  0  0  0
  154.0084  135.5378  157.2271 H   0  0  0  0  0  0  0  0  0  0  0  0
  156.1596  136.0861  158.3285 H   0  0  0  0  0  0  0  0  0  0  0  0
  156.4184  138.3273  159.4215 H   0  0  0  0  0  0  0  0  0  0  0  0
  152.6302  140.0809  156.2392 H   0  0  0  0  0  0  0  0  0  0  0  0
  150.9729  139.8012  156.7793 H   0  0  0  0  0  0  0  0  0  0  0  0
  152.5991  142.3241  156.9326 H   0  0  0  0  0  0  0  0  0  0  0  0
  150.8604  142.1714  156.6751 H   0  0  0  0  0  0  0  0  0  0  0  0
  151.7670  142.9165  159.1237 H   0  0  0  0  0  0  0  0  0  0  0  0
  150.4938  141.6943  159.0275 H   0  0  0  0  0  0  0  0  0  0  0  0
  152.1675  140.5125  160.2879 H   0  0  0  0  0  0  0  0  0  0  0  0
  153.4746  141.2352  159.3415 H   0  0  0  0  0  0  0  0  0  0  0  0
  147.3899  136.1339  155.7284 H   0  0  0  0  0  0  0  0  0  0  0  0
  148.2511  136.4475  154.2408 H   0  0  0  0  0  0  0  0  0  0  0  0
  146.3190  134.9996  153.8002 H   0  0  0  0  0  0  0  0  0  0  0  0
  146.8500  133.8318  154.9920 H   0  0  0  0  0  0  0  0  0  0  0  0
  148.3286  134.5699  152.5699 H   0  0  0  0  0  0  0  0  0  0  0  0
  1  2  1  0  0  0  0
  1 26  1  0  0  0  0
  2  3  2  0  0  0  0
  2  4  1  0  0  0  0
  4  5  1  0  0  0  0
  4 27  1  0  0  0  0
  4 28  1  0  0  0  0
  5 25  1  0  0  0  0
  5  6  1  0  0  0  0
  5 51  1  0  0  0  0
  6  7  1  0  0  0  0
  6 29  1  0  0  0  0
  6 30  1  0  0  0  0
  7  8  1  0  0  0  0
  7 31  1  0  0  0  0
  7 32  1  0  0  0  0
  8  9  1  0  0  0  0
  8 24  1  0  0  0  0
  8 33  1  0  0  0  0
  9 10  1  0  0  0  0
  9 34  1  0  0  0  0
 10 11  2  0  0  0  0
 10 12  1  0  0  0  0
 12 13  1  0  0  0  0
 12 35  1  0  0  0  0
 13 18  1  0  0  0  0
 13 14  2  0  0  0  0
 14 15  1  0  0  0  0
 14 36  1  0  0  0  0
 15 16  2  0  0  0  0
 15 37  1  0  0  0  0
 16 17  1  0  0  0  0
 16 38  1  0  0  0  0
 17 18  2  0  0  0  0
 18 19  1  0  0  0  0
 19 23  1  0  0  0  0
 19 20  1  0  0  0  0
 20 21  1  0  0  0  0
 20 39  1  0  0  0  0
 20 40  1  0  0  0  0
 21 22  1  0  0  0  0
 21 41  1  0  0  0  0
 21 42  1  0  0  0  0
 22 23  1  0  0  0  0
 22 43  1  0  0  0  0
 22 44  1  0  0  0  0
 23 45  1  0  0  0  0
 23 46  1  0  0  0  0
 24 25  1  0  0  0  0
 24 47  1  0  0  0  0
 24 48  1  0  0  0  0
 25 49  1  0  0  0  0
 25 50  1  0  0  0  0
M  CHG  1   1  -1
M  CHG  1   5   1
M  END
> <s_m_source_file>
AV-unprocessed.smi

> <i_m_source_file_index>
1740

> <i_lp_mmshare_version>
43012

> <i_f3d_flags>
0

> <s_epik_input>
W05IMl1DKD1PKVtDSDJdTjFbQ0gyXVtDSDJdW0NIXShbQ0gyXVtDSDJdMSlbTkhdQyg9TylbTkhdYzJbY0hdW2NIXVtjSF1uYzJOM1tDSDJdW0NIMl1bQ0gyXVtDSDJdMw==

> <s_epik_cmdline>
J2VwaWtfcHl0aG9uJywgJy1waCcsICc3LjAnLCAnLXRuJywgJzgnLCAnLW1hJywgJzIwMCcsICctbWV0YWxfYmluZGluZycsICctaW1hZScsICc8aW5maWxlLm1hZT4nLCAnLW9tYWUnLCAnPG91dGZpbGUubWFlPic=

> <r_lp_tautomer_probability>
1

> <r_epik_Ionization_Penalty>
5.80652

> <r_epik_Ionization_Penalty_Charging>
5.7288

> <r_epik_Ionization_Penalty_Neutral>
0.0777157

> <r_epik_State_Penalty>
6.60246

> <r_epik_Charging_Adjusted_Penalty>
12.3313

> <i_epik_Tot_Q>
0

> <i_epik_Tot_abs_Q>
2

> <r_epik_Metal_State_Penalty>
2.64988

> <b_epik_Metal_Only>
1

> <s_lp_Force_Field>
OPLS_2005

> <r_lp_Energy>
35.8158

> <b_lp_Chiralities_Consistent>
1

> <s_lp_Variant>
AV-unprocessed.smi:1740-7

> <Gold.Version>
5.8.1

> <Gold.Id.Protein>
6NUR|6NUR_protein|mol2

> <Gold.PLP.Fitness>
40.0080

> <Gold.PLP.PLP>
-27.3626

> <Gold.PLP.part.hbond>
-4.0000

> <Gold.PLP.part.metal>
0.0000

> <Gold.PLP.part.buried>
-5.1152

> <Gold.PLP.part.nonpolar>
-18.2686

> <Gold.PLP.part.repulsive>
0.2899

> <Gold.PLP.ligand.clash>
0.0000

> <Gold.PLP.ligand.torsion>
0.5010

> <Gold.PLP.Chemscore.Hbond>
4.4400

> <Gold.PLP.Chemscore.CHOScore>
0.0000

> <Gold.PLP.Chemscore.Metal>
0.0000

> <Gold.Chemscore.Hbonds>
donor molecule, donor type, donor heavy atom, donor atom, acceptor molecule, acceptor atom, score
      L1  H     1    26       P1 10747  1.00
      L1  H     5    51       P1  7948  1.90
      P1  H  7997  8009       L1    17  0.45
      P1  H 10752 10764       L1    11  1.00

> <Gold.PLP.Chemscore.Internal.Correction>
0.3274

> <Gold.Rescore>
     Score         DG    S(hbond)    S(metal)    S(lipo)     H(rot)  DE(clash)    DE(int)     intcor
     13.12     -16.49       2.60        0.00      66.97       2.16       0.05       3.33       ----

> <Gold.Chemscore.Fitness>
13.1157

> <Gold.Chemscore.DG>
-16.4906

> <Gold.Chemscore.ZeroCoef>
-5.4800

> <Gold.Chemscore.Hbond>
2.6033

> <Gold.Chemscore.Metal>
0.0000

> <Gold.Chemscore.Lipo>
66.9684

> <Gold.Chemscore.Internal_Hbond>
0.0000

> <Gold.Chemscore.DEClash>
0.0496

> <Gold.Chemscore.DEInternal>
3.3253

> <Gold.Chemscore.Rot>
2.1562

> <Gold.Chemscore.Internal.Correction>
   9.000000E+99

> <Gold.Chemscore.Hbonds>
donor molecule, donor type, donor heavy atom, donor atom, acceptor molecule, acceptor atom, score
      L1  H     1    26       P1 10747  0.99
      L1  H     5    51       P1  7948  0.21
      P1  H 10752 10764       L1    11  0.29

> <Gold.Chemscore.Hbond.Weighted>
-8.6951

> <Gold.Chemscore.Metal.Weighted>
-0.0000

> <Gold.Chemscore.Lipo.Weighted>
-7.8353

> <Gold.Chemscore.Internal_Hbond.Weighted>
0.0000

> <Gold.Chemscore.DEClash.Weighted>
0.0496

> <Gold.Chemscore.DEInternal.Weighted>
3.3253

> <Gold.Chemscore.Rot.Weighted>
5.5198

> <Gold.Chemscore.Internal.Correction.Weighted>
   9.000000E+99

> <Gold.Protein.RotatedTorsions>
[ 6907 6896 6895 6894 ] final  105.35 input  -60.11 | X-H torsion
[ 7974 7965 7964 7962 ] final  166.11 input  175.53 | X-H torsion
[ 8008 7997 7996 7995 ] final  112.65 input   59.86 | X-H torsion
[ 10167 10162 10161 10158 ] final   17.32 input  -65.29 | X-H torsion
[ 10718 10713 10712 10709 ] final -171.95 input   66.30 | X-H torsion
[ 10763 10752 10751 10750 ] final  -20.27 input  -60.55 | X-H torsion
[ 11005 11000 10999 10996 ] final  127.67 input  -57.11 | X-H torsion

> <Gold.Protein.ActiveResidues>
 VAL166  LYS551  ARG553  GLY616  TRP617  ASP618  TYR619  PRO620  LYS621  CYS622 
 ASP623  PHE694  ASN695  SER759  ASP760  ASP761  ALA762  ILE779  LEU786  VAL792 
 PHE793  MET794  SER795  GLU796  ALA797  LYS798  CYS799  TRP800  GLU811  SER814 

> <Gold.Protein.RotatedAtoms>
  152.5233  133.9542  159.7686 H   0  0  0  0  0  0  0  0  0  0  0  0  # atno 6907 bound_to 6896
  150.9846  133.6203  159.2724 H   0  0  0  0  0  0  0  0  0  0  0  0  # atno 6908 bound_to 6896
  151.3368  135.0860  159.9410 H   0  0  0  0  0  0  0  0  0  0  0  0  # atno 6909 bound_to 6896
  144.7475  139.8568  143.6377 H   0  0  0  0  0  0  0  0  0  0  0  0  # atno 7974 bound_to 7965
  156.2206  140.2995  155.9943 H   0  0  0  0  0  0  0  0  0  0  0  0  # atno 8008 bound_to 7997
  155.2491  140.0425  157.3001 H   0  0  0  0  0  0  0  0  0  0  0  0  # atno 8009 bound_to 7997
  154.5835  140.2382  155.8028 H   0  0  0  0  0  0  0  0  0  0  0  0  # atno 8010 bound_to 7997
  140.5735  143.9117  150.6731 H   0  0  0  0  0  0  0  0  0  0  0  0  # atno 10167 bound_to 10162
  156.7484  130.9369  151.3113 H   0  0  0  0  0  0  0  0  0  0  0  0  # atno 10718 bound_to 10713
  153.6178  135.6994  153.5322 H   0  0  0  0  0  0  0  0  0  0  0  0  # atno 10763 bound_to 10752
  153.2962  135.4142  155.1211 H   0  0  0  0  0  0  0  0  0  0  0  0  # atno 10764 bound_to 10752
  154.8550  135.3637  154.5718 H   0  0  0  0  0  0  0  0  0  0  0  0  # atno 10765 bound_to 10752
  139.9519  134.9620  156.8888 H   0  0  0  0  0  0  0  0  0  0  0  0  # atno 11005 bound_to 11000
  146.1377  139.4426  143.0128 LP  0  0  0  0  0  0  0  0  0  0  0  0  # atno 17320 bound_to 7965
  145.7066  141.0119  143.1476 LP  0  0  0  0  0  0  0  0  0  0  0  0  # atno 17321 bound_to 7965
  140.2598  143.3532  152.1332 LP  0  0  0  0  0  0  0  0  0  0  0  0  # atno 17342 bound_to 10162
  139.5130  144.6925  151.5720 LP  0  0  0  0  0  0  0  0  0  0  0  0  # atno 17343 bound_to 10162
  157.6788  130.9120  150.0215 LP  0  0  0  0  0  0  0  0  0  0  0  0  # atno 17370 bound_to 10713
  156.1418  130.3642  149.9571 LP  0  0  0  0  0  0  0  0  0  0  0  0  # atno 17371 bound_to 10713
  140.5698  134.0454  155.7426 LP  0  0  0  0  0  0  0  0  0  0  0  0  # atno 17394 bound_to 11000
  141.1184  133.9502  157.2778 LP  0  0  0  0  0  0  0  0  0  0  0  0  # atno 17395 bound_to 11000

$$$$
