AV-unprocessed.smi:3265|AV-procd|sdf|12497|dock3
  -GOLD-   2272018403D 1   1.00000     0.00000
 Structure written by MMmdl.
 41 42  0  0  0  0  0  0  0  0  2 V2000
  145.8615  135.4982  151.4378 C   0  0  0  0  0  0  0  0  0  0  0  0
  145.6978  134.2671  152.3463 C   0  0  1  0  0  0  0  0  0  0  0  0
  146.1720  132.9642  151.6767 C   0  0  0  0  0  0  0  0  0  0  0  0
  147.7043  132.8979  151.6126 C   0  0  0  0  0  0  0  0  0  0  0  0
  148.3246  133.1174  153.0015 C   0  0  0  0  0  0  0  0  0  0  0  0
  147.8712  134.4012  153.5966 N   0  3  2  0  0  0  0  0  0  0  0  0
  148.5734  134.7046  154.8690 C   0  0  0  0  0  0  0  0  0  0  0  0
  150.1059  134.7109  154.7118 C   0  0  0  0  0  0  0  0  0  0  0  0
  150.5955  136.0285  154.3270 N   0  0  0  0  0  0  0  0  0  0  0  0
  150.4583  137.1479  155.0579 C   0  0  0  0  0  0  0  0  0  0  0  0
  149.8643  137.1721  156.1354 O   0  0  0  0  0  0  0  0  0  0  0  0
  151.0533  138.4460  154.4947 C   0  0  0  0  0  0  0  0  0  0  0  0
  150.7518  139.6154  155.3065 N   0  0  0  0  0  0  0  0  0  0  0  0
  150.9698  139.7995  156.6562 C   0  0  0  0  0  0  0  0  0  0  0  0
  150.5207  141.0492  156.9739 C   0  0  0  0  0  0  0  0  0  0  0  0
  150.0439  141.5623  155.7353 C   0  0  0  0  0  0  0  0  0  0  0  0
  150.1840  140.7025  154.7392 N   0  0  0  0  0  0  0  0  0  0  0  0
  146.3880  134.4548  153.7133 C   0  0  0  0  0  0  0  0  0  0  0  0
  146.9080  135.7020  151.2105 H   0  0  0  0  0  0  0  0  0  0  0  0
  145.4491  136.3903  151.9098 H   0  0  0  0  0  0  0  0  0  0  0  0
  145.3382  135.3585  150.4915 H   0  0  0  0  0  0  0  0  0  0  0  0
  144.6278  134.1644  152.5326 H   0  0  0  0  0  0  0  0  0  0  0  0
  145.8035  132.1121  152.2495 H   0  0  0  0  0  0  0  0  0  0  0  0
  145.7454  132.8677  150.6778 H   0  0  0  0  0  0  0  0  0  0  0  0
  148.0158  131.9311  151.2162 H   0  0  0  0  0  0  0  0  0  0  0  0
  148.0822  133.6478  150.9169 H   0  0  0  0  0  0  0  0  0  0  0  0
  148.0616  132.2937  153.6673 H   0  0  0  0  0  0  0  0  0  0  0  0
  149.4112  133.1150  152.9081 H   0  0  0  0  0  0  0  0  0  0  0  0
  148.2204  135.6562  155.2696 H   0  0  0  0  0  0  0  0  0  0  0  0
  148.3097  133.9445  155.6057 H   0  0  0  0  0  0  0  0  0  0  0  0
  150.5885  134.3871  155.6358 H   0  0  0  0  0  0  0  0  0  0  0  0
  150.4225  134.0148  153.9365 H   0  0  0  0  0  0  0  0  0  0  0  0
  151.0991  136.0935  153.4538 H   0  0  0  0  0  0  0  0  0  0  0  0
  152.1358  138.3388  154.4196 H   0  0  0  0  0  0  0  0  0  0  0  0
  150.6784  138.6156  153.4842 H   0  0  0  0  0  0  0  0  0  0  0  0
  151.4187  139.0338  157.2719 H   0  0  0  0  0  0  0  0  0  0  0  0
  150.5327  141.5255  157.9430 H   0  0  0  0  0  0  0  0  0  0  0  0
  149.6027  142.5269  155.5323 H   0  0  0  0  0  0  0  0  0  0  0  0
  146.0672  135.4019  154.1454 H   0  0  0  0  0  0  0  0  0  0  0  0
  146.0589  133.6749  154.4019 H   0  0  0  0  0  0  0  0  0  0  0  0
  148.1416  135.1228  152.9435 H   0  0  0  0  0  0  0  0  0  0  0  0
  1  2  1  0  0  0  0
  1 19  1  0  0  0  0
  1 20  1  0  0  0  0
  1 21  1  0  0  0  0
  2 18  1  0  0  0  0
  2  3  1  0  0  0  0
  2 22  1  0  0  0  0
  3  4  1  0  0  0  0
  3 23  1  0  0  0  0
  3 24  1  0  0  0  0
  4  5  1  0  0  0  0
  4 25  1  0  0  0  0
  4 26  1  0  0  0  0
  5  6  1  0  0  0  0
  5 27  1  0  0  0  0
  5 28  1  0  0  0  0
  6  7  1  0  0  0  0
  6 18  1  0  0  0  0
  6 41  1  0  0  0  0
  7  8  1  0  0  0  0
  7 29  1  0  0  0  0
  7 30  1  0  0  0  0
  8  9  1  0  0  0  0
  8 31  1  0  0  0  0
  8 32  1  0  0  0  0
  9 10  1  0  0  0  0
  9 33  1  0  0  0  0
 10 11  2  0  0  0  0
 10 12  1  0  0  0  0
 12 13  1  0  0  0  0
 12 34  1  0  0  0  0
 12 35  1  0  0  0  0
 13 17  1  0  0  0  0
 13 14  1  0  0  0  0
 14 15  2  0  0  0  0
 14 36  1  0  0  0  0
 15 16  1  0  0  0  0
 15 37  1  0  0  0  0
 16 17  2  0  0  0  0
 16 38  1  0  0  0  0
 18 39  1  0  0  0  0
 18 40  1  0  0  0  0
M  CHG  1   6   1
M  END
> <s_m_source_file>
AV-unprocessed.smi

> <i_m_source_file_index>
3265

> <i_lp_mmshare_version>
43012

> <i_f3d_flags>
0

> <s_epik_input>
W0NIM11bQ0BASF0xW0NIMl1bQ0gyXVtDSDJdTihbQ0gyXTEpW0NIMl1bQ0gyXVtOSF1DKD1PKVtDSDJdbjJbY0hdW2NIXVtjSF1uMg==

> <s_epik_cmdline>
J2VwaWtfcHl0aG9uJywgJy1waCcsICc3LjAnLCAnLXRuJywgJzgnLCAnLW1hJywgJzIwMCcsICctbWV0YWxfYmluZGluZycsICctaW1hZScsICc8aW5maWxlLm1hZT4nLCAnLW9tYWUnLCAnPG91dGZpbGUubWFlPic=

> <r_lp_tautomer_probability>
1

> <r_epik_Ionization_Penalty>
0.00231455

> <r_epik_Ionization_Penalty_Charging>
0.00230623

> <r_epik_Ionization_Penalty_Neutral>
8.31727e-06

> <r_epik_State_Penalty>
0.00159065

> <r_epik_Charging_Adjusted_Penalty>
0.00389688

> <i_epik_Tot_Q>
1

> <i_epik_Tot_abs_Q>
1

> <r_epik_Metal_State_Penalty>
-0

> <b_epik_Metal_Only>
0

> <s_lp_Force_Field>
OPLS_2005

> <r_lp_Energy>
19.1739

> <b_lp_Chiralities_Consistent>
1

> <s_lp_Variant>
AV-unprocessed.smi:3265-2

> <Gold.Version>
5.8.1

> <Gold.Id.Protein>
6NUR|6NUR_protein|mol2

> <Gold.PLP.Fitness>
45.1049

> <Gold.PLP.PLP>
-30.8760

> <Gold.PLP.part.hbond>
-4.0000

> <Gold.PLP.part.metal>
0.0000

> <Gold.PLP.part.buried>
-1.6276

> <Gold.PLP.part.nonpolar>
-25.0418

> <Gold.PLP.part.repulsive>
0.1993

> <Gold.PLP.ligand.clash>
0.0000

> <Gold.PLP.ligand.torsion>
0.2444

> <Gold.PLP.Chemscore.Hbond>
3.8960

> <Gold.PLP.Chemscore.CHOScore>
1.0000

> <Gold.PLP.Chemscore.Metal>
0.0000

> <Gold.Chemscore.Hbonds>
donor molecule, donor type, donor heavy atom, donor atom, acceptor molecule, acceptor atom, score
      L1  H     6    41       P1  7948  2.00
      L1  H     9    33       P1  7949  1.00
      P1  H  7989  7998       L1    17  0.50
      L1  C    16    38       P1  8028  1.00

> <Gold.PLP.Chemscore.Internal.Correction>
0.0296

> <Gold.Rescore>
     Score         DG    S(hbond)    S(metal)    S(lipo)     H(rot)  DE(clash)    DE(int)     intcor
     13.55     -15.28       2.18        0.00      61.76       1.84       0.07       1.67       ----

> <Gold.Chemscore.Fitness>
13.5492

> <Gold.Chemscore.DG>
-15.2818

> <Gold.Chemscore.ZeroCoef>
-5.4800

> <Gold.Chemscore.Hbond>
2.1803

> <Gold.Chemscore.Metal>
0.0000

> <Gold.Chemscore.Lipo>
61.7648

> <Gold.Chemscore.Internal_Hbond>
0.0000

> <Gold.Chemscore.DEClash>
0.0650

> <Gold.Chemscore.DEInternal>
1.6676

> <Gold.Chemscore.Rot>
1.8386

> <Gold.Chemscore.Internal.Correction>
   9.000000E+99

> <Gold.Chemscore.Hbonds>
donor molecule, donor type, donor heavy atom, donor atom, acceptor molecule, acceptor atom, score
      L1  H     6    41       P1  7948  0.96
      L1  H     9    33       P1  7949  0.28
      P1  H  7989  7998       L1    17  0.03

> <Gold.Chemscore.Hbond.Weighted>
-7.2822

> <Gold.Chemscore.Metal.Weighted>
-0.0000

> <Gold.Chemscore.Lipo.Weighted>
-7.2265

> <Gold.Chemscore.Internal_Hbond.Weighted>
0.0000

> <Gold.Chemscore.DEClash.Weighted>
0.0650

> <Gold.Chemscore.DEInternal.Weighted>
1.6676

> <Gold.Chemscore.Rot.Weighted>
4.7069

> <Gold.Chemscore.Internal.Correction.Weighted>
   9.000000E+99

> <Gold.Protein.RotatedTorsions>
[ 6907 6896 6895 6894 ] final  151.25 input  -60.11 | X-H torsion
[ 7974 7965 7964 7962 ] final -165.47 input  175.53 | X-H torsion
[ 8008 7997 7996 7995 ] final  -18.98 input   59.86 | X-H torsion
[ 10167 10162 10161 10158 ] final  -26.63 input  -65.29 | X-H torsion
[ 10718 10713 10712 10709 ] final   97.55 input   66.30 | X-H torsion
[ 10763 10752 10751 10750 ] final -143.33 input  -60.55 | X-H torsion
[ 11005 11000 10999 10996 ] final  -67.20 input  -57.11 | X-H torsion

> <Gold.Protein.ActiveResidues>
 VAL166  LYS551  ARG553  GLY616  TRP617  ASP618  TYR619  PRO620  LYS621  CYS622 
 ASP623  PHE694  ASN695  SER759  ASP760  ASP761  ALA762  ILE779  LEU786  VAL792 
 PHE793  MET794  SER795  GLU796  ALA797  LYS798  CYS799  TRP800  GLU811  SER814 

> <Gold.Protein.RotatedAtoms>
  152.1033  133.4261  159.4596 H   0  0  0  0  0  0  0  0  0  0  0  0  # atno 6907 bound_to 6896
  150.6865  134.2735  159.4607 H   0  0  0  0  0  0  0  0  0  0  0  0  # atno 6908 bound_to 6896
  152.0597  134.9601  160.0625 H   0  0  0  0  0  0  0  0  0  0  0  0  # atno 6909 bound_to 6896
  144.7269  140.2809  143.6236 H   0  0  0  0  0  0  0  0  0  0  0  0  # atno 7974 bound_to 7965
  154.4868  140.2101  155.9637 H   0  0  0  0  0  0  0  0  0  0  0  0  # atno 8008 bound_to 7997
  156.1248  140.3207  155.8229 H   0  0  0  0  0  0  0  0  0  0  0  0  # atno 8009 bound_to 7997
  155.4404  140.0509  157.3001 H   0  0  0  0  0  0  0  0  0  0  0  0  # atno 8010 bound_to 7997
  140.7282  143.4161  151.1025 H   0  0  0  0  0  0  0  0  0  0  0  0  # atno 10167 bound_to 10162
  157.6910  131.0613  150.4661 H   0  0  0  0  0  0  0  0  0  0  0  0  # atno 10718 bound_to 10713
  154.8474  135.3471  154.6170 H   0  0  0  0  0  0  0  0  0  0  0  0  # atno 10763 bound_to 10752
  153.6779  135.6981  153.5131 H   0  0  0  0  0  0  0  0  0  0  0  0  # atno 10764 bound_to 10752
  153.2691  135.4298  155.0926 H   0  0  0  0  0  0  0  0  0  0  0  0  # atno 10765 bound_to 10752
  141.1502  133.6714  156.6256 H   0  0  0  0  0  0  0  0  0  0  0  0  # atno 11005 bound_to 11000
  145.7951  139.1942  143.2080 LP  0  0  0  0  0  0  0  0  0  0  0  0  # atno 17320 bound_to 7965
  146.0724  140.7855  142.9682 LP  0  0  0  0  0  0  0  0  0  0  0  0  # atno 17321 bound_to 7965
  139.7801  143.8367  152.3136 LP  0  0  0  0  0  0  0  0  0  0  0  0  # atno 17342 bound_to 10162
  139.8316  144.7251  150.9444 LP  0  0  0  0  0  0  0  0  0  0  0  0  # atno 17343 bound_to 10162
  156.5002  130.4115  149.6357 LP  0  0  0  0  0  0  0  0  0  0  0  0  # atno 17370 bound_to 10713
  156.3335  130.7344  151.2278 LP  0  0  0  0  0  0  0  0  0  0  0  0  # atno 17371 bound_to 10713
  140.3507  134.7771  157.4464 LP  0  0  0  0  0  0  0  0  0  0  0  0  # atno 17394 bound_to 11000
  140.0863  134.5662  155.8489 LP  0  0  0  0  0  0  0  0  0  0  0  0  # atno 17395 bound_to 11000

$$$$
