AV-unprocessed.smi:3162|AV-procd|sdf|12070|dock2
  -GOLD-   2272017503D 1   1.00000     0.00000
 Structure written by MMmdl.
 36 36  0  0  0  0  0  0  0  0  1 V2000
  147.6560  140.5132  153.7277 C   0  0  0  0  0  0  0  0  0  0  0  0
  148.3710  141.6859  154.4174 C   0  0  0  0  0  0  0  0  0  0  0  0
  148.9779  141.3396  155.7950 C   0  0  1  0  0  0  0  0  0  0  0  0
  149.9540  142.3802  156.1727 N   0  0  0  0  0  0  0  0  0  0  0  0
  150.5104  142.2773  157.5204 C   0  0  1  0  0  0  0  0  0  0  0  0
  151.1070  140.8675  157.6670 C   0  0  0  0  0  0  0  0  0  0  0  0
  151.5605  143.3904  157.7386 C   0  0  0  0  0  0  0  0  0  0  0  0
  151.9395  143.5384  159.1316 N   0  0  0  0  0  0  0  0  0  0  0  0
  152.5171  142.6069  159.9677 C   0  0  0  0  0  0  0  0  0  0  0  0
  152.6944  143.2011  161.1850 C   0  0  0  0  0  0  0  0  0  0  0  0
  153.2788  142.6150  162.4379 C   0  0  0  0  0  0  0  0  0  0  0  0
  152.1912  144.5183  160.9861 C   0  0  0  0  0  0  0  0  0  0  0  0
  151.7436  144.7184  159.7574 N   0  0  0  0  0  0  0  0  0  0  0  0
  147.8879  141.1225  156.8611 C   0  0  0  0  0  0  0  0  0  0  0  0
  146.6167  141.2305  156.4668 N   0  0  0  0  0  0  0  0  0  0  0  0
  148.1909  140.8409  158.0191 O   0  0  0  0  0  0  0  0  0  0  0  0
  147.3113  140.8030  152.7350 H   0  0  0  0  0  0  0  0  0  0  0  0
  146.7842  140.1820  154.2923 H   0  0  0  0  0  0  0  0  0  0  0  0
  148.3248  139.6602  153.6098 H   0  0  0  0  0  0  0  0  0  0  0  0
  149.1689  142.0277  153.7565 H   0  0  0  0  0  0  0  0  0  0  0  0
  147.6820  142.5270  154.5087 H   0  0  0  0  0  0  0  0  0  0  0  0
  149.5294  140.4046  155.6784 H   0  0  0  0  0  0  0  0  0  0  0  0
  149.6020  143.3121  156.0057 H   0  0  0  0  0  0  0  0  0  0  0  0
  149.7159  142.3693  158.2627 H   0  0  0  0  0  0  0  0  0  0  0  0
  151.4863  140.6981  158.6750 H   0  0  0  0  0  0  0  0  0  0  0  0
  151.9316  140.7084  156.9712 H   0  0  0  0  0  0  0  0  0  0  0  0
  150.3556  140.1011  157.4742 H   0  0  0  0  0  0  0  0  0  0  0  0
  152.4605  143.1780  157.1598 H   0  0  0  0  0  0  0  0  0  0  0  0
  151.1926  144.3552  157.3898 H   0  0  0  0  0  0  0  0  0  0  0  0
  152.7489  141.6070  159.6315 H   0  0  0  0  0  0  0  0  0  0  0  0
  153.3139  143.3432  163.2486 H   0  0  0  0  0  0  0  0  0  0  0  0
  154.2981  142.2623  162.2789 H   0  0  0  0  0  0  0  0  0  0  0  0
  152.6957  141.7656  162.7940 H   0  0  0  0  0  0  0  0  0  0  0  0
  152.1393  145.3310  161.6954 H   0  0  0  0  0  0  0  0  0  0  0  0
  145.8695  141.0985  157.1326 H   0  0  0  0  0  0  0  0  0  0  0  0
  146.4080  141.4466  155.5027 H   0  0  0  0  0  0  0  0  0  0  0  0
  1  2  1  0  0  0  0
  1 17  1  0  0  0  0
  1 18  1  0  0  0  0
  1 19  1  0  0  0  0
  2  3  1  0  0  0  0
  2 20  1  0  0  0  0
  2 21  1  0  0  0  0
  3  4  1  0  0  0  0
  3 14  1  0  0  0  0
  3 22  1  0  0  0  0
  4  5  1  0  0  0  0
  4 23  1  0  0  0  0
  5  6  1  0  0  0  0
  5  7  1  0  0  0  0
  5 24  1  0  0  0  0
  6 25  1  0  0  0  0
  6 26  1  0  0  0  0
  6 27  1  0  0  0  0
  7  8  1  0  0  0  0
  7 28  1  0  0  0  0
  7 29  1  0  0  0  0
  8 13  1  0  0  0  0
  8  9  1  0  0  0  0
  9 10  2  0  0  0  0
  9 30  1  0  0  0  0
 10 11  1  0  0  0  0
 10 12  1  0  0  0  0
 11 31  1  0  0  0  0
 11 32  1  0  0  0  0
 11 33  1  0  0  0  0
 12 13  2  0  0  0  0
 12 34  1  0  0  0  0
 14 15  1  0  0  0  0
 14 16  2  0  0  0  0
 15 35  1  0  0  0  0
 15 36  1  0  0  0  0
M  END
> <s_m_source_file>
AV-unprocessed.smi

> <i_m_source_file_index>
3162

> <i_lp_mmshare_version>
43012

> <i_f3d_flags>
0

> <s_epik_input>
W0NIM11bQ0gyXVtDQEBIXShDKD1PKVtOSDJdKVtOSF1bQ0BIXShbQ0gzXSlbQ0gyXW4xW2NIXWMoW0NIM10pW2NIXW4x

> <s_epik_cmdline>
J2VwaWtfcHl0aG9uJywgJy1waCcsICc3LjAnLCAnLXRuJywgJzgnLCAnLW1hJywgJzIwMCcsICctbWV0YWxfYmluZGluZycsICctaW1hZScsICc8aW5maWxlLm1hZT4nLCAnLW9tYWUnLCAnPG91dGZpbGUubWFlPic=

> <r_lp_tautomer_probability>
1

> <r_epik_Ionization_Penalty>
1.04167

> <r_epik_Ionization_Penalty_Charging>
0

> <r_epik_Ionization_Penalty_Neutral>
1.04167

> <r_epik_State_Penalty>
1.09367

> <r_epik_Charging_Adjusted_Penalty>
1.09367

> <i_epik_Tot_Q>
0

> <i_epik_Tot_abs_Q>
0

> <r_epik_Metal_State_Penalty>
1.09362

> <b_epik_Metal_Only>
0

> <s_lp_Force_Field>
OPLS_2005

> <r_lp_Energy>
2.92594

> <b_lp_Chiralities_Consistent>
1

> <s_lp_Variant>
AV-unprocessed.smi:3162-8

> <Gold.Version>
5.8.1

> <Gold.Id.Protein>
6NUR|6NUR_protein|mol2

> <Gold.PLP.Fitness>
39.6847

> <Gold.PLP.PLP>
-37.5666

> <Gold.PLP.part.hbond>
-1.5029

> <Gold.PLP.part.metal>
0.0000

> <Gold.PLP.part.buried>
-5.3096

> <Gold.PLP.part.nonpolar>
-30.2747

> <Gold.PLP.part.repulsive>
0.0897

> <Gold.PLP.ligand.clash>
0.5124

> <Gold.PLP.ligand.torsion>
0.2506

> <Gold.PLP.Chemscore.Hbond>
1.0000

> <Gold.PLP.Chemscore.CHOScore>
0.0000

> <Gold.PLP.Chemscore.Metal>
0.0000

> <Gold.Chemscore.Hbonds>
donor molecule, donor type, donor heavy atom, donor atom, acceptor molecule, acceptor atom, score
      L1  H     4    23       P1  8028  1.00

> <Gold.PLP.Chemscore.Internal.Correction>
0.1317

> <Gold.Rescore>
     Score         DG    S(hbond)    S(metal)    S(lipo)     H(rot)  DE(clash)    DE(int)     intcor
     11.66     -13.39       0.99        0.00      92.47       2.43       0.12       1.61       ----

> <Gold.Chemscore.Fitness>
11.6588

> <Gold.Chemscore.DG>
-13.3877

> <Gold.Chemscore.ZeroCoef>
-5.4800

> <Gold.Chemscore.Hbond>
0.9930

> <Gold.Chemscore.Metal>
0.0000

> <Gold.Chemscore.Lipo>
92.4695

> <Gold.Chemscore.Internal_Hbond>
0.0000

> <Gold.Chemscore.DEClash>
0.1198

> <Gold.Chemscore.DEInternal>
1.6091

> <Gold.Chemscore.Rot>
2.4328

> <Gold.Chemscore.Internal.Correction>
   9.000000E+99

> <Gold.Chemscore.Hbonds>
donor molecule, donor type, donor heavy atom, donor atom, acceptor molecule, acceptor atom, score
      L1  H     4    23       P1  8028  0.99

> <Gold.Chemscore.Hbond.Weighted>
-3.3167

> <Gold.Chemscore.Metal.Weighted>
-0.0000

> <Gold.Chemscore.Lipo.Weighted>
-10.8189

> <Gold.Chemscore.Internal_Hbond.Weighted>
0.0000

> <Gold.Chemscore.DEClash.Weighted>
0.1198

> <Gold.Chemscore.DEInternal.Weighted>
1.6091

> <Gold.Chemscore.Rot.Weighted>
6.2279

> <Gold.Chemscore.Internal.Correction.Weighted>
   9.000000E+99

> <Gold.Protein.RotatedTorsions>
[ 6907 6896 6895 6894 ] final   75.85 input  -60.11 | X-H torsion
[ 7974 7965 7964 7962 ] final  128.29 input  175.53 | X-H torsion
[ 8008 7997 7996 7995 ] final   93.90 input   59.86 | X-H torsion
[ 10167 10162 10161 10158 ] final -164.80 input  -65.29 | X-H torsion
[ 10718 10713 10712 10709 ] final -163.65 input   66.30 | X-H torsion
[ 10763 10752 10751 10750 ] final    2.02 input  -60.55 | X-H torsion
[ 11005 11000 10999 10996 ] final -143.90 input  -57.11 | X-H torsion

> <Gold.Protein.ActiveResidues>
 VAL166  LYS551  ARG553  GLY616  TRP617  ASP618  TYR619  PRO620  LYS621  CYS622 
 ASP623  PHE694  ASN695  SER759  ASP760  ASP761  ALA762  ILE779  LEU786  VAL792 
 PHE793  MET794  SER795  GLU796  ALA797  LYS798  CYS799  TRP800  GLU811  SER814 

> <Gold.Protein.RotatedAtoms>
  152.5045  134.4058  159.9431 H   0  0  0  0  0  0  0  0  0  0  0  0  # atno 6907 bound_to 6896
  151.4024  133.3747  159.2741 H   0  0  0  0  0  0  0  0  0  0  0  0  # atno 6908 bound_to 6896
  150.9352  134.8786  159.7636 H   0  0  0  0  0  0  0  0  0  0  0  0  # atno 6909 bound_to 6896
  145.0412  139.3962  143.5101 H   0  0  0  0  0  0  0  0  0  0  0  0  # atno 7974 bound_to 7965
  156.0519  140.3307  155.7360 H   0  0  0  0  0  0  0  0  0  0  0  0  # atno 8008 bound_to 7997
  155.5588  140.0617  157.2851 H   0  0  0  0  0  0  0  0  0  0  0  0  # atno 8009 bound_to 7997
  154.4439  140.1881  156.0750 H   0  0  0  0  0  0  0  0  0  0  0  0  # atno 8010 bound_to 7997
  139.6225  144.0596  152.1946 H   0  0  0  0  0  0  0  0  0  0  0  0  # atno 10167 bound_to 10162
  156.6277  130.8916  151.2971 H   0  0  0  0  0  0  0  0  0  0  0  0  # atno 10718 bound_to 10713
  153.3008  135.6955  153.7205 H   0  0  0  0  0  0  0  0  0  0  0  0  # atno 10763 bound_to 10752
  153.6120  135.3443  155.2983 H   0  0  0  0  0  0  0  0  0  0  0  0  # atno 10764 bound_to 10752
  154.8550  135.4366  154.2118 H   0  0  0  0  0  0  0  0  0  0  0  0  # atno 10765 bound_to 10752
  140.8078  134.2780  157.4953 H   0  0  0  0  0  0  0  0  0  0  0  0  # atno 11005 bound_to 11000
  146.3509  140.0013  142.8676 LP  0  0  0  0  0  0  0  0  0  0  0  0  # atno 17320 bound_to 7965
  145.1645  140.9690  143.4357 LP  0  0  0  0  0  0  0  0  0  0  0  0  # atno 17321 bound_to 7965
  140.0241  144.6130  150.7542 LP  0  0  0  0  0  0  0  0  0  0  0  0  # atno 17342 bound_to 10162
  140.7391  143.2787  151.3665 LP  0  0  0  0  0  0  0  0  0  0  0  0  # atno 17343 bound_to 10162
  157.7209  130.9557  150.1436 LP  0  0  0  0  0  0  0  0  0  0  0  0  # atno 17370 bound_to 10713
  156.2260  130.3678  149.8500 LP  0  0  0  0  0  0  0  0  0  0  0  0  # atno 17371 bound_to 10713
  139.8716  134.9466  156.3944 LP  0  0  0  0  0  0  0  0  0  0  0  0  # atno 17394 bound_to 11000
  140.9228  133.7633  155.9928 LP  0  0  0  0  0  0  0  0  0  0  0  0  # atno 17395 bound_to 11000

$$$$
