AV-unprocessed.smi:1830|AV-procd|sdf|7451|dock9
  -GOLD-   22720 9143D 1   1.00000     0.00000
 Structure written by MMmdl.
 54 57  0  0  0  0  0  0  0  0  3 V2000
  149.8278  132.5193  158.1440 O   0  0  0  0  0  0  0  0  0  0  0  0
  148.7840  131.9356  157.8544 C   0  0  0  0  0  0  0  0  0  0  0  0
  148.6168  131.2403  156.7209 N   0  0  0  0  0  0  0  0  0  0  0  0
  149.6091  131.1300  155.6559 C   0  0  0  0  0  0  0  0  0  0  0  0
  149.0124  131.3421  154.2515 C   0  0  1  0  0  0  0  0  0  0  0  0
  147.8633  130.3552  153.9242 C   0  0  0  0  0  0  0  0  0  0  0  0
  147.2698  130.7437  152.6314 N   0  3  1  0  0  0  0  0  0  0  0  0
  146.1534  129.9400  152.1045 C   0  0  0  0  0  0  0  0  0  0  0  0
  145.4044  130.8873  151.1456 C   0  0  0  0  0  0  0  0  0  0  0  0
  146.0569  132.2699  151.3288 C   0  0  0  0  0  0  0  0  0  0  0  0
  146.7963  132.1293  152.6557 C   0  0  2  0  0  0  0  0  0  0  0  0
  147.9867  133.0578  152.9245 C   0  0  0  0  0  0  0  0  0  0  0  0
  148.5373  132.6914  154.1907 O   0  0  0  0  0  0  0  0  0  0  0  0
  147.6691  131.9236  158.6046 N   0  0  0  0  0  0  0  0  0  0  0  0
  147.4268  132.6112  159.8284 C   0  0  0  0  0  0  0  0  0  0  0  0
  147.9934  133.8873  160.0808 C   0  0  0  0  0  0  0  0  0  0  0  0
  147.7163  134.5544  161.2887 C   0  0  0  0  0  0  0  0  0  0  0  0
  146.8788  133.9342  162.2310 C   0  0  0  0  0  0  0  0  0  0  0  0
  146.3720  132.7116  161.9714 N   0  3  0  0  0  0  0  0  0  0  0  0
  146.6136  132.0115  160.8347 C   0  0  0  0  0  0  0  0  0  0  0  0
  146.0217  130.7333  160.7116 N   0  0  0  0  0  0  0  0  0  0  0  0
  144.5736  130.5781  160.7939 C   0  0  0  0  0  0  0  0  0  0  0  0
  144.3448  129.0804  160.9780 C   0  0  0  0  0  0  0  0  0  0  0  0
  145.5428  128.6678  161.8276 C   0  0  0  0  0  0  0  0  0  0  0  0
  146.6687  129.5851  161.3386 C   0  0  0  0  0  0  0  0  0  0  0  0
  147.7270  130.7908  156.5610 H   0  0  0  0  0  0  0  0  0  0  0  0
  150.3884  131.8698  155.8418 H   0  0  0  0  0  0  0  0  0  0  0  0
  150.0955  130.1547  155.7126 H   0  0  0  0  0  0  0  0  0  0  0  0
  149.8030  131.2313  153.5071 H   0  0  0  0  0  0  0  0  0  0  0  0
  148.2354  129.3322  153.8591 H   0  0  0  0  0  0  0  0  0  0  0  0
  147.1013  130.3772  154.7049 H   0  0  0  0  0  0  0  0  0  0  0  0
  146.5175  129.0410  151.6067 H   0  0  0  0  0  0  0  0  0  0  0  0
  145.4955  129.6359  152.9200 H   0  0  0  0  0  0  0  0  0  0  0  0
  145.4812  130.5558  150.1096 H   0  0  0  0  0  0  0  0  0  0  0  0
  144.3449  130.9202  151.4017 H   0  0  0  0  0  0  0  0  0  0  0  0
  146.7652  132.4563  150.5202 H   0  0  0  0  0  0  0  0  0  0  0  0
  145.3308  133.0833  151.3351 H   0  0  0  0  0  0  0  0  0  0  0  0
  146.0709  132.2375  153.4652 H   0  0  0  0  0  0  0  0  0  0  0  0
  148.7430  132.9788  152.1420 H   0  0  0  0  0  0  0  0  0  0  0  0
  147.6616  134.0975  152.9617 H   0  0  0  0  0  0  0  0  0  0  0  0
  146.8640  131.4769  158.1912 H   0  0  0  0  0  0  0  0  0  0  0  0
  148.6441  134.3671  159.3656 H   0  0  0  0  0  0  0  0  0  0  0  0
  148.1387  135.5286  161.4874 H   0  0  0  0  0  0  0  0  0  0  0  0
  146.6072  134.3707  163.1814 H   0  0  0  0  0  0  0  0  0  0  0  0
  144.1801  131.1165  161.6569 H   0  0  0  0  0  0  0  0  0  0  0  0
  144.0800  130.9551  159.8975 H   0  0  0  0  0  0  0  0  0  0  0  0
  143.3875  128.8506  161.4463 H   0  0  0  0  0  0  0  0  0  0  0  0
  144.3813  128.5742  160.0121 H   0  0  0  0  0  0  0  0  0  0  0  0
  145.3328  128.8716  162.8785 H   0  0  0  0  0  0  0  0  0  0  0  0
  145.7876  127.6094  161.7343 H   0  0  0  0  0  0  0  0  0  0  0  0
  147.2690  129.0691  160.5889 H   0  0  0  0  0  0  0  0  0  0  0  0
  147.3248  129.8790  162.1593 H   0  0  0  0  0  0  0  0  0  0  0  0
  148.0031  130.7053  151.9377 H   0  0  0  0  0  0  0  0  0  0  0  0
  145.7753  132.2839  162.6798 H   0  0  0  0  0  0  0  0  0  0  0  0
  1  2  2  0  0  0  0
  2  3  1  0  0  0  0
  2 14  1  0  0  0  0
  3  4  1  0  0  0  0
  3 26  1  0  0  0  0
  4  5  1  0  0  0  0
  4 27  1  0  0  0  0
  4 28  1  0  0  0  0
  5 13  1  0  0  0  0
  5  6  1  0  0  0  0
  5 29  1  0  0  0  0
  6  7  1  0  0  0  0
  6 30  1  0  0  0  0
  6 31  1  0  0  0  0
  7 11  1  0  0  0  0
  7  8  1  0  0  0  0
  7 53  1  0  0  0  0
  8  9  1  0  0  0  0
  8 32  1  0  0  0  0
  8 33  1  0  0  0  0
  9 10  1  0  0  0  0
  9 34  1  0  0  0  0
  9 35  1  0  0  0  0
 10 11  1  0  0  0  0
 10 36  1  0  0  0  0
 10 37  1  0  0  0  0
 11 12  1  0  0  0  0
 11 38  1  0  0  0  0
 12 13  1  0  0  0  0
 12 39  1  0  0  0  0
 12 40  1  0  0  0  0
 14 15  1  0  0  0  0
 14 41  1  0  0  0  0
 15 20  1  0  0  0  0
 15 16  2  0  0  0  0
 16 17  1  0  0  0  0
 16 42  1  0  0  0  0
 17 18  2  0  0  0  0
 17 43  1  0  0  0  0
 18 19  1  0  0  0  0
 18 44  1  0  0  0  0
 19 20  2  0  0  0  0
 19 54  1  0  0  0  0
 20 21  1  0  0  0  0
 21 25  1  0  0  0  0
 21 22  1  0  0  0  0
 22 23  1  0  0  0  0
 22 45  1  0  0  0  0
 22 46  1  0  0  0  0
 23 24  1  0  0  0  0
 23 47  1  0  0  0  0
 23 48  1  0  0  0  0
 24 25  1  0  0  0  0
 24 49  1  0  0  0  0
 24 50  1  0  0  0  0
 25 51  1  0  0  0  0
 25 52  1  0  0  0  0
M  CHG  1   7   1
M  CHG  1  19   1
M  END
> <s_m_source_file>
AV-unprocessed.smi

> <i_m_source_file_index>
1830

> <i_lp_mmshare_version>
43012

> <i_f3d_flags>
0

> <s_epik_input>
W0NIMl0xW0NIMl1bQ0gyXVtDQEhdKE4xMilbQ0gyXU9bQ0BASF0oW0NIMl0yKVtDSDJdW05IXUMoPU8pW05IXWMzW2NIXVtjSF1bY0hdbmMzTjRbQ0gyXVtDSDJdW0NIMl1bQ0gyXTQ=

> <s_epik_cmdline>
J2VwaWtfcHl0aG9uJywgJy1waCcsICc3LjAnLCAnLXRuJywgJzgnLCAnLW1hJywgJzIwMCcsICctbWV0YWxfYmluZGluZycsICctaW1hZScsICc8aW5maWxlLm1hZT4nLCAnLW9tYWUnLCAnPG91dGZpbGUubWFlPic=

> <r_lp_tautomer_probability>
0.999994

> <r_epik_Ionization_Penalty>
1.29113

> <r_epik_Ionization_Penalty_Charging>
1.29111

> <r_epik_Ionization_Penalty_Neutral>
1.88144e-05

> <r_epik_State_Penalty>
1.32676

> <r_epik_Charging_Adjusted_Penalty>
2.61787

> <i_epik_Tot_Q>
2

> <i_epik_Tot_abs_Q>
2

> <r_epik_Metal_State_Penalty>
1.40425

> <b_epik_Metal_Only>
0

> <s_lp_Force_Field>
OPLS_2005

> <r_lp_Energy>
72.9797

> <b_lp_Chiralities_Consistent>
1

> <s_lp_Variant>
AV-unprocessed.smi:1830-20

> <Gold.Version>
5.8.1

> <Gold.Id.Protein>
6NUR|6NUR_protein|mol2

> <Gold.PLP.Fitness>
40.0964

> <Gold.PLP.PLP>
-34.9788

> <Gold.PLP.part.hbond>
-2.0000

> <Gold.PLP.part.metal>
0.0000

> <Gold.PLP.part.buried>
-4.5804

> <Gold.PLP.part.nonpolar>
-28.3782

> <Gold.PLP.part.repulsive>
0.1799

> <Gold.PLP.ligand.clash>
0.0000

> <Gold.PLP.ligand.torsion>
0.6388

> <Gold.PLP.Chemscore.Hbond>
2.0000

> <Gold.PLP.Chemscore.CHOScore>
0.0000

> <Gold.PLP.Chemscore.Metal>
0.0000

> <Gold.Chemscore.Hbonds>
donor molecule, donor type, donor heavy atom, donor atom, acceptor molecule, acceptor atom, score
      L1  H     7    53       P1 10747  1.00
      P1  H  6896  6909       L1     1  1.00

> <Gold.PLP.Chemscore.Internal.Correction>
0.3951

> <Gold.Rescore>
     Score         DG    S(hbond)    S(metal)    S(lipo)     H(rot)  DE(clash)    DE(int)     intcor
     17.93     -19.40       1.98        0.00      93.57       1.43       0.00       1.46       ----

> <Gold.Chemscore.Fitness>
17.9340

> <Gold.Chemscore.DG>
-19.4004

> <Gold.Chemscore.ZeroCoef>
-5.4800

> <Gold.Chemscore.Hbond>
1.9843

> <Gold.Chemscore.Metal>
0.0000

> <Gold.Chemscore.Lipo>
93.5711

> <Gold.Chemscore.Internal_Hbond>
0.0000

> <Gold.Chemscore.DEClash>
0.0048

> <Gold.Chemscore.DEInternal>
1.4616

> <Gold.Chemscore.Rot>
1.4278

> <Gold.Chemscore.Internal.Correction>
   9.000000E+99

> <Gold.Chemscore.Hbonds>
donor molecule, donor type, donor heavy atom, donor atom, acceptor molecule, acceptor atom, score
      L1  H     7    53       P1 10747  1.00
      P1  H  6896  6909       L1     1  0.95

> <Gold.Chemscore.Hbond.Weighted>
-6.6277

> <Gold.Chemscore.Metal.Weighted>
-0.0000

> <Gold.Chemscore.Lipo.Weighted>
-10.9478

> <Gold.Chemscore.Internal_Hbond.Weighted>
0.0000

> <Gold.Chemscore.DEClash.Weighted>
0.0048

> <Gold.Chemscore.DEInternal.Weighted>
1.4616

> <Gold.Chemscore.Rot.Weighted>
3.6551

> <Gold.Chemscore.Internal.Correction.Weighted>
   9.000000E+99

> <Gold.Protein.RotatedTorsions>
[ 6907 6896 6895 6894 ] final  -34.13 input  -60.11 | X-H torsion
[ 7974 7965 7964 7962 ] final   80.89 input  175.53 | X-H torsion
[ 8008 7997 7996 7995 ] final  -17.14 input   59.86 | X-H torsion
[ 10167 10162 10161 10158 ] final -134.73 input  -65.29 | X-H torsion
[ 10718 10713 10712 10709 ] final  -11.84 input   66.30 | X-H torsion
[ 10763 10752 10751 10750 ] final  117.14 input  -60.55 | X-H torsion
[ 11005 11000 10999 10996 ] final    2.09 input  -57.11 | X-H torsion

> <Gold.Protein.ActiveResidues>
 VAL166  LYS551  ARG553  GLY616  TRP617  ASP618  TYR619  PRO620  LYS621  CYS622 
 ASP623  PHE694  ASN695  SER759  ASP760  ASP761  ALA762  ILE779  LEU786  VAL792 
 PHE793  MET794  SER795  GLU796  ALA797  LYS798  CYS799  TRP800  GLU811  SER814 

> <Gold.Protein.RotatedAtoms>
  151.0565  134.9708  159.8238 H   0  0  0  0  0  0  0  0  0  0  0  0  # atno 6907 bound_to 6896
  152.5389  134.2471  159.8894 H   0  0  0  0  0  0  0  0  0  0  0  0  # atno 6908 bound_to 6896
  151.2489  133.4317  159.2644 H   0  0  0  0  0  0  0  0  0  0  0  0  # atno 6909 bound_to 6896
  145.6453  139.2435  143.2007 H   0  0  0  0  0  0  0  0  0  0  0  0  # atno 7974 bound_to 7965
  154.5000  140.2150  155.9366 H   0  0  0  0  0  0  0  0  0  0  0  0  # atno 8008 bound_to 7997
  156.1421  140.3177  155.8480 H   0  0  0  0  0  0  0  0  0  0  0  0  # atno 8009 bound_to 7997
  155.4100  140.0490  157.3023 H   0  0  0  0  0  0  0  0  0  0  0  0  # atno 8010 bound_to 7997
  139.8850  143.6792  152.2621 H   0  0  0  0  0  0  0  0  0  0  0  0  # atno 10167 bound_to 10162
  156.6532  130.4960  149.6055 H   0  0  0  0  0  0  0  0  0  0  0  0  # atno 10718 bound_to 10713
  153.5478  135.3545  155.2746 H   0  0  0  0  0  0  0  0  0  0  0  0  # atno 10763 bound_to 10752
  154.8710  135.4106  154.2971 H   0  0  0  0  0  0  0  0  0  0  0  0  # atno 10764 bound_to 10752
  153.3691  135.7063  153.6720 H   0  0  0  0  0  0  0  0  0  0  0  0  # atno 10765 bound_to 10752
  140.6081  133.9773  155.8164 H   0  0  0  0  0  0  0  0  0  0  0  0  # atno 11005 bound_to 11000
  146.1248  140.7262  142.9440 LP  0  0  0  0  0  0  0  0  0  0  0  0  # atno 17320 bound_to 7965
  144.7142  140.4151  143.7057 LP  0  0  0  0  0  0  0  0  0  0  0  0  # atno 17321 bound_to 7965
  139.7161  144.7611  151.1032 LP  0  0  0  0  0  0  0  0  0  0  0  0  # atno 17342 bound_to 10162
  140.7737  143.5268  150.9471 LP  0  0  0  0  0  0  0  0  0  0  0  0  # atno 17343 bound_to 10162
  156.2068  130.6654  151.1227 LP  0  0  0  0  0  0  0  0  0  0  0  0  # atno 17370 bound_to 10713
  157.7134  131.0722  150.6417 LP  0  0  0  0  0  0  0  0  0  0  0  0  # atno 17371 bound_to 10713
  141.0826  134.0039  157.3362 LP  0  0  0  0  0  0  0  0  0  0  0  0  # atno 17394 bound_to 11000
  139.9203  135.0200  156.8040 LP  0  0  0  0  0  0  0  0  0  0  0  0  # atno 17395 bound_to 11000

$$$$
