#       Name:                AV-unprocessed.smi:3017
#       Creating user name   scv26
#       Creation time:       Fri Mar 27 16:41:16 2020


#       File generated by GOLD software.
#

@<TRIPOS>MOLECULE
AV-unprocessed.smi:3017
    43    44     1
SMALL
NO_CHARGES


@<TRIPOS>ATOM
      1 ****        -2.8904   3.1006  -1.8383 C.3            1 S1                 0.0000
      2 ****        -1.9434   2.9439  -0.6401 C.3            1 S1                 0.0000
      3 ****        -2.7068   3.0198   0.6960 C.3            1 S1                 0.0000
      4 ****        -1.7579   2.8641   1.8948 C.3            1 S1                 0.0000
      5 ****        -0.9508   1.5600   1.8014 C.3            1 S1                 0.0000
      6 ****        -0.1782   1.4735   0.4695 C.3            1 S1                 0.0000
      7 ****         0.4544   0.2065   0.3445 O.3            1 S1                 0.0000
      8 ****         1.7103   0.1117   1.0067 C.3            1 S1                 0.0000
      9 ****         2.2648  -1.3094   0.8791 C.2            1 S1                 0.0000
     10 ****         3.0984  -1.6973   1.6973 O.2            1 S1                 0.0000
     11 ****         1.8052  -2.0494  -0.1482 N.am           1 S1                 0.0000
     12 ****         2.1363  -3.3892  -0.4813 C.ar           1 S1                 0.0000
     13 ****         1.4639  -3.9286  -1.6034 C.ar           1 S1                 0.0000
     14 ****         1.6690  -5.1915  -2.0395 N.ar           1 S1                 0.0000
     15 ****         2.5599  -5.9324  -1.3466 C.ar           1 S1                 0.0000
     16 ****         3.2403  -5.4118  -0.2277 C.ar           1 S1                 0.0000
     17 ****         3.0305  -4.1486   0.2025 N.ar           1 S1                 0.0000
     18 ****        -1.1374   1.6325  -0.7237 C.3            1 S1                 0.0000
     19 ****        -3.6233   2.2939  -1.8741 H              1 S1                 0.0000
     20 ****        -2.3382   3.0910  -2.7784 H              1 S1                 0.0000
     21 ****        -3.4355   4.0436  -1.7868 H              1 S1                 0.0000
     22 ****        -1.2373   3.7750  -0.6713 H              1 S1                 0.0000
     23 ****        -3.2363   3.9703   0.7712 H              1 S1                 0.0000
     24 ****        -3.4682   2.2391   0.7317 H              1 S1                 0.0000
     25 ****        -1.0757   3.7144   1.9340 H              1 S1                 0.0000
     26 ****        -2.3279   2.8823   2.8241 H              1 S1                 0.0000
     27 ****        -0.2683   1.4986   2.6487 H              1 S1                 0.0000
     28 ****        -1.6266   0.7082   1.8871 H              1 S1                 0.0000
     29 ****         0.5659   2.2709   0.4191 H              1 S1                 0.0000
     30 ****         2.4228   0.8103   0.5662 H              1 S1                 0.0000
     31 ****         1.6139   0.3572   2.0646 H              1 S1                 0.0000
     32 ****         1.1248  -1.6042  -0.7469 H              1 S1                 0.0000
     33 ****         0.7482  -3.3411  -2.1601 H              1 S1                 0.0000
     34 ****         2.7303  -6.9438  -1.6846 H              1 S1                 0.0000
     35 ****         3.9517  -6.0088   0.3234 H              1 S1                 0.0000
     36 ****        -1.8217   0.7833  -0.7586 H              1 S1                 0.0000
     37 ****        -0.5672   1.6069  -1.6530 H              1 S1                 0.0000
     38 ****         0.5983   0.0227  -0.6279 LP             1 S1                 0.0000
     39 ****        -0.1552  -0.4873   0.7282 LP             1 S1                 0.0000
     40 ****         3.4020  -1.0874   2.4293 LP             1 S1                 0.0000
     41 ****         3.4721  -2.6225   1.6301 LP             1 S1                 0.0000
     42 ****         1.1857  -5.5582  -2.8345 LP             1 S1                 0.0000
     43 ****         3.5169  -3.7853   0.9971 LP             1 S1                 0.0000
@<TRIPOS>BOND
    1    1    2 1     
    2    1   19 1     
    3    1   20 1     
    4    1   21 1     
    5    2   18 1     
    6    2    3 1     
    7    2   22 1     
    8    3    4 1     
    9    3   23 1     
   10    3   24 1     
   11    4    5 1     
   12    4   25 1     
   13    4   26 1     
   14    5    6 1     
   15    5   27 1     
   16    5   28 1     
   17    6    7 1     
   18    6   18 1     
   19    6   29 1     
   20    7    8 1     
   21    8    9 1     
   22    8   30 1     
   23    8   31 1     
   24    9   10 2     
   25    9   11 am    
   26   11   12 1     
   27   11   32 1     
   28   12   17 ar    
   29   12   13 ar    
   30   13   14 ar    
   31   13   33 1     
   32   14   15 ar    
   33   15   16 ar    
   34   15   34 1     
   35   16   17 ar    
   36   16   35 1     
   37   18   36 1     
   38   18   37 1     
   39    7   38 1     
   40    7   39 1     
   41   10   40 1     
   42   10   41 1     
   43   14   42 1     
   44   17   43 1     
@<TRIPOS>SUBSTRUCTURE
      1 S1             1
@<TRIPOS>SET
LONE_PAIRS      STATIC     ATOMS    <user>   **** ""
6 38 39 40 41 42 43
DONOR_HYDROGENS      STATIC     ATOMS    <user>   **** ""
1 32
ATOM$BLUE        STATIC     ATOMS    COLORGROUP SYSTEM
6 38 39 40 41 42 43
ATOM$RED        STATIC     ATOMS    COLORGROUP SYSTEM
1 32
