#       Name:                AV-unprocessed.smi:2191
#       Creating user name   scv26
#       Creation time:       Fri Mar 27 12:10:20 2020


#       File generated by GOLD software.
#

@<TRIPOS>MOLECULE
AV-unprocessed.smi:2191
    41    43     1
SMALL
NO_CHARGES


@<TRIPOS>ATOM
      1 ****        -0.6631  -1.7658  -1.9841 O.3            1 S1                 0.0000
      2 ****        -0.1742  -0.9547  -0.9342 C.3            1 S1                 0.0000
      3 ****         1.3598  -1.0202  -0.9365 C.3            1 S1                 0.0000
      4 ****         1.8504  -0.3547   0.2201 O.3            1 S1                 0.0000
      5 ****         3.2151  -0.2590   0.3884 C.ar           1 S1                 0.0000
      6 ****         3.6728   0.4614   1.5113 C.ar           1 S1                 0.0000
      7 ****         5.0508   0.6110   1.7598 C.ar           1 S1                 0.0000
      8 ****         5.9899   0.0366   0.8835 C.ar           1 S1                 0.0000
      9 ****         5.5477  -0.6870  -0.2394 C.ar           1 S1                 0.0000
     10 ****         4.1692  -0.8357  -0.4884 C.ar           1 S1                 0.0000
     11 ****        -0.7041   0.4841  -1.1001 C.3            1 S1                 0.0000
     12 ****        -2.1709   0.5555  -1.0891 N.pl3          1 S1                 0.0000
     13 ****        -3.0510   0.6686  -2.1206 C.2            1 S1                 0.0000
     14 ****        -4.3054   0.6915  -1.5899 N.pl3          1 S1                 1.0000
     15 ****        -4.2251   0.5924  -0.1990 C.ar           1 S1                 0.0000
     16 ****        -5.2203   0.5717   0.7733 C.ar           1 S1                 0.0000
     17 ****        -4.7937   0.4578   2.1130 C.ar           1 S1                 0.0000
     18 ****        -3.4256   0.3712   2.4443 C.ar           1 S1                 0.0000
     19 ****        -2.4248   0.3948   1.4505 C.ar           1 S1                 0.0000
     20 ****        -2.8556   0.5058   0.1292 C.ar           1 S1                 0.0000
     21 ****        -0.3088  -1.4468  -2.8000 H              1 S1                 0.0000
     22 ****        -0.5427  -1.3775   0.0010 H              1 S1                 0.0000
     23 ****         1.6822  -2.0630  -0.9188 H              1 S1                 0.0000
     24 ****         1.7529  -0.5586  -1.8441 H              1 S1                 0.0000
     25 ****         2.9589   0.9061   2.1893 H              1 S1                 0.0000
     26 ****         5.3870   1.1666   2.6227 H              1 S1                 0.0000
     27 ****         7.0473   0.1501   1.0723 H              1 S1                 0.0000
     28 ****         6.2670  -1.1300  -0.9122 H              1 S1                 0.0000
     29 ****         3.8700  -1.3989  -1.3592 H              1 S1                 0.0000
     30 ****        -0.3252   1.1357  -0.3117 H              1 S1                 0.0000
     31 ****        -0.3612   0.9099  -2.0443 H              1 S1                 0.0000
     32 ****        -2.8001   0.7266  -3.1700 H              1 S1                 0.0000
     33 ****        -6.2691   0.6377   0.5232 H              1 S1                 0.0000
     34 ****        -5.5308   0.4364   2.9027 H              1 S1                 0.0000
     35 ****        -3.1375   0.2842   3.4820 H              1 S1                 0.0000
     36 ****        -1.3791   0.3260   1.7127 H              1 S1                 0.0000
     37 ****        -5.1517   0.7685  -2.1394 H              1 S1                 0.0000
     38 ****        -1.6617  -1.7193  -2.0090 LP             1 S1                 0.0000
     39 ****        -0.3770  -2.7130  -1.8396 LP             1 S1                 0.0000
     40 ****         1.4868  -0.8379   1.0166 LP             1 S1                 0.0000
     41 ****         1.4881   0.5772   0.2018 LP             1 S1                 0.0000
@<TRIPOS>BOND
    1    1    2 1     
    2    1   21 1     
    3    2    3 1     
    4    2   11 1     
    5    2   22 1     
    6    3    4 1     
    7    3   23 1     
    8    3   24 1     
    9    4    5 1     
   10    5   10 ar    
   11    5    6 ar    
   12    6    7 ar    
   13    6   25 1     
   14    7    8 ar    
   15    7   26 1     
   16    8    9 ar    
   17    8   27 1     
   18    9   10 ar    
   19    9   28 1     
   20   10   29 1     
   21   11   12 1     
   22   11   30 1     
   23   11   31 1     
   24   12   20 1     
   25   12   13 1     
   26   13   14 2     
   27   13   32 1     
   28   14   15 1     
   29   14   37 1     
   30   15   20 ar    
   31   15   16 ar    
   32   16   17 ar    
   33   16   33 1     
   34   17   18 ar    
   35   17   34 1     
   36   18   19 ar    
   37   18   35 1     
   38   19   20 ar    
   39   19   36 1     
   40    1   38 1     
   41    1   39 1     
   42    4   40 1     
   43    4   41 1     
@<TRIPOS>SUBSTRUCTURE
      1 S1             1
@<TRIPOS>SET
LONE_PAIRS      STATIC     ATOMS    <user>   **** ""
4 38 39 40 41
DONOR_HYDROGENS      STATIC     ATOMS    <user>   **** ""
2 21 37
ATOM$BLUE        STATIC     ATOMS    COLORGROUP SYSTEM
4 38 39 40 41
ATOM$RED        STATIC     ATOMS    COLORGROUP SYSTEM
2 21 37
