AV-unprocessed.smi:3149|AV-procd|sdf|12000|dock3
  -GOLD-   2272017403D 1   1.00000     0.00000
 Structure written by MMmdl.
 38 39  0  0  0  0  0  0  0  0  2 V2000
  148.3869  139.7333  156.7537 C   0  0  0  0  0  0  0  0  0  0  0  0
  148.5207  140.9140  155.7745 C   0  0  1  0  0  0  0  0  0  0  0  0
  149.6299  141.7846  156.2328 N   0  3  0  0  0  0  0  0  0  0  0  0
  149.7865  141.9036  157.6985 C   0  0  0  0  0  0  0  0  0  0  0  0
  151.2099  141.5491  158.1442 C   0  0  0  0  0  0  0  0  0  0  0  0
  151.6158  140.3928  158.0348 O   0  0  0  0  0  0  0  0  0  0  0  0
  152.0263  142.5775  158.6214 N   0  0  0  0  0  0  0  0  0  0  0  0
  152.9067  142.3896  159.7650 C   0  0  0  0  0  0  0  0  0  0  0  0
  152.6945  143.8818  160.0378 C   0  0  0  0  0  0  0  0  0  0  0  0
  151.4534  143.8096  159.1427 C   0  0  0  0  0  0  0  0  0  0  0  0
  148.7481  140.4623  154.3057 C   0  0  2  0  0  0  0  0  0  0  0  0
  147.5202  139.7639  153.6909 C   0  0  0  0  0  0  0  0  0  0  0  0
  149.9207  139.6067  154.1728 N   0  0  0  0  0  0  0  0  0  0  0  0
  149.9823  138.3044  153.7207 C   0  0  0  0  0  0  0  0  0  0  0  0
  151.2896  137.9145  153.7750 C   0  0  0  0  0  0  0  0  0  0  0  0
  151.9634  139.0593  154.2837 C   0  0  0  0  0  0  0  0  0  0  0  0
  151.1426  140.0692  154.5220 N   0  0  0  0  0  0  0  0  0  0  0  0
  147.5152  139.1172  156.5318 H   0  0  0  0  0  0  0  0  0  0  0  0
  148.2709  140.0878  157.7785 H   0  0  0  0  0  0  0  0  0  0  0  0
  149.2668  139.0899  156.7222 H   0  0  0  0  0  0  0  0  0  0  0  0
  147.5831  141.4703  155.8218 H   0  0  0  0  0  0  0  0  0  0  0  0
  150.4966  141.4197  155.8635 H   0  0  0  0  0  0  0  0  0  0  0  0
  149.5970  142.9404  157.9768 H   0  0  0  0  0  0  0  0  0  0  0  0
  149.0292  141.3046  158.2031 H   0  0  0  0  0  0  0  0  0  0  0  0
  152.4846  141.7464  160.5398 H   0  0  0  0  0  0  0  0  0  0  0  0
  153.9293  142.1185  159.5001 H   0  0  0  0  0  0  0  0  0  0  0  0
  152.4815  144.1210  161.0801 H   0  0  0  0  0  0  0  0  0  0  0  0
  153.4858  144.5136  159.6303 H   0  0  0  0  0  0  0  0  0  0  0  0
  151.3762  144.6097  158.4059 H   0  0  0  0  0  0  0  0  0  0  0  0
  150.5283  143.6617  159.7040 H   0  0  0  0  0  0  0  0  0  0  0  0
  148.9477  141.3545  153.7098 H   0  0  0  0  0  0  0  0  0  0  0  0
  146.6652  140.4367  153.6289 H   0  0  0  0  0  0  0  0  0  0  0  0
  147.2188  138.8946  154.2763 H   0  0  0  0  0  0  0  0  0  0  0  0
  147.7322  139.4229  152.6770 H   0  0  0  0  0  0  0  0  0  0  0  0
  149.1011  137.7686  153.3999 H   0  0  0  0  0  0  0  0  0  0  0  0
  151.7023  136.9565  153.4952 H   0  0  0  0  0  0  0  0  0  0  0  0
  153.0170  139.1856  154.4854 H   0  0  0  0  0  0  0  0  0  0  0  0
  149.4821  142.7059  155.8471 H   0  0  0  0  0  0  0  0  0  0  0  0
  1  2  1  0  0  0  0
  1 18  1  0  0  0  0
  1 19  1  0  0  0  0
  1 20  1  0  0  0  0
  2  3  1  0  0  0  0
  2 11  1  0  0  0  0
  2 21  1  0  0  0  0
  3  4  1  0  0  0  0
  3 22  1  0  0  0  0
  3 38  1  0  0  0  0
  4  5  1  0  0  0  0
  4 23  1  0  0  0  0
  4 24  1  0  0  0  0
  5  6  2  0  0  0  0
  5  7  1  0  0  0  0
  7 10  1  0  0  0  0
  7  8  1  0  0  0  0
  8  9  1  0  0  0  0
  8 25  1  0  0  0  0
  8 26  1  0  0  0  0
  9 10  1  0  0  0  0
  9 27  1  0  0  0  0
  9 28  1  0  0  0  0
 10 29  1  0  0  0  0
 10 30  1  0  0  0  0
 11 12  1  0  0  0  0
 11 13  1  0  0  0  0
 11 31  1  0  0  0  0
 12 32  1  0  0  0  0
 12 33  1  0  0  0  0
 12 34  1  0  0  0  0
 13 17  1  0  0  0  0
 13 14  1  0  0  0  0
 14 15  2  0  0  0  0
 14 35  1  0  0  0  0
 15 16  1  0  0  0  0
 15 36  1  0  0  0  0
 16 17  2  0  0  0  0
 16 37  1  0  0  0  0
M  CHG  1   3   1
M  END
> <s_m_source_file>
AV-unprocessed.smi

> <i_m_source_file_index>
3149

> <i_lp_mmshare_version>
43012

> <i_f3d_flags>
0

> <s_epik_input>
bjFbY0hdW2NIXVtjSF1uMVtDQEBIXShbQ0gzXSlbQ0BIXShbQ0gzXSlbTkhdW0NIMl1DKD1PKU4yW0NIMl1bQ0gyXVtDSDJdMg==

> <s_epik_cmdline>
J2VwaWtfcHl0aG9uJywgJy1waCcsICc3LjAnLCAnLXRuJywgJzgnLCAnLW1hJywgJzIwMCcsICctbWV0YWxfYmluZGluZycsICctaW1hZScsICc8aW5maWxlLm1hZT4nLCAnLW9tYWUnLCAnPG91dGZpbGUubWFlPic=

> <r_lp_tautomer_probability>
1

> <r_epik_Ionization_Penalty>
0.141739

> <r_epik_Ionization_Penalty_Charging>
0.141731

> <r_epik_Ionization_Penalty_Neutral>
8.82171e-06

> <r_epik_State_Penalty>
0.131043

> <r_epik_Charging_Adjusted_Penalty>
0.272773

> <i_epik_Tot_Q>
1

> <i_epik_Tot_abs_Q>
1

> <r_epik_Metal_State_Penalty>
0.131384

> <b_epik_Metal_Only>
0

> <s_lp_Force_Field>
OPLS_2005

> <r_lp_Energy>
23.3154

> <b_lp_Chiralities_Consistent>
1

> <s_lp_Variant>
AV-unprocessed.smi:3149-2

> <Gold.Version>
5.8.1

> <Gold.Id.Protein>
6NUR|6NUR_protein|mol2

> <Gold.PLP.Fitness>
47.4167

> <Gold.PLP.PLP>
-37.0822

> <Gold.PLP.part.hbond>
-2.0000

> <Gold.PLP.part.metal>
0.0000

> <Gold.PLP.part.buried>
-4.0007

> <Gold.PLP.part.nonpolar>
-31.9155

> <Gold.PLP.part.repulsive>
0.1381

> <Gold.PLP.ligand.clash>
0.0067

> <Gold.PLP.ligand.torsion>
1.1888

> <Gold.PLP.Chemscore.Hbond>
2.9200

> <Gold.PLP.Chemscore.CHOScore>
1.0000

> <Gold.PLP.Chemscore.Metal>
0.0000

> <Gold.Chemscore.Hbonds>
donor molecule, donor type, donor heavy atom, donor atom, acceptor molecule, acceptor atom, score
      L1  H     3    38       P1  8028  1.62
      P1  H  7989  7998       L1    17  0.49
      L1  C    14    35       P1  7948  0.93

> <Gold.PLP.Chemscore.Internal.Correction>
0.9587

> <Gold.Rescore>
     Score         DG    S(hbond)    S(metal)    S(lipo)     H(rot)  DE(clash)    DE(int)     intcor
     14.38     -16.46       1.93        0.00      79.15       1.85       0.00       2.08       ----

> <Gold.Chemscore.Fitness>
14.3767

> <Gold.Chemscore.DG>
-16.4555

> <Gold.Chemscore.ZeroCoef>
-5.4800

> <Gold.Chemscore.Hbond>
1.9348

> <Gold.Chemscore.Metal>
0.0000

> <Gold.Chemscore.Lipo>
79.1472

> <Gold.Chemscore.Internal_Hbond>
0.0000

> <Gold.Chemscore.DEClash>
0.0000

> <Gold.Chemscore.DEInternal>
2.0788

> <Gold.Chemscore.Rot>
1.8544

> <Gold.Chemscore.Internal.Correction>
   9.000000E+99

> <Gold.Chemscore.Hbonds>
donor molecule, donor type, donor heavy atom, donor atom, acceptor molecule, acceptor atom, score
      L1  H     3    38       P1  8028  0.78
      P1  H  7989  7998       L1    17  0.04

> <Gold.Chemscore.Hbond.Weighted>
-6.4624

> <Gold.Chemscore.Metal.Weighted>
-0.0000

> <Gold.Chemscore.Lipo.Weighted>
-9.2602

> <Gold.Chemscore.Internal_Hbond.Weighted>
0.0000

> <Gold.Chemscore.DEClash.Weighted>
0.0000

> <Gold.Chemscore.DEInternal.Weighted>
2.0788

> <Gold.Chemscore.Rot.Weighted>
4.7472

> <Gold.Chemscore.Internal.Correction.Weighted>
   9.000000E+99

> <Gold.Protein.RotatedTorsions>
[ 6907 6896 6895 6894 ] final -173.00 input  -60.11 | X-H torsion
[ 7974 7965 7964 7962 ] final   83.65 input  175.53 | X-H torsion
[ 8008 7997 7996 7995 ] final  145.37 input   59.86 | X-H torsion
[ 10167 10162 10161 10158 ] final   11.50 input  -65.29 | X-H torsion
[ 10718 10713 10712 10709 ] final   40.34 input   66.30 | X-H torsion
[ 10763 10752 10751 10750 ] final   54.14 input  -60.55 | X-H torsion
[ 11005 11000 10999 10996 ] final -112.35 input  -57.11 | X-H torsion

> <Gold.Protein.ActiveResidues>
 VAL166  LYS551  ARG553  GLY616  TRP617  ASP618  TYR619  PRO620  LYS621  CYS622 
 ASP623  PHE694  ASN695  SER759  ASP760  ASP761  ALA762  ILE779  LEU786  VAL792 
 PHE793  MET794  SER795  GLU796  ALA797  LYS798  CYS799  TRP800  GLU811  SER814 

> <Gold.Protein.RotatedAtoms>
  151.5491  133.3420  159.2949 H   0  0  0  0  0  0  0  0  0  0  0  0  # atno 6907 bound_to 6896
  150.8489  134.7810  159.7004 H   0  0  0  0  0  0  0  0  0  0  0  0  # atno 6908 bound_to 6896
  152.4540  134.5339  159.9871 H   0  0  0  0  0  0  0  0  0  0  0  0  # atno 6909 bound_to 6896
  145.6091  139.2365  143.2202 H   0  0  0  0  0  0  0  0  0  0  0  0  # atno 7974 bound_to 7965
  156.2885  140.2211  156.5204 H   0  0  0  0  0  0  0  0  0  0  0  0  # atno 8008 bound_to 7997
  154.7533  140.0478  157.0934 H   0  0  0  0  0  0  0  0  0  0  0  0  # atno 8009 bound_to 7997
  155.0082  140.3110  155.4843 H   0  0  0  0  0  0  0  0  0  0  0  0  # atno 8010 bound_to 7997
  140.6127  143.8373  150.7084 H   0  0  0  0  0  0  0  0  0  0  0  0  # atno 10167 bound_to 10162
  157.3810  130.7753  149.7193 H   0  0  0  0  0  0  0  0  0  0  0  0  # atno 10718 bound_to 10713
  152.9802  135.5755  154.4856 H   0  0  0  0  0  0  0  0  0  0  0  0  # atno 10763 bound_to 10752
  154.4398  135.2775  155.1857 H   0  0  0  0  0  0  0  0  0  0  0  0  # atno 10764 bound_to 10752
  154.3530  135.6205  153.5706 H   0  0  0  0  0  0  0  0  0  0  0  0  # atno 10765 bound_to 10752
  141.0680  133.9427  157.2541 H   0  0  0  0  0  0  0  0  0  0  0  0  # atno 11005 bound_to 11000
  146.1518  140.6914  142.9318 LP  0  0  0  0  0  0  0  0  0  0  0  0  # atno 17320 bound_to 7965
  144.7277  140.4577  143.6960 LP  0  0  0  0  0  0  0  0  0  0  0  0  # atno 17321 bound_to 7965
  140.1945  143.4009  152.1838 LP  0  0  0  0  0  0  0  0  0  0  0  0  # atno 17342 bound_to 10162
  139.5374  144.7223  151.4847 LP  0  0  0  0  0  0  0  0  0  0  0  0  # atno 17343 bound_to 10162
  155.9776  130.4061  150.3704 LP  0  0  0  0  0  0  0  0  0  0  0  0  # atno 17370 bound_to 10713
  157.1808  131.0391  151.2749 LP  0  0  0  0  0  0  0  0  0  0  0  0  # atno 17371 bound_to 10713
  139.9495  135.0178  156.8952 LP  0  0  0  0  0  0  0  0  0  0  0  0  # atno 17394 bound_to 11000
  140.5733  134.0422  155.7438 LP  0  0  0  0  0  0  0  0  0  0  0  0  # atno 17395 bound_to 11000

$$$$
