#       Name:                AV-unprocessed.smi:1790
#       Creating user name   scv26
#       Creation time:       Fri Mar 27 08:45:55 2020


#       File generated by GOLD software.
#

@<TRIPOS>MOLECULE
AV-unprocessed.smi:1790
    39    40     1
SMALL
NO_CHARGES


@<TRIPOS>ATOM
      1 ****        -0.3904   1.6569   2.0744 O.2            1 S1                 0.0000
      2 ****         0.1541   0.8110   1.3662 C.2            1 S1                 0.0000
      3 ****         1.6610   0.9006   1.1300 C.3            1 S1                 0.0000
      4 ****         1.9245   0.7415  -0.2552 O.3            1 S1                 0.0000
      5 ****         3.3071   0.7952  -0.5581 C.3            1 S1                 0.0000
      6 ****         3.4906   0.5900  -2.0464 C.3            1 S1                 0.0000
      7 ****         3.6762  -0.7983  -2.6152 C.3            1 S1                 0.0000
      8 ****         4.8327   0.1685  -2.6005 C.3            1 S1                 0.0000
      9 ****        -0.4600  -0.2374   0.7825 N.am           1 S1                 0.0000
     10 ****        -1.8158  -0.6093   0.7889 C.2            1 S1                 0.0000
     11 ****        -2.8409   0.1755   1.2238 C.2            1 S1                 0.0000
     12 ****        -4.2294  -0.2675   1.1956 C.2            1 S1                 0.0000
     13 ****        -5.4030   0.6085   1.5975 C.3            1 S1                 0.0000
     14 ****        -6.4664   0.3669   0.8305 F              1 S1                 0.0000
     15 ****        -5.7397   0.3635   2.8629 F              1 S1                 0.0000
     16 ****        -5.0937   1.9010   1.4921 F              1 S1                 0.0000
     17 ****        -4.3649  -1.5333   0.6593 C.2            1 S1                 0.0000
     18 ****        -3.4070  -2.3765   0.2164 N.pl3          1 S1                -1.0000
     19 ****        -2.1114  -1.9550   0.2542 C.2            1 S1                 0.0000
     20 ****        -1.1906  -2.6691  -0.1447 O.2            1 S1                 0.0000
     21 ****         2.0353   1.8644   1.4798 H              1 S1                 0.0000
     22 ****         2.1583   0.1188   1.7063 H              1 S1                 0.0000
     23 ****         3.7190   1.7659  -0.2790 H              1 S1                 0.0000
     24 ****         3.8524   0.0262  -0.0084 H              1 S1                 0.0000
     25 ****         2.9266   1.2905  -2.6594 H              1 S1                 0.0000
     26 ****         3.7091  -1.6322  -1.9166 H              1 S1                 0.0000
     27 ****         3.2097  -1.0128  -3.5745 H              1 S1                 0.0000
     28 ****         5.1407   0.5980  -3.5516 H              1 S1                 0.0000
     29 ****         5.6372  -0.0225  -1.8930 H              1 S1                 0.0000
     30 ****         0.1393  -0.8721   0.2747 H              1 S1                 0.0000
     31 ****        -2.6604   1.1691   1.5977 H              1 S1                 0.0000
     32 ****        -5.4002  -1.9256   0.5684 H              1 S1                 0.0000
     33 ****         0.1524   2.3891   2.4858 LP             1 S1                 0.0000
     34 ****        -1.3758   1.6122   2.2388 LP             1 S1                 0.0000
     35 ****         1.4588   1.4715  -0.7554 LP             1 S1                 0.0000
     36 ****         1.5667  -0.1448  -0.5492 LP             1 S1                 0.0000
     37 ****        -3.6419  -3.2848  -0.1296 LP             1 S1                 0.0000
     38 ****        -0.2479  -2.3376  -0.1059 LP             1 S1                 0.0000
     39 ****        -1.3856  -3.5804  -0.5073 LP             1 S1                 0.0000
@<TRIPOS>BOND
    1    1    2 2     
    2    2    3 1     
    3    2    9 am    
    4    3    4 1     
    5    3   21 1     
    6    3   22 1     
    7    4    5 1     
    8    5    6 1     
    9    5   23 1     
   10    5   24 1     
   11    6    8 1     
   12    6    7 1     
   13    6   25 1     
   14    7    8 1     
   15    7   26 1     
   16    7   27 1     
   17    8   28 1     
   18    8   29 1     
   19    9   10 1     
   20    9   30 1     
   21   10   19 1     
   22   10   11 2     
   23   11   12 1     
   24   11   31 1     
   25   12   13 1     
   26   12   17 2     
   27   13   14 1     
   28   13   15 1     
   29   13   16 1     
   30   17   18 1     
   31   17   32 1     
   32   18   19 1     
   33   19   20 2     
   34    1   33 1     
   35    1   34 1     
   36    4   35 1     
   37    4   36 1     
   38   18   37 1     
   39   20   38 1     
   40   20   39 1     
@<TRIPOS>SUBSTRUCTURE
      1 S1             1
@<TRIPOS>SET
LONE_PAIRS      STATIC     ATOMS    <user>   **** ""
7 33 34 35 36 37 38 39
DONOR_HYDROGENS      STATIC     ATOMS    <user>   **** ""
1 30
ATOM$BLUE        STATIC     ATOMS    COLORGROUP SYSTEM
7 33 34 35 36 37 38 39
ATOM$RED        STATIC     ATOMS    COLORGROUP SYSTEM
1 30
