AV-unprocessed.smi:2477|AV-procd|sdf|9760|dock2
  -GOLD-   2272013403D 1   1.00000     0.00000
 Structure written by MMmdl.
 51 53  0  0  0  0  0  0  0  0  1 V2000
  144.0840  136.4864  162.9410 C   0  0  0  0  0  0  0  0  0  0  0  0
  145.3752  136.0484  162.4046 N   0  0  0  0  0  0  0  0  0  0  0  0
  145.8786  134.8139  162.8485 C   0  0  0  0  0  0  0  0  0  0  0  0
  147.0514  134.3347  162.4115 C   0  0  0  0  0  0  0  0  0  0  0  0
  147.8024  135.1198  161.4614 C   0  0  0  0  0  0  0  0  0  0  0  0
  147.3309  136.3105  161.0126 C   0  0  0  0  0  0  0  0  0  0  0  0
  148.0004  137.1405  160.0962 N   0  0  0  0  0  0  0  0  0  0  0  0
  148.9489  136.8250  159.1953 C   0  0  0  0  0  0  0  0  0  0  0  0
  149.3945  135.6977  158.9816 O   0  0  0  0  0  0  0  0  0  0  0  0
  149.3541  137.9137  158.5267 N   0  0  0  0  0  0  0  0  0  0  0  0
  150.3751  137.9329  157.4814 C   0  0  1  0  0  0  0  0  0  0  0  0
  149.7397  138.3227  156.1329 C   0  0  0  0  0  0  0  0  0  0  0  0
  150.7887  138.3694  155.0107 C   0  0  0  0  0  0  0  0  0  0  0  0
  151.9484  139.3114  155.3690 C   0  0  0  0  0  0  0  0  0  0  0  0
  152.5823  138.9272  156.7159 C   0  0  0  0  0  0  0  0  0  0  0  0
  151.5369  138.8844  157.8508 C   0  0  1  0  0  0  0  0  0  0  0  0
  150.9900  140.1759  158.1033 O   0  0  0  0  0  0  0  0  0  0  0  0
  151.9378  141.2159  158.3045 C   0  0  0  0  0  0  0  0  0  0  0  0
  152.7371  140.9671  159.5820 C   0  0  0  0  0  0  0  0  0  0  0  0
  153.2475  142.3508  159.9992 C   0  0  0  0  0  0  0  0  0  0  0  0
  152.2951  143.3715  159.3549 C   0  0  0  0  0  0  0  0  0  0  0  0
  151.2553  142.5565  158.5779 C   0  0  0  0  0  0  0  0  0  0  0  0
  146.0432  136.8348  161.5086 C   0  0  0  0  0  0  0  0  0  0  0  0
  145.5814  137.9187  161.1430 O   0  0  0  0  0  0  0  0  0  0  0  0
  143.6399  135.7565  163.6187 H   0  0  0  0  0  0  0  0  0  0  0  0
  143.3699  136.6543  162.1337 H   0  0  0  0  0  0  0  0  0  0  0  0
  144.1967  137.4193  163.4952 H   0  0  0  0  0  0  0  0  0  0  0  0
  145.2582  134.2864  163.5586 H   0  0  0  0  0  0  0  0  0  0  0  0
  147.4258  133.3838  162.7608 H   0  0  0  0  0  0  0  0  0  0  0  0
  148.7531  134.7259  161.1413 H   0  0  0  0  0  0  0  0  0  0  0  0
  147.6925  138.1022  160.1015 H   0  0  0  0  0  0  0  0  0  0  0  0
  148.9367  138.8011  158.7659 H   0  0  0  0  0  0  0  0  0  0  0  0
  150.7751  136.9222  157.3771 H   0  0  0  0  0  0  0  0  0  0  0  0
  148.9558  137.6114  155.8702 H   0  0  0  0  0  0  0  0  0  0  0  0
  149.2560  139.2970  156.2165 H   0  0  0  0  0  0  0  0  0  0  0  0
  151.1758  137.3655  154.8318 H   0  0  0  0  0  0  0  0  0  0  0  0
  150.3225  138.6915  154.0791 H   0  0  0  0  0  0  0  0  0  0  0  0
  152.7037  139.2847  154.5832 H   0  0  0  0  0  0  0  0  0  0  0  0
  151.5861  140.3392  155.4134 H   0  0  0  0  0  0  0  0  0  0  0  0
  153.0446  137.9440  156.6225 H   0  0  0  0  0  0  0  0  0  0  0  0
  153.3929  139.6132  156.9595 H   0  0  0  0  0  0  0  0  0  0  0  0
  152.0125  138.5145  158.7608 H   0  0  0  0  0  0  0  0  0  0  0  0
  152.6338  141.3188  157.4694 H   0  0  0  0  0  0  0  0  0  0  0  0
  152.0766  140.5772  160.3580 H   0  0  0  0  0  0  0  0  0  0  0  0
  153.5412  140.2444  159.4400 H   0  0  0  0  0  0  0  0  0  0  0  0
  153.2812  142.4510  161.0846 H   0  0  0  0  0  0  0  0  0  0  0  0
  154.2607  142.5055  159.6258 H   0  0  0  0  0  0  0  0  0  0  0  0
  151.8224  144.0153  160.0972 H   0  0  0  0  0  0  0  0  0  0  0  0
  152.8524  144.0148  158.6729 H   0  0  0  0  0  0  0  0  0  0  0  0
  150.9232  143.0588  157.6693 H   0  0  0  0  0  0  0  0  0  0  0  0
  150.3772  142.3980  159.2056 H   0  0  0  0  0  0  0  0  0  0  0  0
  1  2  1  0  0  0  0
  1 25  1  0  0  0  0
  1 26  1  0  0  0  0
  1 27  1  0  0  0  0
  2 23  1  0  0  0  0
  2  3  1  0  0  0  0
  3  4  2  0  0  0  0
  3 28  1  0  0  0  0
  4  5  1  0  0  0  0
  4 29  1  0  0  0  0
  5  6  2  0  0  0  0
  5 30  1  0  0  0  0
  6  7  1  0  0  0  0
  6 23  1  0  0  0  0
  7  8  1  0  0  0  0
  7 31  1  0  0  0  0
  8  9  2  0  0  0  0
  8 10  1  0  0  0  0
 10 11  1  0  0  0  0
 10 32  1  0  0  0  0
 11 16  1  0  0  0  0
 11 12  1  0  0  0  0
 11 33  1  0  0  0  0
 12 13  1  0  0  0  0
 12 34  1  0  0  0  0
 12 35  1  0  0  0  0
 13 14  1  0  0  0  0
 13 36  1  0  0  0  0
 13 37  1  0  0  0  0
 14 15  1  0  0  0  0
 14 38  1  0  0  0  0
 14 39  1  0  0  0  0
 15 16  1  0  0  0  0
 15 40  1  0  0  0  0
 15 41  1  0  0  0  0
 16 17  1  0  0  0  0
 16 42  1  0  0  0  0
 17 18  1  0  0  0  0
 18 22  1  0  0  0  0
 18 19  1  0  0  0  0
 18 43  1  0  0  0  0
 19 20  1  0  0  0  0
 19 44  1  0  0  0  0
 19 45  1  0  0  0  0
 20 21  1  0  0  0  0
 20 46  1  0  0  0  0
 20 47  1  0  0  0  0
 21 22  1  0  0  0  0
 21 48  1  0  0  0  0
 21 49  1  0  0  0  0
 22 50  1  0  0  0  0
 22 51  1  0  0  0  0
 23 24  2  0  0  0  0
M  END
> <s_m_source_file>
AV-unprocessed.smi

> <i_m_source_file_index>
2477

> <i_lp_mmshare_version>
43012

> <i_f3d_flags>
0

> <s_epik_input>
W0NIM11uMVtjSF1bY0hdW2NIXWMoYzE9TylbTkhdQyg9TylbTkhdW0NAQEhdMltDSDJdW0NIMl1bQ0gyXVtDSDJdW0NASF0yT1tDSF0zW0NIMl1bQ0gyXVtDSDJdW0NIMl0z

> <s_epik_cmdline>
J2VwaWtfcHl0aG9uJywgJy1waCcsICc3LjAnLCAnLXRuJywgJzgnLCAnLW1hJywgJzIwMCcsICctbWV0YWxfYmluZGluZycsICctaW1hZScsICc8aW5maWxlLm1hZT4nLCAnLW9tYWUnLCAnPG91dGZpbGUubWFlPic=

> <r_lp_tautomer_probability>
1

> <r_epik_Ionization_Penalty>
2.40753e-05

> <r_epik_Ionization_Penalty_Charging>
4.84018e-06

> <r_epik_Ionization_Penalty_Neutral>
1.92352e-05

> <r_epik_State_Penalty>
-0

> <r_epik_Charging_Adjusted_Penalty>
4.84018e-06

> <i_epik_Tot_Q>
0

> <i_epik_Tot_abs_Q>
0

> <r_epik_Metal_State_Penalty>
-0

> <b_epik_Metal_Only>
0

> <s_lp_Force_Field>
OPLS_2005

> <r_lp_Energy>
43.088

> <b_lp_Chiralities_Consistent>
1

> <s_lp_Variant>
AV-unprocessed.smi:2477-2

> <Gold.Version>
5.8.1

> <Gold.Id.Protein>
6NUR|6NUR_protein|mol2

> <Gold.PLP.Fitness>
47.8669

> <Gold.PLP.PLP>
-42.5200

> <Gold.PLP.part.hbond>
-2.0000

> <Gold.PLP.part.metal>
0.0000

> <Gold.PLP.part.buried>
-6.0830

> <Gold.PLP.part.nonpolar>
-35.5135

> <Gold.PLP.part.repulsive>
0.8512

> <Gold.PLP.ligand.clash>
0.0000

> <Gold.PLP.ligand.torsion>
0.1578

> <Gold.PLP.Chemscore.Hbond>
1.8640

> <Gold.PLP.Chemscore.CHOScore>
0.0000

> <Gold.PLP.Chemscore.Metal>
0.0000

> <Gold.Chemscore.Hbonds>
donor molecule, donor type, donor heavy atom, donor atom, acceptor molecule, acceptor atom, score
      P1  H  6896  6909       L1     9  1.00
      P1  H  6934  6947       L1    24  0.85

> <Gold.PLP.Chemscore.Internal.Correction>
0.0705

> <Gold.Rescore>
     Score         DG    S(hbond)    S(metal)    S(lipo)     H(rot)  DE(clash)    DE(int)     intcor
     19.52     -20.93       1.70        0.00     113.18       1.36       0.11       1.30       ----

> <Gold.Chemscore.Fitness>
19.5166

> <Gold.Chemscore.DG>
-20.9312

> <Gold.Chemscore.ZeroCoef>
-5.4800

> <Gold.Chemscore.Hbond>
1.7009

> <Gold.Chemscore.Metal>
0.0000

> <Gold.Chemscore.Lipo>
113.1830

> <Gold.Chemscore.Internal_Hbond>
0.0000

> <Gold.Chemscore.DEClash>
0.1102

> <Gold.Chemscore.DEInternal>
1.3043

> <Gold.Chemscore.Rot>
1.3564

> <Gold.Chemscore.Internal.Correction>
   9.000000E+99

> <Gold.Chemscore.Hbonds>
donor molecule, donor type, donor heavy atom, donor atom, acceptor molecule, acceptor atom, score
      P1  H  6896  6909       L1     9  1.00
      P1  H  6934  6947       L1    24  0.38

> <Gold.Chemscore.Hbond.Weighted>
-5.6812

> <Gold.Chemscore.Metal.Weighted>
-0.0000

> <Gold.Chemscore.Lipo.Weighted>
-13.2424

> <Gold.Chemscore.Internal_Hbond.Weighted>
0.0000

> <Gold.Chemscore.DEClash.Weighted>
0.1102

> <Gold.Chemscore.DEInternal.Weighted>
1.3043

> <Gold.Chemscore.Rot.Weighted>
3.4724

> <Gold.Chemscore.Internal.Correction.Weighted>
   9.000000E+99

> <Gold.Protein.RotatedTorsions>
[ 6907 6896 6895 6894 ] final   65.95 input  -60.11 | X-H torsion
[ 7974 7965 7964 7962 ] final  -92.12 input  175.53 | X-H torsion
[ 8008 7997 7996 7995 ] final   -0.05 input   59.86 | X-H torsion
[ 10167 10162 10161 10158 ] final   -3.25 input  -65.29 | X-H torsion
[ 10718 10713 10712 10709 ] final -120.25 input   66.30 | X-H torsion
[ 10763 10752 10751 10750 ] final   97.51 input  -60.55 | X-H torsion
[ 11005 11000 10999 10996 ] final   22.04 input  -57.11 | X-H torsion

> <Gold.Protein.ActiveResidues>
 VAL166  LYS551  ARG553  GLY616  TRP617  ASP618  TYR619  PRO620  LYS621  CYS622 
 ASP623  PHE694  ASN695  SER759  ASP760  ASP761  ALA762  ILE779  LEU786  VAL792 
 PHE793  MET794  SER795  GLU796  ALA797  LYS798  CYS799  TRP800  GLU811  SER814 

> <Gold.Protein.RotatedAtoms>
  152.4445  134.5522  159.9869 H   0  0  0  0  0  0  0  0  0  0  0  0  # atno 6907 bound_to 6896
  151.5611  133.3397  159.2979 H   0  0  0  0  0  0  0  0  0  0  0  0  # atno 6908 bound_to 6896
  150.8358  134.7664  159.6956 H   0  0  0  0  0  0  0  0  0  0  0  0  # atno 6909 bound_to 6896
  145.4040  140.9540  143.2271 H   0  0  0  0  0  0  0  0  0  0  0  0  # atno 7974 bound_to 7965
  154.6625  140.2593  155.7094 H   0  0  0  0  0  0  0  0  0  0  0  0  # atno 8008 bound_to 7997
  156.2624  140.2846  156.1024 H   0  0  0  0  0  0  0  0  0  0  0  0  # atno 8009 bound_to 7997
  155.1288  140.0378  157.2759 H   0  0  0  0  0  0  0  0  0  0  0  0  # atno 8010 bound_to 7997
  140.6883  143.6562  150.8306 H   0  0  0  0  0  0  0  0  0  0  0  0  # atno 10167 bound_to 10162
  156.1244  130.6347  150.9517 H   0  0  0  0  0  0  0  0  0  0  0  0  # atno 10718 bound_to 10713
  153.2778  135.4181  155.1049 H   0  0  0  0  0  0  0  0  0  0  0  0  # atno 10763 bound_to 10752
  154.8479  135.3488  154.6155 H   0  0  0  0  0  0  0  0  0  0  0  0  # atno 10764 bound_to 10752
  153.6575  135.7050  153.5246 H   0  0  0  0  0  0  0  0  0  0  0  0  # atno 10765 bound_to 10752
  140.3849  134.1880  155.7663 H   0  0  0  0  0  0  0  0  0  0  0  0  # atno 11005 bound_to 11000
  144.8354  139.5559  143.6924 LP  0  0  0  0  0  0  0  0  0  0  0  0  # atno 17320 bound_to 7965
  146.2738  139.6700  142.9278 LP  0  0  0  0  0  0  0  0  0  0  0  0  # atno 17321 bound_to 7965
  140.0272  143.5481  152.2776 LP  0  0  0  0  0  0  0  0  0  0  0  0  # atno 17342 bound_to 10162
  139.6261  144.7637  151.2636 LP  0  0  0  0  0  0  0  0  0  0  0  0  # atno 17343 bound_to 10162
  157.6426  131.0908  150.8220 LP  0  0  0  0  0  0  0  0  0  0  0  0  # atno 17370 bound_to 10713
  156.8312  130.5016  149.5331 LP  0  0  0  0  0  0  0  0  0  0  0  0  # atno 17371 bound_to 10713
  141.1911  133.8203  157.0894 LP  0  0  0  0  0  0  0  0  0  0  0  0  # atno 17394 bound_to 11000
  140.0450  134.9835  157.1032 LP  0  0  0  0  0  0  0  0  0  0  0  0  # atno 17395 bound_to 11000

$$$$
