AV-unprocessed.smi:3056|AV-procd|sdf|11647|dock1
  -GOLD-   2272017 43D 1   1.00000     0.00000
 Structure written by MMmdl.
 48 49  0  0  0  0  0  0  0  0  2 V2000
  151.5042  144.6529  160.1813 C   0  0  0  0  0  0  0  0  0  0  0  0
  151.5903  143.2925  159.5520 C   0  0  0  0  0  0  0  0  0  0  0  0
  152.1601  142.1088  160.1004 C   0  0  0  0  0  0  0  0  0  0  0  0
  152.0674  141.0706  159.2862 N   0  0  0  0  0  0  0  0  0  0  0  0
  151.4496  141.5524  158.1864 N   0  0  0  0  0  0  0  0  0  0  0  0
  151.1540  140.6562  157.0746 C   0  0  2  0  0  0  0  0  0  0  0  0
  152.4505  139.9819  156.5891 C   0  0  0  0  0  0  0  0  0  0  0  0
  150.3944  141.4030  155.9435 C   0  0  1  0  0  0  0  0  0  0  0  0
  150.2904  140.5972  154.6348 C   0  0  0  0  0  0  0  0  0  0  0  0
  149.0594  141.8878  156.3808 N   0  3  0  0  0  0  0  0  0  0  0  0
  147.8956  141.0222  156.0767 C   0  0  0  0  0  0  0  0  0  0  0  0
  146.5637  141.7762  156.2045 C   0  0  0  0  0  0  0  0  0  0  0  0
  146.1168  142.0057  157.3298 O   0  0  0  0  0  0  0  0  0  0  0  0
  145.9192  142.1640  155.0782 N   0  0  0  0  0  0  0  0  0  0  0  0
  146.4560  141.9507  153.7318 C   0  0  0  0  0  0  0  0  0  0  0  0
  146.7370  143.3261  153.1011 C   0  0  0  0  0  0  0  0  0  0  0  0
  145.5407  144.1022  153.0870 O   0  0  0  0  0  0  0  0  0  0  0  0
  144.9782  144.3044  154.3828 C   0  0  1  0  0  0  0  0  0  0  0  0
  143.7204  145.1670  154.2318 C   0  0  0  0  0  0  0  0  0  0  0  0
  144.6720  142.9324  155.0169 C   0  0  0  0  0  0  0  0  0  0  0  0
  151.1439  142.8916  158.3249 C   0  0  0  0  0  0  0  0  0  0  0  0
  151.9795  144.6772  161.1622 H   0  0  0  0  0  0  0  0  0  0  0  0
  150.4699  144.9685  160.3177 H   0  0  0  0  0  0  0  0  0  0  0  0
  151.9942  145.4100  159.5688 H   0  0  0  0  0  0  0  0  0  0  0  0
  152.6319  141.9733  161.0623 H   0  0  0  0  0  0  0  0  0  0  0  0
  150.5149  139.8580  157.4550 H   0  0  0  0  0  0  0  0  0  0  0  0
  152.2455  139.1886  155.8707 H   0  0  0  0  0  0  0  0  0  0  0  0
  152.9873  139.5252  157.4215 H   0  0  0  0  0  0  0  0  0  0  0  0
  153.1228  140.6966  156.1133 H   0  0  0  0  0  0  0  0  0  0  0  0
  150.9570  142.3090  155.7146 H   0  0  0  0  0  0  0  0  0  0  0  0
  151.2716  140.4289  154.1915 H   0  0  0  0  0  0  0  0  0  0  0  0
  149.6936  141.1290  153.8930 H   0  0  0  0  0  0  0  0  0  0  0  0
  149.8321  139.6212  154.7964 H   0  0  0  0  0  0  0  0  0  0  0  0
  149.0908  142.0139  157.3826 H   0  0  0  0  0  0  0  0  0  0  0  0
  147.9858  140.6365  155.0612 H   0  0  0  0  0  0  0  0  0  0  0  0
  147.8779  140.1750  156.7612 H   0  0  0  0  0  0  0  0  0  0  0  0
  147.3654  141.3485  153.7247 H   0  0  0  0  0  0  0  0  0  0  0  0
  145.7263  141.4036  153.1332 H   0  0  0  0  0  0  0  0  0  0  0  0
  147.5177  143.8535  153.6516 H   0  0  0  0  0  0  0  0  0  0  0  0
  147.0926  143.2067  152.0777 H   0  0  0  0  0  0  0  0  0  0  0  0
  145.6977  144.8433  155.0023 H   0  0  0  0  0  0  0  0  0  0  0  0
  143.2576  145.3597  155.1999 H   0  0  0  0  0  0  0  0  0  0  0  0
  142.9800  144.6786  153.5976 H   0  0  0  0  0  0  0  0  0  0  0  0
  143.9602  146.1308  153.7819 H   0  0  0  0  0  0  0  0  0  0  0  0
  143.9483  142.3891  154.4071 H   0  0  0  0  0  0  0  0  0  0  0  0
  144.1945  143.0722  155.9853 H   0  0  0  0  0  0  0  0  0  0  0  0
  150.6365  143.4442  157.5476 H   0  0  0  0  0  0  0  0  0  0  0  0
  148.8920  142.7894  155.9573 H   0  0  0  0  0  0  0  0  0  0  0  0
  1  2  1  0  0  0  0
  1 22  1  0  0  0  0
  1 23  1  0  0  0  0
  1 24  1  0  0  0  0
  2 21  2  0  0  0  0
  2  3  1  0  0  0  0
  3  4  2  0  0  0  0
  3 25  1  0  0  0  0
  4  5  1  0  0  0  0
  5  6  1  0  0  0  0
  5 21  1  0  0  0  0
  6  7  1  0  0  0  0
  6  8  1  0  0  0  0
  6 26  1  0  0  0  0
  7 27  1  0  0  0  0
  7 28  1  0  0  0  0
  7 29  1  0  0  0  0
  8  9  1  0  0  0  0
  8 10  1  0  0  0  0
  8 30  1  0  0  0  0
  9 31  1  0  0  0  0
  9 32  1  0  0  0  0
  9 33  1  0  0  0  0
 10 11  1  0  0  0  0
 10 34  1  0  0  0  0
 10 48  1  0  0  0  0
 11 12  1  0  0  0  0
 11 35  1  0  0  0  0
 11 36  1  0  0  0  0
 12 13  2  0  0  0  0
 12 14  1  0  0  0  0
 14 20  1  0  0  0  0
 14 15  1  0  0  0  0
 15 16  1  0  0  0  0
 15 37  1  0  0  0  0
 15 38  1  0  0  0  0
 16 17  1  0  0  0  0
 16 39  1  0  0  0  0
 16 40  1  0  0  0  0
 17 18  1  0  0  0  0
 18 19  1  0  0  0  0
 18 20  1  0  0  0  0
 18 41  1  0  0  0  0
 19 42  1  0  0  0  0
 19 43  1  0  0  0  0
 19 44  1  0  0  0  0
 20 45  1  0  0  0  0
 20 46  1  0  0  0  0
 21 47  1  0  0  0  0
M  CHG  1  10   1
M  END
> <s_m_source_file>
AV-unprocessed.smi

> <i_m_source_file_index>
3056

> <i_lp_mmshare_version>
43012

> <i_f3d_flags>
0

> <s_epik_input>
W0NIM11jMVtjSF1ubihbY0hdMSlbQ0BIXShbQ0gzXSlbQ0BIXShbQ0gzXSlbTkhdW0NIMl1DKD1PKU4yW0NIMl1bQ0gyXU9bQ0BASF0oW0NIM10pW0NIMl0y

> <s_epik_cmdline>
J2VwaWtfcHl0aG9uJywgJy1waCcsICc3LjAnLCAnLXRuJywgJzgnLCAnLW1hJywgJzIwMCcsICctbWV0YWxfYmluZGluZycsICctaW1hZScsICc8aW5maWxlLm1hZT4nLCAnLW9tYWUnLCAnPG91dGZpbGUubWFlPic=

> <r_lp_tautomer_probability>
1

> <r_epik_Ionization_Penalty>
0.233715

> <r_epik_Ionization_Penalty_Charging>
0.233698

> <r_epik_Ionization_Penalty_Neutral>
1.68157e-05

> <r_epik_State_Penalty>
0.225221

> <r_epik_Charging_Adjusted_Penalty>
0.458919

> <i_epik_Tot_Q>
1

> <i_epik_Tot_abs_Q>
1

> <r_epik_Metal_State_Penalty>
0.225535

> <b_epik_Metal_Only>
0

> <s_lp_Force_Field>
OPLS_2005

> <r_lp_Energy>
27.3139

> <b_lp_Chiralities_Consistent>
1

> <s_lp_Variant>
AV-unprocessed.smi:3056-3

> <Gold.Version>
5.8.1

> <Gold.Id.Protein>
6NUR|6NUR_protein|mol2

> <Gold.PLP.Fitness>
47.5359

> <Gold.PLP.PLP>
-40.0182

> <Gold.PLP.part.hbond>
-1.0000

> <Gold.PLP.part.metal>
0.0000

> <Gold.PLP.part.buried>
-5.8492

> <Gold.PLP.part.nonpolar>
-33.1563

> <Gold.PLP.part.repulsive>
0.3083

> <Gold.PLP.ligand.clash>
0.0000

> <Gold.PLP.ligand.torsion>
0.8068

> <Gold.PLP.Chemscore.Hbond>
2.0000

> <Gold.PLP.Chemscore.CHOScore>
1.0000

> <Gold.PLP.Chemscore.Metal>
0.0000

> <Gold.Chemscore.Hbonds>
donor molecule, donor type, donor heavy atom, donor atom, acceptor molecule, acceptor atom, score
      L1  H    10    48       P1  8028  2.00
      L1  C    21    47       P1  8028  0.18

> <Gold.PLP.Chemscore.Internal.Correction>
0.1314

> <Gold.Rescore>
     Score         DG    S(hbond)    S(metal)    S(lipo)     H(rot)  DE(clash)    DE(int)     intcor
     14.05     -15.53       0.96        0.00      96.61       1.74       0.37       1.11       ----

> <Gold.Chemscore.Fitness>
14.0521

> <Gold.Chemscore.DG>
-15.5349

> <Gold.Chemscore.ZeroCoef>
-5.4800

> <Gold.Chemscore.Hbond>
0.9563

> <Gold.Chemscore.Metal>
0.0000

> <Gold.Chemscore.Lipo>
96.6122

> <Gold.Chemscore.Internal_Hbond>
0.0000

> <Gold.Chemscore.DEClash>
0.3690

> <Gold.Chemscore.DEInternal>
1.1138

> <Gold.Chemscore.Rot>
1.7354

> <Gold.Chemscore.Internal.Correction>
   9.000000E+99

> <Gold.Chemscore.Hbonds>
donor molecule, donor type, donor heavy atom, donor atom, acceptor molecule, acceptor atom, score
      L1  H    10    48       P1  8028  0.99

> <Gold.Chemscore.Hbond.Weighted>
-3.1939

> <Gold.Chemscore.Metal.Weighted>
-0.0000

> <Gold.Chemscore.Lipo.Weighted>
-11.3036

> <Gold.Chemscore.Internal_Hbond.Weighted>
0.0000

> <Gold.Chemscore.DEClash.Weighted>
0.3690

> <Gold.Chemscore.DEInternal.Weighted>
1.1138

> <Gold.Chemscore.Rot.Weighted>
4.4426

> <Gold.Chemscore.Internal.Correction.Weighted>
   9.000000E+99

> <Gold.Protein.RotatedTorsions>
[ 6907 6896 6895 6894 ] final   19.83 input  -60.11 | X-H torsion
[ 7974 7965 7964 7962 ] final  147.68 input  175.53 | X-H torsion
[ 8008 7997 7996 7995 ] final -133.55 input   59.86 | X-H torsion
[ 10167 10162 10161 10158 ] final -107.65 input  -65.29 | X-H torsion
[ 10718 10713 10712 10709 ] final   -4.20 input   66.30 | X-H torsion
[ 10763 10752 10751 10750 ] final  -66.01 input  -60.55 | X-H torsion
[ 11005 11000 10999 10996 ] final -165.82 input  -57.11 | X-H torsion

> <Gold.Protein.ActiveResidues>
 VAL166  LYS551  ARG553  GLY616  TRP617  ASP618  TYR619  PRO620  LYS621  CYS622 
 ASP623  PHE694  ASN695  SER759  ASP760  ASP761  ALA762  ILE779  LEU786  VAL792 
 PHE793  MET794  SER795  GLU796  ALA797  LYS798  CYS799  TRP800  GLU811  SER814 

> <Gold.Protein.RotatedAtoms>
  151.8869  135.0431  160.0493 H   0  0  0  0  0  0  0  0  0  0  0  0  # atno 6907 bound_to 6896
  152.2467  133.5176  159.5310 H   0  0  0  0  0  0  0  0  0  0  0  0  # atno 6908 bound_to 6896
  150.7070  134.0932  159.3981 H   0  0  0  0  0  0  0  0  0  0  0  0  # atno 6909 bound_to 6896
  144.8572  139.6059  143.5947 H   0  0  0  0  0  0  0  0  0  0  0  0  # atno 7974 bound_to 7965
  155.3474  140.0475  157.3046 H   0  0  0  0  0  0  0  0  0  0  0  0  # atno 8008 bound_to 7997
  154.5245  140.2236  155.8879 H   0  0  0  0  0  0  0  0  0  0  0  0  # atno 8009 bound_to 7997
  156.1725  140.3092  155.9005 H   0  0  0  0  0  0  0  0  0  0  0  0  # atno 8010 bound_to 7997
  140.1746  143.4015  152.1328 H   0  0  0  0  0  0  0  0  0  0  0  0  # atno 10167 bound_to 10162
  156.7649  130.5281  149.5778 H   0  0  0  0  0  0  0  0  0  0  0  0  # atno 10718 bound_to 10713
  154.3535  135.6131  153.5654 H   0  0  0  0  0  0  0  0  0  0  0  0  # atno 10763 bound_to 10752
  152.9797  135.5798  154.4716 H   0  0  0  0  0  0  0  0  0  0  0  0  # atno 10764 bound_to 10752
  154.4441  135.2851  155.1804 H   0  0  0  0  0  0  0  0  0  0  0  0  # atno 10765 bound_to 10752
  140.5714  134.5234  157.5162 H   0  0  0  0  0  0  0  0  0  0  0  0  # atno 11005 bound_to 11000
  146.2832  139.6934  142.9214 LP  0  0  0  0  0  0  0  0  0  0  0  0  # atno 17320 bound_to 7965
  145.4383  141.0420  143.2872 LP  0  0  0  0  0  0  0  0  0  0  0  0  # atno 17321 bound_to 7965
  139.5323  144.7172  151.5014 LP  0  0  0  0  0  0  0  0  0  0  0  0  # atno 17342 bound_to 10162
  140.6559  143.8599  150.6835 LP  0  0  0  0  0  0  0  0  0  0  0  0  # atno 17343 bound_to 10162
  156.1315  130.6181  151.0340 LP  0  0  0  0  0  0  0  0  0  0  0  0  # atno 17370 bound_to 10713
  157.6718  131.0859  150.7594 LP  0  0  0  0  0  0  0  0  0  0  0  0  # atno 17371 bound_to 10713
  139.9360  134.7874  156.0802 LP  0  0  0  0  0  0  0  0  0  0  0  0  # atno 17394 bound_to 11000
  141.1054  133.6662  156.2851 LP  0  0  0  0  0  0  0  0  0  0  0  0  # atno 17395 bound_to 11000

$$$$
