AV-unprocessed.smi:1966|AV-procd|sdf|7951|dock4
  -GOLD-   2272010123D 1   1.00000     0.00000
 Structure written by MMmdl.
 53 54  0  0  0  0  0  0  0  0  1 V2000
  146.1011  134.7581  153.2936 C   0  0  0  0  0  0  0  0  0  0  0  0
  147.3323  134.3062  154.0711 C   0  0  0  0  0  0  0  0  0  0  0  0
  147.2122  133.8374  155.2027 O   0  0  0  0  0  0  0  0  0  0  0  0
  148.5130  134.4547  153.4499 N   0  0  0  0  0  0  0  0  0  0  0  0
  149.8176  134.0788  154.0006 C   0  0  1  0  0  0  0  0  0  0  0  0
  150.2445  135.1341  155.0409 C   0  0  0  0  0  0  0  0  0  0  0  0
  150.4715  134.7934  156.2024 O   0  0  0  0  0  0  0  0  0  0  0  0
  150.3433  136.3945  154.5784 N   0  0  0  0  0  0  0  0  0  0  0  0
  150.7177  137.5807  155.2670 C   0  0  0  0  0  0  0  0  0  0  0  0
  151.3904  138.6781  154.6803 C   0  0  0  0  0  0  0  0  0  0  0  0
  151.6893  139.8006  155.4766 C   0  0  0  0  0  0  0  0  0  0  0  0
  151.3028  139.8090  156.8376 C   0  0  0  0  0  0  0  0  0  0  0  0
  151.5947  140.9243  157.6530 N   0  0  0  0  0  0  0  0  0  0  0  0
  152.4451  140.7189  158.8223 C   0  0  0  0  0  0  0  0  0  0  0  0
  152.9386  142.0694  159.3707 C   0  0  2  0  0  0  0  0  0  0  0  0
  153.7246  141.9029  160.6755 C   0  0  0  0  0  0  0  0  0  0  0  0
  151.8212  142.9173  159.6329 O   0  0  0  0  0  0  0  0  0  0  0  0
  150.9800  143.1658  158.5041 C   0  0  1  0  0  0  0  0  0  0  0  0
  151.6498  144.0888  157.4706 C   0  0  0  0  0  0  0  0  0  0  0  0
  150.4816  141.8353  157.9056 C   0  0  0  0  0  0  0  0  0  0  0  0
  150.6528  138.7580  157.3943 N   0  0  0  0  0  0  0  0  0  0  0  0
  150.3686  137.6845  156.6280 C   0  0  0  0  0  0  0  0  0  0  0  0
  149.6947  132.6815  154.6778 C   0  0  0  0  0  0  0  0  0  0  0  0
  151.0201  132.1901  155.2963 C   0  0  0  0  0  0  0  0  0  0  0  0
  149.1716  131.6119  153.6985 C   0  0  0  0  0  0  0  0  0  0  0  0
  146.0408  134.2370  152.3376 H   0  0  0  0  0  0  0  0  0  0  0  0
  146.1455  135.8303  153.1011 H   0  0  0  0  0  0  0  0  0  0  0  0
  145.1895  134.5484  153.8541 H   0  0  0  0  0  0  0  0  0  0  0  0
  148.5108  134.8425  152.5178 H   0  0  0  0  0  0  0  0  0  0  0  0
  150.5539  134.0276  153.1954 H   0  0  0  0  0  0  0  0  0  0  0  0
  150.0705  136.5269  153.6152 H   0  0  0  0  0  0  0  0  0  0  0  0
  151.6772  138.6925  153.6410 H   0  0  0  0  0  0  0  0  0  0  0  0
  152.2196  140.6325  155.0379 H   0  0  0  0  0  0  0  0  0  0  0  0
  151.8791  140.1845  159.5867 H   0  0  0  0  0  0  0  0  0  0  0  0
  153.3050  140.1010  158.5607 H   0  0  0  0  0  0  0  0  0  0  0  0
  153.5953  142.5426  158.6405 H   0  0  0  0  0  0  0  0  0  0  0  0
  154.5973  141.2662  160.5295 H   0  0  0  0  0  0  0  0  0  0  0  0
  153.1075  141.4522  161.4534 H   0  0  0  0  0  0  0  0  0  0  0  0
  154.0746  142.8672  161.0449 H   0  0  0  0  0  0  0  0  0  0  0  0
  150.1110  143.7017  158.8866 H   0  0  0  0  0  0  0  0  0  0  0  0
  150.9443  144.3656  156.6868 H   0  0  0  0  0  0  0  0  0  0  0  0
  152.5022  143.6160  156.9834 H   0  0  0  0  0  0  0  0  0  0  0  0
  151.9988  145.0089  157.9394 H   0  0  0  0  0  0  0  0  0  0  0  0
  149.9038  142.0388  157.0052 H   0  0  0  0  0  0  0  0  0  0  0  0
  149.8016  141.3520  158.6082 H   0  0  0  0  0  0  0  0  0  0  0  0
  149.8459  136.8790  157.1226 H   0  0  0  0  0  0  0  0  0  0  0  0
  148.9677  132.7531  155.4889 H   0  0  0  0  0  0  0  0  0  0  0  0
  151.8121  132.1469  154.5479 H   0  0  0  0  0  0  0  0  0  0  0  0
  150.9093  131.1904  155.7173 H   0  0  0  0  0  0  0  0  0  0  0  0
  151.3608  132.8344  156.1067 H   0  0  0  0  0  0  0  0  0  0  0  0
  149.8319  131.5104  152.8366 H   0  0  0  0  0  0  0  0  0  0  0  0
  148.1742  131.8488  153.3280 H   0  0  0  0  0  0  0  0  0  0  0  0
  149.1055  130.6365  154.1812 H   0  0  0  0  0  0  0  0  0  0  0  0
  1  2  1  0  0  0  0
  1 26  1  0  0  0  0
  1 27  1  0  0  0  0
  1 28  1  0  0  0  0
  2  3  2  0  0  0  0
  2  4  1  0  0  0  0
  4  5  1  0  0  0  0
  4 29  1  0  0  0  0
  5  6  1  0  0  0  0
  5 23  1  0  0  0  0
  5 30  1  0  0  0  0
  6  7  2  0  0  0  0
  6  8  1  0  0  0  0
  8  9  1  0  0  0  0
  8 31  1  0  0  0  0
  9 22  1  0  0  0  0
  9 10  2  0  0  0  0
 10 11  1  0  0  0  0
 10 32  1  0  0  0  0
 11 12  2  0  0  0  0
 11 33  1  0  0  0  0
 12 13  1  0  0  0  0
 12 21  1  0  0  0  0
 13 20  1  0  0  0  0
 13 14  1  0  0  0  0
 14 15  1  0  0  0  0
 14 34  1  0  0  0  0
 14 35  1  0  0  0  0
 15 16  1  0  0  0  0
 15 17  1  0  0  0  0
 15 36  1  0  0  0  0
 16 37  1  0  0  0  0
 16 38  1  0  0  0  0
 16 39  1  0  0  0  0
 17 18  1  0  0  0  0
 18 19  1  0  0  0  0
 18 20  1  0  0  0  0
 18 40  1  0  0  0  0
 19 41  1  0  0  0  0
 19 42  1  0  0  0  0
 19 43  1  0  0  0  0
 20 44  1  0  0  0  0
 20 45  1  0  0  0  0
 21 22  2  0  0  0  0
 22 46  1  0  0  0  0
 23 24  1  0  0  0  0
 23 25  1  0  0  0  0
 23 47  1  0  0  0  0
 24 48  1  0  0  0  0
 24 49  1  0  0  0  0
 24 50  1  0  0  0  0
 25 51  1  0  0  0  0
 25 52  1  0  0  0  0
 25 53  1  0  0  0  0
M  END
> <s_m_source_file>
AV-unprocessed.smi

> <i_m_source_file_index>
1966

> <i_lp_mmshare_version>
43012

> <i_f3d_flags>
0

> <s_epik_input>
W0NIM11DKD1PKVtOSF1bQ0BASF0oW0NIXShbQ0gzXSlbQ0gzXSlDKD1PKVtOSF1jMVtjSF1bY0hdYyhuW2NIXTEpTjJbQ0gyXVtDQEBIXShbQ0gzXSlPW0NAQEhdKFtDSDNdKVtDSDJdMg==

> <s_epik_cmdline>
J2VwaWtfcHl0aG9uJywgJy1waCcsICc3LjAnLCAnLXRuJywgJzgnLCAnLW1hJywgJzIwMCcsICctbWV0YWxfYmluZGluZycsICctaW1hZScsICc8aW5maWxlLm1hZT4nLCAnLW9tYWUnLCAnPG91dGZpbGUubWFlPic=

> <r_lp_tautomer_probability>
1

> <r_epik_Ionization_Penalty>
0.000679699

> <r_epik_Ionization_Penalty_Charging>
0

> <r_epik_Ionization_Penalty_Neutral>
0.000679699

> <r_epik_State_Penalty>
0.000430485

> <r_epik_Charging_Adjusted_Penalty>
0.000430485

> <i_epik_Tot_Q>
0

> <i_epik_Tot_abs_Q>
0

> <r_epik_Metal_State_Penalty>
-0

> <b_epik_Metal_Only>
0

> <s_lp_Force_Field>
OPLS_2005

> <r_lp_Energy>
28.9115

> <b_lp_Chiralities_Consistent>
1

> <s_lp_Variant>
AV-unprocessed.smi:1966-4

> <Gold.Version>
5.8.1

> <Gold.Id.Protein>
6NUR|6NUR_protein|mol2

> <Gold.PLP.Fitness>
44.9421

> <Gold.PLP.PLP>
-40.7821

> <Gold.PLP.part.hbond>
-1.7943

> <Gold.PLP.part.metal>
0.0000

> <Gold.PLP.part.buried>
-3.8638

> <Gold.PLP.part.nonpolar>
-34.8624

> <Gold.PLP.part.repulsive>
0.0941

> <Gold.PLP.ligand.clash>
0.0000

> <Gold.PLP.ligand.torsion>
0.6924

> <Gold.PLP.Chemscore.Hbond>
1.7273

> <Gold.PLP.Chemscore.CHOScore>
0.0000

> <Gold.PLP.Chemscore.Metal>
0.0000

> <Gold.Chemscore.Hbonds>
donor molecule, donor type, donor heavy atom, donor atom, acceptor molecule, acceptor atom, score
      L1  H     4    29       P1  7948  0.70
      L1  H     8    31       P1  7948  0.75

> <Gold.PLP.Chemscore.Internal.Correction>
0.3630

> <Gold.Rescore>
     Score         DG    S(hbond)    S(metal)    S(lipo)     H(rot)  DE(clash)    DE(int)     intcor
     12.94     -17.68       1.20        0.00     106.69       1.68       0.15       4.59       ----

> <Gold.Chemscore.Fitness>
12.9416

> <Gold.Chemscore.DG>
-17.6825

> <Gold.Chemscore.ZeroCoef>
-5.4800

> <Gold.Chemscore.Hbond>
1.2007

> <Gold.Chemscore.Metal>
0.0000

> <Gold.Chemscore.Lipo>
106.6877

> <Gold.Chemscore.Internal_Hbond>
0.0000

> <Gold.Chemscore.DEClash>
0.1469

> <Gold.Chemscore.DEInternal>
4.5941

> <Gold.Chemscore.Rot>
1.6759

> <Gold.Chemscore.Internal.Correction>
   9.000000E+99

> <Gold.Chemscore.Hbonds>
donor molecule, donor type, donor heavy atom, donor atom, acceptor molecule, acceptor atom, score
      L1  H     4    29       P1  7948  0.15
      L1  H     8    31       P1  7948  0.11

> <Gold.Chemscore.Hbond.Weighted>
-4.0103

> <Gold.Chemscore.Metal.Weighted>
-0.0000

> <Gold.Chemscore.Lipo.Weighted>
-12.4825

> <Gold.Chemscore.Internal_Hbond.Weighted>
0.0000

> <Gold.Chemscore.DEClash.Weighted>
0.1469

> <Gold.Chemscore.DEInternal.Weighted>
4.5941

> <Gold.Chemscore.Rot.Weighted>
4.2902

> <Gold.Chemscore.Internal.Correction.Weighted>
   9.000000E+99

> <Gold.Protein.RotatedTorsions>
[ 6907 6896 6895 6894 ] final  -39.93 input  -60.11 | X-H torsion
[ 7974 7965 7964 7962 ] final  -10.99 input  175.53 | X-H torsion
[ 8008 7997 7996 7995 ] final -111.45 input   59.86 | X-H torsion
[ 10167 10162 10161 10158 ] final   41.51 input  -65.29 | X-H torsion
[ 10718 10713 10712 10709 ] final  107.01 input   66.30 | X-H torsion
[ 10763 10752 10751 10750 ] final   84.67 input  -60.55 | X-H torsion
[ 11005 11000 10999 10996 ] final -103.97 input  -57.11 | X-H torsion

> <Gold.Protein.ActiveResidues>
 VAL166  LYS551  ARG553  GLY616  TRP617  ASP618  TYR619  PRO620  LYS621  CYS622 
 ASP623  PHE694  ASN695  SER759  ASP760  ASP761  ALA762  ILE779  LEU786  VAL792 
 PHE793  MET794  SER795  GLU796  ALA797  LYS798  CYS799  TRP800  GLU811  SER814 

> <Gold.Protein.RotatedAtoms>
  150.9845  134.9193  159.7863 H   0  0  0  0  0  0  0  0  0  0  0  0  # atno 6907 bound_to 6896
  152.5232  134.3365  159.9212 H   0  0  0  0  0  0  0  0  0  0  0  0  # atno 6908 bound_to 6896
  151.3372  133.3936  159.2702 H   0  0  0  0  0  0  0  0  0  0  0  0  # atno 6909 bound_to 6896
  146.2202  140.2845  142.8364 H   0  0  0  0  0  0  0  0  0  0  0  0  # atno 7974 bound_to 7965
  154.9899  140.0395  157.2315 H   0  0  0  0  0  0  0  0  0  0  0  0  # atno 8008 bound_to 7997
  154.7637  140.2789  155.6170 H   0  0  0  0  0  0  0  0  0  0  0  0  # atno 8009 bound_to 7997
  156.2909  140.2623  156.2422 H   0  0  0  0  0  0  0  0  0  0  0  0  # atno 8010 bound_to 7997
  140.3636  144.2196  150.6136 H   0  0  0  0  0  0  0  0  0  0  0  0  # atno 10167 bound_to 10162
  157.6645  131.0863  150.6092 H   0  0  0  0  0  0  0  0  0  0  0  0  # atno 10718 bound_to 10713
  153.1403  135.4645  154.9485 H   0  0  0  0  0  0  0  0  0  0  0  0  # atno 10763 bound_to 10752
  154.7741  135.3168  154.8131 H   0  0  0  0  0  0  0  0  0  0  0  0  # atno 10764 bound_to 10752
  153.8655  135.6908  153.4833 H   0  0  0  0  0  0  0  0  0  0  0  0  # atno 10765 bound_to 10752
  141.1122  133.8684  157.1553 H   0  0  0  0  0  0  0  0  0  0  0  0  # atno 11005 bound_to 11000
  144.9172  140.7826  143.5771 LP  0  0  0  0  0  0  0  0  0  0  0  0  # atno 17320 bound_to 7965
  145.2780  139.1929  143.4806 LP  0  0  0  0  0  0  0  0  0  0  0  0  # atno 17321 bound_to 7965
  140.5103  143.2292  151.8546 LP  0  0  0  0  0  0  0  0  0  0  0  0  # atno 17342 bound_to 10162
  139.4811  144.4958  151.9126 LP  0  0  0  0  0  0  0  0  0  0  0  0  # atno 17343 bound_to 10162
  156.6394  130.4454  149.5758 LP  0  0  0  0  0  0  0  0  0  0  0  0  # atno 17370 bound_to 10713
  156.2221  130.6743  151.1379 LP  0  0  0  0  0  0  0  0  0  0  0  0  # atno 17371 bound_to 10713
  140.0022  135.0023  157.0214 LP  0  0  0  0  0  0  0  0  0  0  0  0  # atno 17394 bound_to 11000
  140.4745  134.1352  155.7208 LP  0  0  0  0  0  0  0  0  0  0  0  0  # atno 17395 bound_to 11000

$$$$
