AV-unprocessed.smi:3279|AV-procd|sdf|12549|dock3
  -GOLD-   2272018463D 1   1.00000     0.00000
 Structure written by MMmdl.
 35 35  0  0  0  0  0  0  0  0  2 V2000
  149.6252  135.6854  156.6931 C   0  0  0  0  0  0  0  0  0  0  0  0
  150.2407  136.6796  157.6903 C   0  0  1  0  0  0  0  0  0  0  0  0
  150.6734  138.0009  157.0185 C   0  0  0  0  0  0  0  0  0  0  0  0
  151.3645  138.8843  157.9557 N   0  0  0  0  0  0  0  0  0  0  0  0
  150.9303  140.0856  158.3679 C   0  0  0  0  0  0  0  0  0  0  0  0
  149.9152  140.6305  157.9330 O   0  0  0  0  0  0  0  0  0  0  0  0
  151.7723  140.7726  159.4422 C   0  0  0  0  0  0  0  0  0  0  0  0
  151.2874  142.1002  159.6214 O   0  0  0  0  0  0  0  0  0  0  0  0
  152.1274  143.0452  160.2882 C   0  0  0  0  0  0  0  0  0  0  0  0
  151.5657  144.4762  160.1712 C   0  0  0  0  0  0  0  0  0  0  0  0
  153.4659  142.9570  159.5374 C   0  0  0  0  0  0  0  0  0  0  0  0
  152.3356  142.6458  161.7624 C   0  0  0  0  0  0  0  0  0  0  0  0
  149.3446  136.8979  158.8787 C   0  0  0  0  0  0  0  0  0  0  0  0
  148.1195  137.4360  158.7775 N   0  0  0  0  0  0  0  0  0  0  0  0
  147.6627  137.4154  160.0366 N   0  0  0  0  0  0  0  0  0  0  0  0
  148.5878  136.8844  160.8448 N   0  0  0  0  0  0  0  0  0  0  0  0
  149.6707  136.5456  160.1328 N   0  5  0  0  0  0  0  0  0  0  0  0
  149.4056  134.7325  157.1756 H   0  0  0  0  0  0  0  0  0  0  0  0
  150.3060  135.4875  155.8650 H   0  0  0  0  0  0  0  0  0  0  0  0
  148.6947  136.0682  156.2726 H   0  0  0  0  0  0  0  0  0  0  0  0
  151.1661  136.2090  158.0275 H   0  0  0  0  0  0  0  0  0  0  0  0
  151.3481  137.7910  156.1883 H   0  0  0  0  0  0  0  0  0  0  0  0
  149.8026  138.4946  156.5839 H   0  0  0  0  0  0  0  0  0  0  0  0
  152.2086  138.5232  158.3758 H   0  0  0  0  0  0  0  0  0  0  0  0
  151.7021  140.2032  160.3694 H   0  0  0  0  0  0  0  0  0  0  0  0
  152.8117  140.7658  159.1160 H   0  0  0  0  0  0  0  0  0  0  0  0
  152.2801  145.2086  160.5482 H   0  0  0  0  0  0  0  0  0  0  0  0
  150.6482  144.6045  160.7453 H   0  0  0  0  0  0  0  0  0  0  0  0
  151.3488  144.7305  159.1332 H   0  0  0  0  0  0  0  0  0  0  0  0
  153.3444  143.2140  158.4843 H   0  0  0  0  0  0  0  0  0  0  0  0
  153.8781  141.9483  159.5821 H   0  0  0  0  0  0  0  0  0  0  0  0
  154.2066  143.6363  159.9604 H   0  0  0  0  0  0  0  0  0  0  0  0
  153.0924  143.2734  162.2339 H   0  0  0  0  0  0  0  0  0  0  0  0
  152.6665  141.6103  161.8472 H   0  0  0  0  0  0  0  0  0  0  0  0
  151.4237  142.7539  162.3494 H   0  0  0  0  0  0  0  0  0  0  0  0
  1  2  1  0  0  0  0
  1 18  1  0  0  0  0
  1 19  1  0  0  0  0
  1 20  1  0  0  0  0
  2  3  1  0  0  0  0
  2 13  1  0  0  0  0
  2 21  1  0  0  0  0
  3  4  1  0  0  0  0
  3 22  1  0  0  0  0
  3 23  1  0  0  0  0
  4  5  1  0  0  0  0
  4 24  1  0  0  0  0
  5  6  2  0  0  0  0
  5  7  1  0  0  0  0
  7  8  1  0  0  0  0
  7 25  1  0  0  0  0
  7 26  1  0  0  0  0
  8  9  1  0  0  0  0
  9 10  1  0  0  0  0
  9 11  1  0  0  0  0
  9 12  1  0  0  0  0
 10 27  1  0  0  0  0
 10 28  1  0  0  0  0
 10 29  1  0  0  0  0
 11 30  1  0  0  0  0
 11 31  1  0  0  0  0
 11 32  1  0  0  0  0
 12 33  1  0  0  0  0
 12 34  1  0  0  0  0
 12 35  1  0  0  0  0
 13 17  1  0  0  0  0
 13 14  2  0  0  0  0
 14 15  1  0  0  0  0
 15 16  2  0  0  0  0
 16 17  1  0  0  0  0
M  CHG  1  17  -1
M  END
> <s_m_source_file>
AV-unprocessed.smi

> <i_m_source_file_index>
3279

> <i_lp_mmshare_version>
43012

> <i_f3d_flags>
0

> <s_epik_input>
W25IXTFubm5jMVtDQEhdKFtDSDNdKVtDSDJdW05IXUMoPU8pW0NIMl1PQyhbQ0gzXSkoW0NIM10pW0NIM10=

> <s_epik_cmdline>
J2VwaWtfcHl0aG9uJywgJy1waCcsICc3LjAnLCAnLXRuJywgJzgnLCAnLW1hJywgJzIwMCcsICctbWV0YWxfYmluZGluZycsICctaW1hZScsICc8aW5maWxlLm1hZT4nLCAnLW9tYWUnLCAnPG91dGZpbGUubWFlPic=

> <r_epik_Ionization_Penalty>
0.054353

> <r_epik_Ionization_Penalty_Charging>
0.054353

> <r_epik_Ionization_Penalty_Neutral>
3.0997e-08

> <r_epik_State_Penalty>
0.0139445

> <r_epik_Charging_Adjusted_Penalty>
0.0682975

> <i_epik_Tot_Q>
-1

> <i_epik_Tot_abs_Q>
1

> <r_epik_Metal_State_Penalty>
0.0109703

> <b_epik_Metal_Only>
0

> <s_lp_Force_Field>
OPLS_2005

> <r_lp_Energy>
1.27922

> <b_lp_Chiralities_Consistent>
1

> <s_lp_Variant>
AV-unprocessed.smi:3279-2

> <Gold.Version>
5.8.1

> <Gold.Id.Protein>
6NUR|6NUR_protein|mol2

> <Gold.PLP.Fitness>
37.0918

> <Gold.PLP.PLP>
-26.0937

> <Gold.PLP.part.hbond>
-5.1105

> <Gold.PLP.part.metal>
0.0000

> <Gold.PLP.part.buried>
-3.6566

> <Gold.PLP.part.nonpolar>
-18.6107

> <Gold.PLP.part.repulsive>
0.0588

> <Gold.PLP.ligand.clash>
0.0000

> <Gold.PLP.ligand.torsion>
0.2417

> <Gold.PLP.Chemscore.Hbond>
3.7920

> <Gold.PLP.Chemscore.CHOScore>
0.0000

> <Gold.PLP.Chemscore.Metal>
0.0000

> <Gold.Chemscore.Hbonds>
donor molecule, donor type, donor heavy atom, donor atom, acceptor molecule, acceptor atom, score
      P1  H  6896  6907       L1    17  1.92
      P1  H  6931  6943       L1    16  0.99
      P1  H  6934  6947       L1    15  0.83

> <Gold.PLP.Chemscore.Internal.Correction>
0.1056

> <Gold.Rescore>
     Score         DG    S(hbond)    S(metal)    S(lipo)     H(rot)  DE(clash)    DE(int)     intcor
     11.20     -11.40       1.63        0.00      61.87       2.64       0.01       0.18       ----

> <Gold.Chemscore.Fitness>
11.2032

> <Gold.Chemscore.DG>
-11.3952

> <Gold.Chemscore.ZeroCoef>
-5.4800

> <Gold.Chemscore.Hbond>
1.6278

> <Gold.Chemscore.Metal>
0.0000

> <Gold.Chemscore.Lipo>
61.8723

> <Gold.Chemscore.Internal_Hbond>
0.0000

> <Gold.Chemscore.DEClash>
0.0121

> <Gold.Chemscore.DEInternal>
0.1800

> <Gold.Chemscore.Rot>
2.6409

> <Gold.Chemscore.Internal.Correction>
   9.000000E+99

> <Gold.Chemscore.Hbonds>
donor molecule, donor type, donor heavy atom, donor atom, acceptor molecule, acceptor atom, score
      P1  H  6896  6907       L1    17  0.31
      P1  H  6931  6943       L1    16  0.22
      P1  H  6934  6947       L1    15  0.32

> <Gold.Chemscore.Hbond.Weighted>
-5.4368

> <Gold.Chemscore.Metal.Weighted>
-0.0000

> <Gold.Chemscore.Lipo.Weighted>
-7.2391

> <Gold.Chemscore.Internal_Hbond.Weighted>
0.0000

> <Gold.Chemscore.DEClash.Weighted>
0.0121

> <Gold.Chemscore.DEInternal.Weighted>
0.1800

> <Gold.Chemscore.Rot.Weighted>
6.7607

> <Gold.Chemscore.Internal.Correction.Weighted>
   9.000000E+99

> <Gold.Protein.RotatedTorsions>
[ 6907 6896 6895 6894 ] final  -36.66 input  -60.11 | X-H torsion
[ 7974 7965 7964 7962 ] final -169.06 input  175.53 | X-H torsion
[ 8008 7997 7996 7995 ] final  141.29 input   59.86 | X-H torsion
[ 10167 10162 10161 10158 ] final   80.70 input  -65.29 | X-H torsion
[ 10718 10713 10712 10709 ] final   84.92 input   66.30 | X-H torsion
[ 10763 10752 10751 10750 ] final   -5.63 input  -60.55 | X-H torsion
[ 11005 11000 10999 10996 ] final  147.00 input  -57.11 | X-H torsion

> <Gold.Protein.ActiveResidues>
 VAL166  LYS551  ARG553  GLY616  TRP617  ASP618  TYR619  PRO620  LYS621  CYS622 
 ASP623  PHE694  ASN695  SER759  ASP760  ASP761  ALA762  ILE779  LEU786  VAL792 
 PHE793  MET794  SER795  GLU796  ALA797  LYS798  CYS799  TRP800  GLU811  SER814 

> <Gold.Protein.RotatedAtoms>
  151.0244  134.9493  159.8077 H   0  0  0  0  0  0  0  0  0  0  0  0  # atno 6907 bound_to 6896
  152.5332  134.2861  159.9035 H   0  0  0  0  0  0  0  0  0  0  0  0  # atno 6908 bound_to 6896
  151.2869  133.4141  159.2664 H   0  0  0  0  0  0  0  0  0  0  0  0  # atno 6909 bound_to 6896
  144.7192  140.2277  143.6308 H   0  0  0  0  0  0  0  0  0  0  0  0  # atno 7974 bound_to 7965
  156.2968  140.2319  156.4540 H   0  0  0  0  0  0  0  0  0  0  0  0  # atno 8008 bound_to 7997
  154.8076  140.0445  157.1340 H   0  0  0  0  0  0  0  0  0  0  0  0  # atno 8009 bound_to 7997
  154.9460  140.3036  155.5101 H   0  0  0  0  0  0  0  0  0  0  0  0  # atno 8010 bound_to 7997
  139.9470  144.6052  150.8197 H   0  0  0  0  0  0  0  0  0  0  0  0  # atno 10167 bound_to 10162
  157.6906  131.0153  150.2745 H   0  0  0  0  0  0  0  0  0  0  0  0  # atno 10718 bound_to 10713
  153.4012  135.7005  153.6425 H   0  0  0  0  0  0  0  0  0  0  0  0  # atno 10763 bound_to 10752
  153.4957  135.3663  155.2515 H   0  0  0  0  0  0  0  0  0  0  0  0  # atno 10764 bound_to 10752
  154.8710  135.4100  154.3347 H   0  0  0  0  0  0  0  0  0  0  0  0  # atno 10765 bound_to 10752
  140.0840  134.9080  157.1545 H   0  0  0  0  0  0  0  0  0  0  0  0  # atno 11005 bound_to 11000
  145.8441  139.2143  143.1810 LP  0  0  0  0  0  0  0  0  0  0  0  0  # atno 17320 bound_to 7965
  146.0320  140.8248  142.9871 LP  0  0  0  0  0  0  0  0  0  0  0  0  # atno 17321 bound_to 7965
  140.7594  143.3128  151.2803 LP  0  0  0  0  0  0  0  0  0  0  0  0  # atno 17342 bound_to 10162
  139.6659  144.0106  152.2722 LP  0  0  0  0  0  0  0  0  0  0  0  0  # atno 17343 bound_to 10162
  156.3302  130.3799  149.7497 LP  0  0  0  0  0  0  0  0  0  0  0  0  # atno 17370 bound_to 10713
  156.5039  130.8141  151.3143 LP  0  0  0  0  0  0  0  0  0  0  0  0  # atno 17371 bound_to 10713
  140.3447  134.2665  155.7207 LP  0  0  0  0  0  0  0  0  0  0  0  0  # atno 17394 bound_to 11000
  141.2056  133.7855  157.0223 LP  0  0  0  0  0  0  0  0  0  0  0  0  # atno 17395 bound_to 11000

$$$$
