AV-unprocessed.smi:2046|AV-procd|sdf|8312|dock5
  -GOLD-   2272010583D 1   1.00000     0.00000
 Structure written by MMmdl.
 30 31  0  0  0  0  0  0  0  0  1 V2000
  150.1647  140.9350  157.6570 O   0  0  0  0  0  0  0  0  0  0  0  0
  150.0075  142.0244  157.1052 C   0  0  0  0  0  0  0  0  0  0  0  0
  150.4781  143.2007  157.5558 N   0  0  0  0  0  0  0  0  0  0  0  0
  151.2370  143.4546  158.7287 C   0  0  0  0  0  0  0  0  0  0  0  0
  152.2417  142.6703  159.1499 N   0  0  0  0  0  0  0  0  0  0  0  0
  152.8156  143.1455  160.3220 N   0  0  0  0  0  0  0  0  0  0  0  0
  152.2220  144.2677  160.7382 C   0  0  0  0  0  0  0  0  0  0  0  0
  150.9029  144.8535  159.7395 S   0  0  0  0  0  0  0  0  0  0  0  0
  149.3309  142.1819  155.9581 N   0  0  0  0  0  0  0  0  0  0  0  0
  148.7125  141.1099  155.1762 C   0  0  1  0  0  0  0  0  0  0  0  0
  147.8935  141.7052  154.0086 C   0  0  0  0  0  0  0  0  0  0  0  0
  146.7956  140.7708  153.4750 C   0  0  0  0  0  0  0  0  0  0  0  0
  147.3059  139.4572  152.8638 C   0  0  0  0  0  0  0  0  0  0  0  0
  147.9899  138.5276  153.8812 C   0  0  0  0  0  0  0  0  0  0  0  0
  149.3606  138.9289  154.1729 N   0  0  0  0  0  0  0  0  0  0  0  0
  149.7665  140.0730  154.7442 C   0  0  0  0  0  0  0  0  0  0  0  0
  150.9652  140.2952  154.9143 O   0  0  0  0  0  0  0  0  0  0  0  0
  150.2716  144.0111  156.9910 H   0  0  0  0  0  0  0  0  0  0  0  0
  152.5635  144.7535  161.6403 H   0  0  0  0  0  0  0  0  0  0  0  0
  149.2557  143.1128  155.5746 H   0  0  0  0  0  0  0  0  0  0  0  0
  148.0274  140.5864  155.8461 H   0  0  0  0  0  0  0  0  0  0  0  0
  147.4035  142.6225  154.3372 H   0  0  0  0  0  0  0  0  0  0  0  0
  148.5589  142.0028  153.1970 H   0  0  0  0  0  0  0  0  0  0  0  0
  146.0875  140.5496  154.2743 H   0  0  0  0  0  0  0  0  0  0  0  0
  146.2254  141.3069  152.7155 H   0  0  0  0  0  0  0  0  0  0  0  0
  146.4504  138.9300  152.4400 H   0  0  0  0  0  0  0  0  0  0  0  0
  147.9743  139.6614  152.0262 H   0  0  0  0  0  0  0  0  0  0  0  0
  147.4097  138.4547  154.8022 H   0  0  0  0  0  0  0  0  0  0  0  0
  148.0354  137.5194  153.4690 H   0  0  0  0  0  0  0  0  0  0  0  0
  150.0804  138.2737  153.9038 H   0  0  0  0  0  0  0  0  0  0  0  0
  1  2  2  0  0  0  0
  2  3  1  0  0  0  0
  2  9  1  0  0  0  0
  3  4  1  0  0  0  0
  3 18  1  0  0  0  0
  4  8  1  0  0  0  0
  4  5  2  0  0  0  0
  5  6  1  0  0  0  0
  6  7  2  0  0  0  0
  7  8  1  0  0  0  0
  7 19  1  0  0  0  0
  9 10  1  0  0  0  0
  9 20  1  0  0  0  0
 10 16  1  0  0  0  0
 10 11  1  0  0  0  0
 10 21  1  0  0  0  0
 11 12  1  0  0  0  0
 11 22  1  0  0  0  0
 11 23  1  0  0  0  0
 12 13  1  0  0  0  0
 12 24  1  0  0  0  0
 12 25  1  0  0  0  0
 13 14  1  0  0  0  0
 13 26  1  0  0  0  0
 13 27  1  0  0  0  0
 14 15  1  0  0  0  0
 14 28  1  0  0  0  0
 14 29  1  0  0  0  0
 15 16  1  0  0  0  0
 15 30  1  0  0  0  0
 16 17  2  0  0  0  0
M  END
> <s_m_source_file>
AV-unprocessed.smi

> <i_m_source_file_index>
2046

> <i_lp_mmshare_version>
43012

> <i_f3d_flags>
0

> <s_epik_input>
czFbY0hdbm5jMVtOSF1DKD1PKVtOSF1bQ0BASF0yW0NIMl1bQ0gyXVtDSDJdW0NIMl1bTkhdQzI9Tw==

> <s_epik_cmdline>
J2VwaWtfcHl0aG9uJywgJy1waCcsICc3LjAnLCAnLXRuJywgJzgnLCAnLW1hJywgJzIwMCcsICctbWV0YWxfYmluZGluZycsICctaW1hZScsICc8aW5maWxlLm1hZT4nLCAnLW9tYWUnLCAnPG91dGZpbGUubWFlPic=

> <r_lp_tautomer_probability>
1

> <r_epik_Ionization_Penalty>
0.000691558

> <r_epik_Ionization_Penalty_Charging>
0

> <r_epik_Ionization_Penalty_Neutral>
0.000691558

> <r_epik_State_Penalty>
-0

> <r_epik_Charging_Adjusted_Penalty>
0

> <i_epik_Tot_Q>
0

> <i_epik_Tot_abs_Q>
0

> <r_epik_Metal_State_Penalty>
0.252698

> <b_epik_Metal_Only>
0

> <s_lp_Force_Field>
OPLS_2005

> <r_lp_Energy>
9.05746

> <b_lp_Chiralities_Consistent>
1

> <s_lp_Variant>
AV-unprocessed.smi:2046-2

> <Gold.Version>
5.8.1

> <Gold.Id.Protein>
6NUR|6NUR_protein|mol2

> <Gold.PLP.Fitness>
36.9859

> <Gold.PLP.PLP>
-29.1147

> <Gold.PLP.part.hbond>
-3.2219

> <Gold.PLP.part.metal>
0.0000

> <Gold.PLP.part.buried>
-4.8073

> <Gold.PLP.part.nonpolar>
-22.5295

> <Gold.PLP.part.repulsive>
0.2605

> <Gold.PLP.ligand.clash>
0.0000

> <Gold.PLP.ligand.torsion>
0.3501

> <Gold.PLP.Chemscore.Hbond>
2.8480

> <Gold.PLP.Chemscore.CHOScore>
0.0000

> <Gold.PLP.Chemscore.Metal>
0.0000

> <Gold.Chemscore.Hbonds>
donor molecule, donor type, donor heavy atom, donor atom, acceptor molecule, acceptor atom, score
      L1  H     3    18       P1  8028  0.85
      L1  H     9    20       P1  8028  1.00
      P1  H  7989  7998       L1    17  1.00

> <Gold.PLP.Chemscore.Internal.Correction>
0.0274

> <Gold.Rescore>
     Score         DG    S(hbond)    S(metal)    S(lipo)     H(rot)  DE(clash)    DE(int)     intcor
     17.49     -18.05       2.84        0.00      48.40       1.00       0.01       0.56       ----

> <Gold.Chemscore.Fitness>
17.4882

> <Gold.Chemscore.DG>
-18.0543

> <Gold.Chemscore.ZeroCoef>
-5.4800

> <Gold.Chemscore.Hbond>
2.8359

> <Gold.Chemscore.Metal>
0.0000

> <Gold.Chemscore.Lipo>
48.3958

> <Gold.Chemscore.Internal_Hbond>
0.0000

> <Gold.Chemscore.DEClash>
0.0095

> <Gold.Chemscore.DEInternal>
0.5566

> <Gold.Chemscore.Rot>
1.0000

> <Gold.Chemscore.Internal.Correction>
   9.000000E+99

> <Gold.Chemscore.Hbonds>
donor molecule, donor type, donor heavy atom, donor atom, acceptor molecule, acceptor atom, score
      L1  H     3    18       P1  8028  0.75
      L1  H     9    20       P1  8028  0.97
      P1  H  7989  7998       L1    17  0.74

> <Gold.Chemscore.Hbond.Weighted>
-9.4720

> <Gold.Chemscore.Metal.Weighted>
-0.0000

> <Gold.Chemscore.Lipo.Weighted>
-5.6623

> <Gold.Chemscore.Internal_Hbond.Weighted>
0.0000

> <Gold.Chemscore.DEClash.Weighted>
0.0095

> <Gold.Chemscore.DEInternal.Weighted>
0.5566

> <Gold.Chemscore.Rot.Weighted>
2.5600

> <Gold.Chemscore.Internal.Correction.Weighted>
   9.000000E+99

> <Gold.Protein.RotatedTorsions>
[ 6907 6896 6895 6894 ] final  -26.66 input  -60.11 | X-H torsion
[ 7974 7965 7964 7962 ] final -100.23 input  175.53 | X-H torsion
[ 8008 7997 7996 7995 ] final  110.83 input   59.86 | X-H torsion
[ 10167 10162 10161 10158 ] final  119.54 input  -65.29 | X-H torsion
[ 10718 10713 10712 10709 ] final   43.66 input   66.30 | X-H torsion
[ 10763 10752 10751 10750 ] final -172.93 input  -60.55 | X-H torsion
[ 11005 11000 10999 10996 ] final -160.96 input  -57.11 | X-H torsion

> <Gold.Protein.ActiveResidues>
 VAL166  LYS551  ARG553  GLY616  TRP617  ASP618  TYR619  PRO620  LYS621  CYS622 
 ASP623  PHE694  ASN695  SER759  ASP760  ASP761  ALA762  ILE779  LEU786  VAL792 
 PHE793  MET794  SER795  GLU796  ALA797  LYS798  CYS799  TRP800  GLU811  SER814 

> <Gold.Protein.RotatedAtoms>
  151.1579  135.0259  159.8696 H   0  0  0  0  0  0  0  0  0  0  0  0  # atno 6907 bound_to 6896
  152.5452  134.1313  159.8450 H   0  0  0  0  0  0  0  0  0  0  0  0  # atno 6908 bound_to 6896
  151.1405  133.4928  159.2629 H   0  0  0  0  0  0  0  0  0  0  0  0  # atno 6909 bound_to 6896
  145.2973  140.9368  143.2844 H   0  0  0  0  0  0  0  0  0  0  0  0  # atno 7974 bound_to 7965
  156.2081  140.3031  155.9672 H   0  0  0  0  0  0  0  0  0  0  0  0  # atno 8008 bound_to 7997
  155.2791  140.0437  157.3031 H   0  0  0  0  0  0  0  0  0  0  0  0  # atno 8009 bound_to 7997
  154.5661  140.2334  155.8270 H   0  0  0  0  0  0  0  0  0  0  0  0  # atno 8010 bound_to 7997
  139.6039  144.7064  151.2998 H   0  0  0  0  0  0  0  0  0  0  0  0  # atno 10167 bound_to 10162
  157.4184  130.7954  149.7492 H   0  0  0  0  0  0  0  0  0  0  0  0  # atno 10718 bound_to 10713
  154.6136  135.2867  155.0404 H   0  0  0  0  0  0  0  0  0  0  0  0  # atno 10763 bound_to 10752
  154.1625  135.6486  153.4993 H   0  0  0  0  0  0  0  0  0  0  0  0  # atno 10764 bound_to 10752
  153.0205  135.5381  154.6900 H   0  0  0  0  0  0  0  0  0  0  0  0  # atno 10765 bound_to 10752
  140.6257  134.4704  157.5226 H   0  0  0  0  0  0  0  0  0  0  0  0  # atno 11005 bound_to 11000
  144.9123  139.4513  143.6581 LP  0  0  0  0  0  0  0  0  0  0  0  0  # atno 17320 bound_to 7965
  146.3164  139.7937  142.8980 LP  0  0  0  0  0  0  0  0  0  0  0  0  # atno 17321 bound_to 7965
  140.7270  143.6974  150.7872 LP  0  0  0  0  0  0  0  0  0  0  0  0  # atno 17342 bound_to 10162
  140.0556  143.5206  152.2653 LP  0  0  0  0  0  0  0  0  0  0  0  0  # atno 17343 bound_to 10162
  155.9872  130.3968  150.3174 LP  0  0  0  0  0  0  0  0  0  0  0  0  # atno 17370 bound_to 10713
  157.1320  131.0274  151.2965 LP  0  0  0  0  0  0  0  0  0  0  0  0  # atno 17371 bound_to 10713
  139.9136  134.8293  156.1443 LP  0  0  0  0  0  0  0  0  0  0  0  0  # atno 17394 bound_to 11000
  141.0711  133.6796  156.2143 LP  0  0  0  0  0  0  0  0  0  0  0  0  # atno 17395 bound_to 11000

$$$$
