#       Name:                AV-unprocessed.smi:167
#       Creating user name   scv26
#       Creation time:       Thu Mar 26 19:13:28 2020


#       File generated by GOLD software.
#

@<TRIPOS>MOLECULE
AV-unprocessed.smi:167
    61    65     1
SMALL
NO_CHARGES


@<TRIPOS>ATOM
      1 ****        -5.1237  -3.0353   1.5607 O.3            1 S1                 0.0000
      2 ****        -5.6458  -1.7245   1.6001 C.3            1 S1                 0.0000
      3 ****        -4.8030  -0.7871   0.7150 C.3            1 S1                 0.0000
      4 ****        -5.2756   0.6777   0.6961 C.3            1 S1                 0.0000
      5 ****        -3.9602   1.4248   0.9775 C.3            1 S1                 0.0000
      6 ****        -3.6296   1.2927   2.4793 C.3            1 S1                 0.0000
      7 ****        -3.1288  -0.1577   2.5477 C.3            1 S1                 0.0000
      8 ****        -3.3106  -0.6115   1.0825 C.3            1 S1                 0.0000
      9 ****        -2.9696   0.5811   0.3204 N.3            1 S1                 0.0000
     10 ****        -1.6746   0.9884   0.2082 C.ar           1 S1                 0.0000
     11 ****        -1.3963   2.3171   0.2918 N.ar           1 S1                 0.0000
     12 ****        -0.1394   2.7568   0.1899 C.ar           1 S1                 0.0000
     13 ****         0.9758   2.0532  -0.0075 N.ar           1 S1                 0.0000
     14 ****         0.7061   0.7211  -0.1161 C.ar           1 S1                 0.0000
     15 ****        -0.5766   0.1072  -0.0197 C.ar           1 S1                 0.0000
     16 ****        -0.4456  -1.2676  -0.1812 N.2            1 S1                 0.0000
     17 ****         0.8351  -1.4559  -0.3434 C.2            1 S1                 0.0000
     18 ****         1.5986  -0.3113  -0.3444 N.pl3          1 S1                 0.0000
     19 ****         3.0243  -0.2225  -0.4678 C.3            1 S1                 0.0000
     20 ****         3.6672   0.7685  -1.4424 C.3            1 S1                 0.0000
     21 ****         4.8336  -0.2229  -1.6618 C.3            1 S1                 0.0000
     22 ****         5.3769  -0.3724  -3.0969 C.3            1 S1                 0.0000
     23 ****         4.3525  -0.5973  -4.0447 O.3            1 S1                 0.0000
     24 ****         6.0475  -0.0292  -0.7333 C.3            1 S1                 0.0000
     25 ****         6.6912   1.2065  -0.9710 O.3            1 S1                 0.0000
     26 ****         3.8386  -1.3058  -1.1837 C.3            1 S1                 0.0000
     27 ****        -5.6702  -3.5929   2.0932 H              1 S1                 0.0000
     28 ****        -6.6722  -1.7534   1.2336 H              1 S1                 0.0000
     29 ****        -5.6961  -1.3795   2.6320 H              1 S1                 0.0000
     30 ****        -4.8494  -1.1665  -0.3076 H              1 S1                 0.0000
     31 ****        -5.6725   0.9381  -0.2859 H              1 S1                 0.0000
     32 ****        -6.0452   0.8956   1.4377 H              1 S1                 0.0000
     33 ****        -3.9889   2.4582   0.6302 H              1 S1                 0.0000
     34 ****        -2.8421   1.9859   2.7769 H              1 S1                 0.0000
     35 ****        -4.4951   1.4723   3.1179 H              1 S1                 0.0000
     36 ****        -2.0739  -0.1801   2.8252 H              1 S1                 0.0000
     37 ****        -3.6660  -0.7682   3.2716 H              1 S1                 0.0000
     38 ****        -2.7331  -1.5012   0.8392 H              1 S1                 0.0000
     39 ****        -0.0093   3.8252   0.2771 H              1 S1                 0.0000
     40 ****         1.2562  -2.4421  -0.4745 H              1 S1                 0.0000
     41 ****         3.4014  -0.0644   0.5439 H              1 S1                 0.0000
     42 ****         3.0544   0.9279  -2.3312 H              1 S1                 0.0000
     43 ****         3.9467   1.7210  -0.9913 H              1 S1                 0.0000
     44 ****         5.9184   0.5214  -3.4080 H              1 S1                 0.0000
     45 ****         6.0797  -1.2039  -3.1603 H              1 S1                 0.0000
     46 ****         4.7457  -0.6661  -4.9013 H              1 S1                 0.0000
     47 ****         5.7531  -0.0538   0.3160 H              1 S1                 0.0000
     48 ****         6.7731  -0.8327  -0.8636 H              1 S1                 0.0000
     49 ****         6.0727   1.9029  -0.8103 H              1 S1                 0.0000
     50 ****         4.2661  -2.0584  -0.5204 H              1 S1                 0.0000
     51 ****         3.2804  -1.7773  -1.9940 H              1 S1                 0.0000
     52 ****        -4.1900  -3.0372   1.9188 LP             1 S1                 0.0000
     53 ****        -5.1198  -3.3684   0.6178 LP             1 S1                 0.0000
     54 ****        -3.0109   0.5156  -0.6766 LP             1 S1                 0.0000
     55 ****        -2.1400   2.9710   0.4309 LP             1 S1                 0.0000
     56 ****         1.8913   2.4509  -0.0681 LP             1 S1                 0.0000
     57 ****        -1.1701  -1.9569  -0.1746 LP             1 S1                 0.0000
     58 ****         3.7065   0.1659  -4.0305 LP             1 S1                 0.0000
     59 ****         3.8708  -1.4459  -3.8257 LP             1 S1                 0.0000
     60 ****         7.0049   1.2463  -1.9197 LP             1 S1                 0.0000
     61 ****         7.4743   1.3025  -0.3566 LP             1 S1                 0.0000
@<TRIPOS>BOND
    1    1    2 1     
    2    1   27 1     
    3    2    3 1     
    4    2   28 1     
    5    2   29 1     
    6    3    8 1     
    7    3    4 1     
    8    3   30 1     
    9    4    5 1     
   10    4   31 1     
   11    4   32 1     
   12    5    9 1     
   13    5    6 1     
   14    5   33 1     
   15    6    7 1     
   16    6   34 1     
   17    6   35 1     
   18    7    8 1     
   19    7   36 1     
   20    7   37 1     
   21    8    9 1     
   22    8   38 1     
   23    9   10 1     
   24   10   15 ar    
   25   10   11 ar    
   26   11   12 ar    
   27   12   13 ar    
   28   12   39 1     
   29   13   14 ar    
   30   14   18 1     
   31   14   15 ar    
   32   15   16 1     
   33   16   17 2     
   34   17   18 1     
   35   17   40 1     
   36   18   19 1     
   37   19   26 1     
   38   19   20 1     
   39   19   41 1     
   40   20   21 1     
   41   20   42 1     
   42   20   43 1     
   43   21   22 1     
   44   21   24 1     
   45   21   26 1     
   46   22   23 1     
   47   22   44 1     
   48   22   45 1     
   49   23   46 1     
   50   24   25 1     
   51   24   47 1     
   52   24   48 1     
   53   25   49 1     
   54   26   50 1     
   55   26   51 1     
   56    1   52 1     
   57    1   53 1     
   58    9   54 1     
   59   11   55 1     
   60   13   56 1     
   61   16   57 1     
   62   23   58 1     
   63   23   59 1     
   64   25   60 1     
   65   25   61 1     
@<TRIPOS>SUBSTRUCTURE
      1 S1             1
@<TRIPOS>SET
LONE_PAIRS      STATIC     ATOMS    <user>   **** ""
10 52 53 54 55 56 57 58 59 60 61
DONOR_HYDROGENS      STATIC     ATOMS    <user>   **** ""
3 27 46 49
ATOM$BLUE        STATIC     ATOMS    COLORGROUP SYSTEM
10 52 53 54 55 56 57 58 59 60 61
ATOM$RED        STATIC     ATOMS    COLORGROUP SYSTEM
3 27 46 49
