AV-unprocessed.smi:2569|AV-procd|sdf|10105|dock1
  -GOLD-   2272014123D 1   1.00000     0.00000
 Structure written by MMmdl.
 40 42  0  0  0  0  0  0  0  0  2 V2000
  152.0282  143.6666  160.3844 C   0  0  0  0  0  0  0  0  0  0  0  0
  151.8552  142.7054  159.2205 C   0  0  0  0  0  0  0  0  0  0  0  0
  150.9348  143.0383  158.2014 C   0  0  0  0  0  0  0  0  0  0  0  0
  150.8019  142.1408  157.1485 C   0  0  0  0  0  0  0  0  0  0  0  0
  149.9970  142.1818  156.0081 N   0  3  0  0  0  0  0  0  0  0  0  0
  150.2135  141.0658  155.2584 C   0  0  0  0  0  0  0  0  0  0  0  0
  151.1470  140.3136  155.9020 N   0  0  0  0  0  0  0  0  0  0  0  0
  151.7264  139.0162  155.5257 C   0  0  0  0  0  0  0  0  0  0  0  0
  150.8067  138.1885  154.6016 C   0  0  1  0  0  0  0  0  0  0  0  0
  151.4807  137.0324  154.1473 O   0  0  0  0  0  0  0  0  0  0  0  0
  149.4957  137.7400  155.2765 C   0  0  0  0  0  0  0  0  0  0  0  0
  149.7031  136.7004  156.2706 N   0  0  0  0  0  0  0  0  0  0  0  0
  150.2369  135.5015  155.9290 N   0  0  0  0  0  0  0  0  0  0  0  0
  150.3064  134.7976  157.0221 N   0  0  0  0  0  0  0  0  0  0  0  0
  149.8211  135.5043  158.1067 N   0  0  0  0  0  0  0  0  0  0  0  0
  149.4590  136.6699  157.5873 C   0  0  0  0  0  0  0  0  0  0  0  0
  148.8652  137.8095  158.3475 C   0  0  0  0  0  0  0  0  0  0  0  0
  151.5430  140.9445  157.0874 C   0  0  0  0  0  0  0  0  0  0  0  0
  152.4535  140.6011  158.0840 C   0  0  0  0  0  0  0  0  0  0  0  0
  152.6052  141.5021  159.1620 C   0  0  0  0  0  0  0  0  0  0  0  0
  153.5939  141.1550  160.2618 C   0  0  0  0  0  0  0  0  0  0  0  0
  151.3929  144.5457  160.2737 H   0  0  0  0  0  0  0  0  0  0  0  0
  153.0610  144.0093  160.4478 H   0  0  0  0  0  0  0  0  0  0  0  0
  151.7649  143.1811  161.3245 H   0  0  0  0  0  0  0  0  0  0  0  0
  150.3610  143.9530  158.2391 H   0  0  0  0  0  0  0  0  0  0  0  0
  149.7304  140.8206  154.3235 H   0  0  0  0  0  0  0  0  0  0  0  0
  152.7038  139.1773  155.0700 H   0  0  0  0  0  0  0  0  0  0  0  0
  151.9104  138.4765  156.4551 H   0  0  0  0  0  0  0  0  0  0  0  0
  150.5651  138.7853  153.7216 H   0  0  0  0  0  0  0  0  0  0  0  0
  151.3110  136.9301  153.2233 H   0  0  0  0  0  0  0  0  0  0  0  0
  149.0105  138.5871  155.7631 H   0  0  0  0  0  0  0  0  0  0  0  0
  148.7923  137.3720  154.5275 H   0  0  0  0  0  0  0  0  0  0  0  0
  148.6192  137.5010  159.3640 H   0  0  0  0  0  0  0  0  0  0  0  0
  147.9523  138.1545  157.8617 H   0  0  0  0  0  0  0  0  0  0  0  0
  149.5737  138.6362  158.3973 H   0  0  0  0  0  0  0  0  0  0  0  0
  153.0291  139.6885  158.0384 H   0  0  0  0  0  0  0  0  0  0  0  0
  154.0772  140.1956  160.0754 H   0  0  0  0  0  0  0  0  0  0  0  0
  153.0885  141.0913  161.2257 H   0  0  0  0  0  0  0  0  0  0  0  0
  154.3745  141.9131  160.3280 H   0  0  0  0  0  0  0  0  0  0  0  0
  149.3457  142.9150  155.7578 H   0  0  0  0  0  0  0  0  0  0  0  0
  1  2  1  0  0  0  0
  1 22  1  0  0  0  0
  1 23  1  0  0  0  0
  1 24  1  0  0  0  0
  2 20  1  0  0  0  0
  2  3  2  0  0  0  0
  3  4  1  0  0  0  0
  3 25  1  0  0  0  0
  4 18  2  0  0  0  0
  4  5  1  0  0  0  0
  5  6  2  0  0  0  0
  5 40  1  0  0  0  0
  6  7  1  0  0  0  0
  6 26  1  0  0  0  0
  7  8  1  0  0  0  0
  7 18  1  0  0  0  0
  8  9  1  0  0  0  0
  8 27  1  0  0  0  0
  8 28  1  0  0  0  0
  9 10  1  0  0  0  0
  9 11  1  0  0  0  0
  9 29  1  0  0  0  0
 10 30  1  0  0  0  0
 11 12  1  0  0  0  0
 11 31  1  0  0  0  0
 11 32  1  0  0  0  0
 12 16  1  0  0  0  0
 12 13  1  0  0  0  0
 13 14  2  0  0  0  0
 14 15  1  0  0  0  0
 15 16  2  0  0  0  0
 16 17  1  0  0  0  0
 17 33  1  0  0  0  0
 17 34  1  0  0  0  0
 17 35  1  0  0  0  0
 18 19  1  0  0  0  0
 19 20  2  0  0  0  0
 19 36  1  0  0  0  0
 20 21  1  0  0  0  0
 21 37  1  0  0  0  0
 21 38  1  0  0  0  0
 21 39  1  0  0  0  0
M  CHG  1   5   1
M  END
> <s_m_source_file>
AV-unprocessed.smi

> <i_m_source_file_index>
2569

> <i_lp_mmshare_version>
43012

> <i_f3d_flags>
0

> <s_epik_input>
W0NIM11jKFtjSF0xKWMoW0NIM10pW2NIXWMoYzEyKW4oW2NIXW4yKVtDSDJdW0NASF0oW09IXSlbQ0gyXW4zbm5uYzNbQ0gzXQ==

> <s_epik_cmdline>
J2VwaWtfcHl0aG9uJywgJy1waCcsICc3LjAnLCAnLXRuJywgJzgnLCAnLW1hJywgJzIwMCcsICctbWV0YWxfYmluZGluZycsICctaW1hZScsICc8aW5maWxlLm1hZT4nLCAnLW9tYWUnLCAnPG91dGZpbGUubWFlPic=

> <r_lp_tautomer_probability>
1

> <r_epik_Ionization_Penalty>
1.13338

> <r_epik_Ionization_Penalty_Charging>
1.13335

> <r_epik_Ionization_Penalty_Neutral>
3.02334e-05

> <r_epik_State_Penalty>
1.19324

> <r_epik_Charging_Adjusted_Penalty>
2.3266

> <i_epik_Tot_Q>
1

> <i_epik_Tot_abs_Q>
1

> <r_epik_Metal_State_Penalty>
1.27602

> <b_epik_Metal_Only>
0

> <s_lp_Force_Field>
OPLS_2005

> <r_lp_Energy>
16.0623

> <b_lp_Chiralities_Consistent>
1

> <s_lp_Variant>
AV-unprocessed.smi:2569-4

> <Gold.Version>
5.8.1

> <Gold.Id.Protein>
6NUR|6NUR_protein|mol2

> <Gold.PLP.Fitness>
53.2495

> <Gold.PLP.PLP>
-39.0955

> <Gold.PLP.part.hbond>
-4.7684

> <Gold.PLP.part.metal>
0.0000

> <Gold.PLP.part.buried>
-4.7726

> <Gold.PLP.part.nonpolar>
-29.4242

> <Gold.PLP.part.repulsive>
0.1664

> <Gold.PLP.ligand.clash>
0.0000

> <Gold.PLP.ligand.torsion>
0.4246

> <Gold.PLP.Chemscore.Hbond>
4.9920

> <Gold.PLP.Chemscore.CHOScore>
0.0000

> <Gold.PLP.Chemscore.Metal>
0.0000

> <Gold.Chemscore.Hbonds>
donor molecule, donor type, donor heavy atom, donor atom, acceptor molecule, acceptor atom, score
      L1  H     5    40       P1  8028  2.00
      L1  H    10    30       P1  7949  1.00
      P1  H  6896  6909       L1    15  1.00
      P1  H 10752 10763       L1    10  0.98

> <Gold.PLP.Chemscore.Internal.Correction>
0.0271

> <Gold.Rescore>
     Score         DG    S(hbond)    S(metal)    S(lipo)     H(rot)  DE(clash)    DE(int)     intcor
     17.62     -19.70       3.04        0.00      91.37       2.59       0.02       2.06       ----

> <Gold.Chemscore.Fitness>
17.6202

> <Gold.Chemscore.DG>
-19.7006

> <Gold.Chemscore.ZeroCoef>
-5.4800

> <Gold.Chemscore.Hbond>
3.0384

> <Gold.Chemscore.Metal>
0.0000

> <Gold.Chemscore.Lipo>
91.3747

> <Gold.Chemscore.Internal_Hbond>
0.0000

> <Gold.Chemscore.DEClash>
0.0222

> <Gold.Chemscore.DEInternal>
2.0582

> <Gold.Chemscore.Rot>
2.5854

> <Gold.Chemscore.Internal.Correction>
   9.000000E+99

> <Gold.Chemscore.Hbonds>
donor molecule, donor type, donor heavy atom, donor atom, acceptor molecule, acceptor atom, score
      L1  H     5    40       P1  8028  0.95
      L1  H    10    30       P1  7949  0.68
      P1  H  6896  6909       L1    15  0.24
      P1  H 10752 10763       L1    10  0.27

> <Gold.Chemscore.Hbond.Weighted>
-10.1484

> <Gold.Chemscore.Metal.Weighted>
-0.0000

> <Gold.Chemscore.Lipo.Weighted>
-10.6908

> <Gold.Chemscore.Internal_Hbond.Weighted>
0.0000

> <Gold.Chemscore.DEClash.Weighted>
0.0222

> <Gold.Chemscore.DEInternal.Weighted>
2.0582

> <Gold.Chemscore.Rot.Weighted>
6.6187

> <Gold.Chemscore.Internal.Correction.Weighted>
   9.000000E+99

> <Gold.Protein.RotatedTorsions>
[ 6907 6896 6895 6894 ] final   50.33 input  -60.11 | X-H torsion
[ 7974 7965 7964 7962 ] final    1.72 input  175.53 | X-H torsion
[ 8008 7997 7996 7995 ] final  140.83 input   59.86 | X-H torsion
[ 10167 10162 10161 10158 ] final  -84.97 input  -65.29 | X-H torsion
[ 10718 10713 10712 10709 ] final  114.53 input   66.30 | X-H torsion
[ 10763 10752 10751 10750 ] final   52.21 input  -60.55 | X-H torsion
[ 11005 11000 10999 10996 ] final  171.26 input  -57.11 | X-H torsion

> <Gold.Protein.ActiveResidues>
 VAL166  LYS551  ARG553  GLY616  TRP617  ASP618  TYR619  PRO620  LYS621  CYS622 
 ASP623  PHE694  ASN695  SER759  ASP760  ASP761  ALA762  ILE779  LEU786  VAL792 
 PHE793  MET794  SER795  GLU796  ALA797  LYS798  CYS799  TRP800  GLU811  SER814 

> <Gold.Protein.RotatedAtoms>
  152.3007  134.7615  160.0358 H   0  0  0  0  0  0  0  0  0  0  0  0  # atno 6907 bound_to 6896
  151.8129  133.3379  159.3569 H   0  0  0  0  0  0  0  0  0  0  0  0  # atno 6908 bound_to 6896
  150.7272  134.5576  159.5870 H   0  0  0  0  0  0  0  0  0  0  0  0  # atno 6909 bound_to 6896
  146.2441  140.0945  142.8350 H   0  0  0  0  0  0  0  0  0  0  0  0  # atno 7974 bound_to 7965
  156.2974  140.2331  156.4466 H   0  0  0  0  0  0  0  0  0  0  0  0  # atno 8008 bound_to 7997
  154.8139  140.0441  157.1383 H   0  0  0  0  0  0  0  0  0  0  0  0  # atno 8009 bound_to 7997
  154.9392  140.3027  155.5132 H   0  0  0  0  0  0  0  0  0  0  0  0  # atno 8010 bound_to 7997
  140.4081  143.2634  151.9053 H   0  0  0  0  0  0  0  0  0  0  0  0  # atno 10167 bound_to 10162
  157.6276  131.1000  150.7198 H   0  0  0  0  0  0  0  0  0  0  0  0  # atno 10718 bound_to 10713
  152.9788  135.5820  154.4541 H   0  0  0  0  0  0  0  0  0  0  0  0  # atno 10763 bound_to 10752
  154.4125  135.2770  155.2029 H   0  0  0  0  0  0  0  0  0  0  0  0  # atno 10764 bound_to 10752
  154.3813  135.6146  153.5846 H   0  0  0  0  0  0  0  0  0  0  0  0  # atno 10765 bound_to 10752
  140.3171  134.7468  157.4036 H   0  0  0  0  0  0  0  0  0  0  0  0  # atno 11005 bound_to 11000
  145.0622  140.9095  143.4932 LP  0  0  0  0  0  0  0  0  0  0  0  0  # atno 17320 bound_to 7965
  145.1063  139.2788  143.5660 LP  0  0  0  0  0  0  0  0  0  0  0  0  # atno 17321 bound_to 7965
  139.4783  144.5565  151.8306 LP  0  0  0  0  0  0  0  0  0  0  0  0  # atno 17342 bound_to 10162
  140.4667  144.1645  150.5912 LP  0  0  0  0  0  0  0  0  0  0  0  0  # atno 17343 bound_to 10162
  156.7544  130.4778  149.5450 LP  0  0  0  0  0  0  0  0  0  0  0  0  # atno 17370 bound_to 10713
  156.1458  130.6276  151.0529 LP  0  0  0  0  0  0  0  0  0  0  0  0  # atno 17371 bound_to 10713
  140.0974  134.5519  155.8385 LP  0  0  0  0  0  0  0  0  0  0  0  0  # atno 17394 bound_to 11000
  141.2095  133.6684  156.6444 LP  0  0  0  0  0  0  0  0  0  0  0  0  # atno 17395 bound_to 11000

$$$$
