AV-unprocessed.smi:903|AV-procd|sdf|4096|dock4
  -GOLD-   22720 1583D 1   1.00000     0.00000
 Structure written by MMmdl.
 28 29  0  0  0  0  0  0  0  0  2 V2000
  152.0789  137.5942  154.3256 O   0  0  0  0  0  0  0  0  0  0  0  0
  152.3140  138.6716  154.9141 C   0  0  0  0  0  0  0  0  0  0  0  0
  153.4877  139.0129  155.1885 O   0  5  0  0  0  0  0  0  0  0  0  0
  151.1826  139.5962  155.3121 C   0  0  0  0  0  0  0  0  0  0  0  0
  151.4942  140.5038  156.2715 N   0  0  0  0  0  0  0  0  0  0  0  0
  150.5594  141.3815  156.7041 C   0  0  0  0  0  0  0  0  0  0  0  0
  150.9017  142.2954  157.6794 O   0  0  0  0  0  0  0  0  0  0  0  0
  152.1874  142.1910  158.2840 C   0  0  0  0  0  0  0  0  0  0  0  0
  152.3399  143.3128  159.3180 C   0  0  1  0  0  0  0  0  0  0  0  0
  152.1965  144.7130  158.7261 C   0  0  0  0  0  0  0  0  0  0  0  0
  151.8133  145.5197  159.9456 C   0  0  0  0  0  0  0  0  0  0  0  0
  150.9076  144.5478  160.6981 C   0  0  0  0  0  0  0  0  0  0  0  0
  151.3046  143.2389  160.2945 O   0  0  0  0  0  0  0  0  0  0  0  0
  149.2496  141.3960  156.1952 C   0  0  0  0  0  0  0  0  0  0  0  0
  148.9087  140.4638  155.2008 C   0  0  0  0  0  0  0  0  0  0  0  0
  149.8747  139.5456  154.7421 C   0  0  0  0  0  0  0  0  0  0  0  0
  149.3788  138.4277  153.5152 Cl  0  0  0  0  0  0  0  0  0  0  0  0
  152.2729  141.2247  158.7840 H   0  0  0  0  0  0  0  0  0  0  0  0
  152.9820  142.2557  157.5386 H   0  0  0  0  0  0  0  0  0  0  0  0
  153.3037  143.2368  159.8243 H   0  0  0  0  0  0  0  0  0  0  0  0
  153.1090  145.0680  158.2468 H   0  0  0  0  0  0  0  0  0  0  0  0
  151.3902  144.7399  157.9915 H   0  0  0  0  0  0  0  0  0  0  0  0
  152.7011  145.7416  160.5393 H   0  0  0  0  0  0  0  0  0  0  0  0
  151.3207  146.4612  159.7019 H   0  0  0  0  0  0  0  0  0  0  0  0
  150.9840  144.6688  161.7789 H   0  0  0  0  0  0  0  0  0  0  0  0
  149.8653  144.6953  160.4140 H   0  0  0  0  0  0  0  0  0  0  0  0
  148.5226  142.1072  156.5583 H   0  0  0  0  0  0  0  0  0  0  0  0
  147.9095  140.4538  154.7910 H   0  0  0  0  0  0  0  0  0  0  0  0
  1  2  2  0  0  0  0
  2  3  1  0  0  0  0
  2  4  1  0  0  0  0
  4 16  1  0  0  0  0
  4  5  2  0  0  0  0
  5  6  1  0  0  0  0
  6  7  1  0  0  0  0
  6 14  2  0  0  0  0
  7  8  1  0  0  0  0
  8  9  1  0  0  0  0
  8 18  1  0  0  0  0
  8 19  1  0  0  0  0
  9 13  1  0  0  0  0
  9 10  1  0  0  0  0
  9 20  1  0  0  0  0
 10 11  1  0  0  0  0
 10 21  1  0  0  0  0
 10 22  1  0  0  0  0
 11 12  1  0  0  0  0
 11 23  1  0  0  0  0
 11 24  1  0  0  0  0
 12 13  1  0  0  0  0
 12 25  1  0  0  0  0
 12 26  1  0  0  0  0
 14 15  1  0  0  0  0
 14 27  1  0  0  0  0
 15 16  2  0  0  0  0
 15 28  1  0  0  0  0
 16 17  1  0  0  0  0
M  CHG  1   3  -1
M  END
> <s_m_source_file>
AV-unprocessed.smi

> <i_m_source_file_index>
903

> <i_lp_mmshare_version>
43012

> <i_f3d_flags>
0

> <s_epik_input>
Tz1DKFtPSF0pYzFuYyhbY0hdW2NIXWMxQ2wpT1tDSDJdW0NAQEhdMltDSDJdW0NIMl1bQ0gyXU8y

> <s_epik_cmdline>
J2VwaWtfcHl0aG9uJywgJy1waCcsICc3LjAnLCAnLXRuJywgJzgnLCAnLW1hJywgJzIwMCcsICctbWV0YWxfYmluZGluZycsICctaW1hZScsICc8aW5maWxlLm1hZT4nLCAnLW9tYWUnLCAnPG91dGZpbGUubWFlPic=

> <r_lp_tautomer_probability>
1

> <r_epik_Ionization_Penalty>
1.22588e-05

> <r_epik_Ionization_Penalty_Charging>
1.01343e-05

> <r_epik_Ionization_Penalty_Neutral>
2.12445e-06

> <r_epik_State_Penalty>
-0

> <r_epik_Charging_Adjusted_Penalty>
1.01343e-05

> <i_epik_Tot_Q>
-1

> <i_epik_Tot_abs_Q>
1

> <r_epik_Metal_State_Penalty>
-0

> <b_epik_Metal_Only>
0

> <s_lp_Force_Field>
OPLS_2005

> <r_lp_Energy>
26.0246

> <b_lp_Chiralities_Consistent>
1

> <s_lp_Variant>
AV-unprocessed.smi:903-2

> <Gold.Version>
5.8.1

> <Gold.Id.Protein>
6NUR|6NUR_protein|mol2

> <Gold.PLP.Fitness>
44.6841

> <Gold.PLP.PLP>
-33.6925

> <Gold.PLP.part.hbond>
-2.4824

> <Gold.PLP.part.metal>
0.0000

> <Gold.PLP.part.buried>
-2.1561

> <Gold.PLP.part.nonpolar>
-30.2457

> <Gold.PLP.part.repulsive>
0.2682

> <Gold.PLP.ligand.clash>
0.0000

> <Gold.PLP.ligand.torsion>
0.1967

> <Gold.PLP.Chemscore.Hbond>
3.7920

> <Gold.PLP.Chemscore.CHOScore>
0.0000

> <Gold.PLP.Chemscore.Metal>
0.0000

> <Gold.Chemscore.Hbonds>
donor molecule, donor type, donor heavy atom, donor atom, acceptor molecule, acceptor atom, score
      P1  H  7997  8009       L1     3  2.00
      P1  H 10752 10763       L1     1  1.25

> <Gold.PLP.Chemscore.Internal.Correction>
0.0089

> <Gold.Rescore>
     Score         DG    S(hbond)    S(metal)    S(lipo)     H(rot)  DE(clash)    DE(int)     intcor
     15.53     -18.09       1.82        0.00      88.85       1.51       1.20       1.36       ----

> <Gold.Chemscore.Fitness>
15.5283

> <Gold.Chemscore.DG>
-18.0923

> <Gold.Chemscore.ZeroCoef>
-5.4800

> <Gold.Chemscore.Hbond>
1.8206

> <Gold.Chemscore.Metal>
0.0000

> <Gold.Chemscore.Lipo>
88.8526

> <Gold.Chemscore.Internal_Hbond>
0.0000

> <Gold.Chemscore.DEClash>
1.1998

> <Gold.Chemscore.DEInternal>
1.3643

> <Gold.Chemscore.Rot>
1.5094

> <Gold.Chemscore.Internal.Correction>
   9.000000E+99

> <Gold.Chemscore.Hbonds>
donor molecule, donor type, donor heavy atom, donor atom, acceptor molecule, acceptor atom, score
      P1  H  7997  8009       L1     3  0.96
      P1  H 10752 10763       L1     1  0.61

> <Gold.Chemscore.Hbond.Weighted>
-6.0807

> <Gold.Chemscore.Metal.Weighted>
-0.0000

> <Gold.Chemscore.Lipo.Weighted>
-10.3958

> <Gold.Chemscore.Internal_Hbond.Weighted>
0.0000

> <Gold.Chemscore.DEClash.Weighted>
1.1998

> <Gold.Chemscore.DEInternal.Weighted>
1.3643

> <Gold.Chemscore.Rot.Weighted>
3.8641

> <Gold.Chemscore.Internal.Correction.Weighted>
   9.000000E+99

> <Gold.Protein.RotatedTorsions>
[ 6907 6896 6895 6894 ] final  -56.23 input  -60.11 | X-H torsion
[ 7974 7965 7964 7962 ] final -133.10 input  175.53 | X-H torsion
[ 8008 7997 7996 7995 ] final -142.46 input   59.86 | X-H torsion
[ 10167 10162 10161 10158 ] final  116.58 input  -65.29 | X-H torsion
[ 10718 10713 10712 10709 ] final    9.60 input   66.30 | X-H torsion
[ 10763 10752 10751 10750 ] final   46.22 input  -60.55 | X-H torsion
[ 11005 11000 10999 10996 ] final   59.44 input  -57.11 | X-H torsion

> <Gold.Protein.ActiveResidues>
 VAL166  LYS551  ARG553  GLY616  TRP617  ASP618  TYR619  PRO620  LYS621  CYS622 
 ASP623  PHE694  ASN695  SER759  ASP760  ASP761  ALA762  ILE779  LEU786  VAL792 
 PHE793  MET794  SER795  GLU796  ALA797  LYS798  CYS799  TRP800  GLU811  SER814 

> <Gold.Protein.RotatedAtoms>
  150.8185  134.7379  159.6750 H   0  0  0  0  0  0  0  0  0  0  0  0  # atno 6907 bound_to 6896
  152.4302  134.5789  159.9952 H   0  0  0  0  0  0  0  0  0  0  0  0  # atno 6908 bound_to 6896
  151.5979  133.3322  159.3077 H   0  0  0  0  0  0  0  0  0  0  0  0  # atno 6909 bound_to 6896
  144.9225  140.7031  143.4957 H   0  0  0  0  0  0  0  0  0  0  0  0  # atno 7974 bound_to 7965
  155.4946  140.0570  157.2948 H   0  0  0  0  0  0  0  0  0  0  0  0  # atno 8008 bound_to 7997
  154.4610  140.1996  156.0196 H   0  0  0  0  0  0  0  0  0  0  0  0  # atno 8009 bound_to 7997
  156.0889  140.3236  155.7795 H   0  0  0  0  0  0  0  0  0  0  0  0  # atno 8010 bound_to 7997
  139.6237  144.7105  151.2579 H   0  0  0  0  0  0  0  0  0  0  0  0  # atno 10167 bound_to 10162
  156.9687  130.5961  149.5667 H   0  0  0  0  0  0  0  0  0  0  0  0  # atno 10718 bound_to 10713
  152.9813  135.6015  154.3564 H   0  0  0  0  0  0  0  0  0  0  0  0  # atno 10763 bound_to 10752
  154.3249  135.2769  155.2503 H   0  0  0  0  0  0  0  0  0  0  0  0  # atno 10764 bound_to 10752
  154.4653  135.5955  153.6339 H   0  0  0  0  0  0  0  0  0  0  0  0  # atno 10765 bound_to 10752
  140.0304  134.6021  155.9515 H   0  0  0  0  0  0  0  0  0  0  0  0  # atno 11005 bound_to 11000
  145.3274  139.1770  143.4555 LP  0  0  0  0  0  0  0  0  0  0  0  0  # atno 17320 bound_to 7965
  146.3211  140.3299  142.8639 LP  0  0  0  0  0  0  0  0  0  0  0  0  # atno 17321 bound_to 7965
  140.7398  143.6607  150.8166 LP  0  0  0  0  0  0  0  0  0  0  0  0  # atno 17342 bound_to 10162
  140.0222  143.5530  152.2795 LP  0  0  0  0  0  0  0  0  0  0  0  0  # atno 17343 bound_to 10162
  156.0291  130.5384  150.8488 LP  0  0  0  0  0  0  0  0  0  0  0  0  # atno 17370 bound_to 10713
  157.5607  131.0946  150.9563 LP  0  0  0  0  0  0  0  0  0  0  0  0  # atno 17371 bound_to 10713
  141.1827  133.6549  156.5088 LP  0  0  0  0  0  0  0  0  0  0  0  0  # atno 17394 bound_to 11000
  140.4236  134.7165  157.4903 LP  0  0  0  0  0  0  0  0  0  0  0  0  # atno 17395 bound_to 11000

$$$$
