AV-unprocessed.smi:2814|AV-procd|sdf|10839|dock1
  -GOLD-   2272015283D 1   1.00000     0.00000
 Structure written by MMmdl.
 37 38  0  0  0  0  0  0  0  0  1 V2000
  151.4275  141.1215  157.3458 C   0  0  0  0  0  0  0  0  0  0  0  0
  151.4686  139.9947  156.3348 C   0  0  0  0  0  0  0  0  0  0  0  0
  150.3426  139.6946  155.5386 C   0  0  0  0  0  0  0  0  0  0  0  0
  150.4355  138.6324  154.6071 C   0  0  0  0  0  0  0  0  0  0  0  0
  149.3707  138.2169  153.7625 N   0  0  0  0  0  0  0  0  0  0  0  0
  148.1382  138.7405  153.6464 C   0  0  0  0  0  0  0  0  0  0  0  0
  147.7215  139.7250  154.2566 O   0  0  0  0  0  0  0  0  0  0  0  0
  147.4057  138.0559  152.7560 N   0  0  0  0  0  0  0  0  0  0  0  0
  146.0229  138.3458  152.3818 C   0  0  0  0  0  0  0  0  0  0  0  0
  145.1295  137.0846  152.3977 C   0  0  0  0  0  0  0  0  0  0  0  0
  143.7767  137.5018  152.4549 O   0  0  0  0  0  0  0  0  0  0  0  0
  145.3210  136.1226  151.2158 C   0  0  0  0  0  0  0  0  0  0  0  0
  144.8164  134.7576  151.7008 C   0  0  0  0  0  0  0  0  0  0  0  0
  144.8439  134.8047  153.2359 C   0  0  0  0  0  0  0  0  0  0  0  0
  145.3873  136.1880  153.6160 C   0  0  0  0  0  0  0  0  0  0  0  0
  151.6450  137.9107  154.5413 C   0  0  0  0  0  0  0  0  0  0  0  0
  152.7102  138.2927  155.3803 C   0  0  0  0  0  0  0  0  0  0  0  0
  152.6327  139.3141  156.2586 N   0  0  0  0  0  0  0  0  0  0  0  0
  150.4511  141.6065  157.3599 H   0  0  0  0  0  0  0  0  0  0  0  0
  152.1782  141.8743  157.1041 H   0  0  0  0  0  0  0  0  0  0  0  0
  151.6320  140.7406  158.3468 H   0  0  0  0  0  0  0  0  0  0  0  0
  149.4362  140.2668  155.6626 H   0  0  0  0  0  0  0  0  0  0  0  0
  149.5909  137.4602  153.1319 H   0  0  0  0  0  0  0  0  0  0  0  0
  147.8323  137.2598  152.3051 H   0  0  0  0  0  0  0  0  0  0  0  0
  145.6106  139.1045  153.0492 H   0  0  0  0  0  0  0  0  0  0  0  0
  146.0214  138.7948  151.3879 H   0  0  0  0  0  0  0  0  0  0  0  0
  143.7552  138.4464  152.4348 H   0  0  0  0  0  0  0  0  0  0  0  0
  144.8201  136.4557  150.3058 H   0  0  0  0  0  0  0  0  0  0  0  0
  146.3841  136.0378  150.9867 H   0  0  0  0  0  0  0  0  0  0  0  0
  143.7962  134.5884  151.3545 H   0  0  0  0  0  0  0  0  0  0  0  0
  145.4315  133.9472  151.3081 H   0  0  0  0  0  0  0  0  0  0  0  0
  143.8328  134.6791  153.6252 H   0  0  0  0  0  0  0  0  0  0  0  0
  145.4557  134.0068  153.6581 H   0  0  0  0  0  0  0  0  0  0  0  0
  146.4615  136.1048  153.7876 H   0  0  0  0  0  0  0  0  0  0  0  0
  144.9459  136.5752  154.5356 H   0  0  0  0  0  0  0  0  0  0  0  0
  151.7615  137.0828  153.8572 H   0  0  0  0  0  0  0  0  0  0  0  0
  153.6500  137.7623  155.3453 H   0  0  0  0  0  0  0  0  0  0  0  0
  1  2  1  0  0  0  0
  1 19  1  0  0  0  0
  1 20  1  0  0  0  0
  1 21  1  0  0  0  0
  2 18  1  0  0  0  0
  2  3  2  0  0  0  0
  3  4  1  0  0  0  0
  3 22  1  0  0  0  0
  4  5  1  0  0  0  0
  4 16  2  0  0  0  0
  5  6  1  0  0  0  0
  5 23  1  0  0  0  0
  6  7  2  0  0  0  0
  6  8  1  0  0  0  0
  8  9  1  0  0  0  0
  8 24  1  0  0  0  0
  9 10  1  0  0  0  0
  9 25  1  0  0  0  0
  9 26  1  0  0  0  0
 10 15  1  0  0  0  0
 10 11  1  0  0  0  0
 10 12  1  0  0  0  0
 11 27  1  0  0  0  0
 12 13  1  0  0  0  0
 12 28  1  0  0  0  0
 12 29  1  0  0  0  0
 13 14  1  0  0  0  0
 13 30  1  0  0  0  0
 13 31  1  0  0  0  0
 14 15  1  0  0  0  0
 14 32  1  0  0  0  0
 14 33  1  0  0  0  0
 15 34  1  0  0  0  0
 15 35  1  0  0  0  0
 16 17  1  0  0  0  0
 16 36  1  0  0  0  0
 17 18  2  0  0  0  0
 17 37  1  0  0  0  0
M  END
> <s_m_source_file>
AV-unprocessed.smi

> <i_m_source_file_index>
2814

> <i_lp_mmshare_version>
43012

> <i_f3d_flags>
0

> <s_epik_input>
W0NIM11jMVtjSF1jKFtjSF1bY0hdbjEpW05IXUMoPU8pW05IXVtDSDJdQzIoW09IXSlbQ0gyXVtDSDJdW0NIMl1bQ0gyXTI=

> <s_epik_cmdline>
J2VwaWtfcHl0aG9uJywgJy1waCcsICc3LjAnLCAnLXRuJywgJzgnLCAnLW1hJywgJzIwMCcsICctbWV0YWxfYmluZGluZycsICctaW1hZScsICc8aW5maWxlLm1hZT4nLCAnLW9tYWUnLCAnPG91dGZpbGUubWFlPic=

> <r_epik_Ionization_Penalty>
0.405099

> <r_epik_Ionization_Penalty_Charging>
0

> <r_epik_Ionization_Penalty_Neutral>
0.405099

> <r_epik_State_Penalty>
0.404681

> <r_epik_Charging_Adjusted_Penalty>
0.404681

> <i_epik_Tot_Q>
0

> <i_epik_Tot_abs_Q>
0

> <r_epik_Metal_State_Penalty>
0.238286

> <b_epik_Metal_Only>
0

> <s_lp_Force_Field>
OPLS_2005

> <r_lp_Energy>
28.9703

> <b_lp_Chiralities_Consistent>
1

> <s_lp_Variant>
AV-unprocessed.smi:2814-1

> <Gold.Version>
5.8.1

> <Gold.Id.Protein>
6NUR|6NUR_protein|mol2

> <Gold.PLP.Fitness>
44.0064

> <Gold.PLP.PLP>
-32.7091

> <Gold.PLP.part.hbond>
-6.3490

> <Gold.PLP.part.metal>
0.0000

> <Gold.PLP.part.buried>
-0.2515

> <Gold.PLP.part.nonpolar>
-26.2490

> <Gold.PLP.part.repulsive>
0.2824

> <Gold.PLP.ligand.clash>
0.0000

> <Gold.PLP.ligand.torsion>
0.2804

> <Gold.PLP.Chemscore.Hbond>
3.9513

> <Gold.PLP.Chemscore.CHOScore>
0.0000

> <Gold.PLP.Chemscore.Metal>
0.0000

> <Gold.Chemscore.Hbonds>
donor molecule, donor type, donor heavy atom, donor atom, acceptor molecule, acceptor atom, score
      L1  H     5    23       P1  7948  0.98
      L1  H     8    24       P1  7948  1.00
      L1  H    11    27       P1 10175  1.00
      P1  H  7997  8008       L1    18  1.00

> <Gold.PLP.Chemscore.Internal.Correction>
0.0043

> <Gold.Rescore>
     Score         DG    S(hbond)    S(metal)    S(lipo)     H(rot)  DE(clash)    DE(int)     intcor
     19.38     -21.33       3.60        0.00      70.19       1.71       0.40       1.55       ----

> <Gold.Chemscore.Fitness>
19.3819

> <Gold.Chemscore.DG>
-21.3314

> <Gold.Chemscore.ZeroCoef>
-5.4800

> <Gold.Chemscore.Hbond>
3.5982

> <Gold.Chemscore.Metal>
0.0000

> <Gold.Chemscore.Lipo>
70.1888

> <Gold.Chemscore.Internal_Hbond>
0.0000

> <Gold.Chemscore.DEClash>
0.4034

> <Gold.Chemscore.DEInternal>
1.5462

> <Gold.Chemscore.Rot>
1.7103

> <Gold.Chemscore.Internal.Correction>
   9.000000E+99

> <Gold.Chemscore.Hbonds>
donor molecule, donor type, donor heavy atom, donor atom, acceptor molecule, acceptor atom, score
      L1  H     5    23       P1  7948  0.73
      L1  H     8    24       P1  7948  0.96
      L1  H    11    27       P1 10175  0.97
      P1  H  7997  8008       L1    18  0.74

> <Gold.Chemscore.Hbond.Weighted>
-12.0179

> <Gold.Chemscore.Metal.Weighted>
-0.0000

> <Gold.Chemscore.Lipo.Weighted>
-8.2121

> <Gold.Chemscore.Internal_Hbond.Weighted>
0.0000

> <Gold.Chemscore.DEClash.Weighted>
0.4034

> <Gold.Chemscore.DEInternal.Weighted>
1.5462

> <Gold.Chemscore.Rot.Weighted>
4.3785

> <Gold.Chemscore.Internal.Correction.Weighted>
   9.000000E+99

> <Gold.Protein.RotatedTorsions>
[ 6907 6896 6895 6894 ] final  102.80 input  -60.11 | X-H torsion
[ 7974 7965 7964 7962 ] final   98.06 input  175.53 | X-H torsion
[ 8008 7997 7996 7995 ] final  -51.41 input   59.86 | X-H torsion
[ 10167 10162 10161 10158 ] final   85.75 input  -65.29 | X-H torsion
[ 10718 10713 10712 10709 ] final -145.20 input   66.30 | X-H torsion
[ 10763 10752 10751 10750 ] final -100.88 input  -60.55 | X-H torsion
[ 11005 11000 10999 10996 ] final   74.46 input  -57.11 | X-H torsion

> <Gold.Protein.ActiveResidues>
 VAL166  LYS551  ARG553  GLY616  TRP617  ASP618  TYR619  PRO620  LYS621  CYS622 
 ASP623  PHE694  ASN695  SER759  ASP760  ASP761  ALA762  ILE779  LEU786  VAL792 
 PHE793  MET794  SER795  GLU796  ALA797  LYS798  CYS799  TRP800  GLU811  SER814 

> <Gold.Protein.RotatedAtoms>
  152.5313  133.9921  159.7855 H   0  0  0  0  0  0  0  0  0  0  0  0  # atno 6907 bound_to 6896
  151.0155  133.5917  159.2684 H   0  0  0  0  0  0  0  0  0  0  0  0  # atno 6908 bound_to 6896
  151.2976  135.0766  159.9280 H   0  0  0  0  0  0  0  0  0  0  0  0  # atno 6909 bound_to 6896
  145.4172  139.2326  143.3216 H   0  0  0  0  0  0  0  0  0  0  0  0  # atno 7974 bound_to 7965
  154.4082  140.1248  156.4824 H   0  0  0  0  0  0  0  0  0  0  0  0  # atno 8008 bound_to 7997
  155.7072  140.3494  155.4938 H   0  0  0  0  0  0  0  0  0  0  0  0  # atno 8009 bound_to 7997
  155.9333  140.1073  157.1105 H   0  0  0  0  0  0  0  0  0  0  0  0  # atno 8010 bound_to 7997
  139.8946  144.6365  150.8702 H   0  0  0  0  0  0  0  0  0  0  0  0  # atno 10167 bound_to 10162
  156.3796  130.7830  151.2020 H   0  0  0  0  0  0  0  0  0  0  0  0  # atno 10718 bound_to 10713
  154.7614  135.4919  153.9471 H   0  0  0  0  0  0  0  0  0  0  0  0  # atno 10763 bound_to 10752
  153.1255  135.6741  153.9271 H   0  0  0  0  0  0  0  0  0  0  0  0  # atno 10764 bound_to 10752
  153.8990  135.3112  155.3427 H   0  0  0  0  0  0  0  0  0  0  0  0  # atno 10765 bound_to 10752
  139.9390  134.7435  156.1150 H   0  0  0  0  0  0  0  0  0  0  0  0  # atno 11005 bound_to 11000
  146.2675  140.4891  142.8828 LP  0  0  0  0  0  0  0  0  0  0  0  0  # atno 17320 bound_to 7965
  144.8269  140.6644  143.6316 LP  0  0  0  0  0  0  0  0  0  0  0  0  # atno 17321 bound_to 7965
  140.7719  143.3483  151.2065 LP  0  0  0  0  0  0  0  0  0  0  0  0  # atno 17342 bound_to 10162
  139.7079  143.9424  152.2935 LP  0  0  0  0  0  0  0  0  0  0  0  0  # atno 17343 bound_to 10162
  157.7491  131.0348  150.4334 LP  0  0  0  0  0  0  0  0  0  0  0  0  # atno 17370 bound_to 10713
  156.4575  130.4025  149.6597 LP  0  0  0  0  0  0  0  0  0  0  0  0  # atno 17371 bound_to 10713
  141.1016  133.6675  156.2768 LP  0  0  0  0  0  0  0  0  0  0  0  0  # atno 17394 bound_to 11000
  140.6001  134.5564  157.5516 LP  0  0  0  0  0  0  0  0  0  0  0  0  # atno 17395 bound_to 11000

$$$$
