#       Name:                AV-unprocessed.smi:1032
#       Creating user name   scv26
#       Creation time:       Fri Mar 27 02:46:27 2020


#       File generated by GOLD software.
#

@<TRIPOS>MOLECULE
AV-unprocessed.smi:1032
    51    52     1
SMALL
NO_CHARGES


@<TRIPOS>ATOM
      1 ****        -4.7354   2.7181   1.3777 C.3            1 S1                 0.0000
      2 ****        -3.9027   3.1004   0.1415 C.3            1 S1                 0.0000
      3 ****        -4.2839   2.2876  -1.1092 C.3            1 S1                 0.0000
      4 ****        -3.7605   0.8415  -1.0474 C.3            1 S1                 0.0000
      5 ****        -2.2908   0.8101  -0.8337 N.4            1 S1                 1.0000
      6 ****        -1.7396  -0.5672  -0.9222 C.3            1 S1                 0.0000
      7 ****        -0.2409  -0.5894  -1.2878 C.3            1 S1                 0.0000
      8 ****        -0.1053  -0.0524  -2.5898 O.3            1 S1                 0.0000
      9 ****         0.3188  -2.0268  -1.3024 C.3            1 S1                 0.0000
     10 ****         1.7706  -2.0480  -1.1531 N.am           1 S1                 0.0000
     11 ****         2.4230  -1.9333   0.0130 C.2            1 S1                 0.0000
     12 ****         1.8525  -1.7751   1.0924 O.2            1 S1                 0.0000
     13 ****         3.7545  -1.9886  -0.1639 N.am           1 S1                 0.0000
     14 ****         4.7802  -1.9717   0.8205 C.ar           1 S1                 0.0000
     15 ****         6.0807  -1.6106   0.4112 C.ar           1 S1                 0.0000
     16 ****         7.1177  -1.6097   1.3654 C.ar           1 S1                 0.0000
     17 ****         6.9353  -1.9473   2.6593 N.ar           1 S1                 0.0000
     18 ****         5.6930  -2.3064   3.0462 C.ar           1 S1                 0.0000
     19 ****         4.5867  -2.3401   2.1737 C.ar           1 S1                 0.0000
     20 ****        -1.9066   1.5244   0.4132 C.3            1 S1                 0.0000
     21 ****        -2.3868   2.9867   0.3852 C.3            1 S1                 0.0000
     22 ****        -4.5837   1.6801   1.6725 H              1 S1                 0.0000
     23 ****        -5.8005   2.8536   1.1873 H              1 S1                 0.0000
     24 ****        -4.4753   3.3441   2.2317 H              1 S1                 0.0000
     25 ****        -4.1247   4.1478  -0.0669 H              1 S1                 0.0000
     26 ****        -5.3658   2.2899  -1.2460 H              1 S1                 0.0000
     27 ****        -3.8676   2.7750  -1.9918 H              1 S1                 0.0000
     28 ****        -4.2590   0.2852  -0.2523 H              1 S1                 0.0000
     29 ****        -4.0065   0.3385  -1.9835 H              1 S1                 0.0000
     30 ****        -1.9104  -1.0785   0.0266 H              1 S1                 0.0000
     31 ****        -2.2867  -1.1372  -1.6751 H              1 S1                 0.0000
     32 ****         0.3267   0.0226  -0.5878 H              1 S1                 0.0000
     33 ****        -0.5321  -0.6310  -3.2036 H              1 S1                 0.0000
     34 ****        -0.1172  -2.6065  -0.4866 H              1 S1                 0.0000
     35 ****         0.0394  -2.5489  -2.2184 H              1 S1                 0.0000
     36 ****         2.3147  -2.1654  -1.9956 H              1 S1                 0.0000
     37 ****         4.0755  -2.0160  -1.1206 H              1 S1                 0.0000
     38 ****         6.2852  -1.3338  -0.6128 H              1 S1                 0.0000
     39 ****         8.1217  -1.3328   1.0801 H              1 S1                 0.0000
     40 ****         5.5776  -2.5832   4.0835 H              1 S1                 0.0000
     41 ****         3.6281  -2.6581   2.5531 H              1 S1                 0.0000
     42 ****        -2.3196   1.0033   1.2779 H              1 S1                 0.0000
     43 ****        -0.8247   1.5193   0.5373 H              1 S1                 0.0000
     44 ****        -1.8572   3.5158  -0.4083 H              1 S1                 0.0000
     45 ****        -2.1150   3.4885   1.3145 H              1 S1                 0.0000
     46 ****        -1.8845   1.3235  -1.6033 H              1 S1                 0.0000
     47 ****         0.8643   0.0273  -2.8213 LP             1 S1                 0.0000
     48 ****        -0.5322   0.8512  -2.6270 LP             1 S1                 0.0000
     49 ****         0.8543  -1.7265   1.1279 LP             1 S1                 0.0000
     50 ****         2.3873  -1.6952   1.9336 LP             1 S1                 0.0000
     51 ****         7.6949  -1.9319   3.3095 LP             1 S1                 0.0000
@<TRIPOS>BOND
    1    1    2 1     
    2    1   22 1     
    3    1   23 1     
    4    1   24 1     
    5    2   21 1     
    6    2    3 1     
    7    2   25 1     
    8    3    4 1     
    9    3   26 1     
   10    3   27 1     
   11    4    5 1     
   12    4   28 1     
   13    4   29 1     
   14    5    6 1     
   15    5   20 1     
   16    5   46 1     
   17    6    7 1     
   18    6   30 1     
   19    6   31 1     
   20    7    8 1     
   21    7    9 1     
   22    7   32 1     
   23    8   33 1     
   24    9   10 1     
   25    9   34 1     
   26    9   35 1     
   27   10   11 am    
   28   10   36 1     
   29   11   12 2     
   30   11   13 am    
   31   13   14 1     
   32   13   37 1     
   33   14   19 ar    
   34   14   15 ar    
   35   15   16 ar    
   36   15   38 1     
   37   16   17 ar    
   38   16   39 1     
   39   17   18 ar    
   40   18   19 ar    
   41   18   40 1     
   42   19   41 1     
   43   20   21 1     
   44   20   42 1     
   45   20   43 1     
   46   21   44 1     
   47   21   45 1     
   48    8   47 1     
   49    8   48 1     
   50   12   49 1     
   51   12   50 1     
   52   17   51 1     
@<TRIPOS>SUBSTRUCTURE
      1 S1             1
@<TRIPOS>SET
LONE_PAIRS      STATIC     ATOMS    <user>   **** ""
5 47 48 49 50 51
DONOR_HYDROGENS      STATIC     ATOMS    <user>   **** ""
4 46 33 36 37
ATOM$BLUE        STATIC     ATOMS    COLORGROUP SYSTEM
5 47 48 49 50 51
ATOM$RED        STATIC     ATOMS    COLORGROUP SYSTEM
4 46 33 36 37
