#       Name:                AV-unprocessed.smi:1352
#       Creating user name   scv26
#       Creation time:       Fri Mar 27 05:11:55 2020


#       File generated by GOLD software.
#

@<TRIPOS>MOLECULE
AV-unprocessed.smi:1352
    51    52     1
SMALL
NO_CHARGES


@<TRIPOS>ATOM
      1 ****         0.6021   3.0790   4.3014 C.3            1 S1                 0.0000
      2 ****        -0.1401   2.2103   3.2760 C.3            1 S1                 0.0000
      3 ****        -1.6303   2.0716   3.6347 C.3            1 S1                 0.0000
      4 ****        -2.3787   1.2416   2.5772 C.3            1 S1                 0.0000
      5 ****        -3.8715   1.1213   2.9143 C.3            1 S1                 0.0000
      6 ****        -2.1660   1.8549   1.1773 C.3            1 S1                 0.0000
      7 ****        -0.7251   1.9748   0.8316 N.4            1 S1                 1.0000
      8 ****        -0.0929   0.6792   0.4655 C.3            1 S1                 0.0000
      9 ****         1.1445   0.8641  -0.4336 C.3            1 S1                 0.0000
     10 ****         1.7239  -0.4172  -0.8196 N.am           1 S1                 0.0000
     11 ****         1.2466  -1.2174  -1.7848 C.2            1 S1                 0.0000
     12 ****         0.2366  -0.9519  -2.4381 O.2            1 S1                 0.0000
     13 ****         2.0234  -2.5202  -2.0246 C.3            1 S1                 0.0000
     14 ****         1.7617  -3.1235  -3.3421 N.am           1 S1                 0.0000
     15 ****         0.8232  -4.1736  -3.3925 C.2            1 S1                 0.0000
     16 ****         0.5110  -4.7923  -4.5421 C.2            1 S1                 0.0000
     17 ****         1.1664  -4.3555  -5.7522 C.2            1 S1                 0.0000
     18 ****         2.0629  -3.3496  -5.7159 C.2            1 S1                 0.0000
     19 ****         2.4048  -2.6684  -4.4618 C.2            1 S1                 0.0000
     20 ****         3.2185  -1.7450  -4.4198 O.2            1 S1                 0.0000
     21 ****         0.0190   2.7717   1.8455 C.3            1 S1                 0.0000
     22 ****         0.2046   4.0943   4.3244 H              1 S1                 0.0000
     23 ****         1.6648   3.1430   4.0661 H              1 S1                 0.0000
     24 ****         0.5124   2.6639   5.3057 H              1 S1                 0.0000
     25 ****         0.3106   1.2184   3.3154 H              1 S1                 0.0000
     26 ****        -1.7339   1.6049   4.6152 H              1 S1                 0.0000
     27 ****        -2.0839   3.0608   3.7137 H              1 S1                 0.0000
     28 ****        -1.9648   0.2324   2.5802 H              1 S1                 0.0000
     29 ****        -4.3555   2.0984   2.9299 H              1 S1                 0.0000
     30 ****        -4.0173   0.6625   3.8928 H              1 S1                 0.0000
     31 ****        -4.3915   0.5037   2.1812 H              1 S1                 0.0000
     32 ****        -2.6862   1.2713   0.4166 H              1 S1                 0.0000
     33 ****        -2.6082   2.8517   1.1445 H              1 S1                 0.0000
     34 ****         0.1632   0.1062   1.3563 H              1 S1                 0.0000
     35 ****        -0.8224   0.0782  -0.0784 H              1 S1                 0.0000
     36 ****         0.8877   1.4394  -1.3248 H              1 S1                 0.0000
     37 ****         1.9214   1.4247   0.0846 H              1 S1                 0.0000
     38 ****         2.5568  -0.7105  -0.3292 H              1 S1                 0.0000
     39 ****         3.0922  -2.3315  -1.9065 H              1 S1                 0.0000
     40 ****         1.7675  -3.2187  -1.2268 H              1 S1                 0.0000
     41 ****         0.3735  -4.4364  -2.4460 H              1 S1                 0.0000
     42 ****        -0.2135  -5.5933  -4.5621 H              1 S1                 0.0000
     43 ****         0.9361  -4.8365  -6.6913 H              1 S1                 0.0000
     44 ****         2.5426  -3.0357  -6.6314 H              1 S1                 0.0000
     45 ****        -0.3653   3.7922   1.8143 H              1 S1                 0.0000
     46 ****         1.0729   2.8446   1.5799 H              1 S1                 0.0000
     47 ****        -0.7038   2.5179  -0.0199 H              1 S1                 0.0000
     48 ****        -0.2672  -0.1069  -2.2586 LP             1 S1                 0.0000
     49 ****        -0.0795  -1.5813  -3.1479 LP             1 S1                 0.0000
     50 ****         3.4278  -1.3023  -3.5479 LP             1 S1                 0.0000
     51 ****         3.6699  -1.4379  -5.2576 LP             1 S1                 0.0000
@<TRIPOS>BOND
    1    1    2 1     
    2    1   22 1     
    3    1   23 1     
    4    1   24 1     
    5    2   21 1     
    6    2    3 1     
    7    2   25 1     
    8    3    4 1     
    9    3   26 1     
   10    3   27 1     
   11    4    5 1     
   12    4    6 1     
   13    4   28 1     
   14    5   29 1     
   15    5   30 1     
   16    5   31 1     
   17    6    7 1     
   18    6   32 1     
   19    6   33 1     
   20    7    8 1     
   21    7   21 1     
   22    7   47 1     
   23    8    9 1     
   24    8   34 1     
   25    8   35 1     
   26    9   10 1     
   27    9   36 1     
   28    9   37 1     
   29   10   11 am    
   30   10   38 1     
   31   11   12 2     
   32   11   13 1     
   33   13   14 1     
   34   13   39 1     
   35   13   40 1     
   36   14   19 am    
   37   14   15 1     
   38   15   16 2     
   39   15   41 1     
   40   16   17 1     
   41   16   42 1     
   42   17   18 2     
   43   17   43 1     
   44   18   19 1     
   45   18   44 1     
   46   19   20 2     
   47   21   45 1     
   48   21   46 1     
   49   12   48 1     
   50   12   49 1     
   51   20   50 1     
   52   20   51 1     
@<TRIPOS>SUBSTRUCTURE
      1 S1             1
@<TRIPOS>SET
LONE_PAIRS      STATIC     ATOMS    <user>   **** ""
4 48 49 50 51
DONOR_HYDROGENS      STATIC     ATOMS    <user>   **** ""
2 47 38
ATOM$BLUE        STATIC     ATOMS    COLORGROUP SYSTEM
4 48 49 50 51
ATOM$RED        STATIC     ATOMS    COLORGROUP SYSTEM
2 47 38
