#       Name:                AV-unprocessed.smi:67
#       Creating user name   scv26
#       Creation time:       Thu Mar 26 16:53:32 2020


#       File generated by GOLD software.
#

@<TRIPOS>MOLECULE
AV-unprocessed.smi:67
    53    55     1
SMALL
NO_CHARGES


@<TRIPOS>ATOM
      1 ****        -2.7006   3.2934   0.9017 O.3            1 S1                 0.0000
      2 ****        -2.8914   2.6176  -0.3264 C.3            1 S1                 0.0000
      3 ****        -2.3875   1.1556  -0.1926 C.3            1 S1                 0.0000
      4 ****        -0.9105   0.9862  -0.3052 N.4            1 S1                 1.0000
      5 ****        -0.5472  -0.4028  -0.6936 C.3            1 S1                 0.0000
      6 ****         0.9636  -0.5500  -0.9427 C.3            1 S1                 0.0000
      7 ****         1.7865  -0.1048   0.2812 C.3            1 S1                 0.0000
      8 ****         1.5496  -0.9521   1.4037 O.3            1 S1                 0.0000
      9 ****         2.1653  -2.1846   1.4831 C.ar           1 S1                 0.0000
     10 ****         1.8524  -2.9728   2.6089 C.ar           1 S1                 0.0000
     11 ****         2.4305  -4.2437   2.7825 C.ar           1 S1                 0.0000
     12 ****         3.3354  -4.7421   1.8279 C.ar           1 S1                 0.0000
     13 ****         3.6677  -3.9679   0.6958 C.ar           1 S1                 0.0000
     14 ****         4.6389  -4.4919  -0.3517 C.3            1 S1                 0.0000
     15 ****         5.4967  -3.5329  -0.7012 F              1 S1                 0.0000
     16 ****         5.3379  -5.5335   0.1007 F              1 S1                 0.0000
     17 ****         3.9561  -4.8712  -1.4312 F              1 S1                 0.0000
     18 ****         3.0786  -2.6961   0.5266 C.ar           1 S1                 0.0000
     19 ****         1.3663   1.3174   0.6760 C.3            1 S1                 0.0000
     20 ****        -0.1524   1.4278   0.8963 C.3            1 S1                 0.0000
     21 ****        -2.2626   3.3963  -1.4999 C.3            1 S1                 0.0000
     22 ****        -3.4491   3.9761  -2.2671 C.3            1 S1                 0.0000
     23 ****        -4.5448   3.0572  -2.0118 N.3            1 S1                 0.0000
     24 ****        -4.4066   2.6691  -0.6163 C.3            1 S1                 0.0000
     25 ****        -3.2476   2.8895   1.5584 H              1 S1                 0.0000
     26 ****        -2.7504   0.6957   0.7282 H              1 S1                 0.0000
     27 ****        -2.8442   0.5884  -1.0053 H              1 S1                 0.0000
     28 ****        -0.8687  -1.0946   0.0868 H              1 S1                 0.0000
     29 ****        -1.0804  -0.6839  -1.6026 H              1 S1                 0.0000
     30 ****         1.1911  -1.5809  -1.2120 H              1 S1                 0.0000
     31 ****         1.2457   0.0556  -1.8050 H              1 S1                 0.0000
     32 ****         2.8500  -0.0740   0.0435 H              1 S1                 0.0000
     33 ****         1.1597  -2.5988   3.3487 H              1 S1                 0.0000
     34 ****         2.1790  -4.8372   3.6491 H              1 S1                 0.0000
     35 ****         3.7687  -5.7206   1.9720 H              1 S1                 0.0000
     36 ****         3.3447  -2.1327  -0.3538 H              1 S1                 0.0000
     37 ****         1.8972   1.6259   1.5774 H              1 S1                 0.0000
     38 ****         1.6669   2.0140  -0.1080 H              1 S1                 0.0000
     39 ****        -0.3749   2.4664   1.1300 H              1 S1                 0.0000
     40 ****        -0.4558   0.8350   1.7607 H              1 S1                 0.0000
     41 ****        -1.5631   4.1690  -1.1780 H              1 S1                 0.0000
     42 ****        -1.7188   2.7248  -2.1651 H              1 S1                 0.0000
     43 ****        -3.6962   4.9626  -1.8721 H              1 S1                 0.0000
     44 ****        -3.2468   4.0853  -3.3328 H              1 S1                 0.0000
     45 ****        -4.4144   2.2337  -2.5904 H              1 S1                 0.0000
     46 ****        -4.9107   1.7242  -0.4119 H              1 S1                 0.0000
     47 ****        -4.8904   3.4246   0.0055 H              1 S1                 0.0000
     48 ****        -0.6157   1.5779  -1.0689 H              1 S1                 0.0000
     49 ****        -2.9529   4.2556   0.7990 LP             1 S1                 0.0000
     50 ****        -1.7412   3.2279   1.1763 LP             1 S1                 0.0000
     51 ****         0.5643  -1.1196   1.4354 LP             1 S1                 0.0000
     52 ****         1.8268  -0.4387   2.2159 LP             1 S1                 0.0000
     53 ****        -5.4373   3.4640  -2.2064 LP             1 S1                 0.0000
@<TRIPOS>BOND
    1    1    2 1     
    2    1   25 1     
    3    2   24 1     
    4    2    3 1     
    5    2   21 1     
    6    3    4 1     
    7    3   26 1     
    8    3   27 1     
    9    4   20 1     
   10    4    5 1     
   11    4   48 1     
   12    5    6 1     
   13    5   28 1     
   14    5   29 1     
   15    6    7 1     
   16    6   30 1     
   17    6   31 1     
   18    7    8 1     
   19    7   19 1     
   20    7   32 1     
   21    8    9 1     
   22    9   18 ar    
   23    9   10 ar    
   24   10   11 ar    
   25   10   33 1     
   26   11   12 ar    
   27   11   34 1     
   28   12   13 ar    
   29   12   35 1     
   30   13   14 1     
   31   13   18 ar    
   32   14   15 1     
   33   14   16 1     
   34   14   17 1     
   35   18   36 1     
   36   19   20 1     
   37   19   37 1     
   38   19   38 1     
   39   20   39 1     
   40   20   40 1     
   41   21   22 1     
   42   21   41 1     
   43   21   42 1     
   44   22   23 1     
   45   22   43 1     
   46   22   44 1     
   47   23   24 1     
   48   23   45 1     
   49   24   46 1     
   50   24   47 1     
   51    1   49 1     
   52    1   50 1     
   53    8   51 1     
   54    8   52 1     
   55   23   53 1     
@<TRIPOS>SUBSTRUCTURE
      1 S1             1
@<TRIPOS>SET
LONE_PAIRS      STATIC     ATOMS    <user>   **** ""
5 49 50 51 52 53
DONOR_HYDROGENS      STATIC     ATOMS    <user>   **** ""
3 25 48 45
ATOM$BLUE        STATIC     ATOMS    COLORGROUP SYSTEM
5 49 50 51 52 53
ATOM$RED        STATIC     ATOMS    COLORGROUP SYSTEM
3 25 48 45
