#       Name:                AV-unprocessed.smi:16
#       Creating user name   scv26
#       Creation time:       Thu Mar 26 15:24:11 2020


#       File generated by GOLD software.
#

@<TRIPOS>MOLECULE
AV-unprocessed.smi:16
    70    74     1
SMALL
NO_CHARGES


@<TRIPOS>ATOM
      1 ****        -1.1430  -0.4177  -4.0234 C.3            1 S1                 0.0000
      2 ****        -2.4104  -1.1014  -3.4857 C.3            1 S1                 0.0000
      3 ****        -3.1871  -0.2263  -2.6076 N.3            1 S1                 0.0000
      4 ****        -4.5096  -0.8238  -2.4010 C.3            1 S1                 0.0000
      5 ****        -5.3920   0.0922  -1.5357 C.3            1 S1                 0.0000
      6 ****        -4.7235   0.3394  -0.1812 C.3            1 S1                 0.0000
      7 ****        -5.4997   1.2470   0.5940 O.3            1 S1                 0.0000
      8 ****        -4.9302   1.4526   1.8832 C.3            1 S1                 0.0000
      9 ****        -3.5190   2.0445   1.7325 C.3            1 S1                 0.0000
     10 ****        -2.6923   1.1837   0.8888 N.3            1 S1                 0.0000
     11 ****        -1.3943   1.5631   0.8337 C.ar           1 S1                 0.0000
     12 ****        -1.0672   2.8468   0.5296 N.ar           1 S1                 0.0000
     13 ****         0.2176   3.2069   0.4505 C.ar           1 S1                 0.0000
     14 ****         1.3079   2.4574   0.6289 N.ar           1 S1                 0.0000
     15 ****         0.9810   1.1677   0.9316 C.ar           1 S1                 0.0000
     16 ****        -0.3358   0.6427   1.0532 C.ar           1 S1                 0.0000
     17 ****        -0.2861  -0.7106   1.3592 N.2            1 S1                 0.0000
     18 ****         0.9910  -0.9738   1.4107 C.2            1 S1                 0.0000
     19 ****         1.8253   0.0973   1.1754 N.pl3          1 S1                 0.0000
     20 ****         3.2608   0.0779   1.1521 C.3            1 S1                 0.0000
     21 ****         4.0042  -0.7710   0.1191 C.3            1 S1                 0.0000
     22 ****         5.0786  -1.1340   1.1690 C.3            1 S1                 0.0000
     23 ****         5.4235  -2.6301   1.2263 C.3            1 S1                 0.0000
     24 ****         6.0777  -2.9646   2.4336 O.3            1 S1                 0.0000
     25 ****         6.4125  -0.3616   1.0730 C.3            1 S1                 0.0000
     26 ****         6.2385   1.0358   0.9536 O.3            1 S1                 0.0000
     27 ****         4.0639  -0.6538   2.2313 C.3            1 S1                 0.0000
     28 ****        -3.3155   0.9221  -0.4115 C.3            1 S1                 0.0000
     29 ****        -2.5123  -0.0446  -1.3166 C.3            1 S1                 0.0000
     30 ****        -4.6513  -0.6116   0.3511 H              1 S1                 0.0000
     31 ****        -3.4110   1.8783  -0.9295 H              1 S1                 0.0000
     32 ****        -0.6685  -1.0417  -4.7809 H              1 S1                 0.0000
     33 ****        -0.4019  -0.2455  -3.2435 H              1 S1                 0.0000
     34 ****        -1.3773   0.5410  -4.4871 H              1 S1                 0.0000
     35 ****        -3.0262  -1.3742  -4.3438 H              1 S1                 0.0000
     36 ****        -2.1591  -2.0321  -2.9746 H              1 S1                 0.0000
     37 ****        -4.9964  -0.9798  -3.3645 H              1 S1                 0.0000
     38 ****        -4.4084  -1.8036  -1.9312 H              1 S1                 0.0000
     39 ****        -5.5612   1.0392  -2.0499 H              1 S1                 0.0000
     40 ****        -6.3715  -0.3640  -1.3905 H              1 S1                 0.0000
     41 ****        -5.5658   2.1338   2.4488 H              1 S1                 0.0000
     42 ****        -4.9002   0.5120   2.4356 H              1 S1                 0.0000
     43 ****        -3.5908   3.0400   1.2916 H              1 S1                 0.0000
     44 ****        -3.0559   2.1578   2.7136 H              1 S1                 0.0000
     45 ****         0.3978   4.2433   0.2061 H              1 S1                 0.0000
     46 ****         1.3609  -1.9671   1.6192 H              1 S1                 0.0000
     47 ****         3.5883   1.1164   1.0915 H              1 S1                 0.0000
     48 ****         3.4195  -1.6320  -0.2087 H              1 S1                 0.0000
     49 ****         4.3722  -0.2073  -0.7389 H              1 S1                 0.0000
     50 ****         4.5217  -3.2396   1.1588 H              1 S1                 0.0000
     51 ****         6.0558  -2.9226   0.3874 H              1 S1                 0.0000
     52 ****         6.2533  -3.8932   2.4331 H              1 S1                 0.0000
     53 ****         7.0311  -0.5384   1.9533 H              1 S1                 0.0000
     54 ****         6.9915  -0.6971   0.2120 H              1 S1                 0.0000
     55 ****         7.0906   1.4415   0.9047 H              1 S1                 0.0000
     56 ****         4.4835   0.0009   2.9958 H              1 S1                 0.0000
     57 ****         3.5128  -1.4761   2.6896 H              1 S1                 0.0000
     58 ****        -2.3781  -1.0083  -0.8226 H              1 S1                 0.0000
     59 ****        -1.5206   0.3690  -1.4906 H              1 S1                 0.0000
     60 ****        -3.2772   0.6728  -3.0359 LP             1 S1                 0.0000
     61 ****        -6.4220   0.8758   0.7017 LP             1 S1                 0.0000
     62 ****        -5.5471   2.1241   0.1161 LP             1 S1                 0.0000
     63 ****        -2.6512   0.2928   1.3411 LP             1 S1                 0.0000
     64 ****        -1.7870   3.5212   0.3652 LP             1 S1                 0.0000
     65 ****         2.2449   2.7978   0.5506 LP             1 S1                 0.0000
     66 ****        -1.0510  -1.3378   1.5060 LP             1 S1                 0.0000
     67 ****         5.4917  -2.7328   3.2100 LP             1 S1                 0.0000
     68 ****         6.9377  -2.4590   2.5023 LP             1 S1                 0.0000
     69 ****         5.7448   1.3834   1.7507 LP             1 S1                 0.0000
     70 ****         5.7191   1.2412   0.1241 LP             1 S1                 0.0000
@<TRIPOS>BOND
    1    1    2 1     
    2    1   32 1     
    3    1   33 1     
    4    1   34 1     
    5    2    3 1     
    6    2   35 1     
    7    2   36 1     
    8    3   29 1     
    9    3    4 1     
   10    4    5 1     
   11    4   37 1     
   12    4   38 1     
   13    5    6 1     
   14    5   39 1     
   15    5   40 1     
   16    6   30 1     
   17    6   28 1     
   18    6    7 1     
   19    7    8 1     
   20    8    9 1     
   21    8   41 1     
   22    8   42 1     
   23    9   10 1     
   24    9   43 1     
   25    9   44 1     
   26   10   11 1     
   27   10   28 1     
   28   11   16 ar    
   29   11   12 ar    
   30   12   13 ar    
   31   13   14 ar    
   32   13   45 1     
   33   14   15 ar    
   34   15   19 1     
   35   15   16 ar    
   36   16   17 1     
   37   17   18 2     
   38   18   19 1     
   39   18   46 1     
   40   19   20 1     
   41   20   27 1     
   42   20   21 1     
   43   20   47 1     
   44   21   22 1     
   45   21   48 1     
   46   21   49 1     
   47   22   23 1     
   48   22   25 1     
   49   22   27 1     
   50   23   24 1     
   51   23   50 1     
   52   23   51 1     
   53   24   52 1     
   54   25   26 1     
   55   25   53 1     
   56   25   54 1     
   57   26   55 1     
   58   27   56 1     
   59   27   57 1     
   60   28   31 1     
   61   28   29 1     
   62   29   58 1     
   63   29   59 1     
   64    3   60 1     
   65    7   61 1     
   66    7   62 1     
   67   10   63 1     
   68   12   64 1     
   69   14   65 1     
   70   17   66 1     
   71   24   67 1     
   72   24   68 1     
   73   26   69 1     
   74   26   70 1     
@<TRIPOS>SUBSTRUCTURE
      1 S1             1
@<TRIPOS>SET
LONE_PAIRS      STATIC     ATOMS    <user>   **** ""
11 60 61 62 63 64 65 66 67 68 69 70
DONOR_HYDROGENS      STATIC     ATOMS    <user>   **** ""
2 52 55
ATOM$BLUE        STATIC     ATOMS    COLORGROUP SYSTEM
11 60 61 62 63 64 65 66 67 68 69 70
ATOM$RED        STATIC     ATOMS    COLORGROUP SYSTEM
2 52 55
