AV-unprocessed.smi:740|AV-procd|sdf|3546|dock10
  -GOLD-   22720 0543D 1   1.00000     0.00000
 Structure written by MMmdl.
 44 46  0  0  0  0  0  0  0  0  1 V2000
  153.3094  142.8975  163.4315 C   0  0  0  0  0  0  0  0  0  0  0  0
  152.8896  143.0202  161.9773 C   0  0  0  0  0  0  0  0  0  0  0  0
  152.1485  144.1521  161.5695 C   0  0  0  0  0  0  0  0  0  0  0  0
  151.7349  144.3025  160.2280 C   0  0  0  0  0  0  0  0  0  0  0  0
  151.0108  145.3134  159.6195 N   0  0  0  0  0  0  0  0  0  0  0  0
  150.9447  144.8771  158.3651 C   0  0  0  0  0  0  0  0  0  0  0  0
  151.5421  143.7024  158.0881 N   0  0  0  0  0  0  0  0  0  0  0  0
  151.5908  143.0335  156.8005 C   0  0  0  0  0  0  0  0  0  0  0  0
  150.5449  141.9081  156.6845 C   0  0  2  0  0  0  0  0  0  0  0  0
  151.1957  140.6654  156.8698 O   0  0  0  0  0  0  0  0  0  0  0  0
  149.8579  141.9082  155.3034 C   0  0  0  0  0  0  0  0  0  0  0  0
  149.0895  140.6793  155.0725 N   0  0  0  0  0  0  0  0  0  0  0  0
  149.6064  139.5577  154.5522 C   0  0  0  0  0  0  0  0  0  0  0  0
  150.7750  139.3863  154.2068 O   0  0  0  0  0  0  0  0  0  0  0  0
  148.5434  138.4760  154.4209 C   0  0  0  0  0  0  0  0  0  0  0  0
  147.2789  139.1554  154.9675 C   0  0  1  0  0  0  0  0  0  0  0  0
  146.6575  138.4291  156.1719 C   0  0  0  0  0  0  0  0  0  0  0  0
  147.7828  140.5481  155.3413 C   0  0  0  0  0  0  0  0  0  0  0  0
  147.0507  141.4124  155.8238 O   0  0  0  0  0  0  0  0  0  0  0  0
  152.0854  143.2810  159.2972 C   0  0  0  0  0  0  0  0  0  0  0  0
  152.8243  142.1510  159.6902 C   0  0  0  0  0  0  0  0  0  0  0  0
  153.2297  142.0166  161.0348 C   0  0  0  0  0  0  0  0  0  0  0  0
  154.0254  140.7919  161.4499 C   0  0  0  0  0  0  0  0  0  0  0  0
  153.0000  143.7683  164.0102 H   0  0  0  0  0  0  0  0  0  0  0  0
  154.3932  142.8113  163.5121 H   0  0  0  0  0  0  0  0  0  0  0  0
  152.8565  142.0157  163.8852 H   0  0  0  0  0  0  0  0  0  0  0  0
  151.8882  144.9166  162.2866 H   0  0  0  0  0  0  0  0  0  0  0  0
  150.4292  145.4420  157.6021 H   0  0  0  0  0  0  0  0  0  0  0  0
  151.4234  143.7830  156.0256 H   0  0  0  0  0  0  0  0  0  0  0  0
  152.5974  142.6439  156.6430 H   0  0  0  0  0  0  0  0  0  0  0  0
  149.8034  142.0346  157.4747 H   0  0  0  0  0  0  0  0  0  0  0  0
  151.7188  140.4820  156.1045 H   0  0  0  0  0  0  0  0  0  0  0  0
  149.1684  142.7519  155.2408 H   0  0  0  0  0  0  0  0  0  0  0  0
  150.5872  142.0784  154.5091 H   0  0  0  0  0  0  0  0  0  0  0  0
  148.4262  138.1837  153.3768 H   0  0  0  0  0  0  0  0  0  0  0  0
  148.8293  137.5959  154.9981 H   0  0  0  0  0  0  0  0  0  0  0  0
  146.5368  139.2547  154.1744 H   0  0  0  0  0  0  0  0  0  0  0  0
  145.7626  138.9433  156.5244 H   0  0  0  0  0  0  0  0  0  0  0  0
  147.3565  138.3643  157.0067 H   0  0  0  0  0  0  0  0  0  0  0  0
  146.3670  137.4130  155.9040 H   0  0  0  0  0  0  0  0  0  0  0  0
  153.0735  141.3926  158.9631 H   0  0  0  0  0  0  0  0  0  0  0  0
  154.1879  140.1182  160.6079 H   0  0  0  0  0  0  0  0  0  0  0  0
  153.4967  140.2371  162.2252 H   0  0  0  0  0  0  0  0  0  0  0  0
  155.0016  141.0845  161.8372 H   0  0  0  0  0  0  0  0  0  0  0  0
  1  2  1  0  0  0  0
  1 24  1  0  0  0  0
  1 25  1  0  0  0  0
  1 26  1  0  0  0  0
  2 22  1  0  0  0  0
  2  3  2  0  0  0  0
  3  4  1  0  0  0  0
  3 27  1  0  0  0  0
  4 20  2  0  0  0  0
  4  5  1  0  0  0  0
  5  6  2  0  0  0  0
  6  7  1  0  0  0  0
  6 28  1  0  0  0  0
  7  8  1  0  0  0  0
  7 20  1  0  0  0  0
  8  9  1  0  0  0  0
  8 29  1  0  0  0  0
  8 30  1  0  0  0  0
  9 10  1  0  0  0  0
  9 11  1  0  0  0  0
  9 31  1  0  0  0  0
 10 32  1  0  0  0  0
 11 12  1  0  0  0  0
 11 33  1  0  0  0  0
 11 34  1  0  0  0  0
 12 18  1  0  0  0  0
 12 13  1  0  0  0  0
 13 14  2  0  0  0  0
 13 15  1  0  0  0  0
 15 16  1  0  0  0  0
 15 35  1  0  0  0  0
 15 36  1  0  0  0  0
 16 17  1  0  0  0  0
 16 18  1  0  0  0  0
 16 37  1  0  0  0  0
 17 38  1  0  0  0  0
 17 39  1  0  0  0  0
 17 40  1  0  0  0  0
 18 19  2  0  0  0  0
 20 21  1  0  0  0  0
 21 22  2  0  0  0  0
 21 41  1  0  0  0  0
 22 23  1  0  0  0  0
 23 42  1  0  0  0  0
 23 43  1  0  0  0  0
 23 44  1  0  0  0  0
M  END
> <s_m_source_file>
AV-unprocessed.smi

> <i_m_source_file_index>
740

> <i_lp_mmshare_version>
43012

> <i_f3d_flags>
0

> <s_epik_input>
W0NIM11jKFtjSF0xKWMoW0NIM10pW2NIXWMoYzEyKW4oW2NIXW4yKVtDSDJdW0NASF0oW09IXSlbQ0gyXU4zQyg9TylbQ0gyXVtDQEBIXShbQ0gzXSlDMz1P

> <s_epik_cmdline>
J2VwaWtfcHl0aG9uJywgJy1waCcsICc3LjAnLCAnLXRuJywgJzgnLCAnLW1hJywgJzIwMCcsICctbWV0YWxfYmluZGluZycsICctaW1hZScsICc8aW5maWxlLm1hZT4nLCAnLW9tYWUnLCAnPG91dGZpbGUubWFlPic=

> <r_lp_tautomer_probability>
1

> <r_epik_Ionization_Penalty>
0.104021

> <r_epik_Ionization_Penalty_Charging>
0

> <r_epik_Ionization_Penalty_Neutral>
0.104021

> <r_epik_State_Penalty>
0.0939354

> <r_epik_Charging_Adjusted_Penalty>
0.0939354

> <i_epik_Tot_Q>
0

> <i_epik_Tot_abs_Q>
0

> <r_epik_Metal_State_Penalty>
0.000101783

> <b_epik_Metal_Only>
0

> <s_lp_Force_Field>
OPLS_2005

> <r_lp_Energy>
16.4677

> <b_lp_Chiralities_Consistent>
1

> <s_lp_Variant>
AV-unprocessed.smi:740-1

> <Gold.Version>
5.8.1

> <Gold.Id.Protein>
6NUR|6NUR_protein|mol2

> <Gold.PLP.Fitness>
51.5100

> <Gold.PLP.PLP>
-48.8840

> <Gold.PLP.part.hbond>
-1.0000

> <Gold.PLP.part.metal>
0.0000

> <Gold.PLP.part.buried>
-5.2688

> <Gold.PLP.part.nonpolar>
-42.9355

> <Gold.PLP.part.repulsive>
0.4145

> <Gold.PLP.ligand.clash>
0.0000

> <Gold.PLP.ligand.torsion>
1.3267

> <Gold.PLP.Chemscore.Hbond>
1.0000

> <Gold.PLP.Chemscore.CHOScore>
0.7546

> <Gold.PLP.Chemscore.Metal>
0.0000

> <Gold.Chemscore.Hbonds>
donor molecule, donor type, donor heavy atom, donor atom, acceptor molecule, acceptor atom, score
      P1  H  7989  7998       L1    14  1.00
      L1  C     6    28       P1  8028  0.43
      L1  C     6    28       P1  8029  0.29

> <Gold.PLP.Chemscore.Internal.Correction>
0.0155

> <Gold.Rescore>
     Score         DG    S(hbond)    S(metal)    S(lipo)     H(rot)  DE(clash)    DE(int)     intcor
     14.77     -16.97       1.00        0.00     120.43       2.31       0.92       1.28       ----

> <Gold.Chemscore.Fitness>
14.7658

> <Gold.Chemscore.DG>
-16.9723

> <Gold.Chemscore.ZeroCoef>
-5.4800

> <Gold.Chemscore.Hbond>
0.9961

> <Gold.Chemscore.Metal>
0.0000

> <Gold.Chemscore.Lipo>
120.4336

> <Gold.Chemscore.Internal_Hbond>
0.0000

> <Gold.Chemscore.DEClash>
0.9226

> <Gold.Chemscore.DEInternal>
1.2838

> <Gold.Chemscore.Rot>
2.3147

> <Gold.Chemscore.Internal.Correction>
   9.000000E+99

> <Gold.Chemscore.Hbonds>
donor molecule, donor type, donor heavy atom, donor atom, acceptor molecule, acceptor atom, score
      P1  H  7989  7998       L1    14  0.93

> <Gold.Chemscore.Hbond.Weighted>
-3.3271

> <Gold.Chemscore.Metal.Weighted>
-0.0000

> <Gold.Chemscore.Lipo.Weighted>
-14.0907

> <Gold.Chemscore.Internal_Hbond.Weighted>
0.0000

> <Gold.Chemscore.DEClash.Weighted>
0.9226

> <Gold.Chemscore.DEInternal.Weighted>
1.2838

> <Gold.Chemscore.Rot.Weighted>
5.9256

> <Gold.Chemscore.Internal.Correction.Weighted>
   9.000000E+99

> <Gold.Protein.RotatedTorsions>
[ 6907 6896 6895 6894 ] final  174.77 input  -60.11 | X-H torsion
[ 7974 7965 7964 7962 ] final   98.09 input  175.53 | X-H torsion
[ 8008 7997 7996 7995 ] final  -98.45 input   59.86 | X-H torsion
[ 10167 10162 10161 10158 ] final  -78.54 input  -65.29 | X-H torsion
[ 10718 10713 10712 10709 ] final  -62.37 input   66.30 | X-H torsion
[ 10763 10752 10751 10750 ] final  159.36 input  -60.55 | X-H torsion
[ 11005 11000 10999 10996 ] final  138.03 input  -57.11 | X-H torsion

> <Gold.Protein.ActiveResidues>
 VAL166  LYS551  ARG553  GLY616  TRP617  ASP618  TYR619  PRO620  LYS621  CYS622 
 ASP623  PHE694  ASN695  SER759  ASP760  ASP761  ALA762  ILE779  LEU786  VAL792 
 PHE793  MET794  SER795  GLU796  ALA797  LYS798  CYS799  TRP800  GLU811  SER814 

> <Gold.Protein.RotatedAtoms>
  151.7469  133.3325  159.3380 H   0  0  0  0  0  0  0  0  0  0  0  0  # atno 6907 bound_to 6896
  150.7551  134.6227  159.6154 H   0  0  0  0  0  0  0  0  0  0  0  0  # atno 6908 bound_to 6896
  152.3494  134.7029  160.0292 H   0  0  0  0  0  0  0  0  0  0  0  0  # atno 6909 bound_to 6896
  145.4168  139.2326  143.3218 H   0  0  0  0  0  0  0  0  0  0  0  0  # atno 7974 bound_to 7965
  154.8013  140.0455  157.1275 H   0  0  0  0  0  0  0  0  0  0  0  0  # atno 8008 bound_to 7997
  154.9475  140.3061  155.5071 H   0  0  0  0  0  0  0  0  0  0  0  0  # atno 8009 bound_to 7997
  156.2962  140.2294  156.4550 H   0  0  0  0  0  0  0  0  0  0  0  0  # atno 8010 bound_to 7997
  140.4673  143.2436  151.8258 H   0  0  0  0  0  0  0  0  0  0  0  0  # atno 10167 bound_to 10162
  156.0860  130.4208  150.1125 H   0  0  0  0  0  0  0  0  0  0  0  0  # atno 10718 bound_to 10713
  154.2306  135.2778  155.2891 H   0  0  0  0  0  0  0  0  0  0  0  0  # atno 10763 bound_to 10752
  154.5627  135.5642  153.7025 H   0  0  0  0  0  0  0  0  0  0  0  0  # atno 10764 bound_to 10752
  153.0021  135.6302  154.2448 H   0  0  0  0  0  0  0  0  0  0  0  0  # atno 10765 bound_to 10752
  140.0155  134.9420  157.0367 H   0  0  0  0  0  0  0  0  0  0  0  0  # atno 11005 bound_to 11000
  146.2677  140.4887  142.8827 LP  0  0  0  0  0  0  0  0  0  0  0  0  # atno 17320 bound_to 7965
  144.8272  140.6648  143.6314 LP  0  0  0  0  0  0  0  0  0  0  0  0  # atno 17321 bound_to 7965
  139.4814  144.4935  151.9154 LP  0  0  0  0  0  0  0  0  0  0  0  0  # atno 17342 bound_to 10162
  140.4020  144.2481  150.5892 LP  0  0  0  0  0  0  0  0  0  0  0  0  # atno 17343 bound_to 10162
  156.9146  130.9663  151.3558 LP  0  0  0  0  0  0  0  0  0  0  0  0  # atno 17370 bound_to 10713
  157.5994  130.8501  149.8779 LP  0  0  0  0  0  0  0  0  0  0  0  0  # atno 17371 bound_to 10713
  140.4478  134.1614  155.7179 LP  0  0  0  0  0  0  0  0  0  0  0  0  # atno 17394 bound_to 11000
  141.1740  133.8552  157.1481 LP  0  0  0  0  0  0  0  0  0  0  0  0  # atno 17395 bound_to 11000

$$$$
