AV-unprocessed.smi:1645|AV-procd|sdf|6605|dock2
  -GOLD-   22720 7303D 1   1.00000     0.00000
 Structure written by MMmdl.
 55 58  0  0  0  0  0  0  0  0  2 V2000
  145.7135  137.9334  154.5851 O   0  0  0  0  0  0  0  0  0  0  0  0
  146.6252  137.3936  153.9584 C   0  0  0  0  0  0  0  0  0  0  0  0
  147.9277  137.7079  154.0608 N   0  0  0  0  0  0  0  0  0  0  0  0
  148.5311  138.6638  154.9216 C   0  0  0  0  0  0  0  0  0  0  0  0
  148.1116  138.9081  156.2496 C   0  0  0  0  0  0  0  0  0  0  0  0
  148.7998  139.8673  157.0162 C   0  0  0  0  0  0  0  0  0  0  0  0
  149.8939  140.5559  156.4431 C   0  0  0  0  0  0  0  0  0  0  0  0
  150.5925  141.5210  157.1988 N   0  0  0  0  0  0  0  0  0  0  0  0
  151.3738  140.9878  158.3161 C   0  0  0  0  0  0  0  0  0  0  0  0
  151.7586  142.1009  159.3059 C   0  0  0  0  0  0  0  0  0  0  0  0
  152.4645  143.2605  158.5876 C   0  0  0  0  0  0  0  0  0  0  0  0
  151.5908  143.7752  157.4344 C   0  0  0  0  0  0  0  0  0  0  0  0
  151.2145  142.6326  156.4757 C   0  0  0  0  0  0  0  0  0  0  0  0
  150.3004  140.3122  155.1731 N   0  0  0  0  0  0  0  0  0  0  0  0
  149.6408  139.3884  154.4432 C   0  0  0  0  0  0  0  0  0  0  0  0
  146.4262  136.4160  153.0625 N   0  0  0  0  0  0  0  0  0  0  0  0
  145.1220  135.8659  152.7009 C   0  0  1  0  0  0  0  0  0  0  0  0
  145.2036  134.8051  151.5944 C   0  0  0  0  0  0  0  0  0  0  0  0
  144.1195  133.7658  151.9450 C   0  0  0  0  0  0  0  0  0  0  0  0
  143.4473  134.2472  153.1745 N   0  3  2  0  0  0  0  0  0  0  0  0
  142.1599  134.9336  152.8733 C   0  0  0  0  0  0  0  0  0  0  0  0
  141.5769  135.6440  154.1021 C   0  0  0  0  0  0  0  0  0  0  0  0
  142.5852  136.6517  154.6599 C   0  0  0  0  0  0  0  0  0  0  0  0
  143.8805  135.9205  155.0239 C   0  0  0  0  0  0  0  0  0  0  0  0
  144.4581  135.0961  153.8509 C   0  0  2  0  0  0  0  0  0  0  0  0
  148.5523  137.2538  153.4105 H   0  0  0  0  0  0  0  0  0  0  0  0
  147.2882  138.3736  156.6971 H   0  0  0  0  0  0  0  0  0  0  0  0
  148.4775  140.0717  158.0263 H   0  0  0  0  0  0  0  0  0  0  0  0
  150.8307  140.2099  158.8514 H   0  0  0  0  0  0  0  0  0  0  0  0
  152.2743  140.5199  157.9166 H   0  0  0  0  0  0  0  0  0  0  0  0
  150.8611  142.4717  159.8033 H   0  0  0  0  0  0  0  0  0  0  0  0
  152.4022  141.6975  160.0877 H   0  0  0  0  0  0  0  0  0  0  0  0
  152.6762  144.0668  159.2903 H   0  0  0  0  0  0  0  0  0  0  0  0
  153.4257  142.9224  158.1984 H   0  0  0  0  0  0  0  0  0  0  0  0
  150.6833  144.2266  157.8374 H   0  0  0  0  0  0  0  0  0  0  0  0
  152.1128  144.5623  156.8901 H   0  0  0  0  0  0  0  0  0  0  0  0
  152.1049  142.2707  155.9602 H   0  0  0  0  0  0  0  0  0  0  0  0
  150.5325  143.0142  155.7148 H   0  0  0  0  0  0  0  0  0  0  0  0
  150.0090  139.2294  153.4401 H   0  0  0  0  0  0  0  0  0  0  0  0
  147.2319  136.0333  152.5895 H   0  0  0  0  0  0  0  0  0  0  0  0
  144.4603  136.6630  152.3573 H   0  0  0  0  0  0  0  0  0  0  0  0
  145.0404  135.2476  150.6112 H   0  0  0  0  0  0  0  0  0  0  0  0
  146.1820  134.3225  151.5779 H   0  0  0  0  0  0  0  0  0  0  0  0
  143.4195  133.6047  151.1239 H   0  0  0  0  0  0  0  0  0  0  0  0
  144.5875  132.8046  152.1610 H   0  0  0  0  0  0  0  0  0  0  0  0
  142.3041  135.6611  152.0728 H   0  0  0  0  0  0  0  0  0  0  0  0
  141.4461  134.1993  152.4986 H   0  0  0  0  0  0  0  0  0  0  0  0
  140.6521  136.1546  153.8320 H   0  0  0  0  0  0  0  0  0  0  0  0
  141.3167  134.9124  154.8682 H   0  0  0  0  0  0  0  0  0  0  0  0
  142.7850  137.4331  153.9258 H   0  0  0  0  0  0  0  0  0  0  0  0
  142.1749  137.1481  155.5398 H   0  0  0  0  0  0  0  0  0  0  0  0
  144.6205  136.6259  155.4005 H   0  0  0  0  0  0  0  0  0  0  0  0
  143.6718  135.2440  155.8536 H   0  0  0  0  0  0  0  0  0  0  0  0
  145.2051  134.4182  154.2691 H   0  0  0  0  0  0  0  0  0  0  0  0
  143.2347  133.4603  153.7708 H   0  0  0  0  0  0  0  0  0  0  0  0
  1  2  2  0  0  0  0
  2  3  1  0  0  0  0
  2 16  1  0  0  0  0
  3  4  1  0  0  0  0
  3 26  1  0  0  0  0
  4 15  1  0  0  0  0
  4  5  2  0  0  0  0
  5  6  1  0  0  0  0
  5 27  1  0  0  0  0
  6  7  2  0  0  0  0
  6 28  1  0  0  0  0
  7  8  1  0  0  0  0
  7 14  1  0  0  0  0
  8 13  1  0  0  0  0
  8  9  1  0  0  0  0
  9 10  1  0  0  0  0
  9 29  1  0  0  0  0
  9 30  1  0  0  0  0
 10 11  1  0  0  0  0
 10 31  1  0  0  0  0
 10 32  1  0  0  0  0
 11 12  1  0  0  0  0
 11 33  1  0  0  0  0
 11 34  1  0  0  0  0
 12 13  1  0  0  0  0
 12 35  1  0  0  0  0
 12 36  1  0  0  0  0
 13 37  1  0  0  0  0
 13 38  1  0  0  0  0
 14 15  2  0  0  0  0
 15 39  1  0  0  0  0
 16 17  1  0  0  0  0
 16 40  1  0  0  0  0
 17 25  1  0  0  0  0
 17 18  1  0  0  0  0
 17 41  1  0  0  0  0
 18 19  1  0  0  0  0
 18 42  1  0  0  0  0
 18 43  1  0  0  0  0
 19 20  1  0  0  0  0
 19 44  1  0  0  0  0
 19 45  1  0  0  0  0
 20 25  1  0  0  0  0
 20 21  1  0  0  0  0
 20 55  1  0  0  0  0
 21 22  1  0  0  0  0
 21 46  1  0  0  0  0
 21 47  1  0  0  0  0
 22 23  1  0  0  0  0
 22 48  1  0  0  0  0
 22 49  1  0  0  0  0
 23 24  1  0  0  0  0
 23 50  1  0  0  0  0
 23 51  1  0  0  0  0
 24 25  1  0  0  0  0
 24 52  1  0  0  0  0
 24 53  1  0  0  0  0
 25 54  1  0  0  0  0
M  CHG  1  20   1
M  END
> <s_m_source_file>
AV-unprocessed.smi

> <i_m_source_file_index>
1645

> <i_lp_mmshare_version>
43012

> <i_f3d_flags>
0

> <s_epik_input>
W0NIMl0xW0NIMl1bQ0gyXVtDSDJdW0NASF0oTjEyKVtDQEBIXShbQ0gyXVtDSDJdMilbTkhdQyg9TylbTkhdYzNbY0hdW2NIXWMobltjSF0zKU40W0NIMl1bQ0gyXVtDSDJdW0NIMl1bQ0gyXTQ=

> <s_epik_cmdline>
J2VwaWtfcHl0aG9uJywgJy1waCcsICc3LjAnLCAnLXRuJywgJzgnLCAnLW1hJywgJzIwMCcsICctbWV0YWxfYmluZGluZycsICctaW1hZScsICc8aW5maWxlLm1hZT4nLCAnLW9tYWUnLCAnPG91dGZpbGUubWFlPic=

> <r_lp_tautomer_probability>
1

> <r_epik_Ionization_Penalty>
0.0808019

> <r_epik_Ionization_Penalty_Charging>
0.000974069

> <r_epik_Ionization_Penalty_Neutral>
0.0798278

> <r_epik_State_Penalty>
0.0653665

> <r_epik_Charging_Adjusted_Penalty>
0.0663406

> <i_epik_Tot_Q>
1

> <i_epik_Tot_abs_Q>
1

> <r_epik_Metal_State_Penalty>
0.0585673

> <b_epik_Metal_Only>
0

> <s_lp_Force_Field>
OPLS_2005

> <r_lp_Energy>
54.666

> <b_lp_Chiralities_Consistent>
1

> <s_lp_Variant>
AV-unprocessed.smi:1645-6

> <Gold.Version>
5.8.1

> <Gold.Id.Protein>
6NUR|6NUR_protein|mol2

> <Gold.PLP.Fitness>
46.2322

> <Gold.PLP.PLP>
-31.1098

> <Gold.PLP.part.hbond>
-3.6294

> <Gold.PLP.part.metal>
0.0000

> <Gold.PLP.part.buried>
-6.0887

> <Gold.PLP.part.nonpolar>
-22.6060

> <Gold.PLP.part.repulsive>
0.2026

> <Gold.PLP.ligand.clash>
0.0000

> <Gold.PLP.ligand.torsion>
0.7403

> <Gold.PLP.Chemscore.Hbond>
4.3920

> <Gold.PLP.Chemscore.CHOScore>
1.0000

> <Gold.PLP.Chemscore.Metal>
0.0000

> <Gold.Chemscore.Hbonds>
donor molecule, donor type, donor heavy atom, donor atom, acceptor molecule, acceptor atom, score
      L1  H     3    26       P1  7948  1.00
      L1  H    16    40       P1  7948  1.00
      L1  H    20    55       P1 10957  1.89
      P1  H  7989  7998       L1    14  0.36
      L1  C    15    39       P1  7957  1.00

> <Gold.PLP.Chemscore.Internal.Correction>
0.4269

> <Gold.Rescore>
     Score         DG    S(hbond)    S(metal)    S(lipo)     H(rot)  DE(clash)    DE(int)     intcor
     20.50     -22.92       2.97        0.00      90.08       1.17       0.28       2.15       ----

> <Gold.Chemscore.Fitness>
20.5012

> <Gold.Chemscore.DG>
-22.9231

> <Gold.Chemscore.ZeroCoef>
-5.4800

> <Gold.Chemscore.Hbond>
2.9662

> <Gold.Chemscore.Metal>
0.0000

> <Gold.Chemscore.Lipo>
90.0790

> <Gold.Chemscore.Internal_Hbond>
0.0000

> <Gold.Chemscore.DEClash>
0.2751

> <Gold.Chemscore.DEInternal>
2.1469

> <Gold.Chemscore.Rot>
1.1731

> <Gold.Chemscore.Internal.Correction>
   9.000000E+99

> <Gold.Chemscore.Hbonds>
donor molecule, donor type, donor heavy atom, donor atom, acceptor molecule, acceptor atom, score
      L1  H     3    26       P1  7948  0.98
      L1  H    16    40       P1  7948  0.96
      L1  H    20    55       P1 10957  0.90
      P1  H  7989  7998       L1    14  0.03

> <Gold.Chemscore.Hbond.Weighted>
-9.9071

> <Gold.Chemscore.Metal.Weighted>
-0.0000

> <Gold.Chemscore.Lipo.Weighted>
-10.5392

> <Gold.Chemscore.Internal_Hbond.Weighted>
0.0000

> <Gold.Chemscore.DEClash.Weighted>
0.2751

> <Gold.Chemscore.DEInternal.Weighted>
2.1469

> <Gold.Chemscore.Rot.Weighted>
3.0032

> <Gold.Chemscore.Internal.Correction.Weighted>
   9.000000E+99

> <Gold.Protein.RotatedTorsions>
[ 6907 6896 6895 6894 ] final   46.52 input  -60.11 | X-H torsion
[ 7974 7965 7964 7962 ] final -115.28 input  175.53 | X-H torsion
[ 8008 7997 7996 7995 ] final   72.42 input   59.86 | X-H torsion
[ 10167 10162 10161 10158 ] final  -86.30 input  -65.29 | X-H torsion
[ 10718 10713 10712 10709 ] final   55.36 input   66.30 | X-H torsion
[ 10763 10752 10751 10750 ] final -147.81 input  -60.55 | X-H torsion
[ 11005 11000 10999 10996 ] final  127.00 input  -57.11 | X-H torsion

> <Gold.Protein.ActiveResidues>
 VAL166  LYS551  ARG553  GLY616  TRP617  ASP618  TYR619  PRO620  LYS621  CYS622 
 ASP623  PHE694  ASN695  SER759  ASP760  ASP761  ALA762  ILE779  LEU786  VAL792 
 PHE793  MET794  SER795  GLU796  ALA797  LYS798  CYS799  TRP800  GLU811  SER814 

> <Gold.Protein.RotatedAtoms>
  152.2574  134.8070  160.0436 H   0  0  0  0  0  0  0  0  0  0  0  0  # atno 6907 bound_to 6896
  151.8728  133.3474  159.3749 H   0  0  0  0  0  0  0  0  0  0  0  0  # atno 6908 bound_to 6896
  150.7104  134.5022  159.5611 H   0  0  0  0  0  0  0  0  0  0  0  0  # atno 6909 bound_to 6896
  145.1103  140.8607  143.3874 H   0  0  0  0  0  0  0  0  0  0  0  0  # atno 7974 bound_to 7965
  155.7685  140.3485  155.5235 H   0  0  0  0  0  0  0  0  0  0  0  0  # atno 8008 bound_to 7997
  155.8844  140.1007  157.1483 H   0  0  0  0  0  0  0  0  0  0  0  0  # atno 8009 bound_to 7997
  154.4027  140.1316  156.4224 H   0  0  0  0  0  0  0  0  0  0  0  0  # atno 8010 bound_to 7997
  140.3954  143.2686  151.9211 H   0  0  0  0  0  0  0  0  0  0  0  0  # atno 10167 bound_to 10162
  157.5338  130.8649  149.8724 H   0  0  0  0  0  0  0  0  0  0  0  0  # atno 10718 bound_to 10713
  154.8266  135.3350  154.6876 H   0  0  0  0  0  0  0  0  0  0  0  0  # atno 10763 bound_to 10752
  153.7501  135.6940  153.4952 H   0  0  0  0  0  0  0  0  0  0  0  0  # atno 10764 bound_to 10752
  153.2183  135.4458  155.0410 H   0  0  0  0  0  0  0  0  0  0  0  0  # atno 10765 bound_to 10752
  139.9485  134.9626  156.8789 H   0  0  0  0  0  0  0  0  0  0  0  0  # atno 11005 bound_to 11000
  145.0855  139.2928  143.5762 LP  0  0  0  0  0  0  0  0  0  0  0  0  # atno 17320 bound_to 7965
  146.3526  140.0375  142.8645 LP  0  0  0  0  0  0  0  0  0  0  0  0  # atno 17321 bound_to 7965
  139.4787  144.5686  151.8125 LP  0  0  0  0  0  0  0  0  0  0  0  0  # atno 17342 bound_to 10162
  140.4796  144.1469  150.5930 LP  0  0  0  0  0  0  0  0  0  0  0  0  # atno 17343 bound_to 10162
  156.0443  130.3731  150.1358 LP  0  0  0  0  0  0  0  0  0  0  0  0  # atno 17370 bound_to 10713
  156.9541  130.9784  151.3492 LP  0  0  0  0  0  0  0  0  0  0  0  0  # atno 17371 bound_to 10713
  140.5777  134.0382  155.7453 LP  0  0  0  0  0  0  0  0  0  0  0  0  # atno 17394 bound_to 11000
  141.1141  133.9568  157.2855 LP  0  0  0  0  0  0  0  0  0  0  0  0  # atno 17395 bound_to 11000

$$$$
