AV-unprocessed.smi:3303|AV-procd|sdf|12671|dock8
  -GOLD-   2272019 03D 1   1.00000     0.00000
 Structure written by MMmdl.
 45 46  0  0  0  0  0  0  0  0  3 V2000
  145.9808  142.5963  154.1601 C   0  0  0  0  0  0  0  0  0  0  0  0
  147.3536  142.0764  153.6838 C   0  0  2  0  0  0  0  0  0  0  0  0
  147.2258  141.2862  152.3669 C   0  0  0  0  0  0  0  0  0  0  0  0
  146.5425  139.9785  152.5596 N   0  3  1  0  0  0  0  0  0  0  0  0
  146.3070  139.3108  151.2562 C   0  0  0  0  0  0  0  0  0  0  0  0
  147.2374  139.1186  153.5661 C   0  0  2  0  0  0  0  0  0  0  0  0
  146.5039  137.7858  153.8130 C   0  0  0  0  0  0  0  0  0  0  0  0
  147.4075  139.8673  154.9071 C   0  0  0  0  0  0  0  0  0  0  0  0
  148.1123  141.2248  154.7243 C   0  0  2  0  0  0  0  0  0  0  0  0
  148.2749  141.9585  156.0020 N   0  3  0  0  0  0  0  0  0  0  0  0
  149.3619  141.4741  156.8788 C   0  0  0  0  0  0  0  0  0  0  0  0
  150.7213  142.0196  156.4193 C   0  0  0  0  0  0  0  0  0  0  0  0
  151.5241  142.6060  157.5652 C   0  0  0  0  0  0  0  0  0  0  0  0
  151.8716  143.9740  157.5784 C   0  0  0  0  0  0  0  0  0  0  0  0
  152.6148  144.4663  158.6688 C   0  0  0  0  0  0  0  0  0  0  0  0
  152.9823  143.5761  159.6963 C   0  0  0  0  0  0  0  0  0  0  0  0
  152.5879  142.2275  159.5880 C   0  0  0  0  0  0  0  0  0  0  0  0
  151.8743  141.7453  158.5471 N   0  0  0  0  0  0  0  0  0  0  0  0
  145.2868  141.7852  154.3798 H   0  0  0  0  0  0  0  0  0  0  0  0
  145.5173  143.2198  153.3947 H   0  0  0  0  0  0  0  0  0  0  0  0
  146.0700  143.2092  155.0570 H   0  0  0  0  0  0  0  0  0  0  0  0
  147.9628  142.9568  153.4735 H   0  0  0  0  0  0  0  0  0  0  0  0
  146.6799  141.8845  151.6358 H   0  0  0  0  0  0  0  0  0  0  0  0
  148.2160  141.1108  151.9427 H   0  0  0  0  0  0  0  0  0  0  0  0
  147.2433  138.9567  150.8225 H   0  0  0  0  0  0  0  0  0  0  0  0
  145.8451  139.9987  150.5470 H   0  0  0  0  0  0  0  0  0  0  0  0
  145.6274  138.4648  151.3539 H   0  0  0  0  0  0  0  0  0  0  0  0
  148.2310  138.8882  153.1776 H   0  0  0  0  0  0  0  0  0  0  0  0
  146.9768  137.2251  154.6198 H   0  0  0  0  0  0  0  0  0  0  0  0
  146.5218  137.1381  152.9368 H   0  0  0  0  0  0  0  0  0  0  0  0
  145.4628  137.9495  154.0930 H   0  0  0  0  0  0  0  0  0  0  0  0
  146.4346  140.0107  155.3791 H   0  0  0  0  0  0  0  0  0  0  0  0
  147.9812  139.2388  155.5882 H   0  0  0  0  0  0  0  0  0  0  0  0
  149.1124  141.0412  154.3272 H   0  0  0  0  0  0  0  0  0  0  0  0
  148.4811  142.9217  155.7780 H   0  0  0  0  0  0  0  0  0  0  0  0
  149.1728  141.7830  157.9066 H   0  0  0  0  0  0  0  0  0  0  0  0
  149.3782  140.3836  156.8658 H   0  0  0  0  0  0  0  0  0  0  0  0
  151.3005  141.2266  155.9443 H   0  0  0  0  0  0  0  0  0  0  0  0
  150.5784  142.7914  155.6614 H   0  0  0  0  0  0  0  0  0  0  0  0
  151.5756  144.6341  156.7762 H   0  0  0  0  0  0  0  0  0  0  0  0
  152.8974  145.5077  158.7163 H   0  0  0  0  0  0  0  0  0  0  0  0
  153.5525  143.9187  160.5471 H   0  0  0  0  0  0  0  0  0  0  0  0
  152.8524  141.5177  160.3578 H   0  0  0  0  0  0  0  0  0  0  0  0
  147.4021  141.9309  156.5101 H   0  0  0  0  0  0  0  0  0  0  0  0
  145.6292  140.1877  152.9375 H   0  0  0  0  0  0  0  0  0  0  0  0
  1  2  1  0  0  0  0
  1 19  1  0  0  0  0
  1 20  1  0  0  0  0
  1 21  1  0  0  0  0
  2  9  1  0  0  0  0
  2  3  1  0  0  0  0
  2 22  1  0  0  0  0
  3  4  1  0  0  0  0
  3 23  1  0  0  0  0
  3 24  1  0  0  0  0
  4  5  1  0  0  0  0
  4  6  1  0  0  0  0
  4 45  1  0  0  0  0
  5 25  1  0  0  0  0
  5 26  1  0  0  0  0
  5 27  1  0  0  0  0
  6  7  1  0  0  0  0
  6  8  1  0  0  0  0
  6 28  1  0  0  0  0
  7 29  1  0  0  0  0
  7 30  1  0  0  0  0
  7 31  1  0  0  0  0
  8  9  1  0  0  0  0
  8 32  1  0  0  0  0
  8 33  1  0  0  0  0
  9 10  1  0  0  0  0
  9 34  1  0  0  0  0
 10 11  1  0  0  0  0
 10 35  1  0  0  0  0
 10 44  1  0  0  0  0
 11 12  1  0  0  0  0
 11 36  1  0  0  0  0
 11 37  1  0  0  0  0
 12 13  1  0  0  0  0
 12 38  1  0  0  0  0
 12 39  1  0  0  0  0
 13 18  1  0  0  0  0
 13 14  2  0  0  0  0
 14 15  1  0  0  0  0
 14 40  1  0  0  0  0
 15 16  2  0  0  0  0
 15 41  1  0  0  0  0
 16 17  1  0  0  0  0
 16 42  1  0  0  0  0
 17 18  2  0  0  0  0
 17 43  1  0  0  0  0
M  CHG  1   4   1
M  CHG  1  10   1
M  END
> <s_m_source_file>
AV-unprocessed.smi

> <i_m_source_file_index>
3303

> <i_lp_mmshare_version>
43012

> <i_f3d_flags>
0

> <s_epik_input>
W0NIM11bQ0BASF0xW0NIMl1OKFtDSDNdKVtDQEBIXShbQ0gzXSlbQ0gyXVtDQEhdMVtOSF1bQ0gyXVtDSDJdYzJbY0hdW2NIXVtjSF1bY0hdbjI=

> <s_epik_cmdline>
J2VwaWtfcHl0aG9uJywgJy1waCcsICc3LjAnLCAnLXRuJywgJzgnLCAnLW1hJywgJzIwMCcsICctbWV0YWxfYmluZGluZycsICctaW1hZScsICc8aW5maWxlLm1hZT4nLCAnLW9tYWUnLCAnPG91dGZpbGUubWFlPic=

> <r_epik_Ionization_Penalty>
0.0769462

> <r_epik_Ionization_Penalty_Charging>
0.0759813

> <r_epik_Ionization_Penalty_Neutral>
0.000964829

> <r_epik_State_Penalty>
0.0654373

> <r_epik_Charging_Adjusted_Penalty>
0.141419

> <i_epik_Tot_Q>
2

> <i_epik_Tot_abs_Q>
2

> <r_epik_Metal_State_Penalty>
0.0656439

> <b_epik_Metal_Only>
0

> <s_lp_Force_Field>
OPLS_2005

> <r_lp_Energy>
31.1482

> <b_lp_Chiralities_Consistent>
1

> <s_lp_Variant>
AV-unprocessed.smi:3303-15

> <Gold.Version>
5.8.1

> <Gold.Id.Protein>
6NUR|6NUR_protein|mol2

> <Gold.PLP.Fitness>
45.7188

> <Gold.PLP.PLP>
-35.8758

> <Gold.PLP.part.hbond>
-2.0824

> <Gold.PLP.part.metal>
0.0000

> <Gold.PLP.part.buried>
-0.7499

> <Gold.PLP.part.nonpolar>
-33.8216

> <Gold.PLP.part.repulsive>
0.0618

> <Gold.PLP.ligand.clash>
0.0000

> <Gold.PLP.ligand.torsion>
0.6154

> <Gold.PLP.Chemscore.Hbond>
3.6890

> <Gold.PLP.Chemscore.CHOScore>
0.0000

> <Gold.PLP.Chemscore.Metal>
0.0000

> <Gold.Chemscore.Hbonds>
donor molecule, donor type, donor heavy atom, donor atom, acceptor molecule, acceptor atom, score
      L1  H     4    45       P1 10175  1.76
      L1  H    10    35       P1  8028  2.00

> <Gold.PLP.Chemscore.Internal.Correction>
0.0069

> <Gold.Rescore>
     Score         DG    S(hbond)    S(metal)    S(lipo)     H(rot)  DE(clash)    DE(int)     intcor
     18.36     -22.22       1.64        0.00     126.32       1.37       3.22       0.64       ----

> <Gold.Chemscore.Fitness>
18.3630

> <Gold.Chemscore.DG>
-22.2178

> <Gold.Chemscore.ZeroCoef>
-5.4800

> <Gold.Chemscore.Hbond>
1.6397

> <Gold.Chemscore.Metal>
0.0000

> <Gold.Chemscore.Lipo>
126.3232

> <Gold.Chemscore.Internal_Hbond>
0.0000

> <Gold.Chemscore.DEClash>
3.2177

> <Gold.Chemscore.DEInternal>
0.6372

> <Gold.Chemscore.Rot>
1.3744

> <Gold.Chemscore.Internal.Correction>
   9.000000E+99

> <Gold.Chemscore.Hbonds>
donor molecule, donor type, donor heavy atom, donor atom, acceptor molecule, acceptor atom, score
      L1  H     4    45       P1 10175  0.79
      L1  H    10    35       P1  8028  0.99

> <Gold.Chemscore.Hbond.Weighted>
-5.4765

> <Gold.Chemscore.Metal.Weighted>
-0.0000

> <Gold.Chemscore.Lipo.Weighted>
-14.7798

> <Gold.Chemscore.Internal_Hbond.Weighted>
0.0000

> <Gold.Chemscore.DEClash.Weighted>
3.2177

> <Gold.Chemscore.DEInternal.Weighted>
0.6372

> <Gold.Chemscore.Rot.Weighted>
3.5185

> <Gold.Chemscore.Internal.Correction.Weighted>
   9.000000E+99

> <Gold.Protein.RotatedTorsions>
[ 6907 6896 6895 6894 ] final -141.68 input  -60.11 | X-H torsion
[ 7974 7965 7964 7962 ] final  -83.64 input  175.53 | X-H torsion
[ 8008 7997 7996 7995 ] final -107.20 input   59.86 | X-H torsion
[ 10167 10162 10161 10158 ] final  102.09 input  -65.29 | X-H torsion
[ 10718 10713 10712 10709 ] final  111.27 input   66.30 | X-H torsion
[ 10763 10752 10751 10750 ] final  169.35 input  -60.55 | X-H torsion
[ 11005 11000 10999 10996 ] final  128.11 input  -57.11 | X-H torsion

> <Gold.Protein.ActiveResidues>
 VAL166  LYS551  ARG553  GLY616  TRP617  ASP618  TYR619  PRO620  LYS621  CYS622 
 ASP623  PHE694  ASN695  SER759  ASP760  ASP761  ALA762  ILE779  LEU786  VAL792 
 PHE793  MET794  SER795  GLU796  ALA797  LYS798  CYS799  TRP800  GLU811  SER814 

> <Gold.Protein.RotatedAtoms>
  151.0770  133.5420  159.2622 H   0  0  0  0  0  0  0  0  0  0  0  0  # atno 6907 bound_to 6896
  151.2338  135.0563  159.9008 H   0  0  0  0  0  0  0  0  0  0  0  0  # atno 6908 bound_to 6896
  152.5419  134.0555  159.8182 H   0  0  0  0  0  0  0  0  0  0  0  0  # atno 6909 bound_to 6896
  145.5172  140.9535  143.1675 H   0  0  0  0  0  0  0  0  0  0  0  0  # atno 7974 bound_to 7965
  154.9259  140.0406  157.2022 H   0  0  0  0  0  0  0  0  0  0  0  0  # atno 8008 bound_to 7997
  154.8208  140.2883  155.5766 H   0  0  0  0  0  0  0  0  0  0  0  0  # atno 8009 bound_to 7997
  156.2980  140.2519  156.3115 H   0  0  0  0  0  0  0  0  0  0  0  0  # atno 8010 bound_to 7997
  139.7380  144.7019  151.0619 H   0  0  0  0  0  0  0  0  0  0  0  0  # atno 10167 bound_to 10162
  157.6453  131.0947  150.6723 H   0  0  0  0  0  0  0  0  0  0  0  0  # atno 10718 bound_to 10713
  154.3819  135.2753  155.2206 H   0  0  0  0  0  0  0  0  0  0  0  0  # atno 10763 bound_to 10752
  154.4310  135.5977  153.6072 H   0  0  0  0  0  0  0  0  0  0  0  0  # atno 10764 bound_to 10752
  152.9834  135.5995  154.4062 H   0  0  0  0  0  0  0  0  0  0  0  0  # atno 10765 bound_to 10752
  139.9543  134.9616  156.8954 H   0  0  0  0  0  0  0  0  0  0  0  0  # atno 11005 bound_to 11000
  144.7695  139.6767  143.7200 LP  0  0  0  0  0  0  0  0  0  0  0  0  # atno 17320 bound_to 7965
  146.2129  139.5498  142.9669 LP  0  0  0  0  0  0  0  0  0  0  0  0  # atno 17321 bound_to 7965
  140.7781  143.4960  150.9832 LP  0  0  0  0  0  0  0  0  0  0  0  0  # atno 17342 bound_to 10162
  139.8648  143.7268  152.3171 LP  0  0  0  0  0  0  0  0  0  0  0  0  # atno 17343 bound_to 10162
  156.7041  130.4632  149.5565 LP  0  0  0  0  0  0  0  0  0  0  0  0  # atno 17370 bound_to 10713
  156.1775  130.6477  151.0911 LP  0  0  0  0  0  0  0  0  0  0  0  0  # atno 17371 bound_to 10713
  140.5645  134.0503  155.7410 LP  0  0  0  0  0  0  0  0  0  0  0  0  # atno 17394 bound_to 11000
  141.1212  133.9458  157.2726 LP  0  0  0  0  0  0  0  0  0  0  0  0  # atno 17395 bound_to 11000

$$$$
