#       Name:                AV-unprocessed.smi:1207
#       Creating user name   scv26
#       Creation time:       Fri Mar 27 04:09:55 2020


#       File generated by GOLD software.
#

@<TRIPOS>MOLECULE
AV-unprocessed.smi:1207
    58    60     1
SMALL
NO_CHARGES


@<TRIPOS>ATOM
      1 ****         1.3325   4.7564   2.0601 C.3            1 S1                 0.0000
      2 ****         0.3290   3.6634   1.7341 C.ar           1 S1                 0.0000
      3 ****        -0.4773   3.1551   2.7772 C.ar           1 S1                 0.0000
      4 ****        -1.3854   2.1560   2.4480 C.ar           1 S1                 0.0000
      5 ****        -2.3047   1.4618   3.2370 N.pl3          1 S1                 1.0000
      6 ****        -2.9817   0.5666   2.4661 C.2            1 S1                 0.0000
      7 ****        -2.5048   0.6748   1.1961 N.pl3          1 S1                 0.0000
      8 ****        -2.8968  -0.0593  -0.0158 C.3            1 S1                 0.0000
      9 ****        -2.2414  -1.4521  -0.1247 C.3            1 S1                 0.0000
     10 ****        -2.6172  -1.9885  -1.3775 O.3            1 S1                 0.0000
     11 ****        -0.6991  -1.4190  -0.0201 C.3            1 S1                 0.0000
     12 ****        -0.0496  -2.7474  -0.2049 N.4            1 S1                 1.0000
     13 ****        -0.3834  -3.7142   0.8686 C.3            1 S1                 0.0000
     14 ****         1.4206  -2.6580  -0.4066 C.3            1 S1                 0.0000
     15 ****         1.7812  -1.9010  -1.6596 C.2            1 S1                 0.0000
     16 ****         2.3337  -0.5917  -1.7618 C.2            1 S1                 0.0000
     17 ****         2.7026   0.3542  -0.6550 C.3            1 S1                 0.0000
     18 ****         2.5115  -0.2280  -3.0199 N.2            1 S1                 0.0000
     19 ****         2.0858  -1.3107  -3.7957 O.3            1 S1                 0.0000
     20 ****         1.6588  -2.2942  -2.9642 C.2            1 S1                 0.0000
     21 ****         1.1570  -3.5407  -3.6110 C.3            1 S1                 0.0000
     22 ****        -1.5101   1.6600   1.1354 C.ar           1 S1                 0.0000
     23 ****        -0.7226   2.1514   0.0958 C.ar           1 S1                 0.0000
     24 ****         0.2083   3.1670   0.4105 C.ar           1 S1                 0.0000
     25 ****         1.0813   3.7190  -0.7037 C.3            1 S1                 0.0000
     26 ****         1.2610   5.0653   3.1035 H              1 S1                 0.0000
     27 ****         1.1576   5.6364   1.4408 H              1 S1                 0.0000
     28 ****         2.3497   4.4053   1.8848 H              1 S1                 0.0000
     29 ****        -0.3906   3.5284   3.7874 H              1 S1                 0.0000
     30 ****        -3.7572  -0.1070   2.8022 H              1 S1                 0.0000
     31 ****        -3.9828  -0.1609   0.0075 H              1 S1                 0.0000
     32 ****        -2.6721   0.5500  -0.8912 H              1 S1                 0.0000
     33 ****        -2.6614  -2.0815   0.6593 H              1 S1                 0.0000
     34 ****        -2.4043  -2.9087  -1.3961 H              1 S1                 0.0000
     35 ****        -0.3387  -0.7198  -0.7735 H              1 S1                 0.0000
     36 ****        -0.3883  -1.0156   0.9443 H              1 S1                 0.0000
     37 ****        -0.0680  -3.3398   1.8434 H              1 S1                 0.0000
     38 ****         0.1123  -4.6701   0.6968 H              1 S1                 0.0000
     39 ****        -1.4520  -3.9198   0.9080 H              1 S1                 0.0000
     40 ****         1.8709  -2.2016   0.4759 H              1 S1                 0.0000
     41 ****         1.8331  -3.6663  -0.4606 H              1 S1                 0.0000
     42 ****         1.8444   0.5629  -0.0169 H              1 S1                 0.0000
     43 ****         3.0687   1.3061  -1.0409 H              1 S1                 0.0000
     44 ****         3.4861  -0.0695  -0.0272 H              1 S1                 0.0000
     45 ****         0.8821  -4.2872  -2.8659 H              1 S1                 0.0000
     46 ****         1.9203  -3.9750  -4.2569 H              1 S1                 0.0000
     47 ****         0.2775  -3.3317  -4.2199 H              1 S1                 0.0000
     48 ****        -0.8087   1.7778  -0.9137 H              1 S1                 0.0000
     49 ****         0.9203   3.1836  -1.6400 H              1 S1                 0.0000
     50 ****         2.1368   3.6267  -0.4472 H              1 S1                 0.0000
     51 ****         0.8582   4.7719  -0.8776 H              1 S1                 0.0000
     52 ****        -0.4218  -3.1305  -1.0621 H              1 S1                 0.0000
     53 ****        -2.4636   1.5911   4.2283 H              1 S1                 0.0000
     54 ****        -2.1222  -1.5155  -2.1064 LP             1 S1                 0.0000
     55 ****        -3.6010  -1.8697  -1.5112 LP             1 S1                 0.0000
     56 ****         2.8759   0.6430  -3.3495 LP             1 S1                 0.0000
     57 ****         2.8456  -1.6461  -4.3527 LP             1 S1                 0.0000
     58 ****         1.3362  -1.0242  -4.3923 LP             1 S1                 0.0000
@<TRIPOS>BOND
    1    1    2 1     
    2    1   26 1     
    3    1   27 1     
    4    1   28 1     
    5    2   24 ar    
    6    2    3 ar    
    7    3    4 ar    
    8    3   29 1     
    9    4   22 ar    
   10    4    5 1     
   11    5    6 2     
   12    5   53 1     
   13    6    7 1     
   14    6   30 1     
   15    7    8 1     
   16    7   22 1     
   17    8    9 1     
   18    8   31 1     
   19    8   32 1     
   20    9   10 1     
   21    9   11 1     
   22    9   33 1     
   23   10   34 1     
   24   11   12 1     
   25   11   35 1     
   26   11   36 1     
   27   12   13 1     
   28   12   14 1     
   29   12   52 1     
   30   13   37 1     
   31   13   38 1     
   32   13   39 1     
   33   14   15 1     
   34   14   40 1     
   35   14   41 1     
   36   15   20 2     
   37   15   16 1     
   38   16   17 1     
   39   16   18 2     
   40   17   42 1     
   41   17   43 1     
   42   17   44 1     
   43   18   19 1     
   44   19   20 1     
   45   20   21 1     
   46   21   45 1     
   47   21   46 1     
   48   21   47 1     
   49   22   23 ar    
   50   23   24 ar    
   51   23   48 1     
   52   24   25 1     
   53   25   49 1     
   54   25   50 1     
   55   25   51 1     
   56   10   54 1     
   57   10   55 1     
   58   18   56 1     
   59   19   57 1     
   60   19   58 1     
@<TRIPOS>SUBSTRUCTURE
      1 S1             1
@<TRIPOS>SET
LONE_PAIRS      STATIC     ATOMS    <user>   **** ""
5 54 55 56 57 58
DONOR_HYDROGENS      STATIC     ATOMS    <user>   **** ""
3 53 34 52
ATOM$BLUE        STATIC     ATOMS    COLORGROUP SYSTEM
5 54 55 56 57 58
ATOM$RED        STATIC     ATOMS    COLORGROUP SYSTEM
3 53 34 52
