AV-unprocessed.smi:1874|AV-procd|sdf|7611|dock6
  -GOLD-   22720 9333D 1   1.00000     0.00000
 Structure written by MMmdl.
 45 46  0  0  0  0  0  0  0  0  1 V2000
  152.6991  142.4700  162.4504 C   0  0  0  0  0  0  0  0  0  0  0  0
  152.5838  143.3732  161.2203 C   0  0  0  0  0  0  0  0  0  0  0  0
  152.1856  144.5264  161.3853 O   0  0  0  0  0  0  0  0  0  0  0  0
  152.9163  142.8807  160.0028 N   0  0  0  0  0  0  0  0  0  0  0  0
  153.3175  141.4957  159.7265 C   0  0  0  0  0  0  0  0  0  0  0  0
  152.1811  140.7935  158.9621 C   0  0  0  0  0  0  0  0  0  0  0  0
  151.8115  141.5618  157.6719 C   0  0  0  0  0  0  0  0  0  0  0  0
  150.6062  141.0013  157.0695 N   0  0  0  0  0  0  0  0  0  0  0  0
  150.5306  140.4626  155.8434 C   0  0  0  0  0  0  0  0  0  0  0  0
  151.4916  140.3991  155.0748 O   0  0  0  0  0  0  0  0  0  0  0  0
  149.1506  139.9290  155.4299 C   0  0  0  0  0  0  0  0  0  0  0  0
  148.0482  140.8488  155.7480 N   0  0  0  0  0  0  0  0  0  0  0  0
  147.5378  141.5157  154.6511 N   0  0  0  0  0  0  0  0  0  0  0  0
  146.5442  142.3345  154.7635 C   0  0  0  0  0  0  0  0  0  0  0  0
  146.0698  142.9990  153.4992 C   0  0  0  0  0  0  0  0  0  0  0  0
  145.9444  142.5682  156.0733 C   0  0  0  0  0  0  0  0  0  0  0  0
  144.7731  143.5383  156.1441 C   0  0  0  0  0  0  0  0  0  0  0  0
  146.4633  141.9185  157.1452 C   0  0  0  0  0  0  0  0  0  0  0  0
  145.9459  142.0884  158.4645 C   0  0  0  0  0  0  0  0  0  0  0  0
  145.5303  142.2052  159.5386 N   0  0  0  0  0  0  0  0  0  0  0  0
  147.5910  140.9915  157.0256 C   0  0  0  0  0  0  0  0  0  0  0  0
  148.0867  140.3864  157.9777 O   0  0  0  0  0  0  0  0  0  0  0  0
  151.5992  143.0653  157.9515 C   0  0  0  0  0  0  0  0  0  0  0  0
  152.7647  143.6550  158.7657 C   0  0  0  0  0  0  0  0  0  0  0  0
  152.0705  141.5856  162.3420 H   0  0  0  0  0  0  0  0  0  0  0  0
  152.3755  142.9998  163.3470 H   0  0  0  0  0  0  0  0  0  0  0  0
  153.7319  142.1564  162.6039 H   0  0  0  0  0  0  0  0  0  0  0  0
  154.2247  141.4998  159.1205 H   0  0  0  0  0  0  0  0  0  0  0  0
  153.5697  140.9268  160.6200 H   0  0  0  0  0  0  0  0  0  0  0  0
  152.4751  139.7712  158.7212 H   0  0  0  0  0  0  0  0  0  0  0  0
  151.3076  140.7181  159.6117 H   0  0  0  0  0  0  0  0  0  0  0  0
  152.6411  141.4720  156.9677 H   0  0  0  0  0  0  0  0  0  0  0  0
  149.7674  141.0181  157.6314 H   0  0  0  0  0  0  0  0  0  0  0  0
  149.1541  139.7066  154.3610 H   0  0  0  0  0  0  0  0  0  0  0  0
  148.9961  138.9696  155.9271 H   0  0  0  0  0  0  0  0  0  0  0  0
  146.0606  144.0838  153.6091 H   0  0  0  0  0  0  0  0  0  0  0  0
  145.0593  142.6749  153.2495 H   0  0  0  0  0  0  0  0  0  0  0  0
  146.7119  142.7608  152.6497 H   0  0  0  0  0  0  0  0  0  0  0  0
  144.3258  143.5728  157.1370 H   0  0  0  0  0  0  0  0  0  0  0  0
  143.9878  143.2477  155.4456 H   0  0  0  0  0  0  0  0  0  0  0  0
  145.1002  144.5477  155.8937 H   0  0  0  0  0  0  0  0  0  0  0  0
  151.4889  143.6090  157.0126 H   0  0  0  0  0  0  0  0  0  0  0  0
  150.6699  143.2117  158.5045 H   0  0  0  0  0  0  0  0  0  0  0  0
  152.5898  144.7157  158.9500 H   0  0  0  0  0  0  0  0  0  0  0  0
  153.6897  143.6031  158.1897 H   0  0  0  0  0  0  0  0  0  0  0  0
  1  2  1  0  0  0  0
  1 25  1  0  0  0  0
  1 26  1  0  0  0  0
  1 27  1  0  0  0  0
  2  3  2  0  0  0  0
  2  4  1  0  0  0  0
  4 24  1  0  0  0  0
  4  5  1  0  0  0  0
  5  6  1  0  0  0  0
  5 28  1  0  0  0  0
  5 29  1  0  0  0  0
  6  7  1  0  0  0  0
  6 30  1  0  0  0  0
  6 31  1  0  0  0  0
  7  8  1  0  0  0  0
  7 23  1  0  0  0  0
  7 32  1  0  0  0  0
  8  9  1  0  0  0  0
  8 33  1  0  0  0  0
  9 10  2  0  0  0  0
  9 11  1  0  0  0  0
 11 12  1  0  0  0  0
 11 34  1  0  0  0  0
 11 35  1  0  0  0  0
 12 21  1  0  0  0  0
 12 13  1  0  0  0  0
 13 14  2  0  0  0  0
 14 15  1  0  0  0  0
 14 16  1  0  0  0  0
 15 36  1  0  0  0  0
 15 37  1  0  0  0  0
 15 38  1  0  0  0  0
 16 17  1  0  0  0  0
 16 18  2  0  0  0  0
 17 39  1  0  0  0  0
 17 40  1  0  0  0  0
 17 41  1  0  0  0  0
 18 19  1  0  0  0  0
 18 21  1  0  0  0  0
 19 20  3  0  0  0  0
 21 22  2  0  0  0  0
 23 24  1  0  0  0  0
 23 42  1  0  0  0  0
 23 43  1  0  0  0  0
 24 44  1  0  0  0  0
 24 45  1  0  0  0  0
M  END
> <s_m_source_file>
AV-unprocessed.smi

> <i_m_source_file_index>
1874

> <i_lp_mmshare_version>
43012

> <i_f3d_flags>
0

> <s_epik_input>
W0NIM11DKD1PKU4xW0NIMl1bQ0gyXVtDSF0oW0NIMl1bQ0gyXTEpW05IXUMoPU8pW0NIMl1uMm5jKFtDSDNdKWMoW0NIM10pYyhDI04pYzI9Tw==

> <s_epik_cmdline>
J2VwaWtfcHl0aG9uJywgJy1waCcsICc3LjAnLCAnLXRuJywgJzgnLCAnLW1hJywgJzIwMCcsICctbWV0YWxfYmluZGluZycsICctaW1hZScsICc8aW5maWxlLm1hZT4nLCAnLW9tYWUnLCAnPG91dGZpbGUubWFlPic=

> <r_lp_tautomer_probability>
1

> <r_epik_Ionization_Penalty>
1.12408e-06

> <r_epik_Ionization_Penalty_Charging>
2.25008e-11

> <r_epik_Ionization_Penalty_Neutral>
1.12405e-06

> <r_epik_State_Penalty>
-0

> <r_epik_Charging_Adjusted_Penalty>
2.25008e-11

> <i_epik_Tot_Q>
0

> <i_epik_Tot_abs_Q>
0

> <r_epik_Metal_State_Penalty>
-0

> <b_epik_Metal_Only>
0

> <s_lp_Force_Field>
OPLS_2005

> <r_lp_Energy>
36.4073

> <b_lp_Chiralities_Consistent>
1

> <s_lp_Variant>
AV-unprocessed.smi:1874-1

> <Gold.Version>
5.8.1

> <Gold.Id.Protein>
6NUR|6NUR_protein|mol2

> <Gold.PLP.Fitness>
48.6421

> <Gold.PLP.PLP>
-43.6275

> <Gold.PLP.part.hbond>
-2.9117

> <Gold.PLP.part.metal>
0.0000

> <Gold.PLP.part.buried>
-7.0351

> <Gold.PLP.part.nonpolar>
-34.6540

> <Gold.PLP.part.repulsive>
0.3896

> <Gold.PLP.ligand.clash>
0.0000

> <Gold.PLP.ligand.torsion>
0.3809

> <Gold.PLP.Chemscore.Hbond>
1.9193

> <Gold.PLP.Chemscore.CHOScore>
0.0000

> <Gold.PLP.Chemscore.Metal>
0.0000

> <Gold.Chemscore.Hbonds>
donor molecule, donor type, donor heavy atom, donor atom, acceptor molecule, acceptor atom, score
      P1  H  6934  6946       L1    20  0.44
      P1  H  7989  7998       L1    10  0.93

> <Gold.PLP.Chemscore.Internal.Correction>
0.0186

> <Gold.Rescore>
     Score         DG    S(hbond)    S(metal)    S(lipo)     H(rot)  DE(clash)    DE(int)     intcor
     13.18     -15.95       1.42        0.00      83.60       1.58       0.09       2.68       ----

> <Gold.Chemscore.Fitness>
13.1793

> <Gold.Chemscore.DG>
-15.9520

> <Gold.Chemscore.ZeroCoef>
-5.4800

> <Gold.Chemscore.Hbond>
1.4183

> <Gold.Chemscore.Metal>
0.0000

> <Gold.Chemscore.Lipo>
83.6035

> <Gold.Chemscore.Internal_Hbond>
0.0000

> <Gold.Chemscore.DEClash>
0.0934

> <Gold.Chemscore.DEInternal>
2.6793

> <Gold.Chemscore.Rot>
1.5808

> <Gold.Chemscore.Internal.Correction>
   9.000000E+99

> <Gold.Chemscore.Hbonds>
donor molecule, donor type, donor heavy atom, donor atom, acceptor molecule, acceptor atom, score
      P1  H  6934  6946       L1    20  0.15
      P1  H  7989  7998       L1    10  0.91

> <Gold.Chemscore.Hbond.Weighted>
-4.7373

> <Gold.Chemscore.Metal.Weighted>
-0.0000

> <Gold.Chemscore.Lipo.Weighted>
-9.7816

> <Gold.Chemscore.Internal_Hbond.Weighted>
0.0000

> <Gold.Chemscore.DEClash.Weighted>
0.0934

> <Gold.Chemscore.DEInternal.Weighted>
2.6793

> <Gold.Chemscore.Rot.Weighted>
4.0469

> <Gold.Chemscore.Internal.Correction.Weighted>
   9.000000E+99

> <Gold.Protein.RotatedTorsions>
[ 6907 6896 6895 6894 ] final  -61.93 input  -60.11 | X-H torsion
[ 7974 7965 7964 7962 ] final   35.07 input  175.53 | X-H torsion
[ 8008 7997 7996 7995 ] final  133.27 input   59.86 | X-H torsion
[ 10167 10162 10161 10158 ] final   24.66 input  -65.29 | X-H torsion
[ 10718 10713 10712 10709 ] final  101.75 input   66.30 | X-H torsion
[ 10763 10752 10751 10750 ] final   65.71 input  -60.55 | X-H torsion
[ 11005 11000 10999 10996 ] final  155.28 input  -57.11 | X-H torsion

> <Gold.Protein.ActiveResidues>
 VAL166  LYS551  ARG553  GLY616  TRP617  ASP618  TYR619  PRO620  LYS621  CYS622 
 ASP623  PHE694  ASN695  SER759  ASP760  ASP761  ALA762  ILE779  LEU786  VAL792 
 PHE793  MET794  SER795  GLU796  ALA797  LYS798  CYS799  TRP800  GLU811  SER814 

> <Gold.Protein.RotatedAtoms>
  150.7750  134.6639  159.6354 H   0  0  0  0  0  0  0  0  0  0  0  0  # atno 6907 bound_to 6896
  152.3817  134.6577  160.0149 H   0  0  0  0  0  0  0  0  0  0  0  0  # atno 6908 bound_to 6896
  151.6905  133.3274  159.3278 H   0  0  0  0  0  0  0  0  0  0  0  0  # atno 6909 bound_to 6896
  146.1309  139.6189  142.9227 H   0  0  0  0  0  0  0  0  0  0  0  0  # atno 7974 bound_to 7965
  156.2990  140.2525  156.3225 H   0  0  0  0  0  0  0  0  0  0  0  0  # atno 8008 bound_to 7997
  154.9222  140.0400  157.2023 H   0  0  0  0  0  0  0  0  0  0  0  0  # atno 8009 bound_to 7997
  154.8300  140.2874  155.5733 H   0  0  0  0  0  0  0  0  0  0  0  0  # atno 8010 bound_to 7997
  140.5170  144.0066  150.6398 H   0  0  0  0  0  0  0  0  0  0  0  0  # atno 10167 bound_to 10162
  157.6821  131.0734  150.5300 H   0  0  0  0  0  0  0  0  0  0  0  0  # atno 10718 bound_to 10713
  153.0108  135.5347  154.6710 H   0  0  0  0  0  0  0  0  0  0  0  0  # atno 10763 bound_to 10752
  154.5895  135.2857  155.0652 H   0  0  0  0  0  0  0  0  0  0  0  0  # atno 10764 bound_to 10752
  154.1751  135.6525  153.5072 H   0  0  0  0  0  0  0  0  0  0  0  0  # atno 10765 bound_to 10752
  140.1567  134.8638  157.2523 H   0  0  0  0  0  0  0  0  0  0  0  0  # atno 11005 bound_to 11000
  145.5263  141.0429  143.2407 LP  0  0  0  0  0  0  0  0  0  0  0  0  # atno 17320 bound_to 7965
  144.7689  139.6780  143.7203 LP  0  0  0  0  0  0  0  0  0  0  0  0  # atno 17321 bound_to 7965
  140.3405  143.3023  152.0593 LP  0  0  0  0  0  0  0  0  0  0  0  0  # atno 17342 bound_to 10162
  139.4912  144.6446  151.6805 LP  0  0  0  0  0  0  0  0  0  0  0  0  # atno 17343 bound_to 10162
  156.5610  130.4255  149.6063 LP  0  0  0  0  0  0  0  0  0  0  0  0  # atno 17370 bound_to 10713
  156.2821  130.7077  151.1903 LP  0  0  0  0  0  0  0  0  0  0  0  0  # atno 17371 bound_to 10713
  140.2539  134.3651  155.7432 LP  0  0  0  0  0  0  0  0  0  0  0  0  # atno 17394 bound_to 11000
  141.2205  133.7332  156.8977 LP  0  0  0  0  0  0  0  0  0  0  0  0  # atno 17395 bound_to 11000

$$$$
