#       Name:                AV-unprocessed.smi:1774
#       Creating user name   scv26
#       Creation time:       Fri Mar 27 08:40:57 2020


#       File generated by GOLD software.
#

@<TRIPOS>MOLECULE
AV-unprocessed.smi:1774
    51    52     1
SMALL
NO_CHARGES


@<TRIPOS>ATOM
      1 ****        -2.5993   5.2372  -0.0086 C.3            1 S1                 0.0000
      2 ****        -2.6161   4.5086   1.3255 C.ar           1 S1                 0.0000
      3 ****        -3.0189   5.2027   2.4864 C.ar           1 S1                 0.0000
      4 ****        -3.0346   4.5272   3.7187 C.ar           1 S1                 0.0000
      5 ****        -2.6441   3.1774   3.7381 C.ar           1 S1                 0.0000
      6 ****        -2.2572   2.5065   2.6339 N.ar           1 S1                 0.0000
      7 ****        -2.2376   3.1436   1.4361 C.ar           1 S1                 0.0000
      8 ****        -1.8366   2.4999   0.2314 N.am           1 S1                 0.0000
      9 ****        -1.4856   1.2149   0.0473 C.2            1 S1                 0.0000
     10 ****        -1.4786   0.3435   0.9175 O.2            1 S1                 0.0000
     11 ****        -1.1373   0.9825  -1.2268 N.am           1 S1                 0.0000
     12 ****        -0.7267  -0.3144  -1.7525 C.3            1 S1                 0.0000
     13 ****         0.7080  -0.6754  -1.3193 C.3            1 S1                 0.0000
     14 ****         1.1589  -1.9785  -1.8756 N.4            1 S1                 1.0000
     15 ****         2.6345  -2.1235  -1.9207 C.3            1 S1                 0.0000
     16 ****         3.2096  -2.4457  -0.5261 C.3            1 S1                 0.0000
     17 ****         4.7224  -2.6857  -0.5692 C.3            1 S1                 0.0000
     18 ****         2.5889  -3.6285  -0.0342 O.3            1 S1                 0.0000
     19 ****         1.1812  -3.4889   0.1267 C.3            1 S1                 0.0000
     20 ****         0.6402  -4.7918   0.7253 C.3            1 S1                 0.0000
     21 ****         0.5431  -3.1739  -1.2435 C.3            1 S1                 0.0000
     22 ****        -2.9388   6.2680   0.0970 H              1 S1                 0.0000
     23 ****        -3.2557   4.7402  -0.7236 H              1 S1                 0.0000
     24 ****        -1.5894   5.2570  -0.4194 H              1 S1                 0.0000
     25 ****        -3.3132   6.2408   2.4367 H              1 S1                 0.0000
     26 ****        -3.3381   5.0302   4.6250 H              1 S1                 0.0000
     27 ****        -2.6413   2.6209   4.6636 H              1 S1                 0.0000
     28 ****        -1.8139   3.0922  -0.5855 H              1 S1                 0.0000
     29 ****        -1.1723   1.7516  -1.8803 H              1 S1                 0.0000
     30 ****        -1.4462  -1.0672  -1.4297 H              1 S1                 0.0000
     31 ****        -0.7873  -0.2743  -2.8403 H              1 S1                 0.0000
     32 ****         1.3726   0.1121  -1.6777 H              1 S1                 0.0000
     33 ****         0.7995  -0.6761  -0.2335 H              1 S1                 0.0000
     34 ****         2.8757  -2.9348  -2.6092 H              1 S1                 0.0000
     35 ****         3.0951  -1.2260  -2.3352 H              1 S1                 0.0000
     36 ****         3.0126  -1.6218   0.1618 H              1 S1                 0.0000
     37 ****         5.2503  -1.8029  -0.9308 H              1 S1                 0.0000
     38 ****         4.9719  -3.5184  -1.2275 H              1 S1                 0.0000
     39 ****         5.1079  -2.9194   0.4236 H              1 S1                 0.0000
     40 ****         0.9793  -2.6830   0.8337 H              1 S1                 0.0000
     41 ****        -0.4379  -4.7353   0.8781 H              1 S1                 0.0000
     42 ****         1.1017  -4.9979   1.6915 H              1 S1                 0.0000
     43 ****         0.8418  -5.6416   0.0723 H              1 S1                 0.0000
     44 ****        -0.5357  -3.0594  -1.1474 H              1 S1                 0.0000
     45 ****         0.6958  -4.0206  -1.9143 H              1 S1                 0.0000
     46 ****         0.8535  -1.9725  -2.8383 H              1 S1                 0.0000
     47 ****        -1.9866   1.5459   2.6975 LP             1 S1                 0.0000
     48 ****        -1.7500   0.5691   1.8532 LP             1 S1                 0.0000
     49 ****        -1.2016  -0.5896   0.6884 LP             1 S1                 0.0000
     50 ****         2.9907  -3.8545   0.8532 LP             1 S1                 0.0000
     51 ****         2.7642  -4.3727  -0.6787 LP             1 S1                 0.0000
@<TRIPOS>BOND
    1    1    2 1     
    2    1   22 1     
    3    1   23 1     
    4    1   24 1     
    5    2    7 ar    
    6    2    3 ar    
    7    3    4 ar    
    8    3   25 1     
    9    4    5 ar    
   10    4   26 1     
   11    5    6 ar    
   12    5   27 1     
   13    6    7 ar    
   14    7    8 1     
   15    8    9 am    
   16    8   28 1     
   17    9   10 2     
   18    9   11 am    
   19   11   12 1     
   20   11   29 1     
   21   12   13 1     
   22   12   30 1     
   23   12   31 1     
   24   13   14 1     
   25   13   32 1     
   26   13   33 1     
   27   14   21 1     
   28   14   15 1     
   29   14   46 1     
   30   15   16 1     
   31   15   34 1     
   32   15   35 1     
   33   16   17 1     
   34   16   18 1     
   35   16   36 1     
   36   17   37 1     
   37   17   38 1     
   38   17   39 1     
   39   18   19 1     
   40   19   20 1     
   41   19   21 1     
   42   19   40 1     
   43   20   41 1     
   44   20   42 1     
   45   20   43 1     
   46   21   44 1     
   47   21   45 1     
   48    6   47 1     
   49   10   48 1     
   50   10   49 1     
   51   18   50 1     
   52   18   51 1     
@<TRIPOS>SUBSTRUCTURE
      1 S1             1
@<TRIPOS>SET
LONE_PAIRS      STATIC     ATOMS    <user>   **** ""
5 47 48 49 50 51
DONOR_HYDROGENS      STATIC     ATOMS    <user>   **** ""
3 28 29 46
ATOM$BLUE        STATIC     ATOMS    COLORGROUP SYSTEM
5 47 48 49 50 51
ATOM$RED        STATIC     ATOMS    COLORGROUP SYSTEM
3 28 29 46
