#       Name:                AV-unprocessed.smi:3028
#       Creating user name   scv26
#       Creation time:       Fri Mar 27 16:46:05 2020


#       File generated by GOLD software.
#

@<TRIPOS>MOLECULE
AV-unprocessed.smi:3028
    53    54     1
SMALL
NO_CHARGES


@<TRIPOS>ATOM
      1 ****        -3.5785  -3.9047  -4.0400 C.3            1 S1                 0.0000
      2 ****        -3.3746  -3.5767  -2.5892 C.2            1 S1                 0.0000
      3 ****        -3.6111  -4.4122  -1.4611 C.2            1 S1                 0.0000
      4 ****        -3.3318  -3.8178  -0.3130 N.2            1 S1                 0.0000
      5 ****        -2.9069  -2.5841  -0.6626 N.pl3          1 S1                 0.0000
      6 ****        -2.5105  -1.6334   0.3693 C.3            1 S1                 0.0000
      7 ****        -3.4489  -0.4122   0.3292 C.3            1 S1                 0.0000
      8 ****        -1.0117  -1.2438   0.2542 C.3            1 S1                 0.0000
      9 ****        -0.0764  -2.4682   0.1420 C.3            1 S1                 0.0000
     10 ****        -0.6536  -0.4675   1.4390 N.3            1 S1                 0.0000
     11 ****         0.5362   0.3765   1.2541 C.3            1 S1                 0.0000
     12 ****         0.8219   1.2794   2.4648 C.2            1 S1                 0.0000
     13 ****         0.1617   1.1633   3.4967 O.2            1 S1                 0.0000
     14 ****         1.8064   2.1905   2.3827 N.am           1 S1                 0.0000
     15 ****         2.2351   3.1372   3.4103 C.3            1 S1                 0.0000
     16 ****         2.7423   4.4264   2.7464 C.3            1 S1                 0.0000
     17 ****         3.3426   5.3783   3.7940 C.3            1 S1                 0.0000
     18 ****         4.3827   4.7212   4.5104 O.3            1 S1                 0.0000
     19 ****         3.9243   3.5865   5.2379 C.3            1 S1                 0.0000
     20 ****         3.3591   2.5344   4.2700 C.3            1 S1                 0.0000
     21 ****        -2.9238  -2.4135  -2.0325 C.2            1 S1                 0.0000
     22 ****        -3.7769  -4.9659  -4.1921 H              1 S1                 0.0000
     23 ****        -2.7016  -3.6535  -4.6371 H              1 S1                 0.0000
     24 ****        -4.4222  -3.3569  -4.4601 H              1 S1                 0.0000
     25 ****        -3.9771  -5.4283  -1.4430 H              1 S1                 0.0000
     26 ****        -2.6565  -2.1254   1.3335 H              1 S1                 0.0000
     27 ****        -3.2583   0.2680   1.1594 H              1 S1                 0.0000
     28 ****        -4.4925  -0.7205   0.3984 H              1 S1                 0.0000
     29 ****        -3.3298   0.1534  -0.5954 H              1 S1                 0.0000
     30 ****        -0.8900  -0.6249  -0.6363 H              1 S1                 0.0000
     31 ****        -0.2998  -3.0665  -0.7412 H              1 S1                 0.0000
     32 ****        -0.1714  -3.1187   1.0121 H              1 S1                 0.0000
     33 ****         0.9703  -2.1792   0.0561 H              1 S1                 0.0000
     34 ****        -0.5626  -1.0795   2.2375 H              1 S1                 0.0000
     35 ****         1.4104  -0.2506   1.0836 H              1 S1                 0.0000
     36 ****         0.3981   1.0025   0.3722 H              1 S1                 0.0000
     37 ****         2.3137   2.2294   1.5104 H              1 S1                 0.0000
     38 ****         1.3980   3.4057   4.0557 H              1 S1                 0.0000
     39 ****         3.5043   4.1877   2.0030 H              1 S1                 0.0000
     40 ****         1.9303   4.9219   2.2131 H              1 S1                 0.0000
     41 ****         3.7556   6.2607   3.3047 H              1 S1                 0.0000
     42 ****         2.5756   5.7290   4.4863 H              1 S1                 0.0000
     43 ****         4.7591   3.1680   5.8001 H              1 S1                 0.0000
     44 ****         3.1702   3.8886   5.9664 H              1 S1                 0.0000
     45 ****         2.9959   1.6724   4.8299 H              1 S1                 0.0000
     46 ****         4.1630   2.1712   3.6280 H              1 S1                 0.0000
     47 ****        -2.6168  -1.4861  -2.4935 H              1 S1                 0.0000
     48 ****        -3.4163  -4.1971   0.6084 LP             1 S1                 0.0000
     49 ****        -1.4008   0.1758   1.6060 LP             1 S1                 0.0000
     50 ****        -0.5652   0.4787   3.5508 LP             1 S1                 0.0000
     51 ****         0.3521   1.7535   4.2812 LP             1 S1                 0.0000
     52 ****         4.7863   5.3712   5.1543 LP             1 S1                 0.0000
     53 ****         5.0792   4.4219   3.8583 LP             1 S1                 0.0000
@<TRIPOS>BOND
    1    1    2 1     
    2    1   22 1     
    3    1   23 1     
    4    1   24 1     
    5    2   21 2     
    6    2    3 1     
    7    3    4 2     
    8    3   25 1     
    9    4    5 1     
   10    5    6 1     
   11    5   21 1     
   12    6    7 1     
   13    6    8 1     
   14    6   26 1     
   15    7   27 1     
   16    7   28 1     
   17    7   29 1     
   18    8    9 1     
   19    8   10 1     
   20    8   30 1     
   21    9   31 1     
   22    9   32 1     
   23    9   33 1     
   24   10   11 1     
   25   10   34 1     
   26   11   12 1     
   27   11   35 1     
   28   11   36 1     
   29   12   13 2     
   30   12   14 am    
   31   14   15 1     
   32   14   37 1     
   33   15   20 1     
   34   15   16 1     
   35   15   38 1     
   36   16   17 1     
   37   16   39 1     
   38   16   40 1     
   39   17   18 1     
   40   17   41 1     
   41   17   42 1     
   42   18   19 1     
   43   19   20 1     
   44   19   43 1     
   45   19   44 1     
   46   20   45 1     
   47   20   46 1     
   48   21   47 1     
   49    4   48 1     
   50   10   49 1     
   51   13   50 1     
   52   13   51 1     
   53   18   52 1     
   54   18   53 1     
@<TRIPOS>SUBSTRUCTURE
      1 S1             1
@<TRIPOS>SET
LONE_PAIRS      STATIC     ATOMS    <user>   **** ""
6 48 49 50 51 52 53
DONOR_HYDROGENS      STATIC     ATOMS    <user>   **** ""
2 34 37
ATOM$BLUE        STATIC     ATOMS    COLORGROUP SYSTEM
6 48 49 50 51 52 53
ATOM$RED        STATIC     ATOMS    COLORGROUP SYSTEM
2 34 37
