AV-unprocessed.smi:299|AV-procd|sdf|2265|dock5
  -GOLD-   2262022153D 1   1.00000     0.00000
 Structure written by MMmdl.
 42 43  0  0  0  0  0  0  0  0  2 V2000
  142.8485  134.5611  152.3530 C   0  0  0  0  0  0  0  0  0  0  0  0
  144.1073  133.7339  152.0187 C   0  0  2  0  0  0  0  0  0  0  0  0
  143.6889  132.5480  151.1211 C   0  0  0  0  0  0  0  0  0  0  0  0
  144.8813  131.6723  150.7307 C   0  0  0  0  0  0  0  0  0  0  0  0
  145.5956  131.1989  151.9957 C   0  0  0  0  0  0  0  0  0  0  0  0
  146.0083  132.3956  152.8642 C   0  0  0  0  0  0  0  0  0  0  0  0
  144.8423  133.2505  153.2349 N   0  3  1  0  0  0  0  0  0  0  0  0
  145.2268  134.3387  154.1820 C   0  0  0  0  0  0  0  0  0  0  0  0
  146.2782  135.3114  153.6129 C   0  0  0  0  0  0  0  0  0  0  0  0
  147.1960  135.8842  154.7059 C   0  0  0  0  0  0  0  0  0  0  0  0
  147.9947  136.9966  154.2045 N   0  0  0  0  0  0  0  0  0  0  0  0
  148.5854  137.9282  154.9707 C   0  0  0  0  0  0  0  0  0  0  0  0
  148.4987  137.9459  156.1982 O   0  0  0  0  0  0  0  0  0  0  0  0
  149.3814  139.0177  154.2475 C   0  0  0  0  0  0  0  0  0  0  0  0
  150.8044  138.9181  154.5179 N   0  0  0  0  0  0  0  0  0  0  0  0
  151.6486  137.8911  154.4022 C   0  0  0  0  0  0  0  0  0  0  0  0
  152.8784  138.2256  154.7614 N   0  0  0  0  0  0  0  0  0  0  0  0
  152.7509  139.5584  155.1155 N   0  0  0  0  0  0  0  0  0  0  0  0
  151.5227  139.9752  154.9723 N   0  0  0  0  0  0  0  0  0  0  0  0
  142.2529  134.7426  151.4578 H   0  0  0  0  0  0  0  0  0  0  0  0
  143.0909  135.5446  152.7542 H   0  0  0  0  0  0  0  0  0  0  0  0
  142.2108  134.0431  153.0702 H   0  0  0  0  0  0  0  0  0  0  0  0
  144.7865  134.3697  151.4479 H   0  0  0  0  0  0  0  0  0  0  0  0
  142.9457  131.9387  151.6379 H   0  0  0  0  0  0  0  0  0  0  0  0
  143.2057  132.9162  150.2150 H   0  0  0  0  0  0  0  0  0  0  0  0
  144.5458  130.8169  150.1435 H   0  0  0  0  0  0  0  0  0  0  0  0
  145.5697  132.2370  150.1007 H   0  0  0  0  0  0  0  0  0  0  0  0
  144.9417  130.5370  152.5654 H   0  0  0  0  0  0  0  0  0  0  0  0
  146.4745  130.6116  151.7282 H   0  0  0  0  0  0  0  0  0  0  0  0
  146.4959  131.9977  153.7519 H   0  0  0  0  0  0  0  0  0  0  0  0
  146.7512  132.9998  152.3411 H   0  0  0  0  0  0  0  0  0  0  0  0
  144.3370  134.8831  154.5017 H   0  0  0  0  0  0  0  0  0  0  0  0
  145.6675  133.9128  155.0802 H   0  0  0  0  0  0  0  0  0  0  0  0
  146.8860  134.7977  152.8668 H   0  0  0  0  0  0  0  0  0  0  0  0
  145.7909  136.1422  153.1041 H   0  0  0  0  0  0  0  0  0  0  0  0
  146.6112  136.2005  155.5716 H   0  0  0  0  0  0  0  0  0  0  0  0
  147.8805  135.1131  155.0605 H   0  0  0  0  0  0  0  0  0  0  0  0
  148.1151  137.0575  153.2038 H   0  0  0  0  0  0  0  0  0  0  0  0
  149.2183  138.9367  153.1722 H   0  0  0  0  0  0  0  0  0  0  0  0
  149.0324  140.0054  154.5527 H   0  0  0  0  0  0  0  0  0  0  0  0
  151.3641  136.9069  154.0602 H   0  0  0  0  0  0  0  0  0  0  0  0
  144.1955  132.6559  153.7331 H   0  0  0  0  0  0  0  0  0  0  0  0
  1  2  1  0  0  0  0
  1 20  1  0  0  0  0
  1 21  1  0  0  0  0
  1 22  1  0  0  0  0
  2  7  1  0  0  0  0
  2  3  1  0  0  0  0
  2 23  1  0  0  0  0
  3  4  1  0  0  0  0
  3 24  1  0  0  0  0
  3 25  1  0  0  0  0
  4  5  1  0  0  0  0
  4 26  1  0  0  0  0
  4 27  1  0  0  0  0
  5  6  1  0  0  0  0
  5 28  1  0  0  0  0
  5 29  1  0  0  0  0
  6  7  1  0  0  0  0
  6 30  1  0  0  0  0
  6 31  1  0  0  0  0
  7  8  1  0  0  0  0
  7 42  1  0  0  0  0
  8  9  1  0  0  0  0
  8 32  1  0  0  0  0
  8 33  1  0  0  0  0
  9 10  1  0  0  0  0
  9 34  1  0  0  0  0
  9 35  1  0  0  0  0
 10 11  1  0  0  0  0
 10 36  1  0  0  0  0
 10 37  1  0  0  0  0
 11 12  1  0  0  0  0
 11 38  1  0  0  0  0
 12 13  2  0  0  0  0
 12 14  1  0  0  0  0
 14 15  1  0  0  0  0
 14 39  1  0  0  0  0
 14 40  1  0  0  0  0
 15 19  1  0  0  0  0
 15 16  1  0  0  0  0
 16 17  2  0  0  0  0
 16 41  1  0  0  0  0
 17 18  1  0  0  0  0
 18 19  2  0  0  0  0
M  CHG  1   7   1
M  END
> <s_m_source_file>
AV-unprocessed.smi

> <i_m_source_file_index>
299

> <i_lp_mmshare_version>
43012

> <i_f3d_flags>
0

> <s_epik_input>
W0NIM11bQ0BASF0xW0NIMl1bQ0gyXVtDSDJdW0NIMl1OMVtDSDJdW0NIMl1bQ0gyXVtOSF1DKD1PKVtDSDJdbjJbY0hdbm5uMg==

> <s_epik_cmdline>
J2VwaWtfcHl0aG9uJywgJy1waCcsICc3LjAnLCAnLXRuJywgJzgnLCAnLW1hJywgJzIwMCcsICctbWV0YWxfYmluZGluZycsICctaW1hZScsICc8aW5maWxlLm1hZT4nLCAnLW9tYWUnLCAnPG91dGZpbGUubWFlPic=

> <r_lp_tautomer_probability>
1

> <r_epik_Ionization_Penalty>
0.000544863

> <r_epik_Ionization_Penalty_Charging>
0.000543475

> <r_epik_Ionization_Penalty_Neutral>
1.38784e-06

> <r_epik_State_Penalty>
0.000340025

> <r_epik_Charging_Adjusted_Penalty>
0.0008835

> <i_epik_Tot_Q>
1

> <i_epik_Tot_abs_Q>
1

> <r_epik_Metal_State_Penalty>
-0

> <b_epik_Metal_Only>
0

> <s_lp_Force_Field>
OPLS_2005

> <r_lp_Energy>
24.2757

> <b_lp_Chiralities_Consistent>
1

> <s_lp_Variant>
AV-unprocessed.smi:299-1

> <Gold.Version>
5.8.1

> <Gold.Id.Protein>
6NUR|6NUR_protein|mol2

> <Gold.PLP.Fitness>
48.7792

> <Gold.PLP.PLP>
-32.5402

> <Gold.PLP.part.hbond>
-5.8056

> <Gold.PLP.part.metal>
0.0000

> <Gold.PLP.part.buried>
-7.5067

> <Gold.PLP.part.nonpolar>
-21.4278

> <Gold.PLP.part.repulsive>
0.1173

> <Gold.PLP.ligand.clash>
0.0000

> <Gold.PLP.ligand.torsion>
0.4934

> <Gold.PLP.Chemscore.Hbond>
4.7200

> <Gold.PLP.Chemscore.CHOScore>
1.0000

> <Gold.PLP.Chemscore.Metal>
0.0000

> <Gold.Chemscore.Hbonds>
donor molecule, donor type, donor heavy atom, donor atom, acceptor molecule, acceptor atom, score
      L1  H     7    42       P1 10957  1.92
      L1  H    11    38       P1  7948  0.82
      P1  H  7989  7998       L1    19  0.95
      P1  H  7997  8010       L1    18  1.00
      L1  C    16    41       P1  7949  0.48

> <Gold.PLP.Chemscore.Internal.Correction>
0.0659

> <Gold.Rescore>
     Score         DG    S(hbond)    S(metal)    S(lipo)     H(rot)  DE(clash)    DE(int)     intcor
     15.32     -16.01       3.68        0.00      49.87       2.97       0.03       0.65       ----

> <Gold.Chemscore.Fitness>
15.3209

> <Gold.Chemscore.DG>
-16.0054

> <Gold.Chemscore.ZeroCoef>
-5.4800

> <Gold.Chemscore.Hbond>
3.6791

> <Gold.Chemscore.Metal>
0.0000

> <Gold.Chemscore.Lipo>
49.8723

> <Gold.Chemscore.Internal_Hbond>
0.0000

> <Gold.Chemscore.DEClash>
0.0300

> <Gold.Chemscore.DEInternal>
0.6544

> <Gold.Chemscore.Rot>
2.9680

> <Gold.Chemscore.Internal.Correction>
   9.000000E+99

> <Gold.Chemscore.Hbonds>
donor molecule, donor type, donor heavy atom, donor atom, acceptor molecule, acceptor atom, score
      L1  H     7    42       P1 10957  0.55
      L1  H    11    38       P1  7948  0.81
      P1  H  7989  7998       L1    19  0.06
      P1  H  7997  8010       L1    18  0.73

> <Gold.Chemscore.Hbond.Weighted>
-12.2883

> <Gold.Chemscore.Metal.Weighted>
-0.0000

> <Gold.Chemscore.Lipo.Weighted>
-5.8351

> <Gold.Chemscore.Internal_Hbond.Weighted>
0.0000

> <Gold.Chemscore.DEClash.Weighted>
0.0300

> <Gold.Chemscore.DEInternal.Weighted>
0.6544

> <Gold.Chemscore.Rot.Weighted>
7.5980

> <Gold.Chemscore.Internal.Correction.Weighted>
   9.000000E+99

> <Gold.Protein.RotatedTorsions>
[ 6907 6896 6895 6894 ] final   53.01 input  -60.11 | X-H torsion
[ 7974 7965 7964 7962 ] final  108.74 input  175.53 | X-H torsion
[ 8008 7997 7996 7995 ] final   94.00 input   59.86 | X-H torsion
[ 10167 10162 10161 10158 ] final  -92.10 input  -65.29 | X-H torsion
[ 10718 10713 10712 10709 ] final  -51.12 input   66.30 | X-H torsion
[ 10763 10752 10751 10750 ] final  -55.65 input  -60.55 | X-H torsion
[ 11005 11000 10999 10996 ] final  -76.62 input  -57.11 | X-H torsion

> <Gold.Protein.ActiveResidues>
 VAL166  LYS551  ARG553  GLY616  TRP617  ASP618  TYR619  PRO620  LYS621  CYS622 
 ASP623  PHE694  ASN695  SER759  ASP760  ASP761  ALA762  ILE779  LEU786  VAL792 
 PHE793  MET794  SER795  GLU796  ALA797  LYS798  CYS799  TRP800  GLU811  SER814 

> <Gold.Protein.RotatedAtoms>
  152.3292  134.7281  160.0293 H   0  0  0  0  0  0  0  0  0  0  0  0  # atno 6907 bound_to 6896
  151.7703  133.3335  159.3450 H   0  0  0  0  0  0  0  0  0  0  0  0  # atno 6908 bound_to 6896
  150.7413  134.5956  159.6055 H   0  0  0  0  0  0  0  0  0  0  0  0  # atno 6909 bound_to 6896
  145.2768  139.2647  143.3937 H   0  0  0  0  0  0  0  0  0  0  0  0  # atno 7974 bound_to 7965
  156.0530  140.3305  155.7373 H   0  0  0  0  0  0  0  0  0  0  0  0  # atno 8008 bound_to 7997
  155.5572  140.0615  157.2854 H   0  0  0  0  0  0  0  0  0  0  0  0  # atno 8009 bound_to 7997
  154.4444  140.1884  156.0734 H   0  0  0  0  0  0  0  0  0  0  0  0  # atno 8010 bound_to 7997
  140.3382  143.2957  151.9865 H   0  0  0  0  0  0  0  0  0  0  0  0  # atno 10167 bound_to 10162
  156.1738  130.4149  149.9607 H   0  0  0  0  0  0  0  0  0  0  0  0  # atno 10718 bound_to 10713
  154.1941  135.6422  153.5068 H   0  0  0  0  0  0  0  0  0  0  0  0  # atno 10763 bound_to 10752
  153.0028  135.5435  154.6384 H   0  0  0  0  0  0  0  0  0  0  0  0  # atno 10764 bound_to 10752
  154.5780  135.2922  155.0734 H   0  0  0  0  0  0  0  0  0  0  0  0  # atno 10765 bound_to 10752
  141.1655  133.6991  156.7697 H   0  0  0  0  0  0  0  0  0  0  0  0  # atno 11005 bound_to 11000
  146.3229  140.3224  142.8634 LP  0  0  0  0  0  0  0  0  0  0  0  0  # atno 17320 bound_to 7965
  144.9288  140.7951  143.5702 LP  0  0  0  0  0  0  0  0  0  0  0  0  # atno 17321 bound_to 7965
  139.4845  144.6179  151.7312 LP  0  0  0  0  0  0  0  0  0  0  0  0  # atno 17342 bound_to 10162
  140.5334  144.0695  150.6061 LP  0  0  0  0  0  0  0  0  0  0  0  0  # atno 17343 bound_to 10162
  156.7399  130.9075  151.3631 LP  0  0  0  0  0  0  0  0  0  0  0  0  # atno 17370 bound_to 10713
  157.6821  130.9150  150.0294 LP  0  0  0  0  0  0  0  0  0  0  0  0  # atno 17371 bound_to 10713
  140.2473  134.8567  157.3633 LP  0  0  0  0  0  0  0  0  0  0  0  0  # atno 17394 bound_to 11000
  140.1737  134.4577  155.7815 LP  0  0  0  0  0  0  0  0  0  0  0  0  # atno 17395 bound_to 11000

$$$$
