AV-unprocessed.smi:3183|AV-procd|sdf|12156|dock3
  -GOLD-   2272017593D 1   1.00000     0.00000
 Structure written by MMmdl.
 43 44  0  0  0  0  0  0  0  0  2 V2000
  143.9079  132.2375  150.8027 C   0  0  0  0  0  0  0  0  0  0  0  0
  144.0953  133.7602  150.9036 C   0  0  1  0  0  0  0  0  0  0  0  0
  143.4379  134.3349  152.1734 C   0  0  0  0  0  0  0  0  0  0  0  0
  143.5547  135.8662  152.2210 C   0  0  0  0  0  0  0  0  0  0  0  0
  145.0178  136.3321  152.1140 C   0  0  2  0  0  0  0  0  0  0  0  0
  145.0702  137.8111  152.1267 N   0  3  0  0  0  0  0  0  0  0  0  0
  146.4209  138.3958  152.2633 C   0  0  0  0  0  0  0  0  0  0  0  0
  146.7160  138.7608  153.7255 C   0  0  0  0  0  0  0  0  0  0  0  0
  147.2945  140.1305  153.9130 C   0  0  0  0  0  0  0  0  0  0  0  0
  146.7064  141.3663  153.9122 C   0  0  0  0  0  0  0  0  0  0  0  0
  147.7839  142.2654  154.1418 C   0  0  0  0  0  0  0  0  0  0  0  0
  148.9424  141.6442  154.2740 N   0  0  0  0  0  0  0  0  0  0  0  0
  148.6444  140.3350  154.1357 N   0  0  0  0  0  0  0  0  0  0  0  0
  149.7083  139.3534  154.2247 C   0  0  0  0  0  0  0  0  0  0  0  0
  145.6729  135.7478  150.8418 C   0  0  0  0  0  0  0  0  0  0  0  0
  145.5737  134.2086  150.7755 C   0  0  1  0  0  0  0  0  0  0  0  0
  146.5287  133.5336  151.7812 C   0  0  0  0  0  0  0  0  0  0  0  0
  144.3304  131.7190  151.6637 H   0  0  0  0  0  0  0  0  0  0  0  0
  144.3824  131.8405  149.9047 H   0  0  0  0  0  0  0  0  0  0  0  0
  142.8497  131.9791  150.7556 H   0  0  0  0  0  0  0  0  0  0  0  0
  143.5638  134.1875  150.0514 H   0  0  0  0  0  0  0  0  0  0  0  0
  142.3848  134.0530  152.2049 H   0  0  0  0  0  0  0  0  0  0  0  0
  143.8940  133.9018  153.0642 H   0  0  0  0  0  0  0  0  0  0  0  0
  142.9696  136.2961  151.4065 H   0  0  0  0  0  0  0  0  0  0  0  0
  143.1110  136.2356  153.1465 H   0  0  0  0  0  0  0  0  0  0  0  0
  145.5505  135.9726  152.9955 H   0  0  0  0  0  0  0  0  0  0  0  0
  144.6387  138.1614  151.2833 H   0  0  0  0  0  0  0  0  0  0  0  0
  147.1611  137.6790  151.9049 H   0  0  0  0  0  0  0  0  0  0  0  0
  146.4998  139.2861  151.6396 H   0  0  0  0  0  0  0  0  0  0  0  0
  145.7960  138.6834  154.3062 H   0  0  0  0  0  0  0  0  0  0  0  0
  147.4036  138.0260  154.1462 H   0  0  0  0  0  0  0  0  0  0  0  0
  145.6616  141.5989  153.7687 H   0  0  0  0  0  0  0  0  0  0  0  0
  147.7588  143.3426  154.2149 H   0  0  0  0  0  0  0  0  0  0  0  0
  149.4276  138.5663  154.9249 H   0  0  0  0  0  0  0  0  0  0  0  0
  150.6326  139.8174  154.5726 H   0  0  0  0  0  0  0  0  0  0  0  0
  149.8822  138.9130  153.2427 H   0  0  0  0  0  0  0  0  0  0  0  0
  145.1874  136.1723  149.9618 H   0  0  0  0  0  0  0  0  0  0  0  0
  146.7205  136.0412  150.7755 H   0  0  0  0  0  0  0  0  0  0  0  0
  145.9181  133.9126  149.7836 H   0  0  0  0  0  0  0  0  0  0  0  0
  146.2350  133.7130  152.8148 H   0  0  0  0  0  0  0  0  0  0  0  0
  147.5463  133.9059  151.6606 H   0  0  0  0  0  0  0  0  0  0  0  0
  146.5683  132.4548  151.6321 H   0  0  0  0  0  0  0  0  0  0  0  0
  144.5268  138.1259  152.9178 H   0  0  0  0  0  0  0  0  0  0  0  0
  1  2  1  0  0  0  0
  1 18  1  0  0  0  0
  1 19  1  0  0  0  0
  1 20  1  0  0  0  0
  2 16  1  0  0  0  0
  2  3  1  0  0  0  0
  2 21  1  0  0  0  0
  3  4  1  0  0  0  0
  3 22  1  0  0  0  0
  3 23  1  0  0  0  0
  4  5  1  0  0  0  0
  4 24  1  0  0  0  0
  4 25  1  0  0  0  0
  5  6  1  0  0  0  0
  5 15  1  0  0  0  0
  5 26  1  0  0  0  0
  6  7  1  0  0  0  0
  6 27  1  0  0  0  0
  6 43  1  0  0  0  0
  7  8  1  0  0  0  0
  7 28  1  0  0  0  0
  7 29  1  0  0  0  0
  8  9  1  0  0  0  0
  8 30  1  0  0  0  0
  8 31  1  0  0  0  0
  9 13  1  0  0  0  0
  9 10  2  0  0  0  0
 10 11  1  0  0  0  0
 10 32  1  0  0  0  0
 11 12  2  0  0  0  0
 11 33  1  0  0  0  0
 12 13  1  0  0  0  0
 13 14  1  0  0  0  0
 14 34  1  0  0  0  0
 14 35  1  0  0  0  0
 14 36  1  0  0  0  0
 15 16  1  0  0  0  0
 15 37  1  0  0  0  0
 15 38  1  0  0  0  0
 16 17  1  0  0  0  0
 16 39  1  0  0  0  0
 17 40  1  0  0  0  0
 17 41  1  0  0  0  0
 17 42  1  0  0  0  0
M  CHG  1   6   1
M  END
> <s_m_source_file>
AV-unprocessed.smi

> <i_m_source_file_index>
3183

> <i_lp_mmshare_version>
43012

> <i_f3d_flags>
0

> <s_epik_input>
W0NIM11bQ0BASF0xW0NIMl1bQ0gyXVtDQEhdKFtDSDJdW0NASF0xW0NIM10pW05IXVtDSDJdW0NIMl1jMltjSF1bY0hdbm4yW0NIM10=

> <s_epik_cmdline>
J2VwaWtfcHl0aG9uJywgJy1waCcsICc3LjAnLCAnLXRuJywgJzgnLCAnLW1hJywgJzIwMCcsICctbWV0YWxfYmluZGluZycsICctaW1hZScsICc8aW5maWxlLm1hZT4nLCAnLW9tYWUnLCAnPG91dGZpbGUubWFlPic=

> <r_lp_tautomer_probability>
1

> <r_epik_Ionization_Penalty>
0.000327718

> <r_epik_Ionization_Penalty_Charging>
0.000294043

> <r_epik_Ionization_Penalty_Neutral>
3.36755e-05

> <r_epik_State_Penalty>
-0

> <r_epik_Charging_Adjusted_Penalty>
0.000294043

> <i_epik_Tot_Q>
1

> <i_epik_Tot_abs_Q>
1

> <r_epik_Metal_State_Penalty>
-0

> <b_epik_Metal_Only>
0

> <s_lp_Force_Field>
OPLS_2005

> <r_lp_Energy>
13.9595

> <b_lp_Chiralities_Consistent>
1

> <s_lp_Variant>
AV-unprocessed.smi:3183-4

> <Gold.Version>
5.8.1

> <Gold.Id.Protein>
6NUR|6NUR_protein|mol2

> <Gold.PLP.Fitness>
42.3718

> <Gold.PLP.PLP>
-37.2807

> <Gold.PLP.part.hbond>
-3.0000

> <Gold.PLP.part.metal>
0.0000

> <Gold.PLP.part.buried>
-1.9300

> <Gold.PLP.part.nonpolar>
-32.2643

> <Gold.PLP.part.repulsive>
0.2024

> <Gold.PLP.ligand.clash>
0.0000

> <Gold.PLP.ligand.torsion>
0.8759

> <Gold.PLP.Chemscore.Hbond>
1.2766

> <Gold.PLP.Chemscore.CHOScore>
1.0000

> <Gold.PLP.Chemscore.Metal>
0.0000

> <Gold.Chemscore.Hbonds>
donor molecule, donor type, donor heavy atom, donor atom, acceptor molecule, acceptor atom, score
      L1  H     6    27       P1 10171  1.00
      P1  H  8011  8017       L1    12  0.19
      L1  C    11    33       P1  8028  1.00

> <Gold.PLP.Chemscore.Internal.Correction>
0.0130

> <Gold.Rescore>
     Score         DG    S(hbond)    S(metal)    S(lipo)     H(rot)  DE(clash)    DE(int)     intcor
     14.53     -16.10       1.12        0.00      89.03       1.38       0.63       0.94       ----

> <Gold.Chemscore.Fitness>
14.5297

> <Gold.Chemscore.DG>
-16.1022

> <Gold.Chemscore.ZeroCoef>
-5.4800

> <Gold.Chemscore.Hbond>
1.1169

> <Gold.Chemscore.Metal>
0.0000

> <Gold.Chemscore.Lipo>
89.0298

> <Gold.Chemscore.Internal_Hbond>
0.0000

> <Gold.Chemscore.DEClash>
0.6312

> <Gold.Chemscore.DEInternal>
0.9413

> <Gold.Chemscore.Rot>
1.3768

> <Gold.Chemscore.Internal.Correction>
   9.000000E+99

> <Gold.Chemscore.Hbonds>
donor molecule, donor type, donor heavy atom, donor atom, acceptor molecule, acceptor atom, score
      L1  H     6    27       P1 10171  1.00
      P1  H  8011  8017       L1    12  0.02

> <Gold.Chemscore.Hbond.Weighted>
-3.7304

> <Gold.Chemscore.Metal.Weighted>
-0.0000

> <Gold.Chemscore.Lipo.Weighted>
-10.4165

> <Gold.Chemscore.Internal_Hbond.Weighted>
0.0000

> <Gold.Chemscore.DEClash.Weighted>
0.6312

> <Gold.Chemscore.DEInternal.Weighted>
0.9413

> <Gold.Chemscore.Rot.Weighted>
3.5247

> <Gold.Chemscore.Internal.Correction.Weighted>
   9.000000E+99

> <Gold.Protein.RotatedTorsions>
[ 6907 6896 6895 6894 ] final  -35.82 input  -60.11 | X-H torsion
[ 7974 7965 7964 7962 ] final   76.87 input  175.53 | X-H torsion
[ 8008 7997 7996 7995 ] final  148.45 input   59.86 | X-H torsion
[ 10167 10162 10161 10158 ] final  146.11 input  -65.29 | X-H torsion
[ 10718 10713 10712 10709 ] final -140.33 input   66.30 | X-H torsion
[ 10763 10752 10751 10750 ] final -103.75 input  -60.55 | X-H torsion
[ 11005 11000 10999 10996 ] final   14.10 input  -57.11 | X-H torsion

> <Gold.Protein.ActiveResidues>
 VAL166  LYS551  ARG553  GLY616  TRP617  ASP618  TYR619  PRO620  LYS621  CYS622 
 ASP623  PHE694  ASN695  SER759  ASP760  ASP761  ALA762  ILE779  LEU786  VAL792 
 PHE793  MET794  SER795  GLU796  ALA797  LYS798  CYS799  TRP800  GLU811  SER814 

> <Gold.Protein.RotatedAtoms>
  151.0349  134.9566  159.8130 H   0  0  0  0  0  0  0  0  0  0  0  0  # atno 6907 bound_to 6896
  152.5353  134.2732  159.8989 H   0  0  0  0  0  0  0  0  0  0  0  0  # atno 6908 bound_to 6896
  151.2742  133.4198  159.2657 H   0  0  0  0  0  0  0  0  0  0  0  0  # atno 6909 bound_to 6896
  145.6974  139.2571  143.1725 H   0  0  0  0  0  0  0  0  0  0  0  0  # atno 7974 bound_to 7965
  156.2790  140.2128  156.5701 H   0  0  0  0  0  0  0  0  0  0  0  0  # atno 8008 bound_to 7997
  154.7143  140.0509  157.0602 H   0  0  0  0  0  0  0  0  0  0  0  0  # atno 8009 bound_to 7997
  155.0564  140.3162  155.4678 H   0  0  0  0  0  0  0  0  0  0  0  0  # atno 8010 bound_to 7997
  139.4913  144.5853  151.6790 H   0  0  0  0  0  0  0  0  0  0  0  0  # atno 10167 bound_to 10162
  156.3211  130.7535  151.1632 H   0  0  0  0  0  0  0  0  0  0  0  0  # atno 10718 bound_to 10713
  154.7830  135.4812  153.9884 H   0  0  0  0  0  0  0  0  0  0  0  0  # atno 10763 bound_to 10752
  153.1520  135.6793  153.8876 H   0  0  0  0  0  0  0  0  0  0  0  0  # atno 10764 bound_to 10752
  153.8517  135.3166  155.3411 H   0  0  0  0  0  0  0  0  0  0  0  0  # atno 10765 bound_to 10752
  140.4733  134.1008  155.7737 H   0  0  0  0  0  0  0  0  0  0  0  0  # atno 11005 bound_to 11000
  146.0828  140.7744  142.9633 LP  0  0  0  0  0  0  0  0  0  0  0  0  # atno 17320 bound_to 7965
  144.6979  140.3516  143.7180 LP  0  0  0  0  0  0  0  0  0  0  0  0  # atno 17321 bound_to 7965
  140.5468  144.0490  150.6110 LP  0  0  0  0  0  0  0  0  0  0  0  0  # atno 17342 bound_to 10162
  140.3531  143.2951  152.0466 LP  0  0  0  0  0  0  0  0  0  0  0  0  # atno 17343 bound_to 10162
  157.7412  131.0507  150.5114 LP  0  0  0  0  0  0  0  0  0  0  0  0  # atno 17370 bound_to 10713
  156.5267  130.4175  149.6222 LP  0  0  0  0  0  0  0  0  0  0  0  0  # atno 17371 bound_to 10713
  141.1566  133.8871  157.1960 LP  0  0  0  0  0  0  0  0  0  0  0  0  # atno 17394 bound_to 11000
  139.9871  135.0078  156.9889 LP  0  0  0  0  0  0  0  0  0  0  0  0  # atno 17395 bound_to 11000

$$$$
