#       Name:                AV-unprocessed.smi:1383
#       Creating user name   scv26
#       Creation time:       Fri Mar 27 05:24:04 2020


#       File generated by GOLD software.
#

@<TRIPOS>MOLECULE
AV-unprocessed.smi:1383
    36    36     1
SMALL
NO_CHARGES


@<TRIPOS>ATOM
      1 ****        -2.6743  -1.4741  -1.7341 C.3            1 S1                 0.0000
      2 ****        -3.4607  -1.2404  -0.4346 C.3            1 S1                 0.0000
      3 ****        -2.9736  -0.0296   0.3931 C.3            1 S1                 0.0000
      4 ****        -3.9144   0.2481   1.5781 C.3            1 S1                 0.0000
      5 ****        -1.5315  -0.2221   0.9008 C.2            1 S1                 0.0000
      6 ****        -1.2723  -1.1815   1.6303 O.2            1 S1                 0.0000
      7 ****        -0.6966   0.7447   0.4486 N.pl3          1 S1                -1.0000
      8 ****         0.6013   0.7097   0.7872 C.2            1 S1                 0.0000
      9 ****         1.5476   0.1989  -0.0080 N.2            1 S1                 0.0000
     10 ****         2.8348   0.2733   0.5326 C.2            1 S1                 0.0000
     11 ****         4.0050  -0.2631  -0.2407 C.3            1 S1                 0.0000
     12 ****         4.7078   0.8605  -1.0066 C.2            1 S1                 0.0000
     13 ****         4.0330   1.4353  -2.0064 N.am           1 S1                 0.0000
     14 ****         5.8513   1.1984  -0.7071 O.2            1 S1                 0.0000
     15 ****         2.8620   0.8569   1.7732 C.2            1 S1                 0.0000
     16 ****         1.2724   1.3389   2.2931 S.3            1 S1                 0.0000
     17 ****        -3.0996  -2.3040  -2.2986 H              1 S1                 0.0000
     18 ****        -1.6293  -1.7144  -1.5357 H              1 S1                 0.0000
     19 ****        -2.6995  -0.5902  -2.3720 H              1 S1                 0.0000
     20 ****        -4.5097  -1.0919  -0.6928 H              1 S1                 0.0000
     21 ****        -3.4305  -2.1459   0.1730 H              1 S1                 0.0000
     22 ****        -3.0191   0.8472  -0.2571 H              1 S1                 0.0000
     23 ****        -3.5677   1.0974   2.1682 H              1 S1                 0.0000
     24 ****        -3.9869  -0.6132   2.2432 H              1 S1                 0.0000
     25 ****        -4.9208   0.4826   1.2303 H              1 S1                 0.0000
     26 ****         4.7176  -0.7423   0.4317 H              1 S1                 0.0000
     27 ****         3.6870  -1.0307  -0.9473 H              1 S1                 0.0000
     28 ****         4.4703   2.1665  -2.5498 H              1 S1                 0.0000
     29 ****         3.0990   1.1238  -2.2286 H              1 S1                 0.0000
     30 ****         3.7167   1.0365   2.4077 H              1 S1                 0.0000
     31 ****        -1.9942  -1.8244   1.8863 LP             1 S1                 0.0000
     32 ****        -0.3401  -1.3169   1.9660 LP             1 S1                 0.0000
     33 ****        -1.0453   1.4792  -0.1335 LP             1 S1                 0.0000
     34 ****         1.3529  -0.1987  -0.9046 LP             1 S1                 0.0000
     35 ****         6.3288   0.7383   0.0415 LP             1 S1                 0.0000
     36 ****         6.3040   1.9333  -1.2121 LP             1 S1                 0.0000
@<TRIPOS>BOND
    1    1    2 1     
    2    1   17 1     
    3    1   18 1     
    4    1   19 1     
    5    2    3 1     
    6    2   20 1     
    7    2   21 1     
    8    3    4 1     
    9    3    5 1     
   10    3   22 1     
   11    4   23 1     
   12    4   24 1     
   13    4   25 1     
   14    5    6 2     
   15    5    7 1     
   16    7    8 1     
   17    8   16 1     
   18    8    9 2     
   19    9   10 1     
   20   10   11 1     
   21   10   15 2     
   22   11   12 1     
   23   11   26 1     
   24   11   27 1     
   25   12   13 am    
   26   12   14 2     
   27   13   28 1     
   28   13   29 1     
   29   15   16 1     
   30   15   30 1     
   31    6   31 1     
   32    6   32 1     
   33    7   33 1     
   34    9   34 1     
   35   14   35 1     
   36   14   36 1     
@<TRIPOS>SUBSTRUCTURE
      1 S1             1
@<TRIPOS>SET
LONE_PAIRS      STATIC     ATOMS    <user>   **** ""
6 31 32 33 34 35 36
DONOR_HYDROGENS      STATIC     ATOMS    <user>   **** ""
2 28 29
ATOM$BLUE        STATIC     ATOMS    COLORGROUP SYSTEM
6 31 32 33 34 35 36
ATOM$RED        STATIC     ATOMS    COLORGROUP SYSTEM
2 28 29
