#       Name:                AV-unprocessed.smi:2476
#       Creating user name   scv26
#       Creation time:       Fri Mar 27 13:39:56 2020


#       File generated by GOLD software.
#

@<TRIPOS>MOLECULE
AV-unprocessed.smi:2476
    40    41     1
SMALL
NO_CHARGES


@<TRIPOS>ATOM
      1 ****        -5.2513   1.1176  -1.7157 C.3            1 S1                 0.0000
      2 ****        -3.7289   1.1284  -1.8034 C.2            1 S1                 0.0000
      3 ****        -3.1221   2.1974  -1.8628 O.2            1 S1                 0.0000
      4 ****        -3.1246  -0.0691  -1.8116 N.am           1 S1                 0.0000
      5 ****        -1.6827  -0.2811  -1.8786 C.3            1 S1                 0.0000
      6 ****        -1.0111  -0.0813  -0.5092 C.3            1 S1                 0.0000
      7 ****         0.5197  -0.2329  -0.5958 C.3            1 S1                 0.0000
      8 ****         1.1151  -0.1280   0.7340 N.3            1 S1                 0.0000
      9 ****         2.5178  -0.0133   0.8140 C.ar           1 S1                 0.0000
     10 ****         3.2566  -0.4398  -0.2411 N.ar           1 S1                 0.0000
     11 ****         4.6017  -0.3454  -0.1752 C.ar           1 S1                 0.0000
     12 ****         5.2850   0.1770   0.9390 C.ar           1 S1                 0.0000
     13 ****         4.5252   0.6266   2.0343 C.ar           1 S1                 0.0000
     14 ****         3.1212   0.5332   1.9738 C.ar           1 S1                 0.0000
     15 ****         2.3728   0.9831   3.0102 F              1 S1                 0.0000
     16 ****         0.5268  -1.0549   1.6950 C.3            1 S1                 0.0000
     17 ****        -1.0030  -0.8991   1.7119 C.3            1 S1                 0.0000
     18 ****        -1.5161  -1.0638   0.3935 O.3            1 S1                 0.0000
     19 ****        -5.5943   0.3502  -1.0208 H              1 S1                 0.0000
     20 ****        -5.6845   0.9161  -2.6957 H              1 S1                 0.0000
     21 ****        -5.6244   2.0813  -1.3671 H              1 S1                 0.0000
     22 ****        -3.7038  -0.8944  -1.7556 H              1 S1                 0.0000
     23 ****        -1.5007  -1.2934  -2.2404 H              1 S1                 0.0000
     24 ****        -1.2465   0.3937  -2.6170 H              1 S1                 0.0000
     25 ****        -1.2518   0.9145  -0.1320 H              1 S1                 0.0000
     26 ****         0.7750  -1.1992  -1.0335 H              1 S1                 0.0000
     27 ****         0.9308   0.5398  -1.2471 H              1 S1                 0.0000
     28 ****         5.1492  -0.6973  -1.0369 H              1 S1                 0.0000
     29 ****         6.3633   0.2349   0.9511 H              1 S1                 0.0000
     30 ****         5.0107   1.0409   2.9056 H              1 S1                 0.0000
     31 ****         0.7937  -2.0737   1.4109 H              1 S1                 0.0000
     32 ****         0.9204  -0.8935   2.6980 H              1 S1                 0.0000
     33 ****        -1.4498  -1.6500   2.3632 H              1 S1                 0.0000
     34 ****        -1.2908   0.0766   2.1065 H              1 S1                 0.0000
     35 ****        -3.6273   3.0603  -1.8536 LP             1 S1                 0.0000
     36 ****        -2.1237   2.2031  -1.9203 LP             1 S1                 0.0000
     37 ****         0.8445   0.7911   1.0203 LP             1 S1                 0.0000
     38 ****         2.8125  -0.8176  -1.0536 LP             1 S1                 0.0000
     39 ****        -1.2590  -1.9705   0.0590 LP             1 S1                 0.0000
     40 ****        -2.5129  -0.9902   0.4245 LP             1 S1                 0.0000
@<TRIPOS>BOND
    1    1    2 1     
    2    1   19 1     
    3    1   20 1     
    4    1   21 1     
    5    2    3 2     
    6    2    4 am    
    7    4    5 1     
    8    4   22 1     
    9    5    6 1     
   10    5   23 1     
   11    5   24 1     
   12    6   18 1     
   13    6    7 1     
   14    6   25 1     
   15    7    8 1     
   16    7   26 1     
   17    7   27 1     
   18    8    9 1     
   19    8   16 1     
   20    9   14 ar    
   21    9   10 ar    
   22   10   11 ar    
   23   11   12 ar    
   24   11   28 1     
   25   12   13 ar    
   26   12   29 1     
   27   13   14 ar    
   28   13   30 1     
   29   14   15 1     
   30   16   17 1     
   31   16   31 1     
   32   16   32 1     
   33   17   18 1     
   34   17   33 1     
   35   17   34 1     
   36    3   35 1     
   37    3   36 1     
   38    8   37 1     
   39   10   38 1     
   40   18   39 1     
   41   18   40 1     
@<TRIPOS>SUBSTRUCTURE
      1 S1             1
@<TRIPOS>SET
LONE_PAIRS      STATIC     ATOMS    <user>   **** ""
6 35 36 37 38 39 40
DONOR_HYDROGENS      STATIC     ATOMS    <user>   **** ""
1 22
ATOM$BLUE        STATIC     ATOMS    COLORGROUP SYSTEM
6 35 36 37 38 39 40
ATOM$RED        STATIC     ATOMS    COLORGROUP SYSTEM
1 22
