AV-unprocessed.smi:1701|AV-procd|sdf|6838|dock9
  -GOLD-   22720 8 13D 1   1.00000     0.00000
 Structure written by MMmdl.
 54 56  0  0  0  0  0  0  0  0  4 V2000
  143.8276  132.7080  148.5232 C   0  0  0  0  0  0  0  0  0  0  0  0
  143.6035  132.9484  150.0244 C   0  0  0  0  0  0  0  0  0  0  0  0
  144.8273  133.3027  150.7435 N   0  0  0  0  0  0  0  0  0  0  0  0
  146.0196  132.4663  150.5863 C   0  0  0  0  0  0  0  0  0  0  0  0
  145.8306  131.0378  151.1171 C   0  0  0  0  0  0  0  0  0  0  0  0
  144.9173  134.5394  151.4286 C   0  0  0  0  0  0  0  0  0  0  0  0
  143.8258  135.4317  151.5806 C   0  0  0  0  0  0  0  0  0  0  0  0
  143.9981  136.6446  152.2781 C   0  0  0  0  0  0  0  0  0  0  0  0
  145.2532  136.9612  152.8351 C   0  0  0  0  0  0  0  0  0  0  0  0
  145.3875  138.2029  153.5126 N   0  0  0  0  0  0  0  0  0  0  0  0
  146.1500  138.5120  154.5904 C   0  0  0  0  0  0  0  0  0  0  0  0
  146.8020  137.6236  155.1353 O   0  0  0  0  0  0  0  0  0  0  0  0
  146.1604  139.7915  155.0712 N   0  5  0  0  0  0  0  0  0  0  0  0
  146.1863  141.0662  154.3332 C   0  0  1  0  0  0  0  0  0  0  0  0
  145.2693  142.0859  155.0202 C   0  0  0  0  0  0  0  0  0  0  0  0
  146.1263  142.7412  156.1207 C   0  0  0  0  0  0  0  0  0  0  0  0
  147.5491  142.4544  155.8025 N   0  3  1  0  0  0  0  0  0  0  0  0
  148.2529  141.7461  156.9110 C   0  0  0  0  0  0  0  0  0  0  0  0
  149.6395  141.2418  156.4943 C   0  0  0  0  0  0  0  0  0  0  0  0
  149.5100  140.2780  155.3132 C   0  0  0  0  0  0  0  0  0  0  0  0
  148.8616  141.0035  154.1267 C   0  0  0  0  0  0  0  0  0  0  0  0
  147.5538  141.7660  154.4809 C   0  0  1  0  0  0  0  0  0  0  0  0
  146.3171  136.0494  152.6465 C   0  0  0  0  0  0  0  0  0  0  0  0
  146.1075  134.8998  151.9697 N   0  3  0  0  0  0  0  0  0  0  0  0
  142.8860  132.4647  148.0310 H   0  0  0  0  0  0  0  0  0  0  0  0
  144.5094  131.8779  148.3454 H   0  0  0  0  0  0  0  0  0  0  0  0
  144.2378  133.5880  148.0284 H   0  0  0  0  0  0  0  0  0  0  0  0
  142.8431  133.7132  150.1802 H   0  0  0  0  0  0  0  0  0  0  0  0
  143.1889  132.0418  150.4658 H   0  0  0  0  0  0  0  0  0  0  0  0
  146.3269  132.4404  149.5405 H   0  0  0  0  0  0  0  0  0  0  0  0
  146.8500  132.9344  151.1157 H   0  0  0  0  0  0  0  0  0  0  0  0
  146.7236  130.4405  150.9321 H   0  0  0  0  0  0  0  0  0  0  0  0
  144.9929  130.5365  150.6318 H   0  0  0  0  0  0  0  0  0  0  0  0
  145.6523  131.0285  152.1913 H   0  0  0  0  0  0  0  0  0  0  0  0
  142.8517  135.2130  151.1715 H   0  0  0  0  0  0  0  0  0  0  0  0
  143.1656  137.3241  152.3886 H   0  0  0  0  0  0  0  0  0  0  0  0
  144.7954  138.9474  153.1752 H   0  0  0  0  0  0  0  0  0  0  0  0
  145.9245  140.9483  153.2808 H   0  0  0  0  0  0  0  0  0  0  0  0
  144.9779  142.8465  154.2945 H   0  0  0  0  0  0  0  0  0  0  0  0
  144.3483  141.6486  155.4089 H   0  0  0  0  0  0  0  0  0  0  0  0
  145.9611  143.8186  156.1542 H   0  0  0  0  0  0  0  0  0  0  0  0
  145.8502  142.3479  157.1012 H   0  0  0  0  0  0  0  0  0  0  0  0
  148.3422  142.4236  157.7606 H   0  0  0  0  0  0  0  0  0  0  0  0
  147.6570  140.8978  157.2519 H   0  0  0  0  0  0  0  0  0  0  0  0
  150.2825  142.0818  156.2287 H   0  0  0  0  0  0  0  0  0  0  0  0
  150.1165  140.7354  157.3339 H   0  0  0  0  0  0  0  0  0  0  0  0
  150.4914  139.8995  155.0272 H   0  0  0  0  0  0  0  0  0  0  0  0
  148.9156  139.4100  155.6008 H   0  0  0  0  0  0  0  0  0  0  0  0
  149.5848  141.7346  153.7625 H   0  0  0  0  0  0  0  0  0  0  0  0
  148.7129  140.3122  153.2951 H   0  0  0  0  0  0  0  0  0  0  0  0
  147.5113  142.5837  153.7587 H   0  0  0  0  0  0  0  0  0  0  0  0
  147.3283  136.1955  152.9960 H   0  0  0  0  0  0  0  0  0  0  0  0
  148.0299  143.3326  155.6734 H   0  0  0  0  0  0  0  0  0  0  0  0
  146.8979  134.2654  151.8559 H   0  0  0  0  0  0  0  0  0  0  0  0
  1  2  1  0  0  0  0
  1 25  1  0  0  0  0
  1 26  1  0  0  0  0
  1 27  1  0  0  0  0
  2  3  1  0  0  0  0
  2 28  1  0  0  0  0
  2 29  1  0  0  0  0
  3  4  1  0  0  0  0
  3  6  1  0  0  0  0
  4  5  1  0  0  0  0
  4 30  1  0  0  0  0
  4 31  1  0  0  0  0
  5 32  1  0  0  0  0
  5 33  1  0  0  0  0
  5 34  1  0  0  0  0
  6 24  1  0  0  0  0
  6  7  2  0  0  0  0
  7  8  1  0  0  0  0
  7 35  1  0  0  0  0
  8  9  2  0  0  0  0
  8 36  1  0  0  0  0
  9 10  1  0  0  0  0
  9 23  1  0  0  0  0
 10 11  1  0  0  0  0
 10 37  1  0  0  0  0
 11 12  2  0  0  0  0
 11 13  1  0  0  0  0
 13 14  1  0  0  0  0
 14 22  1  0  0  0  0
 14 15  1  0  0  0  0
 14 38  1  0  0  0  0
 15 16  1  0  0  0  0
 15 39  1  0  0  0  0
 15 40  1  0  0  0  0
 16 17  1  0  0  0  0
 16 41  1  0  0  0  0
 16 42  1  0  0  0  0
 17 22  1  0  0  0  0
 17 18  1  0  0  0  0
 17 53  1  0  0  0  0
 18 19  1  0  0  0  0
 18 43  1  0  0  0  0
 18 44  1  0  0  0  0
 19 20  1  0  0  0  0
 19 45  1  0  0  0  0
 19 46  1  0  0  0  0
 20 21  1  0  0  0  0
 20 47  1  0  0  0  0
 20 48  1  0  0  0  0
 21 22  1  0  0  0  0
 21 49  1  0  0  0  0
 21 50  1  0  0  0  0
 22 51  1  0  0  0  0
 23 24  2  0  0  0  0
 23 52  1  0  0  0  0
 24 54  1  0  0  0  0
M  CHG  1  13  -1
M  CHG  1  17   1
M  CHG  1  24   1
M  END
> <s_m_source_file>
AV-unprocessed.smi

> <i_m_source_file_index>
1701

> <i_lp_mmshare_version>
43012

> <i_f3d_flags>
0

> <s_epik_input>
W0NIM11bQ0gyXU4oW0NIMl1bQ0gzXSljMVtjSF1bY0hdYyhbY0hdbjEpW05IXUMoPU8pW05IXVtDQEhdKFtDSDJdW0NIMl0yKVtDQEBIXShOMjMpW0NIMl1bQ0gyXVtDSDJdW0NIMl0z

> <s_epik_cmdline>
J2VwaWtfcHl0aG9uJywgJy1waCcsICc3LjAnLCAnLXRuJywgJzgnLCAnLW1hJywgJzIwMCcsICctbWV0YWxfYmluZGluZycsICctaW1hZScsICc8aW5maWxlLm1hZT4nLCAnLW9tYWUnLCAnPG91dGZpbGUubWFlPic=

> <r_lp_tautomer_probability>
0.999994

> <r_epik_Ionization_Penalty>
7.37095

> <r_epik_Ionization_Penalty_Charging>
7.37095

> <r_epik_Ionization_Penalty_Neutral>
3.78969e-06

> <r_epik_State_Penalty>
6.83842

> <r_epik_Charging_Adjusted_Penalty>
14.2094

> <i_epik_Tot_Q>
1

> <i_epik_Tot_abs_Q>
3

> <r_epik_Metal_State_Penalty>
2.78552

> <b_epik_Metal_Only>
1

> <s_lp_Force_Field>
OPLS_2005

> <r_lp_Energy>
56.1591

> <b_lp_Chiralities_Consistent>
1

> <s_lp_Variant>
AV-unprocessed.smi:1701-18

> <Gold.Version>
5.8.1

> <Gold.Id.Protein>
6NUR|6NUR_protein|mol2

> <Gold.PLP.Fitness>
42.7353

> <Gold.PLP.PLP>
-35.2150

> <Gold.PLP.part.hbond>
-2.6814

> <Gold.PLP.part.metal>
0.0000

> <Gold.PLP.part.buried>
1.7886

> <Gold.PLP.part.nonpolar>
-34.3934

> <Gold.PLP.part.repulsive>
0.1941

> <Gold.PLP.ligand.clash>
0.0000

> <Gold.PLP.ligand.torsion>
0.8275

> <Gold.PLP.Chemscore.Hbond>
3.0000

> <Gold.PLP.Chemscore.CHOScore>
0.0000

> <Gold.PLP.Chemscore.Metal>
0.0000

> <Gold.Chemscore.Hbonds>
donor molecule, donor type, donor heavy atom, donor atom, acceptor molecule, acceptor atom, score
      L1  H    10    37       P1 10175  1.00
      L1  H    17    53       P1  8028  2.00

> <Gold.PLP.Chemscore.Internal.Correction>
0.1752

> <Gold.Rescore>
     Score         DG    S(hbond)    S(metal)    S(lipo)     H(rot)  DE(clash)    DE(int)     intcor
     16.87     -20.37       1.85        0.00     102.53       1.28       1.57       1.93       ----

> <Gold.Chemscore.Fitness>
16.8703

> <Gold.Chemscore.DG>
-20.3738

> <Gold.Chemscore.ZeroCoef>
-5.4800

> <Gold.Chemscore.Hbond>
1.8515

> <Gold.Chemscore.Metal>
0.0000

> <Gold.Chemscore.Lipo>
102.5336

> <Gold.Chemscore.Internal_Hbond>
0.0000

> <Gold.Chemscore.DEClash>
1.5734

> <Gold.Chemscore.DEInternal>
1.9300

> <Gold.Chemscore.Rot>
1.2838

> <Gold.Chemscore.Internal.Correction>
   9.000000E+99

> <Gold.Chemscore.Hbonds>
donor molecule, donor type, donor heavy atom, donor atom, acceptor molecule, acceptor atom, score
      L1  H    10    37       P1 10175  0.95
      L1  H    17    53       P1  8028  0.54

> <Gold.Chemscore.Hbond.Weighted>
-6.1839

> <Gold.Chemscore.Metal.Weighted>
-0.0000

> <Gold.Chemscore.Lipo.Weighted>
-11.9964

> <Gold.Chemscore.Internal_Hbond.Weighted>
0.0000

> <Gold.Chemscore.DEClash.Weighted>
1.5734

> <Gold.Chemscore.DEInternal.Weighted>
1.9300

> <Gold.Chemscore.Rot.Weighted>
3.2865

> <Gold.Chemscore.Internal.Correction.Weighted>
   9.000000E+99

> <Gold.Protein.RotatedTorsions>
[ 6907 6896 6895 6894 ] final -143.38 input  -60.11 | X-H torsion
[ 7974 7965 7964 7962 ] final   75.60 input  175.53 | X-H torsion
[ 8008 7997 7996 7995 ] final  138.43 input   59.86 | X-H torsion
[ 10167 10162 10161 10158 ] final  178.77 input  -65.29 | X-H torsion
[ 10718 10713 10712 10709 ] final  -57.95 input   66.30 | X-H torsion
[ 10763 10752 10751 10750 ] final -138.31 input  -60.55 | X-H torsion
[ 11005 11000 10999 10996 ] final -143.31 input  -57.11 | X-H torsion

> <Gold.Protein.ActiveResidues>
 VAL166  LYS551  ARG553  GLY616  TRP617  ASP618  TYR619  PRO620  LYS621  CYS622 
 ASP623  PHE694  ASN695  SER759  ASP760  ASP761  ALA762  ILE779  LEU786  VAL792 
 PHE793  MET794  SER795  GLU796  ALA797  LYS798  CYS799  TRP800  GLU811  SER814 

> <Gold.Protein.RotatedAtoms>
  151.0998  133.5252  159.2610 H   0  0  0  0  0  0  0  0  0  0  0  0  # atno 6907 bound_to 6896
  151.2088  135.0472  159.8912 H   0  0  0  0  0  0  0  0  0  0  0  0  # atno 6908 bound_to 6896
  152.5442  134.0816  159.8291 H   0  0  0  0  0  0  0  0  0  0  0  0  # atno 6909 bound_to 6896
  145.7135  139.2623  143.1637 H   0  0  0  0  0  0  0  0  0  0  0  0  # atno 7974 bound_to 7965
  156.2997  140.2393  156.4073 H   0  0  0  0  0  0  0  0  0  0  0  0  # atno 8008 bound_to 7997
  154.8473  140.0425  157.1601 H   0  0  0  0  0  0  0  0  0  0  0  0  # atno 8009 bound_to 7997
  154.9037  140.2980  155.5307 H   0  0  0  0  0  0  0  0  0  0  0  0  # atno 8010 bound_to 7997
  139.5308  144.2641  152.0683 H   0  0  0  0  0  0  0  0  0  0  0  0  # atno 10167 bound_to 10162
  156.1172  130.4169  150.0510 H   0  0  0  0  0  0  0  0  0  0  0  0  # atno 10718 bound_to 10713
  154.8640  135.3616  154.5364 H   0  0  0  0  0  0  0  0  0  0  0  0  # atno 10763 bound_to 10752
  153.5988  135.7013  153.5398 H   0  0  0  0  0  0  0  0  0  0  0  0  # atno 10764 bound_to 10752
  153.3309  135.4124  155.1456 H   0  0  0  0  0  0  0  0  0  0  0  0  # atno 10765 bound_to 10752
  140.8138  134.2713  157.4930 H   0  0  0  0  0  0  0  0  0  0  0  0  # atno 11005 bound_to 11000
  146.0690  140.7889  142.9697 LP  0  0  0  0  0  0  0  0  0  0  0  0  # atno 17320 bound_to 7965
  144.6935  140.3313  143.7215 LP  0  0  0  0  0  0  0  0  0  0  0  0  # atno 17321 bound_to 7965
  140.2104  144.4568  150.6388 LP  0  0  0  0  0  0  0  0  0  0  0  0  # atno 17342 bound_to 10162
  140.6484  143.2219  151.6133 LP  0  0  0  0  0  0  0  0  0  0  0  0  # atno 17343 bound_to 10162
  156.8458  130.9441  151.3629 LP  0  0  0  0  0  0  0  0  0  0  0  0  # atno 17370 bound_to 10713
  157.6355  130.8763  149.9352 LP  0  0  0  0  0  0  0  0  0  0  0  0  # atno 17371 bound_to 10713
  139.8712  134.9497  156.4035 LP  0  0  0  0  0  0  0  0  0  0  0  0  # atno 17394 bound_to 11000
  140.9170  133.7671  155.9861 LP  0  0  0  0  0  0  0  0  0  0  0  0  # atno 17395 bound_to 11000

$$$$
