AV-unprocessed.smi:24|AV-procd|sdf|175|dock5
  -GOLD-   2262015433D 1   1.00000     0.00000
 Structure written by MMmdl.
 61 65  0  0  0  0  0  0  0  0  1 V2000
  150.5432  140.0012  156.7984 C   0  0  0  0  0  0  0  0  0  0  0  0
  150.1282  138.8439  157.5090 O   0  0  0  0  0  0  0  0  0  0  0  0
  150.1883  137.6291  156.8606 C   0  0  0  0  0  0  0  0  0  0  0  0
  149.7715  136.4939  157.5851 C   0  0  0  0  0  0  0  0  0  0  0  0
  149.8018  135.2139  157.0005 C   0  0  0  0  0  0  0  0  0  0  0  0
  150.2573  135.0471  155.6745 C   0  0  0  0  0  0  0  0  0  0  0  0
  150.2952  133.6682  155.0176 C   0  0  2  0  0  0  0  0  0  0  0  0
  149.4773  133.6264  153.7241 C   0  0  0  0  0  0  0  0  0  0  0  0
  148.5032  132.5353  154.0186 C   0  0  0  0  0  0  0  0  0  0  0  0
  147.4607  132.1399  153.0452 C   0  0  0  0  0  0  0  0  0  0  0  0
  146.8033  130.8979  153.1983 C   0  0  0  0  0  0  0  0  0  0  0  0
  145.8063  130.5231  152.2763 C   0  0  0  0  0  0  0  0  0  0  0  0
  145.4696  131.3810  151.2104 C   0  0  0  0  0  0  0  0  0  0  0  0
  146.1290  132.6174  151.0611 C   0  0  0  0  0  0  0  0  0  0  0  0
  147.1277  133.0033  151.9767 C   0  0  0  0  0  0  0  0  0  0  0  0
  148.6598  131.9989  155.1723 N   0  0  0  0  0  0  0  0  0  0  0  0
  149.6953  132.5922  155.8178 N   0  0  0  0  0  0  0  0  0  0  0  0
  150.1647  132.1717  157.0137 C   0  0  0  0  0  0  0  0  0  0  0  0
  151.1835  132.6491  157.5170 O   0  0  0  0  0  0  0  0  0  0  0  0
  149.3966  131.0546  157.7516 C   0  0  0  0  0  0  0  0  0  0  0  0
  149.0215  131.4157  159.1368 N   0  0  0  0  0  0  0  0  0  0  0  0
  149.4771  130.5919  160.1963 C   0  0  0  0  0  0  0  0  0  0  0  0
  150.1801  129.6035  159.9796 O   0  0  0  0  0  0  0  0  0  0  0  0
  149.0514  130.9913  161.5328 C   0  0  0  0  0  0  0  0  0  0  0  0
  149.4389  130.2698  162.5983 F   0  0  0  0  0  0  0  0  0  0  0  0
  148.2712  132.0758  161.7189 C   0  0  0  0  0  0  0  0  0  0  0  0
  147.8305  132.8692  160.6746 N   0  0  0  0  0  0  0  0  0  0  0  0
  146.9481  134.0784  160.9011 C   0  0  2  0  0  0  0  0  0  0  0  0
  147.7029  135.3731  160.5471 C   0  0  0  0  0  0  0  0  0  0  0  0
  147.4761  136.2359  161.7724 C   0  0  0  0  0  0  0  0  0  0  0  0
  147.3578  135.1921  162.8727 C   0  0  0  0  0  0  0  0  0  0  0  0
  146.5956  134.1642  162.2530 O   0  0  0  0  0  0  0  0  0  0  0  0
  148.1960  132.5452  159.3498 C   0  0  0  0  0  0  0  0  0  0  0  0
  147.8003  133.2310  158.4044 O   0  0  0  0  0  0  0  0  0  0  0  0
  150.6672  136.1788  154.9413 C   0  0  0  0  0  0  0  0  0  0  0  0
  150.6366  137.4594  155.5267 C   0  0  0  0  0  0  0  0  0  0  0  0
  150.4402  140.8752  157.4415 H   0  0  0  0  0  0  0  0  0  0  0  0
  149.9270  140.1686  155.9140 H   0  0  0  0  0  0  0  0  0  0  0  0
  151.5905  139.9319  156.5015 H   0  0  0  0  0  0  0  0  0  0  0  0
  149.4243  136.6050  158.6019 H   0  0  0  0  0  0  0  0  0  0  0  0
  149.4727  134.3615  157.5769 H   0  0  0  0  0  0  0  0  0  0  0  0
  151.3315  133.3995  154.8034 H   0  0  0  0  0  0  0  0  0  0  0  0
  148.9621  134.5680  153.5283 H   0  0  0  0  0  0  0  0  0  0  0  0
  150.1006  133.3817  152.8632 H   0  0  0  0  0  0  0  0  0  0  0  0
  147.0468  130.2266  154.0092 H   0  0  0  0  0  0  0  0  0  0  0  0
  145.2985  129.5764  152.3877 H   0  0  0  0  0  0  0  0  0  0  0  0
  144.7043  131.0904  150.5057 H   0  0  0  0  0  0  0  0  0  0  0  0
  145.8678  133.2714  150.2422 H   0  0  0  0  0  0  0  0  0  0  0  0
  147.6178  133.9558  151.8403 H   0  0  0  0  0  0  0  0  0  0  0  0
  148.5027  130.7960  157.1813 H   0  0  0  0  0  0  0  0  0  0  0  0
  150.0010  130.1467  157.7270 H   0  0  0  0  0  0  0  0  0  0  0  0
  147.9886  132.3143  162.7325 H   0  0  0  0  0  0  0  0  0  0  0  0
  146.0487  133.9077  160.3065 H   0  0  0  0  0  0  0  0  0  0  0  0
  148.7671  135.1670  160.4196 H   0  0  0  0  0  0  0  0  0  0  0  0
  147.3145  135.8156  159.6293 H   0  0  0  0  0  0  0  0  0  0  0  0
  148.2797  136.9516  161.9470 H   0  0  0  0  0  0  0  0  0  0  0  0
  146.5392  136.7861  161.6769 H   0  0  0  0  0  0  0  0  0  0  0  0
  148.3410  134.8140  163.1557 H   0  0  0  0  0  0  0  0  0  0  0  0
  146.8647  135.5738  163.7668 H   0  0  0  0  0  0  0  0  0  0  0  0
  151.0114  136.0690  153.9234 H   0  0  0  0  0  0  0  0  0  0  0  0
  150.9631  138.2970  154.9295 H   0  0  0  0  0  0  0  0  0  0  0  0
  1  2  1  0  0  0  0
  1 37  1  0  0  0  0
  1 38  1  0  0  0  0
  1 39  1  0  0  0  0
  2  3  1  0  0  0  0
  3 36  1  0  0  0  0
  3  4  2  0  0  0  0
  4  5  1  0  0  0  0
  4 40  1  0  0  0  0
  5  6  2  0  0  0  0
  5 41  1  0  0  0  0
  6  7  1  0  0  0  0
  6 35  1  0  0  0  0
  7 17  1  0  0  0  0
  7  8  1  0  0  0  0
  7 42  1  0  0  0  0
  8  9  1  0  0  0  0
  8 43  1  0  0  0  0
  8 44  1  0  0  0  0
  9 10  1  0  0  0  0
  9 16  2  0  0  0  0
 10 15  1  0  0  0  0
 10 11  2  0  0  0  0
 11 12  1  0  0  0  0
 11 45  1  0  0  0  0
 12 13  2  0  0  0  0
 12 46  1  0  0  0  0
 13 14  1  0  0  0  0
 13 47  1  0  0  0  0
 14 15  2  0  0  0  0
 14 48  1  0  0  0  0
 15 49  1  0  0  0  0
 16 17  1  0  0  0  0
 17 18  1  0  0  0  0
 18 19  2  0  0  0  0
 18 20  1  0  0  0  0
 20 21  1  0  0  0  0
 20 50  1  0  0  0  0
 20 51  1  0  0  0  0
 21 33  1  0  0  0  0
 21 22  1  0  0  0  0
 22 23  2  0  0  0  0
 22 24  1  0  0  0  0
 24 25  1  0  0  0  0
 24 26  2  0  0  0  0
 26 27  1  0  0  0  0
 26 52  1  0  0  0  0
 27 28  1  0  0  0  0
 27 33  1  0  0  0  0
 28 32  1  0  0  0  0
 28 29  1  0  0  0  0
 28 53  1  0  0  0  0
 29 30  1  0  0  0  0
 29 54  1  0  0  0  0
 29 55  1  0  0  0  0
 30 31  1  0  0  0  0
 30 56  1  0  0  0  0
 30 57  1  0  0  0  0
 31 32  1  0  0  0  0
 31 58  1  0  0  0  0
 31 59  1  0  0  0  0
 33 34  2  0  0  0  0
 35 36  2  0  0  0  0
 35 60  1  0  0  0  0
 36 61  1  0  0  0  0
M  END
> <s_m_source_file>
AV-unprocessed.smi

> <i_m_source_file_index>
24

> <i_lp_mmshare_version>
43012

> <i_f3d_flags>
0

> <s_epik_input>
W0NIM11PYzFbY0hdW2NIXWMoW2NIXVtjSF0xKVtDQEBIXTJbQ0gyXUMoYzNbY0hdW2NIXVtjSF1bY0hdW2NIXTMpPU5OMkMoPU8pW0NIMl1uNGMoPU8pYyhGKVtjSF1uKGM0PU8pW0NAQEhdNVtDSDJdW0NIMl1bQ0gyXU81

> <s_epik_cmdline>
J2VwaWtfcHl0aG9uJywgJy1waCcsICc3LjAnLCAnLXRuJywgJzgnLCAnLW1hJywgJzIwMCcsICctbWV0YWxfYmluZGluZycsICctaW1hZScsICc8aW5maWxlLm1hZT4nLCAnLW9tYWUnLCAnPG91dGZpbGUubWFlPic=

> <r_lp_tautomer_probability>
1

> <r_epik_Ionization_Penalty>
1.46326e-08

> <r_epik_Ionization_Penalty_Charging>
4.53232e-09

> <r_epik_Ionization_Penalty_Neutral>
1.01002e-08

> <r_epik_State_Penalty>
-0

> <r_epik_Charging_Adjusted_Penalty>
4.53232e-09

> <i_epik_Tot_Q>
0

> <i_epik_Tot_abs_Q>
0

> <r_epik_Metal_State_Penalty>
-0

> <b_epik_Metal_Only>
0

> <s_epik_Chemistry_Notes>
This compound has an imine and may undergo hydrolysis. This compound contains an acetal/aminal-like group ( X-CH(R)-Y where X, Y are N, S, or O) that may be acid/base labile, releasing an aldehyde.

> <s_lp_Force_Field>
OPLS_2005

> <r_lp_Energy>
50.6154

> <b_lp_Chiralities_Consistent>
1

> <s_lp_Variant>
AV-unprocessed.smi:24-1

> <Gold.Version>
5.8.1

> <Gold.Id.Protein>
6NUR|6NUR_protein|mol2

> <Gold.PLP.Fitness>
56.2500

> <Gold.PLP.PLP>
-53.8024

> <Gold.PLP.part.hbond>
-1.0000

> <Gold.PLP.part.metal>
0.0000

> <Gold.PLP.part.buried>
-7.8029

> <Gold.PLP.part.nonpolar>
-44.9543

> <Gold.PLP.part.repulsive>
0.0000

> <Gold.PLP.ligand.clash>
0.0000

> <Gold.PLP.ligand.torsion>
0.3093

> <Gold.PLP.Chemscore.Hbond>
1.0000

> <Gold.PLP.Chemscore.CHOScore>
0.0000

> <Gold.PLP.Chemscore.Metal>
0.0000

> <Gold.Chemscore.Hbonds>
donor molecule, donor type, donor heavy atom, donor atom, acceptor molecule, acceptor atom, score
      P1  H  6896  6908       L1    19  1.00

> <Gold.PLP.Chemscore.Internal.Correction>
0.0661

> <Gold.Rescore>
     Score         DG    S(hbond)    S(metal)    S(lipo)     H(rot)  DE(clash)    DE(int)     intcor
     17.18     -18.76       1.00        0.00     128.34       1.98       0.05       1.53       ----

> <Gold.Chemscore.Fitness>
17.1787

> <Gold.Chemscore.DG>
-18.7631

> <Gold.Chemscore.ZeroCoef>
-5.4800

> <Gold.Chemscore.Hbond>
0.9952

> <Gold.Chemscore.Metal>
0.0000

> <Gold.Chemscore.Lipo>
128.3350

> <Gold.Chemscore.Internal_Hbond>
0.0000

> <Gold.Chemscore.DEClash>
0.0504

> <Gold.Chemscore.DEInternal>
1.5340

> <Gold.Chemscore.Rot>
1.9750

> <Gold.Chemscore.Internal.Correction>
   9.000000E+99

> <Gold.Chemscore.Hbonds>
donor molecule, donor type, donor heavy atom, donor atom, acceptor molecule, acceptor atom, score
      P1  H  6896  6908       L1    19  0.99

> <Gold.Chemscore.Hbond.Weighted>
-3.3240

> <Gold.Chemscore.Metal.Weighted>
-0.0000

> <Gold.Chemscore.Lipo.Weighted>
-15.0152

> <Gold.Chemscore.Internal_Hbond.Weighted>
0.0000

> <Gold.Chemscore.DEClash.Weighted>
0.0504

> <Gold.Chemscore.DEInternal.Weighted>
1.5340

> <Gold.Chemscore.Rot.Weighted>
5.0561

> <Gold.Chemscore.Internal.Correction.Weighted>
   9.000000E+99

> <Gold.Protein.RotatedTorsions>
[ 6907 6896 6895 6894 ] final   77.68 input  -60.11 | X-H torsion
[ 7974 7965 7964 7962 ] final -155.51 input  175.53 | X-H torsion
[ 8008 7997 7996 7995 ] final  -73.88 input   59.86 | X-H torsion
[ 10167 10162 10161 10158 ] final  111.00 input  -65.29 | X-H torsion
[ 10718 10713 10712 10709 ] final -151.96 input   66.30 | X-H torsion
[ 10763 10752 10751 10750 ] final   79.64 input  -60.55 | X-H torsion
[ 11005 11000 10999 10996 ] final   84.37 input  -57.11 | X-H torsion

> <Gold.Protein.ActiveResidues>
 VAL166  LYS551  ARG553  GLY616  TRP617  ASP618  TYR619  PRO620  LYS621  CYS622 
 ASP623  PHE694  ASN695  SER759  ASP760  ASP761  ALA762  ILE779  LEU786  VAL792 
 PHE793  MET794  SER795  GLU796  ALA797  LYS798  CYS799  TRP800  GLU811  SER814 

> <Gold.Protein.RotatedAtoms>
  152.5128  134.3780  159.9340 H   0  0  0  0  0  0  0  0  0  0  0  0  # atno 6907 bound_to 6896
  151.3736  133.3840  159.2710 H   0  0  0  0  0  0  0  0  0  0  0  0  # atno 6908 bound_to 6896
  150.9559  134.8973  159.7759 H   0  0  0  0  0  0  0  0  0  0  0  0  # atno 6909 bound_to 6896
  144.7637  140.4239  143.5958 H   0  0  0  0  0  0  0  0  0  0  0  0  # atno 7974 bound_to 7965
  154.5284  140.0771  156.8300 H   0  0  0  0  0  0  0  0  0  0  0  0  # atno 8008 bound_to 7997
  155.3427  140.3408  155.4221 H   0  0  0  0  0  0  0  0  0  0  0  0  # atno 8009 bound_to 7997
  156.1755  140.1634  156.8357 H   0  0  0  0  0  0  0  0  0  0  0  0  # atno 8010 bound_to 7997
  139.6645  144.7128  151.1803 H   0  0  0  0  0  0  0  0  0  0  0  0  # atno 10167 bound_to 10162
  156.4662  130.8236  151.2467 H   0  0  0  0  0  0  0  0  0  0  0  0  # atno 10718 bound_to 10713
  153.0969  135.4832  154.8794 H   0  0  0  0  0  0  0  0  0  0  0  0  # atno 10763 bound_to 10752
  154.7334  135.3065  154.8855 H   0  0  0  0  0  0  0  0  0  0  0  0  # atno 10764 bound_to 10752
  153.9484  135.6826  153.4797 H   0  0  0  0  0  0  0  0  0  0  0  0  # atno 10765 bound_to 10752
  139.9002  134.8211  156.2436 H   0  0  0  0  0  0  0  0  0  0  0  0  # atno 11005 bound_to 11000
  145.6539  139.1569  143.2846 LP  0  0  0  0  0  0  0  0  0  0  0  0  # atno 17320 bound_to 7965
  146.1724  140.6625  142.9227 LP  0  0  0  0  0  0  0  0  0  0  0  0  # atno 17321 bound_to 7965
  140.7593  143.5942  150.8765 LP  0  0  0  0  0  0  0  0  0  0  0  0  # atno 17342 bound_to 10162
  139.9602  143.6172  152.3004 LP  0  0  0  0  0  0  0  0  0  0  0  0  # atno 17343 bound_to 10162
  157.7494  131.0091  150.3255 LP  0  0  0  0  0  0  0  0  0  0  0  0  # atno 17370 bound_to 10713
  156.3666  130.3856  149.7209 LP  0  0  0  0  0  0  0  0  0  0  0  0  # atno 17371 bound_to 10713
  141.0269  133.7010  156.1363 LP  0  0  0  0  0  0  0  0  0  0  0  0  # atno 17394 bound_to 11000
  140.7153  134.4417  157.5579 LP  0  0  0  0  0  0  0  0  0  0  0  0  # atno 17395 bound_to 11000

$$$$
