AV-unprocessed.smi:2682|AV-procd|sdf|10375|dock1
  -GOLD-   2272014403D 1   1.00000     0.00000
 Structure written by MMmdl.
 29 29  0  0  0  0  0  0  0  0  2 V2000
  150.8017  135.2653  155.0728 C   0  0  0  0  0  0  0  0  0  0  0  0
  151.7910  136.2719  155.1945 O   0  0  0  0  0  0  0  0  0  0  0  0
  151.4371  137.4655  154.5156 C   0  0  0  0  0  0  0  0  0  0  0  0
  152.3611  138.5977  154.9737 C   0  0  0  0  0  0  0  0  0  0  0  0
  151.7108  139.8399  154.7655 O   0  0  0  0  0  0  0  0  0  0  0  0
  150.7936  140.1580  155.8007 C   0  0  0  0  0  0  0  0  0  0  0  0
  151.5350  140.8887  156.9193 C   0  0  0  0  0  0  0  0  0  0  0  0
  152.5397  140.3722  157.4062 O   0  0  0  0  0  0  0  0  0  0  0  0
  151.0070  142.0751  157.2800 N   0  0  0  0  0  0  0  0  0  0  0  0
  151.4437  143.0094  158.2357 C   0  0  0  0  0  0  0  0  0  0  0  0
  151.5503  144.3520  158.0290 C   0  0  0  0  0  0  0  0  0  0  0  0
  152.0027  145.2508  159.0769 C   0  0  0  0  0  0  0  0  0  0  0  0
  152.2943  144.6134  160.2623 C   0  0  0  0  0  0  0  0  0  0  0  0
  152.2083  143.2962  160.5476 N   0  5  0  0  0  0  0  0  0  0  0  0
  151.7863  142.4507  159.5630 C   0  0  0  0  0  0  0  0  0  0  0  0
  151.6850  141.2386  159.7581 O   0  0  0  0  0  0  0  0  0  0  0  0
  151.1171  134.3742  155.6153 H   0  0  0  0  0  0  0  0  0  0  0  0
  150.6484  134.9875  154.0292 H   0  0  0  0  0  0  0  0  0  0  0  0
  149.8499  135.5952  155.4913 H   0  0  0  0  0  0  0  0  0  0  0  0
  151.5545  137.3136  153.4416 H   0  0  0  0  0  0  0  0  0  0  0  0
  150.3935  137.7271  154.6976 H   0  0  0  0  0  0  0  0  0  0  0  0
  152.6358  138.4685  156.0218 H   0  0  0  0  0  0  0  0  0  0  0  0
  153.2809  138.5739  154.3875 H   0  0  0  0  0  0  0  0  0  0  0  0
  149.9885  140.7861  155.4149 H   0  0  0  0  0  0  0  0  0  0  0  0
  150.3442  139.2504  156.2067 H   0  0  0  0  0  0  0  0  0  0  0  0
  150.1523  142.3369  156.8102 H   0  0  0  0  0  0  0  0  0  0  0  0
  151.2941  144.8034  157.0854 H   0  0  0  0  0  0  0  0  0  0  0  0
  152.1015  146.3170  158.9381 H   0  0  0  0  0  0  0  0  0  0  0  0
  152.6461  145.2545  161.0986 H   0  0  0  0  0  0  0  0  0  0  0  0
  1  2  1  0  0  0  0
  1 17  1  0  0  0  0
  1 18  1  0  0  0  0
  1 19  1  0  0  0  0
  2  3  1  0  0  0  0
  3  4  1  0  0  0  0
  3 20  1  0  0  0  0
  3 21  1  0  0  0  0
  4  5  1  0  0  0  0
  4 22  1  0  0  0  0
  4 23  1  0  0  0  0
  5  6  1  0  0  0  0
  6  7  1  0  0  0  0
  6 24  1  0  0  0  0
  6 25  1  0  0  0  0
  7  8  2  0  0  0  0
  7  9  1  0  0  0  0
  9 26  1  0  0  0  0
  9 10  1  0  0  0  0
 10 11  2  0  0  0  0
 10 15  1  0  0  0  0
 11 12  1  0  0  0  0
 11 27  1  0  0  0  0
 12 13  2  0  0  0  0
 12 28  1  0  0  0  0
 13 14  1  0  0  0  0
 13 29  1  0  0  0  0
 14 15  1  0  0  0  0
 15 16  2  0  0  0  0
M  CHG  1  14  -1
M  END
> <s_m_source_file>
AV-unprocessed.smi

> <i_m_source_file_index>
2682

> <i_lp_mmshare_version>
43012

> <i_f3d_flags>
0

> <s_epik_input>
W0NIM11PW0NIMl1bQ0gyXU9bQ0gyXUMoPU8pW05IXWMxW2NIXVtjSF1bY0hdbmMxW09IXQ==

> <s_epik_cmdline>
J2VwaWtfcHl0aG9uJywgJy1waCcsICc3LjAnLCAnLXRuJywgJzgnLCAnLW1hJywgJzIwMCcsICctbWV0YWxfYmluZGluZycsICctaW1hZScsICc8aW5maWxlLm1hZT4nLCAnLW9tYWUnLCAnPG91dGZpbGUubWFlPic=

> <r_lp_tautomer_probability>
1

> <r_epik_Ionization_Penalty>
5.6643

> <r_epik_Ionization_Penalty_Charging>
0.525144

> <r_epik_Ionization_Penalty_Neutral>
5.13916

> <r_epik_State_Penalty>
5.13906

> <r_epik_Charging_Adjusted_Penalty>
5.6642

> <i_epik_Tot_Q>
-1

> <i_epik_Tot_abs_Q>
1

> <r_epik_Metal_State_Penalty>
1.22048

> <b_epik_Metal_Only>
1

> <s_lp_Force_Field>
OPLS_2005

> <r_lp_Energy>
18.608

> <b_lp_Chiralities_Consistent>
1

> <s_lp_Variant>
AV-unprocessed.smi:2682-2

> <Gold.Version>
5.8.1

> <Gold.Id.Protein>
6NUR|6NUR_protein|mol2

> <Gold.PLP.Fitness>
42.9947

> <Gold.PLP.PLP>
-35.7693

> <Gold.PLP.part.hbond>
-3.2848

> <Gold.PLP.part.metal>
0.0000

> <Gold.PLP.part.buried>
-4.9949

> <Gold.PLP.part.nonpolar>
-26.5665

> <Gold.PLP.part.repulsive>
0.2767

> <Gold.PLP.ligand.clash>
0.0000

> <Gold.PLP.ligand.torsion>
0.8989

> <Gold.PLP.Chemscore.Hbond>
2.9600

> <Gold.PLP.Chemscore.CHOScore>
0.0000

> <Gold.PLP.Chemscore.Metal>
0.0000

> <Gold.Chemscore.Hbonds>
donor molecule, donor type, donor heavy atom, donor atom, acceptor molecule, acceptor atom, score
      P1  H  7989  7998       L1     5  1.00
      P1  H  7997  8009       L1     8  0.94
      P1  H 10752 10763       L1     2  0.80

> <Gold.PLP.Chemscore.Internal.Correction>
0.1433

> <Gold.Rescore>
     Score         DG    S(hbond)    S(metal)    S(lipo)     H(rot)  DE(clash)    DE(int)     intcor
     12.92     -18.47       2.86        0.00      75.63       2.11       0.05       5.49       ----

> <Gold.Chemscore.Fitness>
12.9243

> <Gold.Chemscore.DG>
-18.4653

> <Gold.Chemscore.ZeroCoef>
-5.4800

> <Gold.Chemscore.Hbond>
2.8593

> <Gold.Chemscore.Metal>
0.0000

> <Gold.Chemscore.Lipo>
75.6289

> <Gold.Chemscore.Internal_Hbond>
0.0000

> <Gold.Chemscore.DEClash>
0.0500

> <Gold.Chemscore.DEInternal>
5.4909

> <Gold.Chemscore.Rot>
2.1146

> <Gold.Chemscore.Internal.Correction>
   9.000000E+99

> <Gold.Chemscore.Hbonds>
donor molecule, donor type, donor heavy atom, donor atom, acceptor molecule, acceptor atom, score
      P1  H  7989  7998       L1     5  0.85
      P1  H  7997  8009       L1     8  0.87
      P1  H 10752 10763       L1     2  0.22

> <Gold.Chemscore.Hbond.Weighted>
-9.5500

> <Gold.Chemscore.Metal.Weighted>
-0.0000

> <Gold.Chemscore.Lipo.Weighted>
-8.8486

> <Gold.Chemscore.Internal_Hbond.Weighted>
0.0000

> <Gold.Chemscore.DEClash.Weighted>
0.0500

> <Gold.Chemscore.DEInternal.Weighted>
5.4909

> <Gold.Chemscore.Rot.Weighted>
5.4133

> <Gold.Chemscore.Internal.Correction.Weighted>
   9.000000E+99

> <Gold.Protein.RotatedTorsions>
[ 6907 6896 6895 6894 ] final  152.70 input  -60.11 | X-H torsion
[ 7974 7965 7964 7962 ] final  139.86 input  175.53 | X-H torsion
[ 8008 7997 7996 7995 ] final  178.24 input   59.86 | X-H torsion
[ 10167 10162 10161 10158 ] final -165.24 input  -65.29 | X-H torsion
[ 10718 10713 10712 10709 ] final  -32.85 input   66.30 | X-H torsion
[ 10763 10752 10751 10750 ] final   67.62 input  -60.55 | X-H torsion
[ 11005 11000 10999 10996 ] final -102.02 input  -57.11 | X-H torsion

> <Gold.Protein.ActiveResidues>
 VAL166  LYS551  ARG553  GLY616  TRP617  ASP618  TYR619  PRO620  LYS621  CYS622 
 ASP623  PHE694  ASN695  SER759  ASP760  ASP761  ALA762  ILE779  LEU786  VAL792 
 PHE793  MET794  SER795  GLU796  ALA797  LYS798  CYS799  TRP800  GLU811  SER814 

> <Gold.Protein.RotatedAtoms>
  152.0830  133.4162  159.4509 H   0  0  0  0  0  0  0  0  0  0  0  0  # atno 6907 bound_to 6896
  150.6862  134.2960  159.4695 H   0  0  0  0  0  0  0  0  0  0  0  0  # atno 6908 bound_to 6896
  152.0804  134.9475  160.0624 H   0  0  0  0  0  0  0  0  0  0  0  0  # atno 6909 bound_to 6896
  144.9239  139.5132  143.5650 H   0  0  0  0  0  0  0  0  0  0  0  0  # atno 7974 bound_to 7965
  156.0568  140.1338  156.9987 H   0  0  0  0  0  0  0  0  0  0  0  0  # atno 8008 bound_to 7997
  154.4462  140.0999  156.6529 H   0  0  0  0  0  0  0  0  0  0  0  0  # atno 8009 bound_to 7997
  155.5438  140.3461  155.4455 H   0  0  0  0  0  0  0  0  0  0  0  0  # atno 8010 bound_to 7997
  139.6195  144.0652  152.1919 H   0  0  0  0  0  0  0  0  0  0  0  0  # atno 10167 bound_to 10162
  156.3699  130.4338  149.7554 H   0  0  0  0  0  0  0  0  0  0  0  0  # atno 10718 bound_to 10713
  153.0195  135.5277  154.7007 H   0  0  0  0  0  0  0  0  0  0  0  0  # atno 10763 bound_to 10752
  154.6116  135.2879  155.0427 H   0  0  0  0  0  0  0  0  0  0  0  0  # atno 10764 bound_to 10752
  154.1447  135.6572  153.5002 H   0  0  0  0  0  0  0  0  0  0  0  0  # atno 10765 bound_to 10752
  141.1206  133.8525  157.1307 H   0  0  0  0  0  0  0  0  0  0  0  0  # atno 11005 bound_to 11000
  146.3217  139.8140  142.8940 LP  0  0  0  0  0  0  0  0  0  0  0  0  # atno 17320 bound_to 7965
  145.3250  141.0253  143.3478 LP  0  0  0  0  0  0  0  0  0  0  0  0  # atno 17321 bound_to 7965
  140.0291  144.6095  150.7503 LP  0  0  0  0  0  0  0  0  0  0  0  0  # atno 17342 bound_to 10162
  140.7373  143.2763  151.3731 LP  0  0  0  0  0  0  0  0  0  0  0  0  # atno 17343 bound_to 10162
  156.4685  130.7985  151.3004 LP  0  0  0  0  0  0  0  0  0  0  0  0  # atno 17370 bound_to 10713
  157.7483  131.0043  150.3071 LP  0  0  0  0  0  0  0  0  0  0  0  0  # atno 17371 bound_to 10713
  140.0161  134.9967  157.0497 LP  0  0  0  0  0  0  0  0  0  0  0  0  # atno 17394 bound_to 11000
  140.4517  134.1575  155.7182 LP  0  0  0  0  0  0  0  0  0  0  0  0  # atno 17395 bound_to 11000

$$$$
