AV-unprocessed.smi:2175|AV-procd|sdf|8845|dock10
  -GOLD-   2272012 33D 1   1.00000     0.00000
 Structure written by MMmdl.
 33 34  0  0  0  0  0  0  0  0  2 V2000
  150.4676  135.2673  154.5643 C   0  0  0  0  0  0  0  0  0  0  0  0
  150.6593  136.7455  154.8275 C   0  0  0  0  0  0  0  0  0  0  0  0
  149.6688  137.5398  154.6783 N   0  0  0  0  0  0  0  0  0  0  0  0
  149.8404  138.9126  154.9233 C   0  0  0  0  0  0  0  0  0  0  0  0
  148.6086  139.7793  154.7279 C   0  0  0  0  0  0  0  0  0  0  0  0
  151.0469  139.4147  155.3144 C   0  0  0  0  0  0  0  0  0  0  0  0
  151.2794  140.8979  155.6016 C   0  0  0  0  0  0  0  0  0  0  0  0
  150.7486  141.4071  156.9440 C   0  0  0  0  0  0  0  0  0  0  0  0
  150.1890  140.6376  157.7251 O   0  0  0  0  0  0  0  0  0  0  0  0
  150.9362  142.7103  157.2014 N   0  0  0  0  0  0  0  0  0  0  0  0
  150.5228  143.3911  158.4213 C   0  0  0  0  0  0  0  0  0  0  0  0
  151.5823  144.2738  159.0529 C   0  0  0  0  0  0  0  0  0  0  0  0
  152.8350  144.6507  158.2974 C   0  0  0  0  0  0  0  0  0  0  0  0
  152.9156  143.6932  159.4622 C   0  0  0  0  0  0  0  0  0  0  0  0
  152.1649  138.4662  155.4687 C   0  0  0  0  0  0  0  0  0  0  0  0
  153.2780  138.8671  155.8064 O   0  0  0  0  0  0  0  0  0  0  0  0
  151.9152  137.1485  155.2217 N   0  5  0  0  0  0  0  0  0  0  0  0
  149.4959  135.0723  154.1084 H   0  0  0  0  0  0  0  0  0  0  0  0
  150.5269  134.7086  155.4986 H   0  0  0  0  0  0  0  0  0  0  0  0
  151.2399  134.8975  153.8890 H   0  0  0  0  0  0  0  0  0  0  0  0
  148.3163  140.2464  155.6685 H   0  0  0  0  0  0  0  0  0  0  0  0
  147.7636  139.1891  154.3708 H   0  0  0  0  0  0  0  0  0  0  0  0
  148.8013  140.5626  153.9946 H   0  0  0  0  0  0  0  0  0  0  0  0
  152.3522  141.0871  155.5502 H   0  0  0  0  0  0  0  0  0  0  0  0
  150.8546  141.5181  154.8121 H   0  0  0  0  0  0  0  0  0  0  0  0
  151.4038  143.2687  156.5022 H   0  0  0  0  0  0  0  0  0  0  0  0
  149.6386  143.9977  158.2192 H   0  0  0  0  0  0  0  0  0  0  0  0
  150.2127  142.6328  159.1410 H   0  0  0  0  0  0  0  0  0  0  0  0
  151.1802  145.0315  159.7231 H   0  0  0  0  0  0  0  0  0  0  0  0
  152.9687  144.2393  157.2987 H   0  0  0  0  0  0  0  0  0  0  0  0
  153.2251  145.6557  158.4436 H   0  0  0  0  0  0  0  0  0  0  0  0
  153.3617  144.0594  160.3846 H   0  0  0  0  0  0  0  0  0  0  0  0
  153.1044  142.6454  159.2371 H   0  0  0  0  0  0  0  0  0  0  0  0
  1  2  1  0  0  0  0
  1 18  1  0  0  0  0
  1 19  1  0  0  0  0
  1 20  1  0  0  0  0
  2 17  1  0  0  0  0
  2  3  2  0  0  0  0
  3  4  1  0  0  0  0
  4  5  1  0  0  0  0
  4  6  2  0  0  0  0
  5 21  1  0  0  0  0
  5 22  1  0  0  0  0
  5 23  1  0  0  0  0
  6  7  1  0  0  0  0
  6 15  1  0  0  0  0
  7  8  1  0  0  0  0
  7 24  1  0  0  0  0
  7 25  1  0  0  0  0
  8  9  2  0  0  0  0
  8 10  1  0  0  0  0
 10 11  1  0  0  0  0
 10 26  1  0  0  0  0
 11 12  1  0  0  0  0
 11 27  1  0  0  0  0
 11 28  1  0  0  0  0
 12 14  1  0  0  0  0
 12 13  1  0  0  0  0
 12 29  1  0  0  0  0
 13 14  1  0  0  0  0
 13 30  1  0  0  0  0
 13 31  1  0  0  0  0
 14 32  1  0  0  0  0
 14 33  1  0  0  0  0
 15 16  2  0  0  0  0
 15 17  1  0  0  0  0
M  CHG  1  17  -1
M  END
> <s_m_source_file>
AV-unprocessed.smi

> <i_m_source_file_index>
2175

> <i_lp_mmshare_version>
43012

> <i_f3d_flags>
0

> <s_epik_input>
W0NIM11jMW5jKFtDSDNdKWMoYyg9TylbbkhdMSlbQ0gyXUMoPU8pW05IXVtDSDJdW0NIXTJbQ0gyXVtDSDJdMg==

> <s_epik_cmdline>
J2VwaWtfcHl0aG9uJywgJy1waCcsICc3LjAnLCAnLXRuJywgJzgnLCAnLW1hJywgJzIwMCcsICctbWV0YWxfYmluZGluZycsICctaW1hZScsICc8aW5maWxlLm1hZT4nLCAnLW9tYWUnLCAnPG91dGZpbGUubWFlPic=

> <r_lp_tautomer_probability>
0.839158

> <r_epik_Ionization_Penalty>
6.60351

> <r_epik_Ionization_Penalty_Charging>
6.70818e-08

> <r_epik_Ionization_Penalty_Neutral>
6.60351

> <r_epik_State_Penalty>
4.42903

> <r_epik_Charging_Adjusted_Penalty>
4.42903

> <i_epik_Tot_Q>
-1

> <i_epik_Tot_abs_Q>
1

> <r_epik_Metal_State_Penalty>
0.797668

> <b_epik_Metal_Only>
1

> <s_lp_Force_Field>
OPLS_2005

> <r_lp_Energy>
17.43

> <b_lp_Chiralities_Consistent>
1

> <s_lp_Variant>
AV-unprocessed.smi:2175-3

> <Gold.Version>
5.8.1

> <Gold.Id.Protein>
6NUR|6NUR_protein|mol2

> <Gold.PLP.Fitness>
41.7312

> <Gold.PLP.PLP>
-33.4754

> <Gold.PLP.part.hbond>
-2.6097

> <Gold.PLP.part.metal>
0.0000

> <Gold.PLP.part.buried>
-2.9876

> <Gold.PLP.part.nonpolar>
-28.2187

> <Gold.PLP.part.repulsive>
0.2900

> <Gold.PLP.ligand.clash>
0.0000

> <Gold.PLP.ligand.torsion>
0.6313

> <Gold.PLP.Chemscore.Hbond>
2.9920

> <Gold.PLP.Chemscore.CHOScore>
0.0000

> <Gold.PLP.Chemscore.Metal>
0.0000

> <Gold.Chemscore.Hbonds>
donor molecule, donor type, donor heavy atom, donor atom, acceptor molecule, acceptor atom, score
      P1  H  7997  8010       L1    16  0.88
      P1  H 10752 10763       L1    17  1.86

> <Gold.PLP.Chemscore.Internal.Correction>
0.5423

> <Gold.Rescore>
     Score         DG    S(hbond)    S(metal)    S(lipo)     H(rot)  DE(clash)    DE(int)     intcor
     15.07     -15.53       1.64        0.00      76.27       1.70       0.01       0.45       ----

> <Gold.Chemscore.Fitness>
15.0723

> <Gold.Chemscore.DG>
-15.5316

> <Gold.Chemscore.ZeroCoef>
-5.4800

> <Gold.Chemscore.Hbond>
1.6415

> <Gold.Chemscore.Metal>
0.0000

> <Gold.Chemscore.Lipo>
76.2676

> <Gold.Chemscore.Internal_Hbond>
0.0000

> <Gold.Chemscore.DEClash>
0.0121

> <Gold.Chemscore.DEInternal>
0.4471

> <Gold.Chemscore.Rot>
1.7009

> <Gold.Chemscore.Internal.Correction>
   9.000000E+99

> <Gold.Chemscore.Hbonds>
donor molecule, donor type, donor heavy atom, donor atom, acceptor molecule, acceptor atom, score
      P1  H  7997  8010       L1    16  0.87
      P1  H 10752 10763       L1    17  0.30

> <Gold.Chemscore.Hbond.Weighted>
-5.4826

> <Gold.Chemscore.Metal.Weighted>
-0.0000

> <Gold.Chemscore.Lipo.Weighted>
-8.9233

> <Gold.Chemscore.Internal_Hbond.Weighted>
0.0000

> <Gold.Chemscore.DEClash.Weighted>
0.0121

> <Gold.Chemscore.DEInternal.Weighted>
0.4471

> <Gold.Chemscore.Rot.Weighted>
4.3543

> <Gold.Chemscore.Internal.Correction.Weighted>
   9.000000E+99

> <Gold.Protein.RotatedTorsions>
[ 6907 6896 6895 6894 ] final   83.14 input  -60.11 | X-H torsion
[ 7974 7965 7964 7962 ] final   76.88 input  175.53 | X-H torsion
[ 8008 7997 7996 7995 ] final   67.36 input   59.86 | X-H torsion
[ 10167 10162 10161 10158 ] final  162.48 input  -65.29 | X-H torsion
[ 10718 10713 10712 10709 ] final  176.67 input   66.30 | X-H torsion
[ 10763 10752 10751 10750 ] final   73.13 input  -60.55 | X-H torsion
[ 11005 11000 10999 10996 ] final -140.34 input  -57.11 | X-H torsion

> <Gold.Protein.ActiveResidues>
 VAL166  LYS551  ARG553  GLY616  TRP617  ASP618  TYR619  PRO620  LYS621  CYS622 
 ASP623  PHE694  ASN695  SER759  ASP760  ASP761  ALA762  ILE779  LEU786  VAL792 
 PHE793  MET794  SER795  GLU796  ALA797  LYS798  CYS799  TRP800  GLU811  SER814 

> <Gold.Protein.RotatedAtoms>
  152.5319  134.2941  159.9053 H   0  0  0  0  0  0  0  0  0  0  0  0  # atno 6907 bound_to 6896
  151.2893  133.4166  159.2639 H   0  0  0  0  0  0  0  0  0  0  0  0  # atno 6908 bound_to 6896
  151.0215  134.9488  159.8119 H   0  0  0  0  0  0  0  0  0  0  0  0  # atno 6909 bound_to 6896
  145.6972  139.2571  143.1726 H   0  0  0  0  0  0  0  0  0  0  0  0  # atno 7974 bound_to 7965
  155.6917  140.3496  155.4896 H   0  0  0  0  0  0  0  0  0  0  0  0  # atno 8008 bound_to 7997
  155.9518  140.1121  157.0992 H   0  0  0  0  0  0  0  0  0  0  0  0  # atno 8009 bound_to 7997
  154.4123  140.1192  156.5049 H   0  0  0  0  0  0  0  0  0  0  0  0  # atno 8010 bound_to 7997
  139.4861  144.4433  151.8924 H   0  0  0  0  0  0  0  0  0  0  0  0  # atno 10167 bound_to 10162
  156.9166  130.9927  151.3011 H   0  0  0  0  0  0  0  0  0  0  0  0  # atno 10718 bound_to 10713
  153.0502  135.5074  154.7847 H   0  0  0  0  0  0  0  0  0  0  0  0  # atno 10763 bound_to 10752
  154.6716  135.2954  154.9737 H   0  0  0  0  0  0  0  0  0  0  0  0  # atno 10764 bound_to 10752
  154.0553  135.6698  153.4858 H   0  0  0  0  0  0  0  0  0  0  0  0  # atno 10765 bound_to 10752
  140.8432  134.2376  157.4799 H   0  0  0  0  0  0  0  0  0  0  0  0  # atno 11005 bound_to 11000
  146.0829  140.7743  142.9632 LP  0  0  0  0  0  0  0  0  0  0  0  0  # atno 17320 bound_to 7965
  144.6979  140.3518  143.7180 LP  0  0  0  0  0  0  0  0  0  0  0  0  # atno 17321 bound_to 7965
  140.3886  144.2645  150.5901 LP  0  0  0  0  0  0  0  0  0  0  0  0  # atno 17342 bound_to 10162
  140.5167  143.2276  151.8452 LP  0  0  0  0  0  0  0  0  0  0  0  0  # atno 17343 bound_to 10162
  157.5934  130.8460  149.8693 LP  0  0  0  0  0  0  0  0  0  0  0  0  # atno 17370 bound_to 10713
  156.0510  130.3717  150.1201 LP  0  0  0  0  0  0  0  0  0  0  0  0  # atno 17371 bound_to 10713
  139.8703  134.9646  156.4501 LP  0  0  0  0  0  0  0  0  0  0  0  0  # atno 17394 bound_to 11000
  140.8872  133.7875  155.9531 LP  0  0  0  0  0  0  0  0  0  0  0  0  # atno 17395 bound_to 11000

$$$$
