AV-unprocessed.smi:2568|AV-procd|sdf|10095|dock2
  -GOLD-   2272014113D 1   1.00000     0.00000
 Structure written by MMmdl.
 25 26  0  0  0  0  0  0  0  0  2 V2000
  151.1571  143.7424  158.0269 C   0  0  0  0  0  0  0  0  0  0  0  0
  150.9324  142.5383  157.1764 C   0  0  0  0  0  0  0  0  0  0  0  0
  151.5440  141.3613  157.3369 N   0  0  0  0  0  0  0  0  0  0  0  0
  151.0391  140.5446  156.3395 N   0  0  0  0  0  0  0  0  0  0  0  0
  150.1654  141.3008  155.6660 C   0  0  0  0  0  0  0  0  0  0  0  0
  149.3715  140.8474  154.4813 C   0  0  1  0  0  0  0  0  0  0  0  0
  149.6162  139.3642  154.1421 C   0  0  0  0  0  0  0  0  0  0  0  0
  148.7339  138.9470  153.0350 N   0  3  0  0  0  0  0  0  0  0  0  0
  147.3166  139.2273  153.3390 C   0  0  0  0  0  0  0  0  0  0  0  0
  147.1374  140.7101  153.7095 C   0  0  0  0  0  0  0  0  0  0  0  0
  147.9949  141.0410  154.7972 O   0  0  0  0  0  0  0  0  0  0  0  0
  150.0708  142.5485  156.1493 N   0  0  0  0  0  0  0  0  0  0  0  0
  149.4915  143.3092  155.8246 H   0  0  0  0  0  0  0  0  0  0  0  0
  151.7730  143.4899  158.8906 H   0  0  0  0  0  0  0  0  0  0  0  0
  150.2042  144.1346  158.3832 H   0  0  0  0  0  0  0  0  0  0  0  0
  151.6644  144.5171  157.4517 H   0  0  0  0  0  0  0  0  0  0  0  0
  149.6344  141.4751  153.6275 H   0  0  0  0  0  0  0  0  0  0  0  0
  150.6560  139.1990  153.8589 H   0  0  0  0  0  0  0  0  0  0  0  0
  149.4152  138.7355  155.0108 H   0  0  0  0  0  0  0  0  0  0  0  0
  148.9936  139.4570  152.2026 H   0  0  0  0  0  0  0  0  0  0  0  0
  146.7024  138.9691  152.4761 H   0  0  0  0  0  0  0  0  0  0  0  0
  146.9951  138.5916  154.1651 H   0  0  0  0  0  0  0  0  0  0  0  0
  147.3514  141.3540  152.8548 H   0  0  0  0  0  0  0  0  0  0  0  0
  146.1049  140.9028  154.0017 H   0  0  0  0  0  0  0  0  0  0  0  0
  148.8520  137.9580  152.8653 H   0  0  0  0  0  0  0  0  0  0  0  0
  1 14  1  0  0  0  0
  1 15  1  0  0  0  0
  1 16  1  0  0  0  0
  1  2  1  0  0  0  0
  2  3  2  0  0  0  0
  2 12  1  0  0  0  0
  3  4  1  0  0  0  0
  4  5  2  0  0  0  0
  5 12  1  0  0  0  0
  5  6  1  0  0  0  0
  6 11  1  0  0  0  0
  6  7  1  0  0  0  0
  6 17  1  0  0  0  0
  7  8  1  0  0  0  0
  7 18  1  0  0  0  0
  7 19  1  0  0  0  0
  8  9  1  0  0  0  0
  8 20  1  0  0  0  0
  8 25  1  0  0  0  0
  9 10  1  0  0  0  0
  9 21  1  0  0  0  0
  9 22  1  0  0  0  0
 10 11  1  0  0  0  0
 10 23  1  0  0  0  0
 10 24  1  0  0  0  0
 12 13  1  0  0  0  0
M  CHG  1   8   1
M  END
> <s_m_source_file>
AV-unprocessed.smi

> <i_m_source_file_index>
2568

> <i_lp_mmshare_version>
43012

> <i_f3d_flags>
0

> <s_epik_input>
W0NIM11jMW5bbkhdYyhuMSlbQ0BASF0yW0NIMl1bTkhdW0NIMl1bQ0gyXU8y

> <s_epik_cmdline>
J2VwaWtfcHl0aG9uJywgJy1waCcsICc3LjAnLCAnLXRuJywgJzgnLCAnLW1hJywgJzIwMCcsICctbWV0YWxfYmluZGluZycsICctaW1hZScsICc8aW5maWxlLm1hZT4nLCAnLW9tYWUnLCAnPG91dGZpbGUubWFlPic=

> <r_lp_tautomer_probability>
0.0517155

> <r_epik_Ionization_Penalty>
0.290065

> <r_epik_Ionization_Penalty_Charging>
0.125708

> <r_epik_Ionization_Penalty_Neutral>
0.164357

> <r_epik_State_Penalty>
2.14308

> <r_epik_Charging_Adjusted_Penalty>
2.26879

> <i_epik_Tot_Q>
1

> <i_epik_Tot_abs_Q>
1

> <r_epik_Metal_State_Penalty>
2.44434

> <b_epik_Metal_Only>
0

> <s_lp_Force_Field>
OPLS_2005

> <r_lp_Energy>
13.5699

> <b_lp_Chiralities_Consistent>
1

> <s_lp_Variant>
AV-unprocessed.smi:2568-8

> <Gold.Version>
5.8.1

> <Gold.Id.Protein>
6NUR|6NUR_protein|mol2

> <Gold.PLP.Fitness>
34.5723

> <Gold.PLP.PLP>
-23.4384

> <Gold.PLP.part.hbond>
-2.9829

> <Gold.PLP.part.metal>
0.0000

> <Gold.PLP.part.buried>
-2.5670

> <Gold.PLP.part.nonpolar>
-18.6516

> <Gold.PLP.part.repulsive>
0.3624

> <Gold.PLP.ligand.clash>
0.0000

> <Gold.PLP.ligand.torsion>
0.0124

> <Gold.PLP.Chemscore.Hbond>
3.7193

> <Gold.PLP.Chemscore.CHOScore>
0.0000

> <Gold.PLP.Chemscore.Metal>
0.0000

> <Gold.Chemscore.Hbonds>
donor molecule, donor type, donor heavy atom, donor atom, acceptor molecule, acceptor atom, score
      L1  H     8    20       P1  7957  0.50
      L1  H     8    25       P1  7948  2.00
      L1  H    12    13       P1  8028  1.00

> <Gold.PLP.Chemscore.Internal.Correction>
0.0010

> <Gold.Rescore>
     Score         DG    S(hbond)    S(metal)    S(lipo)     H(rot)  DE(clash)    DE(int)     intcor
     17.03     -17.13       2.83        0.00      40.54       1.00       0.07       0.03       ----

> <Gold.Chemscore.Fitness>
17.0274

> <Gold.Chemscore.DG>
-17.1258

> <Gold.Chemscore.ZeroCoef>
-5.4800

> <Gold.Chemscore.Hbond>
2.8330

> <Gold.Chemscore.Metal>
0.0000

> <Gold.Chemscore.Lipo>
40.5420

> <Gold.Chemscore.Internal_Hbond>
0.0000

> <Gold.Chemscore.DEClash>
0.0684

> <Gold.Chemscore.DEInternal>
0.0300

> <Gold.Chemscore.Rot>
1.0000

> <Gold.Chemscore.Internal.Correction>
   9.000000E+99

> <Gold.Chemscore.Hbonds>
donor molecule, donor type, donor heavy atom, donor atom, acceptor molecule, acceptor atom, score
      L1  H     8    20       P1  7957  0.52
      L1  H     8    25       P1  7948  0.97
      L1  H    12    13       P1  8028  0.94

> <Gold.Chemscore.Hbond.Weighted>
-9.4624

> <Gold.Chemscore.Metal.Weighted>
-0.0000

> <Gold.Chemscore.Lipo.Weighted>
-4.7434

> <Gold.Chemscore.Internal_Hbond.Weighted>
0.0000

> <Gold.Chemscore.DEClash.Weighted>
0.0684

> <Gold.Chemscore.DEInternal.Weighted>
0.0300

> <Gold.Chemscore.Rot.Weighted>
2.5600

> <Gold.Chemscore.Internal.Correction.Weighted>
   9.000000E+99

> <Gold.Protein.RotatedTorsions>
[ 6907 6896 6895 6894 ] final  -72.71 input  -60.11 | X-H torsion
[ 7974 7965 7964 7962 ] final -152.53 input  175.53 | X-H torsion
[ 8008 7997 7996 7995 ] final  155.89 input   59.86 | X-H torsion
[ 10167 10162 10161 10158 ] final  162.48 input  -65.29 | X-H torsion
[ 10718 10713 10712 10709 ] final -131.10 input   66.30 | X-H torsion
[ 10763 10752 10751 10750 ] final    4.94 input  -60.55 | X-H torsion
[ 11005 11000 10999 10996 ] final  160.15 input  -57.11 | X-H torsion

> <Gold.Protein.ActiveResidues>
 VAL166  LYS551  ARG553  GLY616  TRP617  ASP618  TYR619  PRO620  LYS621  CYS622 
 ASP623  PHE694  ASN695  SER759  ASP760  ASP761  ALA762  ILE779  LEU786  VAL792 
 PHE793  MET794  SER795  GLU796  ALA797  LYS798  CYS799  TRP800  GLU811  SER814 

> <Gold.Protein.RotatedAtoms>
  150.7159  134.5122  159.5612 H   0  0  0  0  0  0  0  0  0  0  0  0  # atno 6907 bound_to 6896
  152.2696  134.7944  160.0425 H   0  0  0  0  0  0  0  0  0  0  0  0  # atno 6908 bound_to 6896
  151.8628  133.3425  159.3746 H   0  0  0  0  0  0  0  0  0  0  0  0  # atno 6909 bound_to 6896
  144.7789  140.4650  143.5853 H   0  0  0  0  0  0  0  0  0  0  0  0  # atno 7974 bound_to 7965
  156.2453  140.1927  156.6871 H   0  0  0  0  0  0  0  0  0  0  0  0  # atno 8008 bound_to 7997
  154.6279  140.0600  156.9722 H   0  0  0  0  0  0  0  0  0  0  0  0  # atno 8009 bound_to 7997
  155.1757  140.3272  155.4387 H   0  0  0  0  0  0  0  0  0  0  0  0  # atno 8010 bound_to 7997
  139.4861  144.4433  151.8923 H   0  0  0  0  0  0  0  0  0  0  0  0  # atno 10167 bound_to 10162
  156.2210  130.6978  151.0756 H   0  0  0  0  0  0  0  0  0  0  0  0  # atno 10718 bound_to 10713
  153.2653  135.6927  153.7536 H   0  0  0  0  0  0  0  0  0  0  0  0  # atno 10763 bound_to 10752
  153.6580  135.3365  155.3120 H   0  0  0  0  0  0  0  0  0  0  0  0  # atno 10764 bound_to 10752
  154.8445  135.4470  154.1657 H   0  0  0  0  0  0  0  0  0  0  0  0  # atno 10765 bound_to 10752
  140.2031  134.8323  157.3040 H   0  0  0  0  0  0  0  0  0  0  0  0  # atno 11005 bound_to 11000
  145.6106  139.1513  143.3078 LP  0  0  0  0  0  0  0  0  0  0  0  0  # atno 17320 bound_to 7965
  146.1986  140.6222  142.9113 LP  0  0  0  0  0  0  0  0  0  0  0  0  # atno 17321 bound_to 7965
  140.3886  144.2644  150.5901 LP  0  0  0  0  0  0  0  0  0  0  0  0  # atno 17342 bound_to 10162
  140.5167  143.2276  151.8452 LP  0  0  0  0  0  0  0  0  0  0  0  0  # atno 17343 bound_to 10162
  157.7087  131.0744  150.6576 LP  0  0  0  0  0  0  0  0  0  0  0  0  # atno 17370 bound_to 10713
  156.6639  130.4520  149.5678 LP  0  0  0  0  0  0  0  0  0  0  0  0  # atno 17371 bound_to 10713
  140.2032  134.4229  155.7651 LP  0  0  0  0  0  0  0  0  0  0  0  0  # atno 17394 bound_to 11000
  141.2227  133.7082  156.8218 LP  0  0  0  0  0  0  0  0  0  0  0  0  # atno 17395 bound_to 11000

$$$$
