AV-unprocessed.smi:1159|AV-procd|sdf|4915|dock10
  -GOLD-   22720 3493D 1   1.00000     0.00000
 Structure written by MMmdl.
 41 42  0  0  0  0  0  0  0  0  1 V2000
  145.9388  138.2109  154.8883 O   0  0  0  0  0  0  0  0  0  0  0  0
  146.7809  137.6606  154.1790 C   0  0  0  0  0  0  0  0  0  0  0  0
  148.0767  138.0086  154.1014 N   0  0  0  0  0  0  0  0  0  0  0  0
  148.7559  139.0325  154.8153 C   0  0  0  0  0  0  0  0  0  0  0  0
  148.3277  139.5482  156.0614 C   0  0  0  0  0  0  0  0  0  0  0  0
  149.0961  140.5510  156.6827 C   0  0  0  0  0  0  0  0  0  0  0  0
  150.2696  141.0030  156.0475 C   0  0  0  0  0  0  0  0  0  0  0  0
  151.0143  141.9881  156.6624 O   0  0  0  0  0  0  0  0  0  0  0  0
  150.5595  142.5067  157.9097 C   0  0  0  0  0  0  0  0  0  0  0  0
  151.5727  143.5334  158.4285 C   0  0  0  0  0  0  0  0  0  0  0  0
  152.6752  142.9174  158.8537 F   0  0  0  0  0  0  0  0  0  0  0  0
  151.9012  144.3657  157.4411 F   0  0  0  0  0  0  0  0  0  0  0  0
  151.0426  144.2416  159.4254 F   0  0  0  0  0  0  0  0  0  0  0  0
  150.6940  140.5032  154.8605 N   0  0  0  0  0  0  0  0  0  0  0  0
  149.9536  139.5405  154.2711 C   0  0  0  0  0  0  0  0  0  0  0  0
  146.5034  136.6395  153.3555 N   0  0  0  0  0  0  0  0  0  0  0  0
  145.1890  136.0210  153.1725 C   0  0  1  0  0  0  0  0  0  0  0  0
  145.2360  135.0209  151.9955 C   0  0  0  0  0  0  0  0  0  0  0  0
  143.8645  134.7254  151.3676 C   0  0  0  0  0  0  0  0  0  0  0  0
  142.8560  134.0522  152.3100 C   0  0  0  0  0  0  0  0  0  0  0  0
  142.4303  134.9395  153.4923 C   0  0  0  0  0  0  0  0  0  0  0  0
  143.4197  134.9597  154.5624 N   0  0  0  0  0  0  0  0  0  0  0  0
  144.6789  135.4189  154.4957 C   0  0  0  0  0  0  0  0  0  0  0  0
  145.4193  135.3544  155.4769 O   0  0  0  0  0  0  0  0  0  0  0  0
  148.6265  137.5270  153.4049 H   0  0  0  0  0  0  0  0  0  0  0  0
  147.4396  139.1871  156.5566 H   0  0  0  0  0  0  0  0  0  0  0  0
  148.7919  140.9638  157.6333 H   0  0  0  0  0  0  0  0  0  0  0  0
  149.5853  142.9830  157.7884 H   0  0  0  0  0  0  0  0  0  0  0  0
  150.4497  141.7003  158.6368 H   0  0  0  0  0  0  0  0  0  0  0  0
  150.3284  139.1683  153.3288 H   0  0  0  0  0  0  0  0  0  0  0  0
  147.2598  136.2472  152.8138 H   0  0  0  0  0  0  0  0  0  0  0  0
  144.4931  136.8224  152.9167 H   0  0  0  0  0  0  0  0  0  0  0  0
  145.8726  135.4191  151.2040 H   0  0  0  0  0  0  0  0  0  0  0  0
  145.7101  134.0910  152.3128 H   0  0  0  0  0  0  0  0  0  0  0  0
  143.4371  135.6494  150.9758 H   0  0  0  0  0  0  0  0  0  0  0  0
  144.0140  134.0790  150.5023 H   0  0  0  0  0  0  0  0  0  0  0  0
  141.9666  133.8070  151.7287 H   0  0  0  0  0  0  0  0  0  0  0  0
  143.2483  133.1003  152.6706 H   0  0  0  0  0  0  0  0  0  0  0  0
  142.2038  135.9545  153.1629 H   0  0  0  0  0  0  0  0  0  0  0  0
  141.5083  134.5447  153.9197 H   0  0  0  0  0  0  0  0  0  0  0  0
  143.1213  134.5748  155.4471 H   0  0  0  0  0  0  0  0  0  0  0  0
  1  2  2  0  0  0  0
  2  3  1  0  0  0  0
  2 16  1  0  0  0  0
  3  4  1  0  0  0  0
  3 25  1  0  0  0  0
  4 15  1  0  0  0  0
  4  5  2  0  0  0  0
  5  6  1  0  0  0  0
  5 26  1  0  0  0  0
  6  7  2  0  0  0  0
  6 27  1  0  0  0  0
  7  8  1  0  0  0  0
  7 14  1  0  0  0  0
  8  9  1  0  0  0  0
  9 10  1  0  0  0  0
  9 28  1  0  0  0  0
  9 29  1  0  0  0  0
 10 11  1  0  0  0  0
 10 12  1  0  0  0  0
 10 13  1  0  0  0  0
 14 15  2  0  0  0  0
 15 30  1  0  0  0  0
 16 17  1  0  0  0  0
 16 31  1  0  0  0  0
 17 23  1  0  0  0  0
 17 18  1  0  0  0  0
 17 32  1  0  0  0  0
 18 19  1  0  0  0  0
 18 33  1  0  0  0  0
 18 34  1  0  0  0  0
 19 20  1  0  0  0  0
 19 35  1  0  0  0  0
 19 36  1  0  0  0  0
 20 21  1  0  0  0  0
 20 37  1  0  0  0  0
 20 38  1  0  0  0  0
 21 22  1  0  0  0  0
 21 39  1  0  0  0  0
 21 40  1  0  0  0  0
 22 23  1  0  0  0  0
 22 41  1  0  0  0  0
 23 24  2  0  0  0  0
M  END
> <s_m_source_file>
AV-unprocessed.smi

> <i_m_source_file_index>
1159

> <i_lp_mmshare_version>
43012

> <i_f3d_flags>
0

> <s_epik_input>
Tz1DMVtOSF1bQ0gyXVtDSDJdW0NIMl1bQ0gyXVtDQEhdMVtOSF1DKD1PKVtOSF1jMltjSF1bY0hdYyhuW2NIXTIpT1tDSDJdQyhGKShGKUY=

> <s_epik_cmdline>
J2VwaWtfcHl0aG9uJywgJy1waCcsICc3LjAnLCAnLXRuJywgJzgnLCAnLW1hJywgJzIwMCcsICctbWV0YWxfYmluZGluZycsICctaW1hZScsICc8aW5maWxlLm1hZT4nLCAnLW9tYWUnLCAnPG91dGZpbGUubWFlPic=

> <r_lp_tautomer_probability>
1

> <r_epik_Ionization_Penalty>
3.53205e-05

> <r_epik_Ionization_Penalty_Charging>
0

> <r_epik_Ionization_Penalty_Neutral>
3.53205e-05

> <r_epik_State_Penalty>
-0

> <r_epik_Charging_Adjusted_Penalty>
0

> <i_epik_Tot_Q>
0

> <i_epik_Tot_abs_Q>
0

> <r_epik_Metal_State_Penalty>
-0

> <b_epik_Metal_Only>
0

> <s_lp_Force_Field>
OPLS_2005

> <r_lp_Energy>
11.134

> <b_lp_Chiralities_Consistent>
1

> <s_lp_Variant>
AV-unprocessed.smi:1159-2

> <Gold.Version>
5.8.1

> <Gold.Id.Protein>
6NUR|6NUR_protein|mol2

> <Gold.PLP.Fitness>
44.9212

> <Gold.PLP.PLP>
-34.8504

> <Gold.PLP.part.hbond>
-3.1108

> <Gold.PLP.part.metal>
0.0000

> <Gold.PLP.part.buried>
-4.9992

> <Gold.PLP.part.nonpolar>
-27.4537

> <Gold.PLP.part.repulsive>
0.2384

> <Gold.PLP.ligand.clash>
0.6001

> <Gold.PLP.ligand.torsion>
0.2768

> <Gold.PLP.Chemscore.Hbond>
2.8500

> <Gold.PLP.Chemscore.CHOScore>
0.8788

> <Gold.PLP.Chemscore.Metal>
0.0000

> <Gold.Chemscore.Hbonds>
donor molecule, donor type, donor heavy atom, donor atom, acceptor molecule, acceptor atom, score
      L1  H     3    25       P1  7948  1.00
      L1  H    16    31       P1  7948  1.00
      P1  H  7989  7998       L1    14  0.85
      L1  C    15    30       P1  7957  0.88

> <Gold.PLP.Chemscore.Internal.Correction>
0.0382

> <Gold.Rescore>
     Score         DG    S(hbond)    S(metal)    S(lipo)     H(rot)  DE(clash)    DE(int)     intcor
     14.22     -16.03       2.44        0.00      60.02       1.81       0.29       1.52       ----

> <Gold.Chemscore.Fitness>
14.2227

> <Gold.Chemscore.DG>
-16.0321

> <Gold.Chemscore.ZeroCoef>
-5.4800

> <Gold.Chemscore.Hbond>
2.4412

> <Gold.Chemscore.Metal>
0.0000

> <Gold.Chemscore.Lipo>
60.0198

> <Gold.Chemscore.Internal_Hbond>
0.0000

> <Gold.Chemscore.DEClash>
0.2923

> <Gold.Chemscore.DEInternal>
1.5171

> <Gold.Chemscore.Rot>
1.8062

> <Gold.Chemscore.Internal.Correction>
   9.000000E+99

> <Gold.Chemscore.Hbonds>
donor molecule, donor type, donor heavy atom, donor atom, acceptor molecule, acceptor atom, score
      L1  H     3    25       P1  7948  0.92
      L1  H    16    31       P1  7948  0.98
      P1  H  7989  7998       L1    14  0.14

> <Gold.Chemscore.Hbond.Weighted>
-8.1536

> <Gold.Chemscore.Metal.Weighted>
-0.0000

> <Gold.Chemscore.Lipo.Weighted>
-7.0223

> <Gold.Chemscore.Internal_Hbond.Weighted>
0.0000

> <Gold.Chemscore.DEClash.Weighted>
0.2923

> <Gold.Chemscore.DEInternal.Weighted>
1.5171

> <Gold.Chemscore.Rot.Weighted>
4.6238

> <Gold.Chemscore.Internal.Correction.Weighted>
   9.000000E+99

> <Gold.Protein.RotatedTorsions>
[ 6907 6896 6895 6894 ] final -148.14 input  -60.11 | X-H torsion
[ 7974 7965 7964 7962 ] final  119.37 input  175.53 | X-H torsion
[ 8008 7997 7996 7995 ] final  -34.50 input   59.86 | X-H torsion
[ 10167 10162 10161 10158 ] final   80.46 input  -65.29 | X-H torsion
[ 10718 10713 10712 10709 ] final -136.65 input   66.30 | X-H torsion
[ 10763 10752 10751 10750 ] final  -28.75 input  -60.55 | X-H torsion
[ 11005 11000 10999 10996 ] final  144.64 input  -57.11 | X-H torsion

> <Gold.Protein.ActiveResidues>
 VAL166  LYS551  ARG553  GLY616  TRP617  ASP618  TYR619  PRO620  LYS621  CYS622 
 ASP623  PHE694  ASN695  SER759  ASP760  ASP761  ALA762  ILE779  LEU786  VAL792 
 PHE793  MET794  SER795  GLU796  ALA797  LYS798  CYS799  TRP800  GLU811  SER814 

> <Gold.Protein.RotatedAtoms>
  151.1656  133.4817  159.2593 H   0  0  0  0  0  0  0  0  0  0  0  0  # atno 6907 bound_to 6896
  151.1409  135.0179  159.8635 H   0  0  0  0  0  0  0  0  0  0  0  0  # atno 6908 bound_to 6896
  152.5462  134.1549  159.8587 H   0  0  0  0  0  0  0  0  0  0  0  0  # atno 6909 bound_to 6896
  145.1439  139.3251  143.4601 H   0  0  0  0  0  0  0  0  0  0  0  0  # atno 7974 bound_to 7965
  154.4119  140.1682  156.2060 H   0  0  0  0  0  0  0  0  0  0  0  0  # atno 8008 bound_to 7997
  155.9484  140.3403  155.6363 H   0  0  0  0  0  0  0  0  0  0  0  0  # atno 8009 bound_to 7997
  155.6901  140.0732  157.2442 H   0  0  0  0  0  0  0  0  0  0  0  0  # atno 8010 bound_to 7997
  139.9496  144.6035  150.8174 H   0  0  0  0  0  0  0  0  0  0  0  0  # atno 10167 bound_to 10162
  156.2794  130.7312  151.1304 H   0  0  0  0  0  0  0  0  0  0  0  0  # atno 10718 bound_to 10713
  153.7534  135.6924  153.4941 H   0  0  0  0  0  0  0  0  0  0  0  0  # atno 10763 bound_to 10752
  153.1988  135.4444  155.0239 H   0  0  0  0  0  0  0  0  0  0  0  0  # atno 10764 bound_to 10752
  154.8179  135.3407  154.7053 H   0  0  0  0  0  0  0  0  0  0  0  0  # atno 10765 bound_to 10752
  140.0649  134.9184  157.1247 H   0  0  0  0  0  0  0  0  0  0  0  0  # atno 11005 bound_to 11000
  146.3502  140.1487  142.8593 LP  0  0  0  0  0  0  0  0  0  0  0  0  # atno 17320 bound_to 7965
  145.0502  140.9012  143.5000 LP  0  0  0  0  0  0  0  0  0  0  0  0  # atno 17321 bound_to 7965
  140.7587  143.3113  151.2839 LP  0  0  0  0  0  0  0  0  0  0  0  0  # atno 17342 bound_to 10162
  139.6639  144.0139  152.2710 LP  0  0  0  0  0  0  0  0  0  0  0  0  # atno 17343 bound_to 10162
  157.7309  131.0612  150.5701 LP  0  0  0  0  0  0  0  0  0  0  0  0  # atno 17370 bound_to 10713
  156.5805  130.4303  149.5979 LP  0  0  0  0  0  0  0  0  0  0  0  0  # atno 17371 bound_to 10713
  140.3714  134.2386  155.7177 LP  0  0  0  0  0  0  0  0  0  0  0  0  # atno 17394 bound_to 11000
  141.1988  133.8026  157.0564 LP  0  0  0  0  0  0  0  0  0  0  0  0  # atno 17395 bound_to 11000

$$$$
