#       Name:                AV-unprocessed.smi:197
#       Creating user name   scv26
#       Creation time:       Thu Mar 26 19:41:38 2020


#       File generated by GOLD software.
#

@<TRIPOS>MOLECULE
AV-unprocessed.smi:197
    66    69     1
SMALL
NO_CHARGES


@<TRIPOS>ATOM
      1 ****        -1.2096  -1.7288   1.9118 C.3            1 S1                 0.0000
      2 ****        -2.5865  -1.8067   1.5734 O.3            1 S1                 0.0000
      3 ****        -2.8849  -2.7134   0.5186 C.3            1 S1                 0.0000
      4 ****        -2.4791  -2.1587  -0.8596 C.3            1 S1                 0.0000
      5 ****        -3.1493  -0.8039  -1.2132 C.3            1 S1                 0.0000
      6 ****        -4.6532  -0.9924  -1.5204 C.3            1 S1                 0.0000
      7 ****        -5.2518   0.2530  -1.8615 O.3            1 S1                 0.0000
      8 ****        -4.6687   0.8194  -3.0274 C.3            1 S1                 0.0000
      9 ****        -3.1828   1.0926  -2.7600 C.3            1 S1                 0.0000
     10 ****        -2.5085  -0.1351  -2.3536 N.3            1 S1                 0.0000
     11 ****        -1.1751   0.0633  -2.2484 C.ar           1 S1                 0.0000
     12 ****        -0.3986  -0.4314  -3.2432 N.ar           1 S1                 0.0000
     13 ****         0.9306  -0.3098  -3.1750 C.ar           1 S1                 0.0000
     14 ****         1.6700   0.2542  -2.2174 N.ar           1 S1                 0.0000
     15 ****         0.8892   0.7628  -1.2212 C.ar           1 S1                 0.0000
     16 ****        -0.5319   0.7245  -1.1632 C.ar           1 S1                 0.0000
     17 ****        -0.9759   1.3580  -0.0087 N.2            1 S1                 0.0000
     18 ****         0.1202   1.7329   0.5907 C.2            1 S1                 0.0000
     19 ****         1.2874   1.4007  -0.0593 N.pl3          1 S1                 0.0000
     20 ****         2.6440   1.6726   0.3900 C.3            1 S1                 0.0000
     21 ****         3.2181   0.5643   1.3124 C.3            1 S1                 0.0000
     22 ****         3.2266  -0.6525   0.5845 O.3            1 S1                 0.0000
     23 ****         2.3981   0.3397   2.5808 C.3            1 S1                 0.0000
     24 ****         3.4342  -0.1583   3.5763 C.3            1 S1                 0.0000
     25 ****         4.5571   0.6503   3.2747 O.3            1 S1                 0.0000
     26 ****         4.6548   0.7971   1.8603 C.3            1 S1                 0.0000
     27 ****         5.2914   2.1668   1.5775 C.3            1 S1                 0.0000
     28 ****        -1.0831  -1.0506   2.7555 H              1 S1                 0.0000
     29 ****        -0.6055  -1.3431   1.0914 H              1 S1                 0.0000
     30 ****        -0.8185  -2.7037   2.2048 H              1 S1                 0.0000
     31 ****        -2.4004  -3.6739   0.7001 H              1 S1                 0.0000
     32 ****        -3.9558  -2.9116   0.5386 H              1 S1                 0.0000
     33 ****        -1.3933  -2.0821  -0.8767 H              1 S1                 0.0000
     34 ****        -2.7200  -2.8918  -1.6301 H              1 S1                 0.0000
     35 ****        -3.0719  -0.1403  -0.3523 H              1 S1                 0.0000
     36 ****        -4.8010  -1.7073  -2.3317 H              1 S1                 0.0000
     37 ****        -5.1786  -1.3866  -0.6513 H              1 S1                 0.0000
     38 ****        -4.7969   0.1493  -3.8792 H              1 S1                 0.0000
     39 ****        -5.1852   1.7484  -3.2692 H              1 S1                 0.0000
     40 ****        -2.7147   1.4965  -3.6589 H              1 S1                 0.0000
     41 ****        -3.0814   1.8458  -1.9771 H              1 S1                 0.0000
     42 ****         1.4812  -0.7316  -4.0028 H              1 S1                 0.0000
     43 ****         0.1063   2.2559   1.5359 H              1 S1                 0.0000
     44 ****         3.2753   1.8011  -0.4902 H              1 S1                 0.0000
     45 ****         2.6323   2.6330   0.9060 H              1 S1                 0.0000
     46 ****         3.5761  -1.3322   1.1404 H              1 S1                 0.0000
     47 ****         1.9964   1.2877   2.9409 H              1 S1                 0.0000
     48 ****         1.5612  -0.3478   2.4510 H              1 S1                 0.0000
     49 ****         3.1177  -0.0389   4.6126 H              1 S1                 0.0000
     50 ****         3.6754  -1.2084   3.4044 H              1 S1                 0.0000
     51 ****         5.3314   0.0222   1.4951 H              1 S1                 0.0000
     52 ****         5.4170   2.3346   0.5077 H              1 S1                 0.0000
     53 ****         6.2791   2.2319   2.0344 H              1 S1                 0.0000
     54 ****         4.6907   2.9806   1.9842 H              1 S1                 0.0000
     55 ****        -2.8922  -0.8954   1.2976 LP             1 S1                 0.0000
     56 ****        -3.0920  -2.0960   2.3862 LP             1 S1                 0.0000
     57 ****        -5.1325   0.8888  -1.0989 LP             1 S1                 0.0000
     58 ****        -6.2276   0.1086  -2.0256 LP             1 S1                 0.0000
     59 ****        -2.6195  -0.8106  -3.0825 LP             1 S1                 0.0000
     60 ****        -0.8199  -0.8869  -4.0275 LP             1 S1                 0.0000
     61 ****         2.6690   0.2983  -2.2289 LP             1 S1                 0.0000
     62 ****        -1.9193   1.4950   0.2932 LP             1 S1                 0.0000
     63 ****         3.7993  -0.5546  -0.2294 LP             1 S1                 0.0000
     64 ****         2.2943  -0.8876   0.3096 LP             1 S1                 0.0000
     65 ****         5.3870   0.2162   3.6251 LP             1 S1                 0.0000
     66 ****         4.4468   1.5493   3.6985 LP             1 S1                 0.0000
@<TRIPOS>BOND
    1    1    2 1     
    2    1   28 1     
    3    1   29 1     
    4    1   30 1     
    5    2    3 1     
    6    3    4 1     
    7    3   31 1     
    8    3   32 1     
    9    4    5 1     
   10    4   33 1     
   11    4   34 1     
   12    5   10 1     
   13    5    6 1     
   14    5   35 1     
   15    6    7 1     
   16    6   36 1     
   17    6   37 1     
   18    7    8 1     
   19    8    9 1     
   20    8   38 1     
   21    8   39 1     
   22    9   10 1     
   23    9   40 1     
   24    9   41 1     
   25   10   11 1     
   26   11   16 ar    
   27   11   12 ar    
   28   12   13 ar    
   29   13   14 ar    
   30   13   42 1     
   31   14   15 ar    
   32   15   19 1     
   33   15   16 ar    
   34   16   17 1     
   35   17   18 2     
   36   18   19 1     
   37   18   43 1     
   38   19   20 1     
   39   20   21 1     
   40   20   44 1     
   41   20   45 1     
   42   21   26 1     
   43   21   22 1     
   44   21   23 1     
   45   22   46 1     
   46   23   24 1     
   47   23   47 1     
   48   23   48 1     
   49   24   25 1     
   50   24   49 1     
   51   24   50 1     
   52   25   26 1     
   53   26   27 1     
   54   26   51 1     
   55   27   52 1     
   56   27   53 1     
   57   27   54 1     
   58    2   55 1     
   59    2   56 1     
   60    7   57 1     
   61    7   58 1     
   62   10   59 1     
   63   12   60 1     
   64   14   61 1     
   65   17   62 1     
   66   22   63 1     
   67   22   64 1     
   68   25   65 1     
   69   25   66 1     
@<TRIPOS>SUBSTRUCTURE
      1 S1             1
@<TRIPOS>SET
LONE_PAIRS      STATIC     ATOMS    <user>   **** ""
12 55 56 57 58 59 60 61 62 63 64 65 66
DONOR_HYDROGENS      STATIC     ATOMS    <user>   **** ""
1 46
ATOM$BLUE        STATIC     ATOMS    COLORGROUP SYSTEM
12 55 56 57 58 59 60 61 62 63 64 65 66
ATOM$RED        STATIC     ATOMS    COLORGROUP SYSTEM
1 46
