AV-unprocessed.smi:92|AV-procd|sdf|846|dock6
  -GOLD-   2262017283D 1   1.00000     0.00000
 Structure written by MMmdl.
 61 64  0  0  0  0  0  0  0  0  2 V2000
  151.1343  138.4399  159.1519 C   0  0  0  0  0  0  0  0  0  0  0  0
  150.8537  138.5039  157.6439 C   0  0  0  0  0  0  0  0  0  0  0  0
  151.0753  139.8625  157.0802 N   0  3  1  0  0  0  0  0  0  0  0  0
  151.4612  139.8523  155.6463 C   0  0  0  0  0  0  0  0  0  0  0  0
  150.2617  139.5396  154.7380 C   0  0  0  0  0  0  0  0  0  0  0  0
  149.1131  140.5422  154.9736 C   0  0  1  0  0  0  0  0  0  0  0  0
  147.9623  140.2624  154.1025 N   0  0  0  0  0  0  0  0  0  0  0  0
  147.2534  141.3542  153.4391 C   0  0  0  0  0  0  0  0  0  0  0  0
  147.3108  139.0697  154.1945 C   0  0  0  0  0  0  0  0  0  0  0  0
  147.1829  138.4721  155.4097 N   0  0  0  0  0  0  0  0  0  0  0  0
  146.5407  137.3076  155.5318 C   0  0  0  0  0  0  0  0  0  0  0  0
  145.9602  136.5736  154.5828 N   0  0  0  0  0  0  0  0  0  0  0  0
  146.0879  137.1552  153.3563 C   0  0  0  0  0  0  0  0  0  0  0  0
  146.7416  138.3906  153.0759 C   0  0  0  0  0  0  0  0  0  0  0  0
  146.6815  138.6506  151.7114 N   0  0  0  0  0  0  0  0  0  0  0  0
  146.0242  137.6380  151.2176 C   0  0  0  0  0  0  0  0  0  0  0  0
  145.6273  136.6908  152.1338 N   0  0  0  0  0  0  0  0  0  0  0  0
  144.8964  135.4865  151.8489 C   0  0  0  0  0  0  0  0  0  0  0  0
  145.4900  134.1039  152.1391 C   0  0  0  0  0  0  0  0  0  0  0  0
  144.8261  133.5458  150.8577 C   0  0  0  0  0  0  0  0  0  0  0  0
  145.7088  132.6539  149.9642 C   0  0  0  0  0  0  0  0  0  0  0  0
  146.1616  131.4893  150.6253 O   0  0  0  0  0  0  0  0  0  0  0  0
  143.5230  132.7432  151.0598 C   0  0  0  0  0  0  0  0  0  0  0  0
  142.8811  132.3951  149.8494 O   0  0  0  0  0  0  0  0  0  0  0  0
  144.6593  135.0174  150.4094 C   0  0  0  0  0  0  0  0  0  0  0  0
  148.7270  140.5866  156.4735 C   0  0  2  0  0  0  0  0  0  0  0  0
  147.6644  141.6618  156.7618 C   0  0  0  0  0  0  0  0  0  0  0  0
  149.9818  140.8373  157.3430 C   0  0  0  0  0  0  0  0  0  0  0  0
  151.0578  137.4134  159.5109 H   0  0  0  0  0  0  0  0  0  0  0  0
  150.4262  139.0349  159.7276 H   0  0  0  0  0  0  0  0  0  0  0  0
  152.1395  138.7945  159.3813 H   0  0  0  0  0  0  0  0  0  0  0  0
  151.5315  137.8037  157.1543 H   0  0  0  0  0  0  0  0  0  0  0  0
  149.8460  138.1493  157.4286 H   0  0  0  0  0  0  0  0  0  0  0  0
  151.8652  140.8326  155.3896 H   0  0  0  0  0  0  0  0  0  0  0  0
  152.2681  139.1388  155.4754 H   0  0  0  0  0  0  0  0  0  0  0  0
  150.5808  139.5746  153.6961 H   0  0  0  0  0  0  0  0  0  0  0  0
  149.9249  138.5182  154.9163 H   0  0  0  0  0  0  0  0  0  0  0  0
  149.4917  141.5376  154.7377 H   0  0  0  0  0  0  0  0  0  0  0  0
  146.1761  141.2766  153.5910 H   0  0  0  0  0  0  0  0  0  0  0  0
  147.4535  141.3362  152.3677 H   0  0  0  0  0  0  0  0  0  0  0  0
  147.5647  142.3270  153.8171 H   0  0  0  0  0  0  0  0  0  0  0  0
  146.4827  136.9064  156.5327 H   0  0  0  0  0  0  0  0  0  0  0  0
  145.8121  137.5553  150.1615 H   0  0  0  0  0  0  0  0  0  0  0  0
  143.9392  135.5867  152.3625 H   0  0  0  0  0  0  0  0  0  0  0  0
  146.5799  134.0980  152.1053 H   0  0  0  0  0  0  0  0  0  0  0  0
  145.1359  133.6548  153.0673 H   0  0  0  0  0  0  0  0  0  0  0  0
  145.1638  132.3376  149.0741 H   0  0  0  0  0  0  0  0  0  0  0  0
  146.5867  133.2003  149.6177 H   0  0  0  0  0  0  0  0  0  0  0  0
  147.0057  131.2517  150.2731 H   0  0  0  0  0  0  0  0  0  0  0  0
  143.7193  131.8190  151.6047 H   0  0  0  0  0  0  0  0  0  0  0  0
  142.8094  133.3114  151.6575 H   0  0  0  0  0  0  0  0  0  0  0  0
  142.3520  131.6266  149.9996 H   0  0  0  0  0  0  0  0  0  0  0  0
  143.6716  135.2649  150.0192 H   0  0  0  0  0  0  0  0  0  0  0  0
  145.4355  135.3564  149.7228 H   0  0  0  0  0  0  0  0  0  0  0  0
  148.3011  139.6268  156.7639 H   0  0  0  0  0  0  0  0  0  0  0  0
  148.0119  142.6527  156.4676 H   0  0  0  0  0  0  0  0  0  0  0  0
  147.4201  141.6972  157.8239 H   0  0  0  0  0  0  0  0  0  0  0  0
  146.7368  141.4631  156.2247 H   0  0  0  0  0  0  0  0  0  0  0  0
  149.7192  140.8388  158.4002 H   0  0  0  0  0  0  0  0  0  0  0  0
  150.3699  141.8354  157.1349 H   0  0  0  0  0  0  0  0  0  0  0  0
  151.8853  140.2149  157.5701 H   0  0  0  0  0  0  0  0  0  0  0  0
  1  2  1  0  0  0  0
  1 29  1  0  0  0  0
  1 30  1  0  0  0  0
  1 31  1  0  0  0  0
  2  3  1  0  0  0  0
  2 32  1  0  0  0  0
  2 33  1  0  0  0  0
  3 28  1  0  0  0  0
  3  4  1  0  0  0  0
  3 61  1  0  0  0  0
  4  5  1  0  0  0  0
  4 34  1  0  0  0  0
  4 35  1  0  0  0  0
  5  6  1  0  0  0  0
  5 36  1  0  0  0  0
  5 37  1  0  0  0  0
  6  7  1  0  0  0  0
  6 26  1  0  0  0  0
  6 38  1  0  0  0  0
  7  8  1  0  0  0  0
  7  9  1  0  0  0  0
  8 39  1  0  0  0  0
  8 40  1  0  0  0  0
  8 41  1  0  0  0  0
  9 14  1  0  0  0  0
  9 10  2  0  0  0  0
 10 11  1  0  0  0  0
 11 12  2  0  0  0  0
 11 42  1  0  0  0  0
 12 13  1  0  0  0  0
 13 17  1  0  0  0  0
 13 14  2  0  0  0  0
 14 15  1  0  0  0  0
 15 16  2  0  0  0  0
 16 17  1  0  0  0  0
 16 43  1  0  0  0  0
 17 18  1  0  0  0  0
 18 25  1  0  0  0  0
 18 19  1  0  0  0  0
 18 44  1  0  0  0  0
 19 20  1  0  0  0  0
 19 45  1  0  0  0  0
 19 46  1  0  0  0  0
 20 21  1  0  0  0  0
 20 23  1  0  0  0  0
 20 25  1  0  0  0  0
 21 22  1  0  0  0  0
 21 47  1  0  0  0  0
 21 48  1  0  0  0  0
 22 49  1  0  0  0  0
 23 24  1  0  0  0  0
 23 50  1  0  0  0  0
 23 51  1  0  0  0  0
 24 52  1  0  0  0  0
 25 53  1  0  0  0  0
 25 54  1  0  0  0  0
 26 27  1  0  0  0  0
 26 28  1  0  0  0  0
 26 55  1  0  0  0  0
 27 56  1  0  0  0  0
 27 57  1  0  0  0  0
 27 58  1  0  0  0  0
 28 59  1  0  0  0  0
 28 60  1  0  0  0  0
M  CHG  1   3   1
M  END
> <s_m_source_file>
AV-unprocessed.smi

> <i_m_source_file_index>
92

> <i_lp_mmshare_version>
43012

> <i_f3d_flags>
0

> <s_epik_input>
W0NIM11bQ0gyXU4xW0NIMl1bQ0gyXVtDQEhdKFtDQEBIXShbQ0gzXSlbQ0gyXTEpTihbQ0gzXSljKG5bY0hdbjIpYyhjMjMpbltjSF1uM1tDSF0oW0NIMl00KVtDSDJdQzQoW0NIMl1bT0hdKVtDSDJdW09IXQ==

> <s_epik_cmdline>
J2VwaWtfcHl0aG9uJywgJy1waCcsICc3LjAnLCAnLXRuJywgJzgnLCAnLW1hJywgJzIwMCcsICctbWV0YWxfYmluZGluZycsICctaW1hZScsICc8aW5maWxlLm1hZT4nLCAnLW9tYWUnLCAnPG91dGZpbGUubWFlPic=

> <r_lp_tautomer_probability>
1

> <r_epik_Ionization_Penalty>
0.00235514

> <r_epik_Ionization_Penalty_Charging>
0.00137877

> <r_epik_Ionization_Penalty_Neutral>
0.000976366

> <r_epik_State_Penalty>
-0

> <r_epik_Charging_Adjusted_Penalty>
0.00137877

> <i_epik_Tot_Q>
1

> <i_epik_Tot_abs_Q>
1

> <r_epik_Metal_State_Penalty>
-0

> <b_epik_Metal_Only>
0

> <s_lp_Force_Field>
OPLS_2005

> <r_lp_Energy>
55.2069

> <b_lp_Chiralities_Consistent>
1

> <s_lp_Variant>
AV-unprocessed.smi:92-6

> <Gold.Version>
5.8.1

> <Gold.Id.Protein>
6NUR|6NUR_protein|mol2

> <Gold.PLP.Fitness>
47.9593

> <Gold.PLP.PLP>
-42.2851

> <Gold.PLP.part.hbond>
-3.0000

> <Gold.PLP.part.metal>
0.0000

> <Gold.PLP.part.buried>
-3.8135

> <Gold.PLP.part.nonpolar>
-36.2520

> <Gold.PLP.part.repulsive>
0.4884

> <Gold.PLP.ligand.clash>
0.0000

> <Gold.PLP.ligand.torsion>
1.5129

> <Gold.PLP.Chemscore.Hbond>
2.0000

> <Gold.PLP.Chemscore.CHOScore>
0.6197

> <Gold.PLP.Chemscore.Metal>
0.0000

> <Gold.Chemscore.Hbonds>
donor molecule, donor type, donor heavy atom, donor atom, acceptor molecule, acceptor atom, score
      L1  H    22    49       P1 10747  1.00
      L1  H    24    52       P1 10952  0.98
      L1  C    16    43       P1 10171  0.56

> <Gold.PLP.Chemscore.Internal.Correction>
0.8407

> <Gold.Rescore>
     Score         DG    S(hbond)    S(metal)    S(lipo)     H(rot)  DE(clash)    DE(int)     intcor
     10.11     -14.60       1.95        0.00      92.78       3.22       1.50       2.98       ----

> <Gold.Chemscore.Fitness>
10.1125

> <Gold.Chemscore.DG>
-14.5967

> <Gold.Chemscore.ZeroCoef>
-5.4800

> <Gold.Chemscore.Hbond>
1.9491

> <Gold.Chemscore.Metal>
0.0000

> <Gold.Chemscore.Lipo>
92.7768

> <Gold.Chemscore.Internal_Hbond>
0.0000

> <Gold.Chemscore.DEClash>
1.5041

> <Gold.Chemscore.DEInternal>
2.9801

> <Gold.Chemscore.Rot>
3.2219

> <Gold.Chemscore.Internal.Correction>
   9.000000E+99

> <Gold.Chemscore.Hbonds>
donor molecule, donor type, donor heavy atom, donor atom, acceptor molecule, acceptor atom, score
      L1  H    22    49       P1 10747  0.95
      L1  H    24    52       P1 10952  0.83

> <Gold.Chemscore.Hbond.Weighted>
-6.5100

> <Gold.Chemscore.Metal.Weighted>
-0.0000

> <Gold.Chemscore.Lipo.Weighted>
-10.8549

> <Gold.Chemscore.Internal_Hbond.Weighted>
0.0000

> <Gold.Chemscore.DEClash.Weighted>
1.5041

> <Gold.Chemscore.DEInternal.Weighted>
2.9801

> <Gold.Chemscore.Rot.Weighted>
8.2482

> <Gold.Chemscore.Internal.Correction.Weighted>
   9.000000E+99

> <Gold.Protein.RotatedTorsions>
[ 6907 6896 6895 6894 ] final   95.33 input  -60.11 | X-H torsion
[ 7974 7965 7964 7962 ] final  169.64 input  175.53 | X-H torsion
[ 8008 7997 7996 7995 ] final   88.99 input   59.86 | X-H torsion
[ 10167 10162 10161 10158 ] final -107.14 input  -65.29 | X-H torsion
[ 10718 10713 10712 10709 ] final   63.91 input   66.30 | X-H torsion
[ 10763 10752 10751 10750 ] final  -45.75 input  -60.55 | X-H torsion
[ 11005 11000 10999 10996 ] final  -77.46 input  -57.11 | X-H torsion

> <Gold.Protein.ActiveResidues>
 VAL166  LYS551  ARG553  GLY616  TRP617  ASP618  TYR619  PRO620  LYS621  CYS622 
 ASP623  PHE694  ASN695  SER759  ASP760  ASP761  ALA762  ILE779  LEU786  VAL792 
 PHE793  MET794  SER795  GLU796  ALA797  LYS798  CYS799  TRP800  GLU811  SER814 

> <Gold.Protein.RotatedAtoms>
  152.5444  134.1056  159.8336 H   0  0  0  0  0  0  0  0  0  0  0  0  # atno 6907 bound_to 6896
  151.1129  133.5152  159.2612 H   0  0  0  0  0  0  0  0  0  0  0  0  # atno 6908 bound_to 6896
  151.1864  135.0393  159.8868 H   0  0  0  0  0  0  0  0  0  0  0  0  # atno 6909 bound_to 6896
  144.7348  139.9085  143.6413 H   0  0  0  0  0  0  0  0  0  0  0  0  # atno 7974 bound_to 7965
  155.9945  140.3365  155.6785 H   0  0  0  0  0  0  0  0  0  0  0  0  # atno 8008 bound_to 7997
  155.6375  140.0691  157.2647 H   0  0  0  0  0  0  0  0  0  0  0  0  # atno 8009 bound_to 7997
  154.4229  140.1748  156.1525 H   0  0  0  0  0  0  0  0  0  0  0  0  # atno 8010 bound_to 7997
  140.1801  143.3973  152.1288 H   0  0  0  0  0  0  0  0  0  0  0  0  # atno 10167 bound_to 10162
  157.6003  130.9131  149.9777 H   0  0  0  0  0  0  0  0  0  0  0  0  # atno 10718 bound_to 10713
  154.0337  135.6653  153.4783 H   0  0  0  0  0  0  0  0  0  0  0  0  # atno 10763 bound_to 10752
  153.0530  135.5073  154.7909 H   0  0  0  0  0  0  0  0  0  0  0  0  # atno 10764 bound_to 10752
  154.6862  135.3053  154.9509 H   0  0  0  0  0  0  0  0  0  0  0  0  # atno 10765 bound_to 10752
  141.1660  133.7023  156.7823 H   0  0  0  0  0  0  0  0  0  0  0  0  # atno 11005 bound_to 11000
  146.1019  139.4015  143.0342 LP  0  0  0  0  0  0  0  0  0  0  0  0  # atno 17320 bound_to 7965
  145.7567  140.9951  143.1222 LP  0  0  0  0  0  0  0  0  0  0  0  0  # atno 17321 bound_to 7965
  139.5300  144.7147  151.5091 LP  0  0  0  0  0  0  0  0  0  0  0  0  # atno 17342 bound_to 10162
  140.6525  143.8667  150.6800 LP  0  0  0  0  0  0  0  0  0  0  0  0  # atno 17343 bound_to 10162
  156.1075  130.3652  150.0107 LP  0  0  0  0  0  0  0  0  0  0  0  0  # atno 17370 bound_to 10713
  156.8211  130.9359  151.3641 LP  0  0  0  0  0  0  0  0  0  0  0  0  # atno 17371 bound_to 10713
  140.2385  134.8631  157.3550 LP  0  0  0  0  0  0  0  0  0  0  0  0  # atno 17394 bound_to 11000
  140.1819  134.4479  155.7767 LP  0  0  0  0  0  0  0  0  0  0  0  0  # atno 17395 bound_to 11000

$$$$
