AV-unprocessed.smi:1749|AV-procd|sdf|7046|dock9
  -GOLD-   22720 8263D 1   1.00000     0.00000
 Structure written by MMmdl.
 32 33  0  0  0  0  0  0  0  0  1 V2000
  153.2903  141.0146  160.3619 C   0  0  0  0  0  0  0  0  0  0  0  0
  153.0349  142.2709  159.5173 C   0  0  2  0  0  0  0  0  0  0  0  0
  152.7560  143.4989  160.4052 C   0  0  0  0  0  0  0  0  0  0  0  0
  152.4966  144.7570  159.5619 C   0  0  0  0  0  0  0  0  0  0  0  0
  151.3471  144.5338  158.5675 C   0  0  0  0  0  0  0  0  0  0  0  0
  151.6120  143.3109  157.6704 C   0  0  2  0  0  0  0  0  0  0  0  0
  150.4603  143.0797  156.8036 N   0  0  0  0  0  0  0  0  0  0  0  0
  150.1793  141.9482  156.1359 C   0  0  0  0  0  0  0  0  0  0  0  0
  150.9020  140.9537  156.1719 O   0  0  0  0  0  0  0  0  0  0  0  0
  149.0438  141.9502  155.4045 N   0  0  0  0  0  0  0  0  0  0  0  0
  148.4379  140.9528  154.5850 C   0  0  0  0  0  0  0  0  0  0  0  0
  147.2962  141.1184  153.8968 N   0  0  0  0  0  0  0  0  0  0  0  0
  146.9386  139.9769  153.1924 N   0  0  0  0  0  0  0  0  0  0  0  0
  147.8208  138.9913  153.3771 C   0  0  0  0  0  0  0  0  0  0  0  0
  149.1746  139.3632  154.4298 S   0  0  0  0  0  0  0  0  0  0  0  0
  151.8810  142.0534  158.5189 C   0  0  0  0  0  0  0  0  0  0  0  0
  152.4188  140.7588  160.9656 H   0  0  0  0  0  0  0  0  0  0  0  0
  154.1328  141.1607  161.0384 H   0  0  0  0  0  0  0  0  0  0  0  0
  153.5203  140.1563  159.7300 H   0  0  0  0  0  0  0  0  0  0  0  0
  153.9412  142.4701  158.9434 H   0  0  0  0  0  0  0  0  0  0  0  0
  151.8921  143.3054  161.0426 H   0  0  0  0  0  0  0  0  0  0  0  0
  153.5991  143.6754  161.0741 H   0  0  0  0  0  0  0  0  0  0  0  0
  152.2645  145.5996  160.2140 H   0  0  0  0  0  0  0  0  0  0  0  0
  153.4032  145.0269  159.0189 H   0  0  0  0  0  0  0  0  0  0  0  0
  150.4161  144.3939  159.1192 H   0  0  0  0  0  0  0  0  0  0  0  0
  151.2125  145.4259  157.9545 H   0  0  0  0  0  0  0  0  0  0  0  0
  152.5023  143.5163  157.0735 H   0  0  0  0  0  0  0  0  0  0  0  0
  149.8086  143.8460  156.7114 H   0  0  0  0  0  0  0  0  0  0  0  0
  148.5445  142.8275  155.4226 H   0  0  0  0  0  0  0  0  0  0  0  0
  147.6731  138.0386  152.8905 H   0  0  0  0  0  0  0  0  0  0  0  0
  152.1140  141.2127  157.8639 H   0  0  0  0  0  0  0  0  0  0  0  0
  150.9760  141.7773  159.0629 H   0  0  0  0  0  0  0  0  0  0  0  0
  1  2  1  0  0  0  0
  1 17  1  0  0  0  0
  1 18  1  0  0  0  0
  1 19  1  0  0  0  0
  2 16  1  0  0  0  0
  2  3  1  0  0  0  0
  2 20  1  0  0  0  0
  3  4  1  0  0  0  0
  3 21  1  0  0  0  0
  3 22  1  0  0  0  0
  4  5  1  0  0  0  0
  4 23  1  0  0  0  0
  4 24  1  0  0  0  0
  5  6  1  0  0  0  0
  5 25  1  0  0  0  0
  5 26  1  0  0  0  0
  6  7  1  0  0  0  0
  6 16  1  0  0  0  0
  6 27  1  0  0  0  0
  7  8  1  0  0  0  0
  7 28  1  0  0  0  0
  8  9  2  0  0  0  0
  8 10  1  0  0  0  0
 10 11  1  0  0  0  0
 10 29  1  0  0  0  0
 11 15  1  0  0  0  0
 11 12  2  0  0  0  0
 12 13  1  0  0  0  0
 13 14  2  0  0  0  0
 14 15  1  0  0  0  0
 14 30  1  0  0  0  0
 16 31  1  0  0  0  0
 16 32  1  0  0  0  0
M  END
> <s_m_source_file>
AV-unprocessed.smi

> <i_m_source_file_index>
1749

> <i_lp_mmshare_version>
43012

> <i_f3d_flags>
0

> <s_epik_input>
W0NIM11bQ0BASF0xW0NIMl1bQ0gyXVtDSDJdW0NASF0oW0NIMl0xKVtOSF1DKD1PKVtOSF1jMm5uW2NIXXMy

> <s_epik_cmdline>
J2VwaWtfcHl0aG9uJywgJy1waCcsICc3LjAnLCAnLXRuJywgJzgnLCAnLW1hJywgJzIwMCcsICctbWV0YWxfYmluZGluZycsICctaW1hZScsICc8aW5maWxlLm1hZT4nLCAnLW9tYWUnLCAnPG91dGZpbGUubWFlPic=

> <r_lp_tautomer_probability>
1

> <r_epik_Ionization_Penalty>
0.000318591

> <r_epik_Ionization_Penalty_Charging>
0

> <r_epik_Ionization_Penalty_Neutral>
0.000318591

> <r_epik_State_Penalty>
-0

> <r_epik_Charging_Adjusted_Penalty>
0

> <i_epik_Tot_Q>
0

> <i_epik_Tot_abs_Q>
0

> <r_epik_Metal_State_Penalty>
0.169791

> <b_epik_Metal_Only>
0

> <s_lp_Force_Field>
OPLS_2005

> <r_lp_Energy>
11.6734

> <b_lp_Chiralities_Consistent>
1

> <s_lp_Variant>
AV-unprocessed.smi:1749-3

> <Gold.Version>
5.8.1

> <Gold.Id.Protein>
6NUR|6NUR_protein|mol2

> <Gold.PLP.Fitness>
41.2785

> <Gold.PLP.PLP>
-33.5501

> <Gold.PLP.part.hbond>
-2.0000

> <Gold.PLP.part.metal>
0.0000

> <Gold.PLP.part.buried>
-4.1977

> <Gold.PLP.part.nonpolar>
-27.6743

> <Gold.PLP.part.repulsive>
0.5953

> <Gold.PLP.ligand.clash>
0.0000

> <Gold.PLP.ligand.torsion>
0.2529

> <Gold.PLP.Chemscore.Hbond>
1.7440

> <Gold.PLP.Chemscore.CHOScore>
1.0000

> <Gold.PLP.Chemscore.Metal>
0.0000

> <Gold.Chemscore.Hbonds>
donor molecule, donor type, donor heavy atom, donor atom, acceptor molecule, acceptor atom, score
      L1  H     7    28       P1  8028  0.93
      L1  H    10    29       P1  8028  0.82
      L1  C    14    30       P1  7948  1.00

> <Gold.PLP.Chemscore.Internal.Correction>
0.0021

> <Gold.Rescore>
     Score         DG    S(hbond)    S(metal)    S(lipo)     H(rot)  DE(clash)    DE(int)     intcor
     16.62     -19.59       1.87        0.00      88.94       1.00       0.04       2.93       ----

> <Gold.Chemscore.Fitness>
16.6191

> <Gold.Chemscore.DG>
-19.5863

> <Gold.Chemscore.ZeroCoef>
-5.4800

> <Gold.Chemscore.Hbond>
1.8745

> <Gold.Chemscore.Metal>
0.0000

> <Gold.Chemscore.Lipo>
88.9355

> <Gold.Chemscore.Internal_Hbond>
0.0000

> <Gold.Chemscore.DEClash>
0.0362

> <Gold.Chemscore.DEInternal>
2.9310

> <Gold.Chemscore.Rot>
1.0000

> <Gold.Chemscore.Internal.Correction>
   9.000000E+99

> <Gold.Chemscore.Hbonds>
donor molecule, donor type, donor heavy atom, donor atom, acceptor molecule, acceptor atom, score
      L1  H     7    28       P1  8028  0.88
      L1  H    10    29       P1  8028  0.81

> <Gold.Chemscore.Hbond.Weighted>
-6.2608

> <Gold.Chemscore.Metal.Weighted>
-0.0000

> <Gold.Chemscore.Lipo.Weighted>
-10.4055

> <Gold.Chemscore.Internal_Hbond.Weighted>
0.0000

> <Gold.Chemscore.DEClash.Weighted>
0.0362

> <Gold.Chemscore.DEInternal.Weighted>
2.9310

> <Gold.Chemscore.Rot.Weighted>
2.5600

> <Gold.Chemscore.Internal.Correction.Weighted>
   9.000000E+99

> <Gold.Protein.RotatedTorsions>
[ 6907 6896 6895 6894 ] final -133.22 input  -60.11 | X-H torsion
[ 7974 7965 7964 7962 ] final -123.75 input  175.53 | X-H torsion
[ 8008 7997 7996 7995 ] final   21.56 input   59.86 | X-H torsion
[ 10167 10162 10161 10158 ] final   24.23 input  -65.29 | X-H torsion
[ 10718 10713 10712 10709 ] final  -94.62 input   66.30 | X-H torsion
[ 10763 10752 10751 10750 ] final  125.16 input  -60.55 | X-H torsion
[ 11005 11000 10999 10996 ] final  -52.13 input  -57.11 | X-H torsion

> <Gold.Protein.ActiveResidues>
 VAL166  LYS551  ARG553  GLY616  TRP617  ASP618  TYR619  PRO620  LYS621  CYS622 
 ASP623  PHE694  ASN695  SER759  ASP760  ASP761  ALA762  ILE779  LEU786  VAL792 
 PHE793  MET794  SER795  GLU796  ALA797  LYS798  CYS799  TRP800  GLU811  SER814 

> <Gold.Protein.RotatedAtoms>
  150.9715  133.6339  159.2736 H   0  0  0  0  0  0  0  0  0  0  0  0  # atno 6907 bound_to 6896
  151.3626  135.0906  159.9449 H   0  0  0  0  0  0  0  0  0  0  0  0  # atno 6908 bound_to 6896
  152.5184  133.9285  159.7624 H   0  0  0  0  0  0  0  0  0  0  0  0  # atno 6909 bound_to 6896
  145.0154  140.7942  143.4413 H   0  0  0  0  0  0  0  0  0  0  0  0  # atno 7974 bound_to 7965
  154.9524  140.3067  155.5069 H   0  0  0  0  0  0  0  0  0  0  0  0  # atno 8008 bound_to 7997
  156.2986  140.2316  156.4541 H   0  0  0  0  0  0  0  0  0  0  0  0  # atno 8009 bound_to 7997
  154.8042  140.0432  157.1283 H   0  0  0  0  0  0  0  0  0  0  0  0  # atno 8010 bound_to 7997
  140.5204  144.0011  150.6414 H   0  0  0  0  0  0  0  0  0  0  0  0  # atno 10167 bound_to 10162
  156.0030  130.5075  150.5954 H   0  0  0  0  0  0  0  0  0  0  0  0  # atno 10718 bound_to 10713
  153.6729  135.3327  155.3158 H   0  0  0  0  0  0  0  0  0  0  0  0  # atno 10763 bound_to 10752
  154.8486  135.4390  154.1686 H   0  0  0  0  0  0  0  0  0  0  0  0  # atno 10764 bound_to 10752
  153.2682  135.6998  153.7584 H   0  0  0  0  0  0  0  0  0  0  0  0  # atno 10765 bound_to 10752
  141.0908  133.6633  156.3979 H   0  0  0  0  0  0  0  0  0  0  0  0  # atno 11005 bound_to 11000
  145.1967  139.2273  143.5214 LP  0  0  0  0  0  0  0  0  0  0  0  0  # atno 17320 bound_to 7965
  146.3477  140.1775  142.8589 LP  0  0  0  0  0  0  0  0  0  0  0  0  # atno 17321 bound_to 7965
  140.3359  143.3049  152.0639 LP  0  0  0  0  0  0  0  0  0  0  0  0  # atno 17342 bound_to 10162
  139.4922  144.6477  151.6743 LP  0  0  0  0  0  0  0  0  0  0  0  0  # atno 17343 bound_to 10162
  157.3812  131.0781  151.1475 LP  0  0  0  0  0  0  0  0  0  0  0  0  # atno 17370 bound_to 10713
  157.2197  130.6475  149.5806 LP  0  0  0  0  0  0  0  0  0  0  0  0  # atno 17371 bound_to 10713
  140.5257  134.6261  157.5333 LP  0  0  0  0  0  0  0  0  0  0  0  0  # atno 17394 bound_to 11000
  139.9733  134.7256  155.9998 LP  0  0  0  0  0  0  0  0  0  0  0  0  # atno 17395 bound_to 11000

$$$$
