AV-unprocessed.smi:2635|AV-procd|sdf|10256|dock6
  -GOLD-   2272014263D 1   1.00000     0.00000
 Structure written by MMmdl.
 31 32  0  0  0  0  0  0  0  0  2 V2000
  153.9173  136.6664  163.2781 C   0  0  0  0  0  0  0  0  0  0  0  0
  154.5074  137.2537  162.0089 C   0  0  0  0  0  0  0  0  0  0  0  0
  154.9155  138.5365  161.9207 C   0  0  0  0  0  0  0  0  0  0  0  0
  155.4598  139.0694  160.7405 N   0  0  0  0  0  0  0  0  0  0  0  0
  155.8357  140.4727  160.7156 C   0  0  0  0  0  0  0  0  0  0  0  0
  154.9578  141.1616  159.8864 O   0  0  0  0  0  0  0  0  0  0  0  0
  153.6271  141.1710  160.3762 C   0  0  0  0  0  0  0  0  0  0  0  0
  152.9865  142.5370  160.2288 C   0  0  0  0  0  0  0  0  0  0  0  0
  152.4538  143.1916  161.3594 C   0  0  0  0  0  0  0  0  0  0  0  0
  151.8447  144.4546  161.2247 C   0  0  0  0  0  0  0  0  0  0  0  0
  151.7628  145.0662  159.9587 C   0  0  0  0  0  0  0  0  0  0  0  0
  152.2882  144.4131  158.8269 C   0  0  0  0  0  0  0  0  0  0  0  0
  152.8963  143.1496  158.9607 C   0  0  0  0  0  0  0  0  0  0  0  0
  155.5539  138.2997  159.6157 C   0  0  0  0  0  0  0  0  0  0  0  0
  155.9984  138.7979  158.5802 O   0  0  0  0  0  0  0  0  0  0  0  0
  155.1542  136.9929  159.6846 N   0  5  0  0  0  0  0  0  0  0  0  0
  154.6423  136.4183  160.8125 C   0  0  0  0  0  0  0  0  0  0  0  0
  154.2952  135.2382  160.8515 O   0  0  0  0  0  0  0  0  0  0  0  0
  153.9010  137.4031  164.0819 H   0  0  0  0  0  0  0  0  0  0  0  0
  154.5065  135.8124  163.6133 H   0  0  0  0  0  0  0  0  0  0  0  0
  152.8941  136.3328  163.1029 H   0  0  0  0  0  0  0  0  0  0  0  0
  154.8461  139.2306  162.7453 H   0  0  0  0  0  0  0  0  0  0  0  0
  155.7959  140.8792  161.7273 H   0  0  0  0  0  0  0  0  0  0  0  0
  156.8634  140.5555  160.3551 H   0  0  0  0  0  0  0  0  0  0  0  0
  153.0331  140.4256  159.8449 H   0  0  0  0  0  0  0  0  0  0  0  0
  153.6175  140.9015  161.4334 H   0  0  0  0  0  0  0  0  0  0  0  0
  152.5127  142.7253  162.3323 H   0  0  0  0  0  0  0  0  0  0  0  0
  151.4393  144.9539  162.0923 H   0  0  0  0  0  0  0  0  0  0  0  0
  151.2959  146.0345  159.8557 H   0  0  0  0  0  0  0  0  0  0  0  0
  152.2241  144.8805  157.8556 H   0  0  0  0  0  0  0  0  0  0  0  0
  153.2945  142.6550  158.0870 H   0  0  0  0  0  0  0  0  0  0  0  0
  1  2  1  0  0  0  0
  1 19  1  0  0  0  0
  1 20  1  0  0  0  0
  1 21  1  0  0  0  0
  2 17  1  0  0  0  0
  2  3  2  0  0  0  0
  3  4  1  0  0  0  0
  3 22  1  0  0  0  0
  4  5  1  0  0  0  0
  4 14  1  0  0  0  0
  5  6  1  0  0  0  0
  5 23  1  0  0  0  0
  5 24  1  0  0  0  0
  6  7  1  0  0  0  0
  7  8  1  0  0  0  0
  7 25  1  0  0  0  0
  7 26  1  0  0  0  0
  8 13  1  0  0  0  0
  8  9  2  0  0  0  0
  9 10  1  0  0  0  0
  9 27  1  0  0  0  0
 10 11  2  0  0  0  0
 10 28  1  0  0  0  0
 11 12  1  0  0  0  0
 11 29  1  0  0  0  0
 12 13  2  0  0  0  0
 12 30  1  0  0  0  0
 13 31  1  0  0  0  0
 14 15  2  0  0  0  0
 14 16  1  0  0  0  0
 16 17  1  0  0  0  0
 17 18  2  0  0  0  0
M  CHG  1  16  -1
M  END
> <s_m_source_file>
AV-unprocessed.smi

> <i_m_source_file_index>
2635

> <i_lp_mmshare_version>
43012

> <i_f3d_flags>
0

> <s_epik_input>
Tz1jMVtuSF1jKD1PKW4oW2NIXWMxW0NIM10pW0NIMl1PW0NIMl1jMltjSF1bY0hdW2NIXVtjSF1bY0hdMg==

> <s_epik_cmdline>
J2VwaWtfcHl0aG9uJywgJy1waCcsICc3LjAnLCAnLXRuJywgJzgnLCAnLW1hJywgJzIwMCcsICctbWV0YWxfYmluZGluZycsICctaW1hZScsICc8aW5maWxlLm1hZT4nLCAnLW9tYWUnLCAnPG91dGZpbGUubWFlPic=

> <r_lp_tautomer_probability>
0.999537

> <r_epik_Ionization_Penalty>
3.41553

> <r_epik_Ionization_Penalty_Charging>
6.94296e-08

> <r_epik_Ionization_Penalty_Neutral>
3.41553

> <r_epik_State_Penalty>
3.41493

> <r_epik_Charging_Adjusted_Penalty>
3.41493

> <i_epik_Tot_Q>
-1

> <i_epik_Tot_abs_Q>
1

> <r_epik_Metal_State_Penalty>
0.16353

> <b_epik_Metal_Only>
1

> <s_epik_Chemistry_Notes>
This compound contains an acetal/aminal-like group ( X-CH(R)-Y where X, Y are N, S, or O) that may be acid/base labile, releasing an aldehyde.

> <s_lp_Force_Field>
OPLS_2005

> <r_lp_Energy>
15.2245

> <b_lp_Chiralities_Consistent>
1

> <s_lp_Variant>
AV-unprocessed.smi:2635-2

> <Gold.Version>
5.8.1

> <Gold.Id.Protein>
6NUR|6NUR_protein|mol2

> <Gold.PLP.Fitness>
46.0003

> <Gold.PLP.PLP>
-40.7467

> <Gold.PLP.part.hbond>
-2.0000

> <Gold.PLP.part.metal>
0.0000

> <Gold.PLP.part.buried>
-2.4483

> <Gold.PLP.part.nonpolar>
-35.9764

> <Gold.PLP.part.repulsive>
0.0342

> <Gold.PLP.ligand.clash>
0.0000

> <Gold.PLP.ligand.torsion>
0.3831

> <Gold.PLP.Chemscore.Hbond>
2.0000

> <Gold.PLP.Chemscore.CHOScore>
0.0000

> <Gold.PLP.Chemscore.Metal>
0.0000

> <Gold.Chemscore.Hbonds>
donor molecule, donor type, donor heavy atom, donor atom, acceptor molecule, acceptor atom, score
      P1  H  6896  6907       L1    18  0.86
      P1  H  7997  8008       L1    15  1.00

> <Gold.PLP.Chemscore.Internal.Correction>
0.0199

> <Gold.Rescore>
     Score         DG    S(hbond)    S(metal)    S(lipo)     H(rot)  DE(clash)    DE(int)     intcor
     18.29     -19.64       1.98        0.00     105.97       1.90       0.01       1.34       ----

> <Gold.Chemscore.Fitness>
18.2883

> <Gold.Chemscore.DG>
-19.6412

> <Gold.Chemscore.ZeroCoef>
-5.4800

> <Gold.Chemscore.Hbond>
1.9845

> <Gold.Chemscore.Metal>
0.0000

> <Gold.Chemscore.Lipo>
105.9657

> <Gold.Chemscore.Internal_Hbond>
0.0000

> <Gold.Chemscore.DEClash>
0.0147

> <Gold.Chemscore.DEInternal>
1.3382

> <Gold.Chemscore.Rot>
1.9004

> <Gold.Chemscore.Internal.Correction>
   9.000000E+99

> <Gold.Chemscore.Hbonds>
donor molecule, donor type, donor heavy atom, donor atom, acceptor molecule, acceptor atom, score
      P1  H  6896  6907       L1    18  0.82
      P1  H  7997  8008       L1    15  1.00

> <Gold.Chemscore.Hbond.Weighted>
-6.6283

> <Gold.Chemscore.Metal.Weighted>
-0.0000

> <Gold.Chemscore.Lipo.Weighted>
-12.3980

> <Gold.Chemscore.Internal_Hbond.Weighted>
0.0000

> <Gold.Chemscore.DEClash.Weighted>
0.0147

> <Gold.Chemscore.DEInternal.Weighted>
1.3382

> <Gold.Chemscore.Rot.Weighted>
4.8651

> <Gold.Chemscore.Internal.Correction.Weighted>
   9.000000E+99

> <Gold.Protein.RotatedTorsions>
[ 6907 6896 6895 6894 ] final   65.34 input  -60.11 | X-H torsion
[ 7974 7965 7964 7962 ] final  -66.82 input  175.53 | X-H torsion
[ 8008 7997 7996 7995 ] final -152.44 input   59.86 | X-H torsion
[ 10167 10162 10161 10158 ] final  118.38 input  -65.29 | X-H torsion
[ 10718 10713 10712 10709 ] final  149.52 input   66.30 | X-H torsion
[ 10763 10752 10751 10750 ] final  -46.93 input  -60.55 | X-H torsion
[ 11005 11000 10999 10996 ] final  -47.56 input  -57.11 | X-H torsion

> <Gold.Protein.ActiveResidues>
 VAL166  LYS551  ARG553  GLY616  TRP617  ASP618  TYR619  PRO620  LYS621  CYS622 
 ASP623  PHE694  ASN695  SER759  ASP760  ASP761  ALA762  ILE779  LEU786  VAL792 
 PHE793  MET794  SER795  GLU796  ALA797  LYS798  CYS799  TRP800  GLU811  SER814 

> <Gold.Protein.RotatedAtoms>
  152.4400  134.5609  159.9893 H   0  0  0  0  0  0  0  0  0  0  0  0  # atno 6907 bound_to 6896
  151.5709  133.3384  159.2997 H   0  0  0  0  0  0  0  0  0  0  0  0  # atno 6908 bound_to 6896
  150.8305  134.7590  159.6913 H   0  0  0  0  0  0  0  0  0  0  0  0  # atno 6909 bound_to 6896
  145.7370  140.8971  143.0550 H   0  0  0  0  0  0  0  0  0  0  0  0  # atno 7974 bound_to 7965
  155.6552  140.0716  157.2573 H   0  0  0  0  0  0  0  0  0  0  0  0  # atno 8008 bound_to 7997
  154.4154  140.1726  156.1767 H   0  0  0  0  0  0  0  0  0  0  0  0  # atno 8009 bound_to 7997
  155.9744  140.3359  155.6608 H   0  0  0  0  0  0  0  0  0  0  0  0  # atno 8010 bound_to 7997
  139.6115  144.7083  151.2833 H   0  0  0  0  0  0  0  0  0  0  0  0  # atno 10167 bound_to 10162
  157.2950  131.0860  151.1433 H   0  0  0  0  0  0  0  0  0  0  0  0  # atno 10718 bound_to 10713
  154.0530  135.6628  153.4802 H   0  0  0  0  0  0  0  0  0  0  0  0  # atno 10763 bound_to 10752
  153.0456  135.5116  154.7733 H   0  0  0  0  0  0  0  0  0  0  0  0  # atno 10764 bound_to 10752
  154.6745  135.3035  154.9664 H   0  0  0  0  0  0  0  0  0  0  0  0  # atno 10765 bound_to 10752
  141.0648  133.6697  156.3315 H   0  0  0  0  0  0  0  0  0  0  0  0  # atno 11005 bound_to 11000
  144.6879  139.9408  143.7475 LP  0  0  0  0  0  0  0  0  0  0  0  0  # atno 17320 bound_to 7965
  146.0484  139.3488  143.0654 LP  0  0  0  0  0  0  0  0  0  0  0  0  # atno 17321 bound_to 7965
  140.7322  143.6829  150.7986 LP  0  0  0  0  0  0  0  0  0  0  0  0  # atno 17342 bound_to 10162
  140.0424  143.5332  152.2711 LP  0  0  0  0  0  0  0  0  0  0  0  0  # atno 17343 bound_to 10162
  157.2814  130.6752  149.6068 LP  0  0  0  0  0  0  0  0  0  0  0  0  # atno 17370 bound_to 10713
  155.9669  130.4448  150.5478 LP  0  0  0  0  0  0  0  0  0  0  0  0  # atno 17371 bound_to 10713
  140.5796  134.5759  157.5476 LP  0  0  0  0  0  0  0  0  0  0  0  0  # atno 17394 bound_to 11000
  139.9466  134.7691  156.0548 LP  0  0  0  0  0  0  0  0  0  0  0  0  # atno 17395 bound_to 11000

$$$$
