AV-unprocessed.smi:3148|AV-procd|sdf|11994|dock5
  -GOLD-   2272017403D 1   1.00000     0.00000
 Structure written by MMmdl.
 34 36  0  0  0  0  0  0  0  0  1 V2000
  147.0906  141.1470  153.5226 C   0  0  0  0  0  0  0  0  0  0  0  0
  147.9856  140.0513  153.6786 O   0  0  0  0  0  0  0  0  0  0  0  0
  149.1652  140.2690  154.3598 C   0  0  0  0  0  0  0  0  0  0  0  0
  150.2093  139.3275  154.2583 C   0  0  0  0  0  0  0  0  0  0  0  0
  151.3861  139.6149  154.9810 C   0  0  0  0  0  0  0  0  0  0  0  0
  152.5770  138.6803  154.9591 C   0  0  0  0  0  0  0  0  0  0  0  0
  151.5069  140.7329  155.7306 N   0  0  0  0  0  0  0  0  0  0  0  0
  150.4581  141.5582  155.7611 C   0  0  0  0  0  0  0  0  0  0  0  0
  150.6106  142.6871  156.5448 N   0  0  0  0  0  0  0  0  0  0  0  0
  151.6881  142.8810  157.5074 C   0  0  1  0  0  0  0  0  0  0  0  0
  151.7931  144.3284  158.0042 C   0  0  0  0  0  0  0  0  0  0  0  0
  151.6793  144.1504  159.5233 C   0  0  2  0  0  0  0  0  0  0  0  0
  152.9119  143.4593  160.1222 C   0  0  0  0  0  0  0  0  0  0  0  0
  152.7204  142.0175  159.6522 C   0  0  0  0  0  0  0  0  0  0  0  0
  151.4341  142.1233  158.8213 C   0  0  1  0  0  0  0  0  0  0  0  0
  150.7342  143.0967  159.5795 O   0  0  0  0  0  0  0  0  0  0  0  0
  149.2983  141.3863  155.1168 N   0  0  0  0  0  0  0  0  0  0  0  0
  146.2145  140.8210  152.9626 H   0  0  0  0  0  0  0  0  0  0  0  0
  147.5530  141.9646  152.9676 H   0  0  0  0  0  0  0  0  0  0  0  0
  146.7463  141.5205  154.4883 H   0  0  0  0  0  0  0  0  0  0  0  0
  150.1086  138.4345  153.6593 H   0  0  0  0  0  0  0  0  0  0  0  0
  152.4288  137.8703  154.2443 H   0  0  0  0  0  0  0  0  0  0  0  0
  152.7305  138.2417  155.9454 H   0  0  0  0  0  0  0  0  0  0  0  0
  153.4812  139.2210  154.6782 H   0  0  0  0  0  0  0  0  0  0  0  0
  150.0263  143.4806  156.3247 H   0  0  0  0  0  0  0  0  0  0  0  0
  152.6242  142.5447  157.0598 H   0  0  0  0  0  0  0  0  0  0  0  0
  152.7270  144.8070  157.7080 H   0  0  0  0  0  0  0  0  0  0  0  0
  150.9694  144.9417  157.6355 H   0  0  0  0  0  0  0  0  0  0  0  0
  151.3761  145.0542  160.0522 H   0  0  0  0  0  0  0  0  0  0  0  0
  153.8449  143.9006  159.7696 H   0  0  0  0  0  0  0  0  0  0  0  0
  152.8975  143.5116  161.2114 H   0  0  0  0  0  0  0  0  0  0  0  0
  153.5645  141.6452  159.0708 H   0  0  0  0  0  0  0  0  0  0  0  0
  152.5747  141.3542  160.5056 H   0  0  0  0  0  0  0  0  0  0  0  0
  150.9113  141.1733  158.7045 H   0  0  0  0  0  0  0  0  0  0  0  0
  1  2  1  0  0  0  0
  1 18  1  0  0  0  0
  1 19  1  0  0  0  0
  1 20  1  0  0  0  0
  2  3  1  0  0  0  0
  3 17  1  0  0  0  0
  3  4  2  0  0  0  0
  4  5  1  0  0  0  0
  4 21  1  0  0  0  0
  5  6  1  0  0  0  0
  5  7  2  0  0  0  0
  6 22  1  0  0  0  0
  6 23  1  0  0  0  0
  6 24  1  0  0  0  0
  7  8  1  0  0  0  0
  8  9  1  0  0  0  0
  8 17  2  0  0  0  0
  9 10  1  0  0  0  0
  9 25  1  0  0  0  0
 10 15  1  0  0  0  0
 10 11  1  0  0  0  0
 10 26  1  0  0  0  0
 11 12  1  0  0  0  0
 11 27  1  0  0  0  0
 11 28  1  0  0  0  0
 12 16  1  0  0  0  0
 12 13  1  0  0  0  0
 12 29  1  0  0  0  0
 13 14  1  0  0  0  0
 13 30  1  0  0  0  0
 13 31  1  0  0  0  0
 14 15  1  0  0  0  0
 14 32  1  0  0  0  0
 14 33  1  0  0  0  0
 15 16  1  0  0  0  0
 15 34  1  0  0  0  0
M  END
> <s_m_source_file>
AV-unprocessed.smi

> <i_m_source_file_index>
3148

> <i_lp_mmshare_version>
43012

> <i_f3d_flags>
0

> <s_epik_input>
W0NIM11PYzFbY0hdYyhbQ0gzXSluYyhuMSlbTkhdW0NASF0oW0NIMl1bQ0BASF0yMylbQ0BASF0oTzMpW0NIMl1bQ0gyXTI=

> <s_epik_cmdline>
J2VwaWtfcHl0aG9uJywgJy1waCcsICc3LjAnLCAnLXRuJywgJzgnLCAnLW1hJywgJzIwMCcsICctbWV0YWxfYmluZGluZycsICctaW1hZScsICc8aW5maWxlLm1hZT4nLCAnLW9tYWUnLCAnPG91dGZpbGUubWFlPic=

> <r_lp_tautomer_probability>
1

> <r_epik_Ionization_Penalty>
0.101645

> <r_epik_Ionization_Penalty_Charging>
0

> <r_epik_Ionization_Penalty_Neutral>
0.101645

> <r_epik_State_Penalty>
0.0916212

> <r_epik_Charging_Adjusted_Penalty>
0.0916212

> <i_epik_Tot_Q>
0

> <i_epik_Tot_abs_Q>
0

> <r_epik_Metal_State_Penalty>
0.0781

> <b_epik_Metal_Only>
0

> <s_lp_Force_Field>
OPLS_2005

> <r_lp_Energy>
31.271

> <b_lp_Chiralities_Consistent>
1

> <s_lp_Variant>
AV-unprocessed.smi:3148-4

> <Gold.Version>
5.8.1

> <Gold.Id.Protein>
6NUR|6NUR_protein|mol2

> <Gold.PLP.Fitness>
42.7907

> <Gold.PLP.PLP>
-40.6409

> <Gold.PLP.part.hbond>
-2.3795

> <Gold.PLP.part.metal>
0.0000

> <Gold.PLP.part.buried>
-5.2097

> <Gold.PLP.part.nonpolar>
-33.4348

> <Gold.PLP.part.repulsive>
0.9817

> <Gold.PLP.ligand.clash>
0.0000

> <Gold.PLP.ligand.torsion>
0.4365

> <Gold.PLP.Chemscore.Hbond>
1.0000

> <Gold.PLP.Chemscore.CHOScore>
0.0000

> <Gold.PLP.Chemscore.Metal>
0.0000

> <Gold.Chemscore.Hbonds>
donor molecule, donor type, donor heavy atom, donor atom, acceptor molecule, acceptor atom, score
      L1  H     9    25       P1  8028  1.00

> <Gold.PLP.Chemscore.Internal.Correction>
0.0228

> <Gold.Rescore>
     Score         DG    S(hbond)    S(metal)    S(lipo)     H(rot)  DE(clash)    DE(int)     intcor
     16.65     -17.27       0.99        0.00      99.36       1.22       0.39       0.22       ----

> <Gold.Chemscore.Fitness>
16.6537

> <Gold.Chemscore.DG>
-17.2675

> <Gold.Chemscore.ZeroCoef>
-5.4800

> <Gold.Chemscore.Hbond>
0.9862

> <Gold.Chemscore.Metal>
0.0000

> <Gold.Chemscore.Lipo>
99.3591

> <Gold.Chemscore.Internal_Hbond>
0.0000

> <Gold.Chemscore.DEClash>
0.3943

> <Gold.Chemscore.DEInternal>
0.2195

> <Gold.Chemscore.Rot>
1.2232

> <Gold.Chemscore.Internal.Correction>
   9.000000E+99

> <Gold.Chemscore.Hbonds>
donor molecule, donor type, donor heavy atom, donor atom, acceptor molecule, acceptor atom, score
      L1  H     9    25       P1  8028  1.00

> <Gold.Chemscore.Hbond.Weighted>
-3.2939

> <Gold.Chemscore.Metal.Weighted>
-0.0000

> <Gold.Chemscore.Lipo.Weighted>
-11.6250

> <Gold.Chemscore.Internal_Hbond.Weighted>
0.0000

> <Gold.Chemscore.DEClash.Weighted>
0.3943

> <Gold.Chemscore.DEInternal.Weighted>
0.2195

> <Gold.Chemscore.Rot.Weighted>
3.1314

> <Gold.Chemscore.Internal.Correction.Weighted>
   9.000000E+99

> <Gold.Protein.RotatedTorsions>
[ 6907 6896 6895 6894 ] final -175.05 input  -60.11 | X-H torsion
[ 7974 7965 7964 7962 ] final  -31.60 input  175.53 | X-H torsion
[ 8008 7997 7996 7995 ] final   22.54 input   59.86 | X-H torsion
[ 10167 10162 10161 10158 ] final   56.16 input  -65.29 | X-H torsion
[ 10718 10713 10712 10709 ] final -160.46 input   66.30 | X-H torsion
[ 10763 10752 10751 10750 ] final -175.90 input  -60.55 | X-H torsion
[ 11005 11000 10999 10996 ] final  157.25 input  -57.11 | X-H torsion

> <Gold.Protein.ActiveResidues>
 VAL166  LYS551  ARG553  GLY616  TRP617  ASP618  TYR619  PRO620  LYS621  CYS622 
 ASP623  PHE694  ASN695  SER759  ASP760  ASP761  ALA762  ILE779  LEU786  VAL792 
 PHE793  MET794  SER795  GLU796  ALA797  LYS798  CYS799  TRP800  GLU811  SER814 

> <Gold.Protein.RotatedAtoms>
  151.5823  133.3376  159.3010 H   0  0  0  0  0  0  0  0  0  0  0  0  # atno 6907 bound_to 6896
  150.8306  134.7561  159.6862 H   0  0  0  0  0  0  0  0  0  0  0  0  # atno 6908 bound_to 6896
  152.4390  134.5634  159.9952 H   0  0  0  0  0  0  0  0  0  0  0  0  # atno 6909 bound_to 6896
  146.1055  140.5687  142.8801 H   0  0  0  0  0  0  0  0  0  0  0  0  # atno 7974 bound_to 7965
  154.9672  140.3085  155.5004 H   0  0  0  0  0  0  0  0  0  0  0  0  # atno 8008 bound_to 7997
  156.2970  140.2290  156.4701 H   0  0  0  0  0  0  0  0  0  0  0  0  # atno 8009 bound_to 7997
  154.7910  140.0440  157.1189 H   0  0  0  0  0  0  0  0  0  0  0  0  # atno 8010 bound_to 7997
  140.2117  144.3882  150.6486 H   0  0  0  0  0  0  0  0  0  0  0  0  # atno 10167 bound_to 10162
  156.5825  130.8735  151.2868 H   0  0  0  0  0  0  0  0  0  0  0  0  # atno 10718 bound_to 10713
  154.5788  135.2834  155.0754 H   0  0  0  0  0  0  0  0  0  0  0  0  # atno 10763 bound_to 10752
  154.2098  135.6410  153.5115 H   0  0  0  0  0  0  0  0  0  0  0  0  # atno 10764 bound_to 10752
  153.0081  135.5489  154.6435 H   0  0  0  0  0  0  0  0  0  0  0  0  # atno 10765 bound_to 10752
  140.1752  134.8515  157.2737 H   0  0  0  0  0  0  0  0  0  0  0  0  # atno 11005 bound_to 11000
  144.7467  140.5086  143.6830 LP  0  0  0  0  0  0  0  0  0  0  0  0  # atno 17320 bound_to 7965
  145.5770  139.1486  143.3257 LP  0  0  0  0  0  0  0  0  0  0  0  0  # atno 17321 bound_to 7965
  140.6319  143.2189  151.6478 LP  0  0  0  0  0  0  0  0  0  0  0  0  # atno 17342 bound_to 10162
  139.5177  144.3306  152.0829 LP  0  0  0  0  0  0  0  0  0  0  0  0  # atno 17343 bound_to 10162
  157.7323  130.9713  150.1922 LP  0  0  0  0  0  0  0  0  0  0  0  0  # atno 17370 bound_to 10713
  156.2619  130.3712  149.8121 LP  0  0  0  0  0  0  0  0  0  0  0  0  # atno 17371 bound_to 10713
  140.2331  134.3885  155.7513 LP  0  0  0  0  0  0  0  0  0  0  0  0  # atno 17394 bound_to 11000
  141.2220  133.7225  156.8672 LP  0  0  0  0  0  0  0  0  0  0  0  0  # atno 17395 bound_to 11000

$$$$
