AV-unprocessed.smi:3232|AV-procd|sdf|12342|dock2
  -GOLD-   2272018203D 1   1.00000     0.00000
 Structure written by MMmdl.
 40 41  0  0  0  0  0  0  0  0  2 V2000
  151.8363  145.3331  158.9166 C   0  0  0  0  0  0  0  0  0  0  0  0
  151.9380  144.1574  159.8977 C   0  0  0  0  0  0  0  0  0  0  0  0
  152.2264  142.8759  159.2094 N   0  3  1  0  0  0  0  0  0  0  0  0
  152.7021  141.7907  160.0928 C   0  0  0  0  0  0  0  0  0  0  0  0
  152.3904  140.5048  159.3388 C   0  0  0  0  0  0  0  0  0  0  0  0
  151.0626  140.8210  158.6600 C   0  0  0  0  0  0  0  0  0  0  0  0
  151.0932  142.3430  158.4114 C   0  0  2  0  0  0  0  0  0  0  0  0
  151.2558  142.7259  156.9252 C   0  0  0  0  0  0  0  0  0  0  0  0
  150.1377  142.2617  156.1125 N   0  0  0  0  0  0  0  0  0  0  0  0
  150.1779  141.2175  155.2703 C   0  0  0  0  0  0  0  0  0  0  0  0
  151.1700  140.4992  155.1398 O   0  0  0  0  0  0  0  0  0  0  0  0
  148.9099  140.9738  154.4379 C   0  0  2  0  0  0  0  0  0  0  0  0
  147.8191  142.0343  154.6760 C   0  0  0  0  0  0  0  0  0  0  0  0
  148.3993  139.6334  154.6916 N   0  0  0  0  0  0  0  0  0  0  0  0
  148.3510  138.5514  153.9089 C   0  0  0  0  0  0  0  0  0  0  0  0
  147.7911  137.4970  154.4843 N   0  0  0  0  0  0  0  0  0  0  0  0
  147.5037  138.0313  155.7083 C   0  0  0  0  0  0  0  0  0  0  0  0
  147.8423  139.3088  155.8828 N   0  0  0  0  0  0  0  0  0  0  0  0
  151.5608  146.2487  159.4403 H   0  0  0  0  0  0  0  0  0  0  0  0
  151.0784  145.1472  158.1553 H   0  0  0  0  0  0  0  0  0  0  0  0
  152.7838  145.5193  158.4109 H   0  0  0  0  0  0  0  0  0  0  0  0
  152.6991  144.3567  160.6534 H   0  0  0  0  0  0  0  0  0  0  0  0
  150.9889  144.0636  160.4270 H   0  0  0  0  0  0  0  0  0  0  0  0
  153.7634  141.8900  160.3218 H   0  0  0  0  0  0  0  0  0  0  0  0
  152.1485  141.8067  161.0333 H   0  0  0  0  0  0  0  0  0  0  0  0
  153.1574  140.3206  158.5854 H   0  0  0  0  0  0  0  0  0  0  0  0
  152.3386  139.6316  159.9899 H   0  0  0  0  0  0  0  0  0  0  0  0
  150.9148  140.2289  157.7564 H   0  0  0  0  0  0  0  0  0  0  0  0
  150.2426  140.5813  159.3384 H   0  0  0  0  0  0  0  0  0  0  0  0
  150.1598  142.7628  158.7910 H   0  0  0  0  0  0  0  0  0  0  0  0
  151.3582  143.8072  156.8175 H   0  0  0  0  0  0  0  0  0  0  0  0
  152.1708  142.2884  156.5244 H   0  0  0  0  0  0  0  0  0  0  0  0
  149.2818  142.7962  156.1621 H   0  0  0  0  0  0  0  0  0  0  0  0
  149.1997  141.0328  153.3870 H   0  0  0  0  0  0  0  0  0  0  0  0
  148.1926  143.0386  154.4725 H   0  0  0  0  0  0  0  0  0  0  0  0
  147.4528  142.0162  155.7033 H   0  0  0  0  0  0  0  0  0  0  0  0
  146.9650  141.8652  154.0196 H   0  0  0  0  0  0  0  0  0  0  0  0
  148.7272  138.5378  152.8963 H   0  0  0  0  0  0  0  0  0  0  0  0
  147.0259  137.4632  156.4929 H   0  0  0  0  0  0  0  0  0  0  0  0
  152.9700  143.0489  158.5483 H   0  0  0  0  0  0  0  0  0  0  0  0
  1  2  1  0  0  0  0
  1 19  1  0  0  0  0
  1 20  1  0  0  0  0
  1 21  1  0  0  0  0
  2  3  1  0  0  0  0
  2 22  1  0  0  0  0
  2 23  1  0  0  0  0
  3  7  1  0  0  0  0
  3  4  1  0  0  0  0
  3 40  1  0  0  0  0
  4  5  1  0  0  0  0
  4 24  1  0  0  0  0
  4 25  1  0  0  0  0
  5  6  1  0  0  0  0
  5 26  1  0  0  0  0
  5 27  1  0  0  0  0
  6  7  1  0  0  0  0
  6 28  1  0  0  0  0
  6 29  1  0  0  0  0
  7  8  1  0  0  0  0
  7 30  1  0  0  0  0
  8  9  1  0  0  0  0
  8 31  1  0  0  0  0
  8 32  1  0  0  0  0
  9 10  1  0  0  0  0
  9 33  1  0  0  0  0
 10 11  2  0  0  0  0
 10 12  1  0  0  0  0
 12 13  1  0  0  0  0
 12 14  1  0  0  0  0
 12 34  1  0  0  0  0
 13 35  1  0  0  0  0
 13 36  1  0  0  0  0
 13 37  1  0  0  0  0
 14 18  1  0  0  0  0
 14 15  1  0  0  0  0
 15 16  2  0  0  0  0
 15 38  1  0  0  0  0
 16 17  1  0  0  0  0
 17 18  2  0  0  0  0
 17 39  1  0  0  0  0
M  CHG  1   3   1
M  END
> <s_m_source_file>
AV-unprocessed.smi

> <i_m_source_file_index>
3232

> <i_lp_mmshare_version>
43012

> <i_f3d_flags>
0

> <s_epik_input>
W0NIM11bQ0gyXU4xW0NIMl1bQ0gyXVtDSDJdW0NASF0xW0NIMl1bTkhdQyg9TylbQ0BIXShbQ0gzXSluMltjSF1uW2NIXW4y

> <s_epik_cmdline>
J2VwaWtfcHl0aG9uJywgJy1waCcsICc3LjAnLCAnLXRuJywgJzgnLCAnLW1hJywgJzIwMCcsICctbWV0YWxfYmluZGluZycsICctaW1hZScsICc8aW5maWxlLm1hZT4nLCAnLW9tYWUnLCAnPG91dGZpbGUubWFlPic=

> <r_lp_tautomer_probability>
1

> <r_epik_Ionization_Penalty>
0.00177695

> <r_epik_Ionization_Penalty_Charging>
0.00176881

> <r_epik_Ionization_Penalty_Neutral>
8.13528e-06

> <r_epik_State_Penalty>
0.00119827

> <r_epik_Charging_Adjusted_Penalty>
0.00296709

> <i_epik_Tot_Q>
1

> <i_epik_Tot_abs_Q>
1

> <r_epik_Metal_State_Penalty>
-0

> <b_epik_Metal_Only>
0

> <s_lp_Force_Field>
OPLS_2005

> <r_lp_Energy>
32.398

> <b_lp_Chiralities_Consistent>
1

> <s_lp_Variant>
AV-unprocessed.smi:3232-4

> <Gold.Version>
5.8.1

> <Gold.Id.Protein>
6NUR|6NUR_protein|mol2

> <Gold.PLP.Fitness>
41.3049

> <Gold.PLP.PLP>
-31.9077

> <Gold.PLP.part.hbond>
-2.0000

> <Gold.PLP.part.metal>
0.0000

> <Gold.PLP.part.buried>
-2.4926

> <Gold.PLP.part.nonpolar>
-27.0317

> <Gold.PLP.part.repulsive>
0.3155

> <Gold.PLP.ligand.clash>
0.4713

> <Gold.PLP.ligand.torsion>
0.3003

> <Gold.PLP.Chemscore.Hbond>
1.6661

> <Gold.PLP.Chemscore.CHOScore>
1.7870

> <Gold.PLP.Chemscore.Metal>
0.0000

> <Gold.Chemscore.Hbonds>
donor molecule, donor type, donor heavy atom, donor atom, acceptor molecule, acceptor atom, score
      L1  H     9    33       P1  8028  0.62
      P1  H  7989  7998       L1    11  0.96
      L1  C    15    38       P1  7948  0.73
      L1  C    15    38       P1  7957  1.00

> <Gold.PLP.Chemscore.Internal.Correction>
0.1098

> <Gold.Rescore>
     Score         DG    S(hbond)    S(metal)    S(lipo)     H(rot)  DE(clash)    DE(int)     intcor
     12.08     -13.13       1.34        0.00      81.58       2.49       0.69       0.36       ----

> <Gold.Chemscore.Fitness>
12.0774

> <Gold.Chemscore.DG>
-13.1299

> <Gold.Chemscore.ZeroCoef>
-5.4800

> <Gold.Chemscore.Hbond>
1.3397

> <Gold.Chemscore.Metal>
0.0000

> <Gold.Chemscore.Lipo>
81.5827

> <Gold.Chemscore.Internal_Hbond>
0.0000

> <Gold.Chemscore.DEClash>
0.6918

> <Gold.Chemscore.DEInternal>
0.3607

> <Gold.Chemscore.Rot>
2.4882

> <Gold.Chemscore.Internal.Correction>
   9.000000E+99

> <Gold.Chemscore.Hbonds>
donor molecule, donor type, donor heavy atom, donor atom, acceptor molecule, acceptor atom, score
      L1  H     9    33       P1  8028  0.58
      P1  H  7989  7998       L1    11  0.28

> <Gold.Chemscore.Hbond.Weighted>
-4.4745

> <Gold.Chemscore.Metal.Weighted>
-0.0000

> <Gold.Chemscore.Lipo.Weighted>
-9.5452

> <Gold.Chemscore.Internal_Hbond.Weighted>
0.0000

> <Gold.Chemscore.DEClash.Weighted>
0.6918

> <Gold.Chemscore.DEInternal.Weighted>
0.3607

> <Gold.Chemscore.Rot.Weighted>
6.3697

> <Gold.Chemscore.Internal.Correction.Weighted>
   9.000000E+99

> <Gold.Protein.RotatedTorsions>
[ 6907 6896 6895 6894 ] final  156.13 input  -60.11 | X-H torsion
[ 7974 7965 7964 7962 ] final  170.07 input  175.53 | X-H torsion
[ 8008 7997 7996 7995 ] final  174.15 input   59.86 | X-H torsion
[ 10167 10162 10161 10158 ] final   18.55 input  -65.29 | X-H torsion
[ 10718 10713 10712 10709 ] final   -4.97 input   66.30 | X-H torsion
[ 10763 10752 10751 10750 ] final  178.43 input  -60.55 | X-H torsion
[ 11005 11000 10999 10996 ] final  -16.47 input  -57.11 | X-H torsion

> <Gold.Protein.ActiveResidues>
 VAL166  LYS551  ARG553  GLY616  TRP617  ASP618  TYR619  PRO620  LYS621  CYS622 
 ASP623  PHE694  ASN695  SER759  ASP760  ASP761  ALA762  ILE779  LEU786  VAL792 
 PHE793  MET794  SER795  GLU796  ALA797  LYS798  CYS799  TRP800  GLU811  SER814 

> <Gold.Protein.RotatedAtoms>
  152.0341  133.3950  159.4309 H   0  0  0  0  0  0  0  0  0  0  0  0  # atno 6907 bound_to 6896
  150.6880  134.3487  159.4909 H   0  0  0  0  0  0  0  0  0  0  0  0  # atno 6908 bound_to 6896
  152.1278  134.9157  160.0611 H   0  0  0  0  0  0  0  0  0  0  0  0  # atno 6909 bound_to 6896
  144.7335  139.9148  143.6417 H   0  0  0  0  0  0  0  0  0  0  0  0  # atno 7974 bound_to 7965
  156.1003  140.1442  156.9476 H   0  0  0  0  0  0  0  0  0  0  0  0  # atno 8008 bound_to 7997
  154.4698  140.0914  156.7160 H   0  0  0  0  0  0  0  0  0  0  0  0  # atno 8009 bound_to 7997
  155.4771  140.3443  155.4336 H   0  0  0  0  0  0  0  0  0  0  0  0  # atno 8010 bound_to 7997
  140.5645  143.9276  150.6666 H   0  0  0  0  0  0  0  0  0  0  0  0  # atno 10167 bound_to 10162
  156.7534  130.5246  149.5799 H   0  0  0  0  0  0  0  0  0  0  0  0  # atno 10718 bound_to 10713
  154.5075  135.2787  155.1370 H   0  0  0  0  0  0  0  0  0  0  0  0  # atno 10763 bound_to 10752
  154.2979  135.6254  153.5416 H   0  0  0  0  0  0  0  0  0  0  0  0  # atno 10764 bound_to 10752
  152.9913  135.5689  154.5533 H   0  0  0  0  0  0  0  0  0  0  0  0  # atno 10765 bound_to 10752
  140.8071  133.8169  155.9526 H   0  0  0  0  0  0  0  0  0  0  0  0  # atno 11005 bound_to 11000
  146.0974  139.3967  143.0368 LP  0  0  0  0  0  0  0  0  0  0  0  0  # atno 17320 bound_to 7965
  145.7627  140.9929  143.1191 LP  0  0  0  0  0  0  0  0  0  0  0  0  # atno 17321 bound_to 7965
  140.2735  143.3439  152.1216 LP  0  0  0  0  0  0  0  0  0  0  0  0  # atno 17342 bound_to 10162
  139.5086  144.6853  151.5904 LP  0  0  0  0  0  0  0  0  0  0  0  0  # atno 17343 bound_to 10162
  156.1386  130.6229  151.0436 LP  0  0  0  0  0  0  0  0  0  0  0  0  # atno 17370 bound_to 10713
  157.6767  131.0848  150.7476 LP  0  0  0  0  0  0  0  0  0  0  0  0  # atno 17371 bound_to 10713
  140.9236  134.2111  157.4910 LP  0  0  0  0  0  0  0  0  0  0  0  0  # atno 17394 bound_to 11000
  139.8717  134.9803  156.5069 LP  0  0  0  0  0  0  0  0  0  0  0  0  # atno 17395 bound_to 11000

$$$$
