#       Name:                AV-unprocessed.smi:2548
#       Creating user name   scv26
#       Creation time:       Fri Mar 27 14:05:26 2020


#       File generated by GOLD software.
#

@<TRIPOS>MOLECULE
AV-unprocessed.smi:2548
    47    48     1
SMALL
NO_CHARGES


@<TRIPOS>ATOM
      1 ****        -4.5094   4.9529  -1.5820 C.3            1 S1                 0.0000
      2 ****        -4.1001   3.6665  -0.9497 C.2            1 S1                 0.0000
      3 ****        -3.5854   2.5190  -1.4837 C.2            1 S1                 0.0000
      4 ****        -3.4022   1.6575  -0.3612 C.2            1 S1                 0.0000
      5 ****        -2.8645   0.2490  -0.3492 C.3            1 S1                 0.0000
      6 ****        -1.3356   0.2139  -0.4675 C.2            1 S1                 0.0000
      7 ****        -0.6539   1.2058  -0.2042 O.2            1 S1                 0.0000
      8 ****        -0.8081  -0.9586  -0.8545 N.am           1 S1                 0.0000
      9 ****         0.6169  -1.2429  -1.0259 C.3            1 S1                 0.0000
     10 ****         1.2391  -2.0690   0.1414 C.3            1 S1                 0.0000
     11 ****         0.4191  -3.3699   0.3116 C.3            1 S1                 0.0000
     12 ****         2.6937  -2.5038  -0.2018 C.3            1 S1                 0.0000
     13 ****         3.7102  -1.3843  -0.5097 C.3            1 S1                 0.0000
     14 ****         4.4193  -0.7639   0.7061 C.3            1 S1                 0.0000
     15 ****         3.5477  -0.4470   1.9327 C.3            1 S1                 0.0000
     16 ****         2.0869  -0.0741   1.6363 C.3            1 S1                 0.0000
     17 ****         1.1766  -1.3085   1.4927 C.3            1 S1                 0.0000
     18 ****        -3.7817   2.2244   0.7759 N.2            1 S1                 0.0000
     19 ****        -4.2003   3.4484   0.4048 N.pl3          1 S1                 0.0000
     20 ****        -4.5495   4.1155   1.0781 H              1 S1                 0.0000
     21 ****        -4.4603   4.8854  -2.6690 H              1 S1                 0.0000
     22 ****        -3.8555   5.7652  -1.2645 H              1 S1                 0.0000
     23 ****        -5.5318   5.2129  -1.3072 H              1 S1                 0.0000
     24 ****        -3.3672   2.3222  -2.5230 H              1 S1                 0.0000
     25 ****        -3.1523  -0.2676   0.5674 H              1 S1                 0.0000
     26 ****        -3.3002  -0.3176  -1.1731 H              1 S1                 0.0000
     27 ****        -1.4444  -1.7200  -1.0413 H              1 S1                 0.0000
     28 ****         0.7200  -1.7994  -1.9580 H              1 S1                 0.0000
     29 ****         1.1499  -0.3077  -1.1880 H              1 S1                 0.0000
     30 ****         0.8646  -4.0261   1.0603 H              1 S1                 0.0000
     31 ****         0.3652  -3.9328  -0.6210 H              1 S1                 0.0000
     32 ****        -0.6039  -3.1717   0.6330 H              1 S1                 0.0000
     33 ****         3.0934  -3.1390   0.5901 H              1 S1                 0.0000
     34 ****         2.6483  -3.1450  -1.0835 H              1 S1                 0.0000
     35 ****         4.4870  -1.8025  -1.1508 H              1 S1                 0.0000
     36 ****         3.2629  -0.5965  -1.1111 H              1 S1                 0.0000
     37 ****         5.2284  -1.4223   1.0247 H              1 S1                 0.0000
     38 ****         4.9072   0.1531   0.3744 H              1 S1                 0.0000
     39 ****         3.5709  -1.2930   2.6205 H              1 S1                 0.0000
     40 ****         4.0191   0.3723   2.4769 H              1 S1                 0.0000
     41 ****         1.7174   0.5017   2.4855 H              1 S1                 0.0000
     42 ****         2.0113   0.5943   0.7787 H              1 S1                 0.0000
     43 ****         0.1495  -0.9988   1.6841 H              1 S1                 0.0000
     44 ****         1.4032  -1.9988   2.3064 H              1 S1                 0.0000
     45 ****        -1.0963   2.0522   0.0923 LP             1 S1                 0.0000
     46 ****         0.3418   1.1645  -0.2871 LP             1 S1                 0.0000
     47 ****        -3.7616   1.8331   1.6959 LP             1 S1                 0.0000
@<TRIPOS>BOND
    1    1    2 1     
    2    1   21 1     
    3    1   22 1     
    4    1   23 1     
    5    2   19 1     
    6    2    3 2     
    7    3    4 1     
    8    3   24 1     
    9    4    5 1     
   10    4   18 2     
   11    5    6 1     
   12    5   25 1     
   13    5   26 1     
   14    6    7 2     
   15    6    8 am    
   16    8    9 1     
   17    8   27 1     
   18    9   10 1     
   19    9   28 1     
   20    9   29 1     
   21   10   17 1     
   22   10   11 1     
   23   10   12 1     
   24   11   30 1     
   25   11   31 1     
   26   11   32 1     
   27   12   13 1     
   28   12   33 1     
   29   12   34 1     
   30   13   14 1     
   31   13   35 1     
   32   13   36 1     
   33   14   15 1     
   34   14   37 1     
   35   14   38 1     
   36   15   16 1     
   37   15   39 1     
   38   15   40 1     
   39   16   17 1     
   40   16   41 1     
   41   16   42 1     
   42   17   43 1     
   43   17   44 1     
   44   18   19 1     
   45   19   20 1     
   46    7   45 1     
   47    7   46 1     
   48   18   47 1     
@<TRIPOS>SUBSTRUCTURE
      1 S1             1
@<TRIPOS>SET
LONE_PAIRS      STATIC     ATOMS    <user>   **** ""
3 45 46 47
DONOR_HYDROGENS      STATIC     ATOMS    <user>   **** ""
2 27 20
ATOM$BLUE        STATIC     ATOMS    COLORGROUP SYSTEM
3 45 46 47
ATOM$RED        STATIC     ATOMS    COLORGROUP SYSTEM
2 27 20
