AV-unprocessed.smi:1047|AV-procd|sdf|4581|dock5
  -GOLD-   22720 3 43D 1   1.00000     0.00000
 Structure written by MMmdl.
 58 60  0  0  0  0  0  0  0  0  4 V2000
  143.6061  135.3532  155.2661 C   0  0  0  0  0  0  0  0  0  0  0  0
  144.2196  135.2127  153.8660 C   0  0  0  0  0  0  0  0  0  0  0  0
  143.8881  136.3632  152.9838 N   0  3  2  0  0  0  0  0  0  0  0  0
  143.9421  136.0363  151.5382 C   0  0  0  0  0  0  0  0  0  0  0  0
  145.3942  136.0029  151.0299 C   0  0  0  0  0  0  0  0  0  0  0  0
  146.0191  137.2522  151.3016 O   0  0  0  0  0  0  0  0  0  0  0  0
  146.0902  137.5374  152.6953 C   0  0  1  0  0  0  0  0  0  0  0  0
  146.8340  138.8708  152.8708 C   0  0  0  0  0  0  0  0  0  0  0  0
  148.2942  138.6662  152.9604 N   0  3  0  0  0  0  0  0  0  0  0  0
  148.8509  138.8790  154.3118 C   0  0  0  0  0  0  0  0  0  0  0  0
  150.3717  138.6346  154.3358 C   0  0  2  0  0  0  0  0  0  0  0  0
  150.6168  137.2616  154.1081 O   0  0  0  0  0  0  0  0  0  0  0  0
  151.0519  139.0130  155.6670 C   0  0  0  0  0  0  0  0  0  0  0  0
  150.8180  140.4099  156.0602 N   0  0  0  0  0  0  0  0  0  0  0  0
  150.0856  141.3727  155.4361 C   0  0  0  0  0  0  0  0  0  0  0  0
  150.1804  142.5090  156.1800 N   0  3  0  0  0  0  0  0  0  0  0  0
  150.9894  142.2717  157.2929 C   0  0  0  0  0  0  0  0  0  0  0  0
  151.3782  143.1115  158.3295 C   0  0  0  0  0  0  0  0  0  0  0  0
  152.2168  142.5620  159.3250 C   0  0  0  0  0  0  0  0  0  0  0  0
  152.6615  143.4541  160.4718 C   0  0  0  0  0  0  0  0  0  0  0  0
  152.6390  141.2090  159.2585 C   0  0  0  0  0  0  0  0  0  0  0  0
  153.5405  140.6284  160.3348 C   0  0  0  0  0  0  0  0  0  0  0  0
  152.2339  140.3713  158.1947 C   0  0  0  0  0  0  0  0  0  0  0  0
  151.4059  140.9276  157.2216 C   0  0  0  0  0  0  0  0  0  0  0  0
  144.6538  137.6060  153.2625 C   0  0  0  0  0  0  0  0  0  0  0  0
  143.7913  134.4554  155.8561 H   0  0  0  0  0  0  0  0  0  0  0  0
  142.5260  135.4932  155.2106 H   0  0  0  0  0  0  0  0  0  0  0  0
  144.0269  136.1931  155.8179 H   0  0  0  0  0  0  0  0  0  0  0  0
  145.2978  135.0697  153.9350 H   0  0  0  0  0  0  0  0  0  0  0  0
  143.8198  134.2994  153.4235 H   0  0  0  0  0  0  0  0  0  0  0  0
  143.4370  135.0910  151.3355 H   0  0  0  0  0  0  0  0  0  0  0  0
  143.3879  136.8011  150.9925 H   0  0  0  0  0  0  0  0  0  0  0  0
  145.9575  135.1889  151.4888 H   0  0  0  0  0  0  0  0  0  0  0  0
  145.4088  135.8297  149.9539 H   0  0  0  0  0  0  0  0  0  0  0  0
  146.6548  136.7526  153.2011 H   0  0  0  0  0  0  0  0  0  0  0  0
  146.6072  139.5438  152.0427 H   0  0  0  0  0  0  0  0  0  0  0  0
  146.4970  139.3615  153.7851 H   0  0  0  0  0  0  0  0  0  0  0  0
  148.5099  137.7206  152.6770 H   0  0  0  0  0  0  0  0  0  0  0  0
  148.6297  139.9056  154.6046 H   0  0  0  0  0  0  0  0  0  0  0  0
  148.3484  138.2255  155.0267 H   0  0  0  0  0  0  0  0  0  0  0  0
  150.8396  139.1983  153.5272 H   0  0  0  0  0  0  0  0  0  0  0  0
  149.9636  136.9293  153.5106 H   0  0  0  0  0  0  0  0  0  0  0  0
  150.7388  138.3518  156.4751 H   0  0  0  0  0  0  0  0  0  0  0  0
  152.1323  138.8889  155.5779 H   0  0  0  0  0  0  0  0  0  0  0  0
  149.5314  141.2581  154.5153 H   0  0  0  0  0  0  0  0  0  0  0  0
  151.0543  144.1414  158.3728 H   0  0  0  0  0  0  0  0  0  0  0  0
  153.7464  143.5631  160.4718 H   0  0  0  0  0  0  0  0  0  0  0  0
  152.3553  143.0319  161.4295 H   0  0  0  0  0  0  0  0  0  0  0  0
  152.2264  144.4511  160.3937 H   0  0  0  0  0  0  0  0  0  0  0  0
  153.7869  139.5859  160.1309 H   0  0  0  0  0  0  0  0  0  0  0  0
  153.0507  140.6697  161.3080 H   0  0  0  0  0  0  0  0  0  0  0  0
  154.4757  141.1855  160.3934 H   0  0  0  0  0  0  0  0  0  0  0  0
  152.5586  139.3427  158.1486 H   0  0  0  0  0  0  0  0  0  0  0  0
  144.1219  138.4363  152.7952 H   0  0  0  0  0  0  0  0  0  0  0  0
  144.6699  137.8234  154.3297 H   0  0  0  0  0  0  0  0  0  0  0  0
  148.7493  139.3034  152.3221 H   0  0  0  0  0  0  0  0  0  0  0  0
  142.9191  136.5709  153.1812 H   0  0  0  0  0  0  0  0  0  0  0  0
  149.7294  143.3831  155.9404 H   0  0  0  0  0  0  0  0  0  0  0  0
  1  2  1  0  0  0  0
  1 26  1  0  0  0  0
  1 27  1  0  0  0  0
  1 28  1  0  0  0  0
  2  3  1  0  0  0  0
  2 29  1  0  0  0  0
  2 30  1  0  0  0  0
  3 25  1  0  0  0  0
  3  4  1  0  0  0  0
  3 57  1  0  0  0  0
  4  5  1  0  0  0  0
  4 31  1  0  0  0  0
  4 32  1  0  0  0  0
  5  6  1  0  0  0  0
  5 33  1  0  0  0  0
  5 34  1  0  0  0  0
  6  7  1  0  0  0  0
  7  8  1  0  0  0  0
  7 25  1  0  0  0  0
  7 35  1  0  0  0  0
  8  9  1  0  0  0  0
  8 36  1  0  0  0  0
  8 37  1  0  0  0  0
  9 10  1  0  0  0  0
  9 38  1  0  0  0  0
  9 56  1  0  0  0  0
 10 11  1  0  0  0  0
 10 39  1  0  0  0  0
 10 40  1  0  0  0  0
 11 12  1  0  0  0  0
 11 13  1  0  0  0  0
 11 41  1  0  0  0  0
 12 42  1  0  0  0  0
 13 14  1  0  0  0  0
 13 43  1  0  0  0  0
 13 44  1  0  0  0  0
 14 24  1  0  0  0  0
 14 15  1  0  0  0  0
 15 16  2  0  0  0  0
 15 45  1  0  0  0  0
 16 17  1  0  0  0  0
 16 58  1  0  0  0  0
 17 24  2  0  0  0  0
 17 18  1  0  0  0  0
 18 19  2  0  0  0  0
 18 46  1  0  0  0  0
 19 20  1  0  0  0  0
 19 21  1  0  0  0  0
 20 47  1  0  0  0  0
 20 48  1  0  0  0  0
 20 49  1  0  0  0  0
 21 22  1  0  0  0  0
 21 23  2  0  0  0  0
 22 50  1  0  0  0  0
 22 51  1  0  0  0  0
 22 52  1  0  0  0  0
 23 24  1  0  0  0  0
 23 53  1  0  0  0  0
 25 54  1  0  0  0  0
 25 55  1  0  0  0  0
M  CHG  1   3   1
M  CHG  1   9   1
M  CHG  1  16   1
M  END
> <s_m_source_file>
AV-unprocessed.smi

> <i_m_source_file_index>
1047

> <i_lp_mmshare_version>
43012

> <i_f3d_flags>
0

> <s_epik_input>
W0NIM11bQ0gyXU4xW0NIMl1bQ0gyXU9bQ0BIXShbQ0gyXTEpW0NIMl1bTkhdW0NIMl1bQ0BIXShbT0hdKVtDSDJdbihbY0hdbjIpYyhjMjMpW2NIXWMoW0NIM10pYyhbY0hdMylbQ0gzXQ==

> <s_epik_cmdline>
J2VwaWtfcHl0aG9uJywgJy1waCcsICc3LjAnLCAnLXRuJywgJzgnLCAnLW1hJywgJzIwMCcsICctbWV0YWxfYmluZGluZycsICctaW1hZScsICc8aW5maWxlLm1hZT4nLCAnLW9tYWUnLCAnPG91dGZpbGUubWFlPic=

> <r_epik_Ionization_Penalty>
1.6114

> <r_epik_Ionization_Penalty_Charging>
1.61139

> <r_epik_Ionization_Penalty_Neutral>
5.04732e-06

> <r_epik_State_Penalty>
1.63724

> <r_epik_Charging_Adjusted_Penalty>
3.24864

> <i_epik_Tot_Q>
3

> <i_epik_Tot_abs_Q>
3

> <r_epik_Metal_State_Penalty>
5.64594

> <b_epik_Metal_Only>
0

> <s_lp_Force_Field>
OPLS_2005

> <r_lp_Energy>
44.3097

> <b_lp_Chiralities_Consistent>
1

> <s_lp_Variant>
AV-unprocessed.smi:1047-22

> <Gold.Version>
5.8.1

> <Gold.Id.Protein>
6NUR|6NUR_protein|mol2

> <Gold.PLP.Fitness>
65.3455

> <Gold.PLP.PLP>
-48.9402

> <Gold.PLP.part.hbond>
-5.0000

> <Gold.PLP.part.metal>
0.0000

> <Gold.PLP.part.buried>
-7.4705

> <Gold.PLP.part.nonpolar>
-38.7637

> <Gold.PLP.part.repulsive>
1.4147

> <Gold.PLP.ligand.clash>
0.0000

> <Gold.PLP.ligand.torsion>
0.9011

> <Gold.PLP.Chemscore.Hbond>
6.0000

> <Gold.PLP.Chemscore.CHOScore>
0.0000

> <Gold.PLP.Chemscore.Metal>
0.0000

> <Gold.Chemscore.Hbonds>
donor molecule, donor type, donor heavy atom, donor atom, acceptor molecule, acceptor atom, score
      L1  H     9    38       P1  7948  2.00
      L1  H     9    56       P1  7957  1.00
      L1  H    12    42       P1  7948  1.00
      L1  H    16    58       P1  8028  2.00

> <Gold.PLP.Chemscore.Internal.Correction>
0.2075

> <Gold.Rescore>
     Score         DG    S(hbond)    S(metal)    S(lipo)     H(rot)  DE(clash)    DE(int)     intcor
     21.42     -23.31       3.27        0.00     119.93       2.78       0.02       1.88       ----

> <Gold.Chemscore.Fitness>
21.4152

> <Gold.Chemscore.DG>
-23.3140

> <Gold.Chemscore.ZeroCoef>
-5.4800

> <Gold.Chemscore.Hbond>
3.2729

> <Gold.Chemscore.Metal>
0.0000

> <Gold.Chemscore.Lipo>
119.9293

> <Gold.Chemscore.Internal_Hbond>
0.0000

> <Gold.Chemscore.DEClash>
0.0208

> <Gold.Chemscore.DEInternal>
1.8779

> <Gold.Chemscore.Rot>
2.7848

> <Gold.Chemscore.Internal.Correction>
   9.000000E+99

> <Gold.Chemscore.Hbonds>
donor molecule, donor type, donor heavy atom, donor atom, acceptor molecule, acceptor atom, score
      L1  H     9    38       P1  7948  1.00
      L1  H     9    56       P1  7957  0.99
      L1  H    12    42       P1  7948  0.29
      L1  H    16    58       P1  8028  0.99

> <Gold.Chemscore.Hbond.Weighted>
-10.9313

> <Gold.Chemscore.Metal.Weighted>
-0.0000

> <Gold.Chemscore.Lipo.Weighted>
-14.0317

> <Gold.Chemscore.Internal_Hbond.Weighted>
0.0000

> <Gold.Chemscore.DEClash.Weighted>
0.0208

> <Gold.Chemscore.DEInternal.Weighted>
1.8779

> <Gold.Chemscore.Rot.Weighted>
7.1291

> <Gold.Chemscore.Internal.Correction.Weighted>
   9.000000E+99

> <Gold.Protein.RotatedTorsions>
[ 6907 6896 6895 6894 ] final  -52.53 input  -60.11 | X-H torsion
[ 7974 7965 7964 7962 ] final  128.80 input  175.53 | X-H torsion
[ 8008 7997 7996 7995 ] final  -35.33 input   59.86 | X-H torsion
[ 10167 10162 10161 10158 ] final -165.49 input  -65.29 | X-H torsion
[ 10718 10713 10712 10709 ] final  -10.09 input   66.30 | X-H torsion
[ 10763 10752 10751 10750 ] final  114.95 input  -60.55 | X-H torsion
[ 11005 11000 10999 10996 ] final  -38.49 input  -57.11 | X-H torsion

> <Gold.Protein.ActiveResidues>
 VAL166  LYS551  ARG553  GLY616  TRP617  ASP618  TYR619  PRO620  LYS621  CYS622 
 ASP623  PHE694  ASN695  SER759  ASP760  ASP761  ALA762  ILE779  LEU786  VAL792 
 PHE793  MET794  SER795  GLU796  ALA797  LYS798  CYS799  TRP800  GLU811  SER814 

> <Gold.Protein.RotatedAtoms>
  150.8509  134.7833  159.7007 H   0  0  0  0  0  0  0  0  0  0  0  0  # atno 6907 bound_to 6896
  152.4574  134.5258  159.9806 H   0  0  0  0  0  0  0  0  0  0  0  0  # atno 6908 bound_to 6896
  151.5379  133.3399  159.2966 H   0  0  0  0  0  0  0  0  0  0  0  0  # atno 6909 bound_to 6896
  145.0356  139.4007  143.5127 H   0  0  0  0  0  0  0  0  0  0  0  0  # atno 7974 bound_to 7965
  154.4098  140.1660  156.2194 H   0  0  0  0  0  0  0  0  0  0  0  0  # atno 8008 bound_to 7997
  155.9376  140.3410  155.6278 H   0  0  0  0  0  0  0  0  0  0  0  0  # atno 8009 bound_to 7997
  155.7029  140.0747  157.2394 H   0  0  0  0  0  0  0  0  0  0  0  0  # atno 8010 bound_to 7997
  139.6179  144.0684  152.1905 H   0  0  0  0  0  0  0  0  0  0  0  0  # atno 10167 bound_to 10162
  156.6785  130.5030  149.5978 H   0  0  0  0  0  0  0  0  0  0  0  0  # atno 10718 bound_to 10713
  153.5149  135.3610  155.2604 H   0  0  0  0  0  0  0  0  0  0  0  0  # atno 10763 bound_to 10752
  154.8739  135.4031  154.3326 H   0  0  0  0  0  0  0  0  0  0  0  0  # atno 10764 bound_to 10752
  153.3986  135.7074  153.6509 H   0  0  0  0  0  0  0  0  0  0  0  0  # atno 10765 bound_to 10752
  141.0031  133.6945  156.2060 H   0  0  0  0  0  0  0  0  0  0  0  0  # atno 11005 bound_to 11000
  146.3504  139.9930  142.8684 LP  0  0  0  0  0  0  0  0  0  0  0  0  # atno 17320 bound_to 7965
  145.1713  140.9722  143.4320 LP  0  0  0  0  0  0  0  0  0  0  0  0  # atno 17321 bound_to 7965
  140.0318  144.6075  150.7481 LP  0  0  0  0  0  0  0  0  0  0  0  0  # atno 17342 bound_to 10162
  140.7363  143.2751  151.3767 LP  0  0  0  0  0  0  0  0  0  0  0  0  # atno 17343 bound_to 10162
  156.1885  130.6545  151.1034 LP  0  0  0  0  0  0  0  0  0  0  0  0  # atno 17370 bound_to 10713
  157.7052  131.0759  150.6690 LP  0  0  0  0  0  0  0  0  0  0  0  0  # atno 17371 bound_to 10713
  140.6856  134.4720  157.5589 LP  0  0  0  0  0  0  0  0  0  0  0  0  # atno 17394 bound_to 11000
  139.9049  134.8471  156.1746 LP  0  0  0  0  0  0  0  0  0  0  0  0  # atno 17395 bound_to 11000

$$$$
