AV-unprocessed.smi:1248|AV-procd|sdf|5250|dock8
  -GOLD-   22720 4363D 1   1.00000     0.00000
 Structure written by MMmdl.
 44 46  0  0  0  0  0  0  0  0  2 V2000
  151.3391  140.8922  155.8071 C   0  0  0  0  0  0  0  0  0  0  0  0
  152.4256  139.8186  155.6752 C   0  0  0  0  0  0  0  0  0  0  0  0
  151.8583  138.4872  155.5913 N   0  0  0  0  0  0  0  0  0  0  0  0
  151.0209  137.9754  154.6202 C   0  0  0  0  0  0  0  0  0  0  0  0
  150.7678  136.6886  154.9887 C   0  0  0  0  0  0  0  0  0  0  0  0
  149.9438  135.7885  154.2685 N   0  0  0  0  0  0  0  0  0  0  0  0
  149.6121  134.5354  154.6180 C   0  0  0  0  0  0  0  0  0  0  0  0
  149.9946  133.9583  155.6357 O   0  0  0  0  0  0  0  0  0  0  0  0
  148.7964  133.9762  153.7127 N   0  0  0  0  0  0  0  0  0  0  0  0
  148.2478  132.6260  153.7975 C   0  0  2  0  0  0  0  0  0  0  0  0
  149.3929  131.5996  153.8272 C   0  0  0  0  0  0  0  0  0  0  0  0
  148.8507  130.1606  153.8171 C   0  0  0  0  0  0  0  0  0  0  0  0
  147.9719  129.9316  152.6436 N   0  3  1  0  0  0  0  0  0  0  0  0
  147.5344  128.5227  152.5403 C   0  0  0  0  0  0  0  0  0  0  0  0
  147.6287  127.9597  151.1414 C   0  0  0  0  0  0  0  0  0  0  0  0
  146.2812  128.3341  151.7175 C   0  0  0  0  0  0  0  0  0  0  0  0
  146.8288  130.8771  152.6218 C   0  0  0  0  0  0  0  0  0  0  0  0
  147.3200  132.3341  152.6023 C   0  0  0  0  0  0  0  0  0  0  0  0
  151.4885  136.4818  156.1991 C   0  0  0  0  0  0  0  0  0  0  0  0
  152.1436  137.5766  156.5545 N   0  0  0  0  0  0  0  0  0  0  0  0
  151.7826  141.8857  155.8716 H   0  0  0  0  0  0  0  0  0  0  0  0
  150.7389  140.7357  156.7037 H   0  0  0  0  0  0  0  0  0  0  0  0
  150.6680  140.8834  154.9477 H   0  0  0  0  0  0  0  0  0  0  0  0
  153.0320  139.9982  154.7866 H   0  0  0  0  0  0  0  0  0  0  0  0
  153.0993  139.8578  156.5318 H   0  0  0  0  0  0  0  0  0  0  0  0
  150.6876  138.5583  153.7743 H   0  0  0  0  0  0  0  0  0  0  0  0
  149.5598  136.1392  153.4035 H   0  0  0  0  0  0  0  0  0  0  0  0
  148.5357  134.5255  152.9066 H   0  0  0  0  0  0  0  0  0  0  0  0
  147.6774  132.5302  154.7238 H   0  0  0  0  0  0  0  0  0  0  0  0
  150.0463  131.7449  152.9654 H   0  0  0  0  0  0  0  0  0  0  0  0
  150.0104  131.7538  154.7129 H   0  0  0  0  0  0  0  0  0  0  0  0
  149.6847  129.4582  153.7926 H   0  0  0  0  0  0  0  0  0  0  0  0
  148.2952  129.9604  154.7348 H   0  0  0  0  0  0  0  0  0  0  0  0
  147.7270  127.8911  153.4060 H   0  0  0  0  0  0  0  0  0  0  0  0
  148.0318  128.5954  150.3549 H   0  0  0  0  0  0  0  0  0  0  0  0
  147.8493  126.8990  151.0400 H   0  0  0  0  0  0  0  0  0  0  0  0
  145.6151  127.5204  151.9970 H   0  0  0  0  0  0  0  0  0  0  0  0
  145.7909  129.2184  151.3144 H   0  0  0  0  0  0  0  0  0  0  0  0
  146.2139  130.6890  151.7409 H   0  0  0  0  0  0  0  0  0  0  0  0
  146.1945  130.7052  153.4928 H   0  0  0  0  0  0  0  0  0  0  0  0
  146.4626  133.0082  152.6148 H   0  0  0  0  0  0  0  0  0  0  0  0
  147.8489  132.5249  151.6673 H   0  0  0  0  0  0  0  0  0  0  0  0
  151.5632  135.6034  156.8222 H   0  0  0  0  0  0  0  0  0  0  0  0
  148.5252  130.1235  151.8206 H   0  0  0  0  0  0  0  0  0  0  0  0
  1  2  1  0  0  0  0
  1 21  1  0  0  0  0
  1 22  1  0  0  0  0
  1 23  1  0  0  0  0
  2  3  1  0  0  0  0
  2 24  1  0  0  0  0
  2 25  1  0  0  0  0
  3 20  1  0  0  0  0
  3  4  1  0  0  0  0
  4  5  2  0  0  0  0
  4 26  1  0  0  0  0
  5  6  1  0  0  0  0
  5 19  1  0  0  0  0
  6  7  1  0  0  0  0
  6 27  1  0  0  0  0
  7  8  2  0  0  0  0
  7  9  1  0  0  0  0
  9 10  1  0  0  0  0
  9 28  1  0  0  0  0
 10 18  1  0  0  0  0
 10 11  1  0  0  0  0
 10 29  1  0  0  0  0
 11 12  1  0  0  0  0
 11 30  1  0  0  0  0
 11 31  1  0  0  0  0
 12 13  1  0  0  0  0
 12 32  1  0  0  0  0
 12 33  1  0  0  0  0
 13 14  1  0  0  0  0
 13 17  1  0  0  0  0
 13 44  1  0  0  0  0
 14 16  1  0  0  0  0
 14 15  1  0  0  0  0
 14 34  1  0  0  0  0
 15 16  1  0  0  0  0
 15 35  1  0  0  0  0
 15 36  1  0  0  0  0
 16 37  1  0  0  0  0
 16 38  1  0  0  0  0
 17 18  1  0  0  0  0
 17 39  1  0  0  0  0
 17 40  1  0  0  0  0
 18 41  1  0  0  0  0
 18 42  1  0  0  0  0
 19 20  2  0  0  0  0
 19 43  1  0  0  0  0
M  CHG  1  13   1
M  END
> <s_m_source_file>
AV-unprocessed.smi

> <i_m_source_file_index>
1248

> <i_lp_mmshare_version>
43012

> <i_f3d_flags>
0

> <s_epik_input>
W0NIM11bQ0gyXW4xW2NIXWMoW2NIXW4xKVtOSF1DKD1PKVtOSF1bQ0hdMltDSDJdW0NIMl1OKFtDSDJdW0NIMl0yKVtDSF0zW0NIMl1bQ0gyXTM=

> <s_epik_cmdline>
J2VwaWtfcHl0aG9uJywgJy1waCcsICc3LjAnLCAnLXRuJywgJzgnLCAnLW1hJywgJzIwMCcsICctbWV0YWxfYmluZGluZycsICctaW1hZScsICc8aW5maWxlLm1hZT4nLCAnLW9tYWUnLCAnPG91dGZpbGUubWFlPic=

> <r_lp_tautomer_probability>
1

> <r_epik_Ionization_Penalty>
0.115699

> <r_epik_Ionization_Penalty_Charging>
0.115549

> <r_epik_Ionization_Penalty_Neutral>
0.00014958

> <r_epik_State_Penalty>
0.105184

> <r_epik_Charging_Adjusted_Penalty>
0.220733

> <i_epik_Tot_Q>
1

> <i_epik_Tot_abs_Q>
1

> <r_epik_Metal_State_Penalty>
0.105189

> <b_epik_Metal_Only>
0

> <s_lp_Force_Field>
OPLS_2005

> <r_lp_Energy>
30.1422

> <b_lp_Chiralities_Consistent>
1

> <s_lp_Variant>
AV-unprocessed.smi:1248-1

> <Gold.Version>
5.8.1

> <Gold.Id.Protein>
6NUR|6NUR_protein|mol2

> <Gold.PLP.Fitness>
45.5293

> <Gold.PLP.PLP>
-37.4103

> <Gold.PLP.part.hbond>
-3.6387

> <Gold.PLP.part.metal>
0.0000

> <Gold.PLP.part.buried>
-1.2584

> <Gold.PLP.part.nonpolar>
-31.8662

> <Gold.PLP.part.repulsive>
0.1067

> <Gold.PLP.ligand.clash>
0.0000

> <Gold.PLP.ligand.torsion>
0.8688

> <Gold.PLP.Chemscore.Hbond>
2.8640

> <Gold.PLP.Chemscore.CHOScore>
0.0000

> <Gold.PLP.Chemscore.Metal>
0.0000

> <Gold.Chemscore.Hbonds>
donor molecule, donor type, donor heavy atom, donor atom, acceptor molecule, acceptor atom, score
      L1  H     6    27       P1  7948  1.00
      L1  H     9    28       P1  7948  0.84
      L1  H    13    44       P1 10747  1.00

> <Gold.PLP.Chemscore.Internal.Correction>
1.2647

> <Gold.Rescore>
     Score         DG    S(hbond)    S(metal)    S(lipo)     H(rot)  DE(clash)    DE(int)     intcor
     18.33     -20.57       2.54        0.00      85.83       1.34       0.24       2.00       ----

> <Gold.Chemscore.Fitness>
18.3298

> <Gold.Chemscore.DG>
-20.5699

> <Gold.Chemscore.ZeroCoef>
-5.4800

> <Gold.Chemscore.Hbond>
2.5413

> <Gold.Chemscore.Metal>
0.0000

> <Gold.Chemscore.Lipo>
85.8286

> <Gold.Chemscore.Internal_Hbond>
0.0000

> <Gold.Chemscore.DEClash>
0.2383

> <Gold.Chemscore.DEInternal>
2.0018

> <Gold.Chemscore.Rot>
1.3438

> <Gold.Chemscore.Internal.Correction>
   9.000000E+99

> <Gold.Chemscore.Hbonds>
donor molecule, donor type, donor heavy atom, donor atom, acceptor molecule, acceptor atom, score
      L1  H     6    27       P1  7948  0.34
      L1  H     9    28       P1  7948  0.18
      L1  H    13    44       P1 10747  0.60

> <Gold.Chemscore.Hbond.Weighted>
-8.4880

> <Gold.Chemscore.Metal.Weighted>
-0.0000

> <Gold.Chemscore.Lipo.Weighted>
-10.0419

> <Gold.Chemscore.Internal_Hbond.Weighted>
0.0000

> <Gold.Chemscore.DEClash.Weighted>
0.2383

> <Gold.Chemscore.DEInternal.Weighted>
2.0018

> <Gold.Chemscore.Rot.Weighted>
3.4401

> <Gold.Chemscore.Internal.Correction.Weighted>
   9.000000E+99

> <Gold.Protein.RotatedTorsions>
[ 6907 6896 6895 6894 ] final  -78.94 input  -60.11 | X-H torsion
[ 7974 7965 7964 7962 ] final   41.51 input  175.53 | X-H torsion
[ 8008 7997 7996 7995 ] final  100.49 input   59.86 | X-H torsion
[ 10167 10162 10161 10158 ] final -108.57 input  -65.29 | X-H torsion
[ 10718 10713 10712 10709 ] final -143.89 input   66.30 | X-H torsion
[ 10763 10752 10751 10750 ] final -102.50 input  -60.55 | X-H torsion
[ 11005 11000 10999 10996 ] final -116.93 input  -57.11 | X-H torsion

> <Gold.Protein.ActiveResidues>
 VAL166  LYS551  ARG553  GLY616  TRP617  ASP618  TYR619  PRO620  LYS621  CYS622 
 ASP623  PHE694  ASN695  SER759  ASP760  ASP761  ALA762  ILE779  LEU786  VAL792 
 PHE793  MET794  SER795  GLU796  ALA797  LYS798  CYS799  TRP800  GLU811  SER814 

> <Gold.Protein.RotatedAtoms>
  150.6961  134.4197  159.5198 H   0  0  0  0  0  0  0  0  0  0  0  0  # atno 6907 bound_to 6896
  152.1942  134.8643  160.0523 H   0  0  0  0  0  0  0  0  0  0  0  0  # atno 6908 bound_to 6896
  151.9587  133.3653  159.4064 H   0  0  0  0  0  0  0  0  0  0  0  0  # atno 6909 bound_to 6896
  146.0818  139.5408  142.9532 H   0  0  0  0  0  0  0  0  0  0  0  0  # atno 7974 bound_to 7965
  156.1208  140.3212  155.8206 H   0  0  0  0  0  0  0  0  0  0  0  0  # atno 8008 bound_to 7997
  155.4507  140.0532  157.3018 H   0  0  0  0  0  0  0  0  0  0  0  0  # atno 8009 bound_to 7997
  154.4826  140.2059  155.9742 H   0  0  0  0  0  0  0  0  0  0  0  0  # atno 8010 bound_to 7997
  140.1647  143.4092  152.1399 H   0  0  0  0  0  0  0  0  0  0  0  0  # atno 10167 bound_to 10162
  156.3635  130.7750  151.1921 H   0  0  0  0  0  0  0  0  0  0  0  0  # atno 10718 bound_to 10713
  154.7738  135.4858  153.9703 H   0  0  0  0  0  0  0  0  0  0  0  0  # atno 10763 bound_to 10752
  153.1402  135.6771  153.9046 H   0  0  0  0  0  0  0  0  0  0  0  0  # atno 10764 bound_to 10752
  153.8723  135.3142  155.3421 H   0  0  0  0  0  0  0  0  0  0  0  0  # atno 10765 bound_to 10752
  141.0389  133.9867  157.3027 H   0  0  0  0  0  0  0  0  0  0  0  0  # atno 11005 bound_to 11000
  145.6204  141.0323  143.1918 LP  0  0  0  0  0  0  0  0  0  0  0  0  # atno 17320 bound_to 7965
  144.7298  139.7761  143.7351 LP  0  0  0  0  0  0  0  0  0  0  0  0  # atno 17321 bound_to 7965
  139.5365  144.7214  151.4876 LP  0  0  0  0  0  0  0  0  0  0  0  0  # atno 17342 bound_to 10162
  140.6621  143.8477  150.6899 LP  0  0  0  0  0  0  0  0  0  0  0  0  # atno 17343 bound_to 10162
  157.7476  131.0393  150.4544 LP  0  0  0  0  0  0  0  0  0  0  0  0  # atno 17370 bound_to 10713
  156.4759  130.4063  149.6490 LP  0  0  0  0  0  0  0  0  0  0  0  0  # atno 17371 bound_to 10713
  139.9261  135.0201  156.8238 LP  0  0  0  0  0  0  0  0  0  0  0  0  # atno 17394 bound_to 11000
  140.6272  133.9939  155.7645 LP  0  0  0  0  0  0  0  0  0  0  0  0  # atno 17395 bound_to 11000

$$$$
