AV-unprocessed.smi:2640|AV-procd|sdf|10269|dock3
  -GOLD-   2272014283D 1   1.00000     0.00000
 Structure written by MMmdl.
 42 43  0  0  0  0  0  0  0  0  2 V2000
  144.9397  135.2479  153.9779 O   0  0  0  0  0  0  0  0  0  0  0  0
  145.9460  135.7478  153.4734 C   0  0  0  0  0  0  0  0  0  0  0  0
  146.7624  136.7943  154.2331 C   0  0  0  0  0  0  0  0  0  0  0  0
  148.1900  136.4278  154.3283 N   0  3  0  0  0  0  0  0  0  0  0  0
  149.0220  137.4308  155.0201 C   0  0  0  0  0  0  0  0  0  0  0  0
  149.2344  138.6733  154.1431 C   0  0  0  0  0  0  0  0  0  0  0  0
  149.9885  139.7003  154.8363 N   0  0  0  0  0  0  0  0  0  0  0  0
  151.2492  139.6146  155.3894 C   0  0  0  0  0  0  0  0  0  0  0  0
  151.5411  140.8359  155.9260 C   0  0  0  0  0  0  0  0  0  0  0  0
  150.3841  141.6147  155.6436 C   0  0  0  0  0  0  0  0  0  0  0  0
  149.4577  140.9327  154.9891 N   0  0  0  0  0  0  0  0  0  0  0  0
  146.3898  135.4334  152.2457 N   0  0  0  0  0  0  0  0  0  0  0  0
  145.7771  134.4571  151.3411 C   0  0  1  0  0  0  0  0  0  0  0  0
  145.6222  133.1328  152.1239 C   0  0  0  0  0  0  0  0  0  0  0  0
  145.5086  131.8882  151.2266 C   0  0  0  0  0  0  0  0  0  0  0  0
  144.2496  131.8350  150.3484 C   0  0  0  0  0  0  0  0  0  0  0  0
  144.1595  132.9818  149.3274 C   0  0  0  0  0  0  0  0  0  0  0  0
  143.7284  134.2305  149.9416 N   0  0  0  0  0  0  0  0  0  0  0  0
  144.3830  134.9392  150.8740 C   0  0  0  0  0  0  0  0  0  0  0  0
  143.8779  135.9557  151.3506 O   0  0  0  0  0  0  0  0  0  0  0  0
  146.6711  137.7602  153.7339 H   0  0  0  0  0  0  0  0  0  0  0  0
  146.3451  136.9017  155.2350 H   0  0  0  0  0  0  0  0  0  0  0  0
  148.2589  135.5504  154.8243 H   0  0  0  0  0  0  0  0  0  0  0  0
  148.5383  137.7083  155.9576 H   0  0  0  0  0  0  0  0  0  0  0  0
  149.9849  136.9845  155.2725 H   0  0  0  0  0  0  0  0  0  0  0  0
  149.7700  138.4068  153.2309 H   0  0  0  0  0  0  0  0  0  0  0  0
  148.2763  139.0958  153.8369 H   0  0  0  0  0  0  0  0  0  0  0  0
  151.8277  138.7029  155.3567 H   0  0  0  0  0  0  0  0  0  0  0  0
  152.4443  141.1293  156.4404 H   0  0  0  0  0  0  0  0  0  0  0  0
  150.1919  142.6482  155.8920 H   0  0  0  0  0  0  0  0  0  0  0  0
  147.2270  135.8896  151.9130 H   0  0  0  0  0  0  0  0  0  0  0  0
  146.4318  134.3107  150.4798 H   0  0  0  0  0  0  0  0  0  0  0  0
  146.5000  132.9888  152.7559 H   0  0  0  0  0  0  0  0  0  0  0  0
  144.7749  133.1811  152.8105 H   0  0  0  0  0  0  0  0  0  0  0  0
  146.3946  131.8149  150.5949 H   0  0  0  0  0  0  0  0  0  0  0  0
  145.5237  131.0013  151.8608 H   0  0  0  0  0  0  0  0  0  0  0  0
  144.2569  130.8896  149.8048 H   0  0  0  0  0  0  0  0  0  0  0  0
  143.3547  131.8137  150.9719 H   0  0  0  0  0  0  0  0  0  0  0  0
  145.1050  133.1189  148.8011 H   0  0  0  0  0  0  0  0  0  0  0  0
  143.4199  132.7269  148.5680 H   0  0  0  0  0  0  0  0  0  0  0  0
  142.8259  134.5789  149.6515 H   0  0  0  0  0  0  0  0  0  0  0  0
  148.5478  136.2964  153.3929 H   0  0  0  0  0  0  0  0  0  0  0  0
  1  2  2  0  0  0  0
  2  3  1  0  0  0  0
  2 12  1  0  0  0  0
  3  4  1  0  0  0  0
  3 21  1  0  0  0  0
  3 22  1  0  0  0  0
  4  5  1  0  0  0  0
  4 23  1  0  0  0  0
  4 42  1  0  0  0  0
  5  6  1  0  0  0  0
  5 24  1  0  0  0  0
  5 25  1  0  0  0  0
  6  7  1  0  0  0  0
  6 26  1  0  0  0  0
  6 27  1  0  0  0  0
  7 11  1  0  0  0  0
  7  8  1  0  0  0  0
  8  9  2  0  0  0  0
  8 28  1  0  0  0  0
  9 10  1  0  0  0  0
  9 29  1  0  0  0  0
 10 11  2  0  0  0  0
 10 30  1  0  0  0  0
 12 13  1  0  0  0  0
 12 31  1  0  0  0  0
 13 19  1  0  0  0  0
 13 14  1  0  0  0  0
 13 32  1  0  0  0  0
 14 15  1  0  0  0  0
 14 33  1  0  0  0  0
 14 34  1  0  0  0  0
 15 16  1  0  0  0  0
 15 35  1  0  0  0  0
 15 36  1  0  0  0  0
 16 17  1  0  0  0  0
 16 37  1  0  0  0  0
 16 38  1  0  0  0  0
 17 18  1  0  0  0  0
 17 39  1  0  0  0  0
 17 40  1  0  0  0  0
 18 19  1  0  0  0  0
 18 41  1  0  0  0  0
 19 20  2  0  0  0  0
M  CHG  1   4   1
M  END
> <s_m_source_file>
AV-unprocessed.smi

> <i_m_source_file_index>
2640

> <i_lp_mmshare_version>
43012

> <i_f3d_flags>
0

> <s_epik_input>
Tz1DMVtOSF1bQ0gyXVtDSDJdW0NIMl1bQ0gyXVtDQEhdMVtOSF1DKD1PKVtDSDJdW05IXVtDSDJdW0NIMl1uMltjSF1bY0hdW2NIXW4y

> <s_epik_cmdline>
J2VwaWtfcHl0aG9uJywgJy1waCcsICc3LjAnLCAnLXRuJywgJzgnLCAnLW1hJywgJzIwMCcsICctbWV0YWxfYmluZGluZycsICctaW1hZScsICc8aW5maWxlLm1hZT4nLCAnLW9tYWUnLCAnPG91dGZpbGUubWFlPic=

> <r_lp_tautomer_probability>
1

> <r_epik_Ionization_Penalty>
0.245908

> <r_epik_Ionization_Penalty_Charging>
0.245903

> <r_epik_Ionization_Penalty_Neutral>
5.38378e-06

> <r_epik_State_Penalty>
0.237496

> <r_epik_Charging_Adjusted_Penalty>
0.483398

> <i_epik_Tot_Q>
1

> <i_epik_Tot_abs_Q>
1

> <r_epik_Metal_State_Penalty>
0.237698

> <b_epik_Metal_Only>
0

> <s_lp_Force_Field>
OPLS_2005

> <r_lp_Energy>
9.28835

> <b_lp_Chiralities_Consistent>
1

> <s_lp_Variant>
AV-unprocessed.smi:2640-2

> <Gold.Version>
5.8.1

> <Gold.Id.Protein>
6NUR|6NUR_protein|mol2

> <Gold.PLP.Fitness>
47.9372

> <Gold.PLP.PLP>
-33.1148

> <Gold.PLP.part.hbond>
-3.0000

> <Gold.PLP.part.metal>
0.0000

> <Gold.PLP.part.buried>
-3.7529

> <Gold.PLP.part.nonpolar>
-25.5326

> <Gold.PLP.part.repulsive>
0.4329

> <Gold.PLP.ligand.clash>
0.0000

> <Gold.PLP.ligand.torsion>
0.1312

> <Gold.PLP.Chemscore.Hbond>
4.0000

> <Gold.PLP.Chemscore.CHOScore>
1.0000

> <Gold.PLP.Chemscore.Metal>
0.0000

> <Gold.Chemscore.Hbonds>
donor molecule, donor type, donor heavy atom, donor atom, acceptor molecule, acceptor atom, score
      L1  H     4    42       P1  7948  2.00
      L1  H    12    31       P1  7948  1.00
      L1  H    18    41       P1 10186  1.00
      L1  C    10    30       P1  8028  1.00

> <Gold.PLP.Chemscore.Internal.Correction>
0.0847

> <Gold.Rescore>
     Score         DG    S(hbond)    S(metal)    S(lipo)     H(rot)  DE(clash)    DE(int)     intcor
     15.30     -17.20       2.94        0.00      69.74       2.45       0.10       1.80       ----

> <Gold.Chemscore.Fitness>
15.3016

> <Gold.Chemscore.DG>
-17.1961

> <Gold.Chemscore.ZeroCoef>
-5.4800

> <Gold.Chemscore.Hbond>
2.9398

> <Gold.Chemscore.Metal>
0.0000

> <Gold.Chemscore.Lipo>
69.7398

> <Gold.Chemscore.Internal_Hbond>
0.0000

> <Gold.Chemscore.DEClash>
0.0961

> <Gold.Chemscore.DEInternal>
1.7984

> <Gold.Chemscore.Rot>
2.4462

> <Gold.Chemscore.Internal.Correction>
   9.000000E+99

> <Gold.Chemscore.Hbonds>
donor molecule, donor type, donor heavy atom, donor atom, acceptor molecule, acceptor atom, score
      L1  H     4    42       P1  7948  0.97
      L1  H    12    31       P1  7948  0.99
      L1  H    18    41       P1 10186  0.91

> <Gold.Chemscore.Hbond.Weighted>
-9.8188

> <Gold.Chemscore.Metal.Weighted>
-0.0000

> <Gold.Chemscore.Lipo.Weighted>
-8.1596

> <Gold.Chemscore.Internal_Hbond.Weighted>
0.0000

> <Gold.Chemscore.DEClash.Weighted>
0.0961

> <Gold.Chemscore.DEInternal.Weighted>
1.7984

> <Gold.Chemscore.Rot.Weighted>
6.2623

> <Gold.Chemscore.Internal.Correction.Weighted>
   9.000000E+99

> <Gold.Protein.RotatedTorsions>
[ 6907 6896 6895 6894 ] final    4.92 input  -60.11 | X-H torsion
[ 7974 7965 7964 7962 ] final -167.10 input  175.53 | X-H torsion
[ 8008 7997 7996 7995 ] final  105.02 input   59.86 | X-H torsion
[ 10167 10162 10161 10158 ] final -117.15 input  -65.29 | X-H torsion
[ 10718 10713 10712 10709 ] final  -65.15 input   66.30 | X-H torsion
[ 10763 10752 10751 10750 ] final  162.18 input  -60.55 | X-H torsion
[ 11005 11000 10999 10996 ] final    6.79 input  -57.11 | X-H torsion

> <Gold.Protein.ActiveResidues>
 VAL166  LYS551  ARG553  GLY616  TRP617  ASP618  TYR619  PRO620  LYS621  CYS622 
 ASP623  PHE694  ASN695  SER759  ASP760  ASP761  ALA762  ILE779  LEU786  VAL792 
 PHE793  MET794  SER795  GLU796  ALA797  LYS798  CYS799  TRP800  GLU811  SER814 

> <Gold.Protein.RotatedAtoms>
  151.6491  135.1004  160.0156 H   0  0  0  0  0  0  0  0  0  0  0  0  # atno 6907 bound_to 6896
  152.4011  133.6815  159.6325 H   0  0  0  0  0  0  0  0  0  0  0  0  # atno 6908 bound_to 6896
  150.7911  133.8706  159.3299 H   0  0  0  0  0  0  0  0  0  0  0  0  # atno 6909 bound_to 6896
  144.7230  140.2569  143.6270 H   0  0  0  0  0  0  0  0  0  0  0  0  # atno 7974 bound_to 7965
  156.1623  140.3137  155.8829 H   0  0  0  0  0  0  0  0  0  0  0  0  # atno 8008 bound_to 7997
  155.3756  140.0484  157.3062 H   0  0  0  0  0  0  0  0  0  0  0  0  # atno 8009 bound_to 7997
  154.5159  140.2181  155.9078 H   0  0  0  0  0  0  0  0  0  0  0  0  # atno 8010 bound_to 7997
  140.0714  143.4873  152.1977 H   0  0  0  0  0  0  0  0  0  0  0  0  # atno 10167 bound_to 10162
  156.0687  130.4243  150.1522 H   0  0  0  0  0  0  0  0  0  0  0  0  # atno 10718 bound_to 10713
  154.2743  135.2765  155.2724 H   0  0  0  0  0  0  0  0  0  0  0  0  # atno 10763 bound_to 10752
  154.5274  135.5739  153.6734 H   0  0  0  0  0  0  0  0  0  0  0  0  # atno 10764 bound_to 10752
  152.9939  135.6219  154.2900 H   0  0  0  0  0  0  0  0  0  0  0  0  # atno 10765 bound_to 10752
  140.5555  134.0242  155.7952 H   0  0  0  0  0  0  0  0  0  0  0  0  # atno 11005 bound_to 11000
  145.8174  139.2029  143.1958 LP  0  0  0  0  0  0  0  0  0  0  0  0  # atno 17320 bound_to 7965
  146.0544  140.8036  142.9766 LP  0  0  0  0  0  0  0  0  0  0  0  0  # atno 17321 bound_to 7965
  139.5833  144.7520  151.3583 LP  0  0  0  0  0  0  0  0  0  0  0  0  # atno 17342 bound_to 10162
  140.7123  143.7357  150.7590 LP  0  0  0  0  0  0  0  0  0  0  0  0  # atno 17343 bound_to 10162
  156.9577  130.9795  151.3485 LP  0  0  0  0  0  0  0  0  0  0  0  0  # atno 17370 bound_to 10713
  157.5744  130.8333  149.8436 LP  0  0  0  0  0  0  0  0  0  0  0  0  # atno 17371 bound_to 10713
  141.1146  133.9561  157.2846 LP  0  0  0  0  0  0  0  0  0  0  0  0  # atno 17394 bound_to 11000
  139.9434  135.0188  156.8777 LP  0  0  0  0  0  0  0  0  0  0  0  0  # atno 17395 bound_to 11000

$$$$
