AV-unprocessed.smi:2394|AV-procd|sdf|9490|dock3
  -GOLD-   2272013123D 1   1.00000     0.00000
 Structure written by MMmdl.
 43 44  0  0  0  0  0  0  0  0  1 V2000
  150.8043  142.3028  157.2114 C   0  0  0  0  0  0  0  0  0  0  0  0
  150.8084  141.7558  155.7737 C   0  0  0  0  0  0  0  0  0  0  0  0
  150.4297  140.2586  155.6209 C   0  0  0  0  0  0  0  0  0  0  0  0
  150.5979  139.9034  154.2608 O   0  0  0  0  0  0  0  0  0  0  0  0
  151.3775  139.3465  156.4482 C   0  0  0  0  0  0  0  0  0  0  0  0
  151.1359  139.3235  157.9675 C   0  0  0  0  0  0  0  0  0  0  0  0
  148.9407  140.0194  156.0023 C   0  0  0  0  0  0  0  0  0  0  0  0
  147.9825  140.7984  155.2315 N   0  0  0  0  0  0  0  0  0  0  0  0
  147.7240  140.6875  153.8830 C   0  0  0  0  0  0  0  0  0  0  0  0
  146.8131  141.5003  153.4203 N   0  0  0  0  0  0  0  0  0  0  0  0
  146.4040  142.2161  154.5382 C   0  0  0  0  0  0  0  0  0  0  0  0
  145.4497  143.2443  154.7525 C   0  0  0  0  0  0  0  0  0  0  0  0
  144.7107  143.7319  153.7308 N   0  0  0  0  0  0  0  0  0  0  0  0
  144.8771  145.1031  153.2564 C   0  0  0  0  0  0  0  0  0  0  0  0
  143.6138  145.9410  153.5159 C   0  0  0  0  0  0  0  0  0  0  0  0
  145.2349  145.0996  151.7646 C   0  0  0  0  0  0  0  0  0  0  0  0
  145.3082  143.7215  156.0172 N   0  0  0  0  0  0  0  0  0  0  0  0
  146.0495  143.2194  157.0098 C   0  0  0  0  0  0  0  0  0  0  0  0
  146.9747  142.2586  156.9571 N   0  0  0  0  0  0  0  0  0  0  0  0
  147.1237  141.7837  155.6871 C   0  0  0  0  0  0  0  0  0  0  0  0
  150.9858  143.3774  157.2110 H   0  0  0  0  0  0  0  0  0  0  0  0
  151.5842  141.8476  157.8215 H   0  0  0  0  0  0  0  0  0  0  0  0
  149.8464  142.1322  157.7031 H   0  0  0  0  0  0  0  0  0  0  0  0
  150.1209  142.3706  155.1927 H   0  0  0  0  0  0  0  0  0  0  0  0
  151.7962  141.9226  155.3428 H   0  0  0  0  0  0  0  0  0  0  0  0
  150.1697  139.0746  154.1111 H   0  0  0  0  0  0  0  0  0  0  0  0
  151.3078  138.3246  156.0738 H   0  0  0  0  0  0  0  0  0  0  0  0
  152.4124  139.6508  156.2903 H   0  0  0  0  0  0  0  0  0  0  0  0
  151.9054  138.7335  158.4657 H   0  0  0  0  0  0  0  0  0  0  0  0
  150.1762  138.8731  158.2193 H   0  0  0  0  0  0  0  0  0  0  0  0
  151.1648  140.3257  158.3952 H   0  0  0  0  0  0  0  0  0  0  0  0
  148.6929  138.9650  155.8726 H   0  0  0  0  0  0  0  0  0  0  0  0
  148.7677  140.2438  157.0551 H   0  0  0  0  0  0  0  0  0  0  0  0
  148.2431  139.9846  153.2477 H   0  0  0  0  0  0  0  0  0  0  0  0
  143.9664  143.2056  153.2965 H   0  0  0  0  0  0  0  0  0  0  0  0
  145.7141  145.5605  153.7856 H   0  0  0  0  0  0  0  0  0  0  0  0
  143.7443  146.9640  153.1623 H   0  0  0  0  0  0  0  0  0  0  0  0
  143.3769  145.9928  154.5787 H   0  0  0  0  0  0  0  0  0  0  0  0
  142.7479  145.5205  153.0035 H   0  0  0  0  0  0  0  0  0  0  0  0
  145.3987  146.1133  151.3983 H   0  0  0  0  0  0  0  0  0  0  0  0
  144.4400  144.6536  151.1656 H   0  0  0  0  0  0  0  0  0  0  0  0
  146.1486  144.5328  151.5822 H   0  0  0  0  0  0  0  0  0  0  0  0
  145.8757  143.6479  157.9857 H   0  0  0  0  0  0  0  0  0  0  0  0
  1  2  1  0  0  0  0
  1 21  1  0  0  0  0
  1 22  1  0  0  0  0
  1 23  1  0  0  0  0
  2  3  1  0  0  0  0
  2 24  1  0  0  0  0
  2 25  1  0  0  0  0
  3  4  1  0  0  0  0
  3  5  1  0  0  0  0
  3  7  1  0  0  0  0
  4 26  1  0  0  0  0
  5  6  1  0  0  0  0
  5 27  1  0  0  0  0
  5 28  1  0  0  0  0
  6 29  1  0  0  0  0
  6 30  1  0  0  0  0
  6 31  1  0  0  0  0
  7  8  1  0  0  0  0
  7 32  1  0  0  0  0
  7 33  1  0  0  0  0
  8 20  1  0  0  0  0
  8  9  1  0  0  0  0
  9 10  2  0  0  0  0
  9 34  1  0  0  0  0
 10 11  1  0  0  0  0
 11 20  2  0  0  0  0
 11 12  1  0  0  0  0
 12 13  1  0  0  0  0
 12 17  2  0  0  0  0
 13 14  1  0  0  0  0
 13 35  1  0  0  0  0
 14 15  1  0  0  0  0
 14 16  1  0  0  0  0
 14 36  1  0  0  0  0
 15 37  1  0  0  0  0
 15 38  1  0  0  0  0
 15 39  1  0  0  0  0
 16 40  1  0  0  0  0
 16 41  1  0  0  0  0
 16 42  1  0  0  0  0
 17 18  1  0  0  0  0
 18 19  2  0  0  0  0
 18 43  1  0  0  0  0
 19 20  1  0  0  0  0
M  END
> <s_m_source_file>
AV-unprocessed.smi

> <i_m_source_file_index>
2394

> <i_lp_mmshare_version>
43012

> <i_f3d_flags>
0

> <s_epik_input>
W0NIM11bQ0gyXUMoW09IXSkoW0NIMl1bQ0gzXSlbQ0gyXW4oW2NIXW4xKWMoYzEyKW5bY0hdbmMyW05IXVtDSF0oW0NIM10pW0NIM10=

> <s_epik_cmdline>
J2VwaWtfcHl0aG9uJywgJy1waCcsICc3LjAnLCAnLXRuJywgJzgnLCAnLW1hJywgJzIwMCcsICctbWV0YWxfYmluZGluZycsICctaW1hZScsICc8aW5maWxlLm1hZT4nLCAnLW9tYWUnLCAnPG91dGZpbGUubWFlPic=

> <r_lp_tautomer_probability>
1

> <r_epik_Ionization_Penalty>
0.0022327

> <r_epik_Ionization_Penalty_Charging>
0

> <r_epik_Ionization_Penalty_Neutral>
0.0022327

> <r_epik_State_Penalty>
-0

> <r_epik_Charging_Adjusted_Penalty>
0

> <i_epik_Tot_Q>
0

> <i_epik_Tot_abs_Q>
0

> <r_epik_Metal_State_Penalty>
-0

> <b_epik_Metal_Only>
0

> <s_lp_Force_Field>
OPLS_2005

> <r_lp_Energy>
13.0667

> <b_lp_Chiralities_Consistent>
1

> <s_lp_Variant>
AV-unprocessed.smi:2394-1

> <Gold.Version>
5.8.1

> <Gold.Id.Protein>
6NUR|6NUR_protein|mol2

> <Gold.PLP.Fitness>
39.8368

> <Gold.PLP.PLP>
-32.4193

> <Gold.PLP.part.hbond>
-2.5108

> <Gold.PLP.part.metal>
0.0000

> <Gold.PLP.part.buried>
-5.0914

> <Gold.PLP.part.nonpolar>
-26.5637

> <Gold.PLP.part.repulsive>
0.5006

> <Gold.PLP.ligand.clash>
0.0000

> <Gold.PLP.ligand.torsion>
0.8406

> <Gold.PLP.Chemscore.Hbond>
2.0000

> <Gold.PLP.Chemscore.CHOScore>
1.0000

> <Gold.PLP.Chemscore.Metal>
0.0000

> <Gold.Chemscore.Hbonds>
donor molecule, donor type, donor heavy atom, donor atom, acceptor molecule, acceptor atom, score
      L1  H    13    35       P1 10174  0.80
      P1  H  7989  7998       L1     4  1.00
      L1  C     9    34       P1  7957  1.00

> <Gold.PLP.Chemscore.Internal.Correction>
0.0987

> <Gold.Rescore>
     Score         DG    S(hbond)    S(metal)    S(lipo)     H(rot)  DE(clash)    DE(int)     intcor
      8.65     -10.24       1.08        0.00      65.48       2.54       0.46       1.13       ----

> <Gold.Chemscore.Fitness>
8.6503

> <Gold.Chemscore.DG>
-10.2394

> <Gold.Chemscore.ZeroCoef>
-5.4800

> <Gold.Chemscore.Hbond>
1.0779

> <Gold.Chemscore.Metal>
0.0000

> <Gold.Chemscore.Lipo>
65.4815

> <Gold.Chemscore.Internal_Hbond>
0.0000

> <Gold.Chemscore.DEClash>
0.4602

> <Gold.Chemscore.DEInternal>
1.1288

> <Gold.Chemscore.Rot>
2.5398

> <Gold.Chemscore.Internal.Correction>
   9.000000E+99

> <Gold.Chemscore.Hbonds>
donor molecule, donor type, donor heavy atom, donor atom, acceptor molecule, acceptor atom, score
      L1  H    13    35       P1 10174  0.12
      P1  H  7989  7998       L1     4  0.84

> <Gold.Chemscore.Hbond.Weighted>
-3.6000

> <Gold.Chemscore.Metal.Weighted>
-0.0000

> <Gold.Chemscore.Lipo.Weighted>
-7.6613

> <Gold.Chemscore.Internal_Hbond.Weighted>
0.0000

> <Gold.Chemscore.DEClash.Weighted>
0.4602

> <Gold.Chemscore.DEInternal.Weighted>
1.1288

> <Gold.Chemscore.Rot.Weighted>
6.5020

> <Gold.Chemscore.Internal.Correction.Weighted>
   9.000000E+99

> <Gold.Protein.RotatedTorsions>
[ 6907 6896 6895 6894 ] final  169.96 input  -60.11 | X-H torsion
[ 7974 7965 7964 7962 ] final -172.34 input  175.53 | X-H torsion
[ 8008 7997 7996 7995 ] final  165.47 input   59.86 | X-H torsion
[ 10167 10162 10161 10158 ] final  170.19 input  -65.29 | X-H torsion
[ 10718 10713 10712 10709 ] final  -88.83 input   66.30 | X-H torsion
[ 10763 10752 10751 10750 ] final  -53.30 input  -60.55 | X-H torsion
[ 11005 11000 10999 10996 ] final  170.60 input  -57.11 | X-H torsion

> <Gold.Protein.ActiveResidues>
 VAL166  LYS551  ARG553  GLY616  TRP617  ASP618  TYR619  PRO620  LYS621  CYS622 
 ASP623  PHE694  ASN695  SER759  ASP760  ASP761  ALA762  ILE779  LEU786  VAL792 
 PHE793  MET794  SER795  GLU796  ALA797  LYS798  CYS799  TRP800  GLU811  SER814 

> <Gold.Protein.RotatedAtoms>
  151.8237  133.3398  159.3591 H   0  0  0  0  0  0  0  0  0  0  0  0  # atno 6907 bound_to 6896
  150.7286  134.5549  159.5822 H   0  0  0  0  0  0  0  0  0  0  0  0  # atno 6908 bound_to 6896
  152.2987  134.7637  160.0413 H   0  0  0  0  0  0  0  0  0  0  0  0  # atno 6909 bound_to 6896
  144.7147  140.1787  143.6360 H   0  0  0  0  0  0  0  0  0  0  0  0  # atno 7974 bound_to 7965
  156.1798  140.1669  156.8295 H   0  0  0  0  0  0  0  0  0  0  0  0  # atno 8008 bound_to 7997
  154.5347  140.0749  156.8440 H   0  0  0  0  0  0  0  0  0  0  0  0  # atno 8009 bound_to 7997
  155.3335  140.3380  155.4241 H   0  0  0  0  0  0  0  0  0  0  0  0  # atno 8010 bound_to 7997
  139.5012  144.3624  151.9811 H   0  0  0  0  0  0  0  0  0  0  0  0  # atno 10167 bound_to 10162
  155.9983  130.4850  150.5078 H   0  0  0  0  0  0  0  0  0  0  0  0  # atno 10718 bound_to 10713
  154.1566  135.6481  153.4976 H   0  0  0  0  0  0  0  0  0  0  0  0  # atno 10763 bound_to 10752
  153.0122  135.5351  154.6753 H   0  0  0  0  0  0  0  0  0  0  0  0  # atno 10764 bound_to 10752
  154.6056  135.2948  155.0460 H   0  0  0  0  0  0  0  0  0  0  0  0  # atno 10765 bound_to 10752
  140.3101  134.7524  157.3984 H   0  0  0  0  0  0  0  0  0  0  0  0  # atno 11005 bound_to 11000
  145.8877  139.2358  143.1568 LP  0  0  0  0  0  0  0  0  0  0  0  0  # atno 17320 bound_to 7965
  145.9934  140.8583  143.0055 LP  0  0  0  0  0  0  0  0  0  0  0  0  # atno 17321 bound_to 7965
  140.3060  144.3592  150.6047 LP  0  0  0  0  0  0  0  0  0  0  0  0  # atno 17342 bound_to 10162
  140.5836  143.2171  151.7383 LP  0  0  0  0  0  0  0  0  0  0  0  0  # atno 17343 bound_to 10162
  157.3055  131.0653  151.2038 LP  0  0  0  0  0  0  0  0  0  0  0  0  # atno 17370 bound_to 10713
  157.3002  130.6839  149.6160 LP  0  0  0  0  0  0  0  0  0  0  0  0  # atno 17371 bound_to 10713
  140.1032  134.5444  155.8333 LP  0  0  0  0  0  0  0  0  0  0  0  0  # atno 17394 bound_to 11000
  141.2110  133.6701  156.6550 LP  0  0  0  0  0  0  0  0  0  0  0  0  # atno 17395 bound_to 11000

$$$$
