AV-unprocessed.smi:698|AV-procd|sdf|3397|dock5
  -GOLD-   22720 0373D 1   1.00000     0.00000
 Structure written by MMmdl.
 33 34  0  0  0  0  0  0  0  0  1 V2000
  152.1914  145.2937  159.0000 C   0  0  0  0  0  0  0  0  0  0  0  0
  151.2281  145.0505  160.1641 C   0  0  0  0  0  0  0  0  0  0  0  0
  151.8948  144.2768  161.1574 O   0  0  0  0  0  0  0  0  0  0  0  0
  152.4718  143.0811  160.7809 C   0  0  0  0  0  0  0  0  0  0  0  0
  153.3010  142.4110  161.7002 C   0  0  0  0  0  0  0  0  0  0  0  0
  153.8865  141.1930  161.3116 C   0  0  0  0  0  0  0  0  0  0  0  0
  153.6228  140.6926  160.0224 C   0  0  0  0  0  0  0  0  0  0  0  0
  152.7806  141.4219  159.1544 C   0  0  0  0  0  0  0  0  0  0  0  0
  152.5769  140.8377  157.8767 N   0  0  0  0  0  0  0  0  0  0  0  0
  151.4997  140.9370  157.0738 C   0  0  0  0  0  0  0  0  0  0  0  0
  150.4924  141.5940  157.3387 O   0  0  0  0  0  0  0  0  0  0  0  0
  151.5746  140.1841  155.7386 C   0  0  2  0  0  0  0  0  0  0  0  0
  150.6140  138.9987  155.6373 C   0  0  0  0  0  0  0  0  0  0  0  0
  151.2742  138.1686  154.5583 C   0  0  0  0  0  0  0  0  0  0  0  0
  152.7619  138.3840  154.8329 C   0  0  0  0  0  0  0  0  0  0  0  0
  152.8666  139.6068  155.5587 O   0  0  0  0  0  0  0  0  0  0  0  0
  152.2210  142.5946  159.5409 N   0  0  0  0  0  0  0  0  0  0  0  0
  151.7131  145.8801  158.2153 H   0  0  0  0  0  0  0  0  0  0  0  0
  152.5192  144.3513  158.5606 H   0  0  0  0  0  0  0  0  0  0  0  0
  153.0768  145.8366  159.3312 H   0  0  0  0  0  0  0  0  0  0  0  0
  150.9067  146.0072  160.5790 H   0  0  0  0  0  0  0  0  0  0  0  0
  150.3430  144.5253  159.8014 H   0  0  0  0  0  0  0  0  0  0  0  0
  153.4831  142.8226  162.6817 H   0  0  0  0  0  0  0  0  0  0  0  0
  154.5277  140.6507  161.9907 H   0  0  0  0  0  0  0  0  0  0  0  0
  154.0645  139.7581  159.7076 H   0  0  0  0  0  0  0  0  0  0  0  0
  153.3335  140.2647  157.5320 H   0  0  0  0  0  0  0  0  0  0  0  0
  151.3917  140.8818  154.9196 H   0  0  0  0  0  0  0  0  0  0  0  0
  150.5775  138.4398  156.5741 H   0  0  0  0  0  0  0  0  0  0  0  0
  149.5985  139.2961  155.3739 H   0  0  0  0  0  0  0  0  0  0  0  0
  150.9829  137.1183  154.5864 H   0  0  0  0  0  0  0  0  0  0  0  0
  151.0151  138.5667  153.5762 H   0  0  0  0  0  0  0  0  0  0  0  0
  153.1608  137.5803  155.4524 H   0  0  0  0  0  0  0  0  0  0  0  0
  153.3444  138.4216  153.9120 H   0  0  0  0  0  0  0  0  0  0  0  0
  1  2  1  0  0  0  0
  1 18  1  0  0  0  0
  1 19  1  0  0  0  0
  1 20  1  0  0  0  0
  2  3  1  0  0  0  0
  2 21  1  0  0  0  0
  2 22  1  0  0  0  0
  3  4  1  0  0  0  0
  4 17  1  0  0  0  0
  4  5  2  0  0  0  0
  5  6  1  0  0  0  0
  5 23  1  0  0  0  0
  6  7  2  0  0  0  0
  6 24  1  0  0  0  0
  7  8  1  0  0  0  0
  7 25  1  0  0  0  0
  8  9  1  0  0  0  0
  8 17  2  0  0  0  0
  9 10  1  0  0  0  0
  9 26  1  0  0  0  0
 10 11  2  0  0  0  0
 10 12  1  0  0  0  0
 12 16  1  0  0  0  0
 12 13  1  0  0  0  0
 12 27  1  0  0  0  0
 13 14  1  0  0  0  0
 13 28  1  0  0  0  0
 13 29  1  0  0  0  0
 14 15  1  0  0  0  0
 14 30  1  0  0  0  0
 14 31  1  0  0  0  0
 15 16  1  0  0  0  0
 15 32  1  0  0  0  0
 15 33  1  0  0  0  0
M  END
> <s_m_source_file>
AV-unprocessed.smi

> <i_m_source_file_index>
698

> <i_lp_mmshare_version>
43012

> <i_f3d_flags>
0

> <s_epik_input>
W0NIM11bQ0gyXU9jMVtjSF1bY0hdW2NIXWMobjEpW05IXUMoPU8pW0NAQEhdMltDSDJdW0NIMl1bQ0gyXU8y

> <s_epik_cmdline>
J2VwaWtfcHl0aG9uJywgJy1waCcsICc3LjAnLCAnLXRuJywgJzgnLCAnLW1hJywgJzIwMCcsICctbWV0YWxfYmluZGluZycsICctaW1hZScsICc8aW5maWxlLm1hZT4nLCAnLW9tYWUnLCAnPG91dGZpbGUubWFlPic=

> <r_lp_tautomer_probability>
1

> <r_epik_Ionization_Penalty>
3.42089e-05

> <r_epik_Ionization_Penalty_Charging>
0

> <r_epik_Ionization_Penalty_Neutral>
3.42089e-05

> <r_epik_State_Penalty>
-0

> <r_epik_Charging_Adjusted_Penalty>
0

> <i_epik_Tot_Q>
0

> <i_epik_Tot_abs_Q>
0

> <r_epik_Metal_State_Penalty>
-0

> <b_epik_Metal_Only>
0

> <s_lp_Force_Field>
OPLS_2005

> <r_lp_Energy>
21.1038

> <b_lp_Chiralities_Consistent>
1

> <s_lp_Variant>
AV-unprocessed.smi:698-1

> <Gold.Version>
5.8.1

> <Gold.Id.Protein>
6NUR|6NUR_protein|mol2

> <Gold.PLP.Fitness>
42.5406

> <Gold.PLP.PLP>
-40.2783

> <Gold.PLP.part.hbond>
-1.0000

> <Gold.PLP.part.metal>
0.0000

> <Gold.PLP.part.buried>
-4.9010

> <Gold.PLP.part.nonpolar>
-33.7886

> <Gold.PLP.part.repulsive>
0.3509

> <Gold.PLP.ligand.clash>
0.0000

> <Gold.PLP.ligand.torsion>
0.3828

> <Gold.PLP.Chemscore.Hbond>
1.0000

> <Gold.PLP.Chemscore.CHOScore>
0.0000

> <Gold.PLP.Chemscore.Metal>
0.0000

> <Gold.Chemscore.Hbonds>
donor molecule, donor type, donor heavy atom, donor atom, acceptor molecule, acceptor atom, score
      P1  H  7997  8009       L1    16  1.00

> <Gold.PLP.Chemscore.Internal.Correction>
0.0279

> <Gold.Rescore>
     Score         DG    S(hbond)    S(metal)    S(lipo)     H(rot)  DE(clash)    DE(int)     intcor
     12.09     -15.02       0.99        0.00      84.24       1.42       0.02       2.91       ----

> <Gold.Chemscore.Fitness>
12.0889

> <Gold.Chemscore.DG>
-15.0165

> <Gold.Chemscore.ZeroCoef>
-5.4800

> <Gold.Chemscore.Hbond>
0.9915

> <Gold.Chemscore.Metal>
0.0000

> <Gold.Chemscore.Lipo>
84.2422

> <Gold.Chemscore.Internal_Hbond>
0.0000

> <Gold.Chemscore.DEClash>
0.0218

> <Gold.Chemscore.DEInternal>
2.9058

> <Gold.Chemscore.Rot>
1.4185

> <Gold.Chemscore.Internal.Correction>
   9.000000E+99

> <Gold.Chemscore.Hbonds>
donor molecule, donor type, donor heavy atom, donor atom, acceptor molecule, acceptor atom, score
      P1  H  7997  8009       L1    16  0.99

> <Gold.Chemscore.Hbond.Weighted>
-3.3115

> <Gold.Chemscore.Metal.Weighted>
-0.0000

> <Gold.Chemscore.Lipo.Weighted>
-9.8563

> <Gold.Chemscore.Internal_Hbond.Weighted>
0.0000

> <Gold.Chemscore.DEClash.Weighted>
0.0218

> <Gold.Chemscore.DEInternal.Weighted>
2.9058

> <Gold.Chemscore.Rot.Weighted>
3.6313

> <Gold.Chemscore.Internal.Correction.Weighted>
   9.000000E+99

> <Gold.Protein.RotatedTorsions>
[ 6907 6896 6895 6894 ] final  173.93 input  -60.11 | X-H torsion
[ 7974 7965 7964 7962 ] final   -0.10 input  175.53 | X-H torsion
[ 8008 7997 7996 7995 ] final -161.99 input   59.86 | X-H torsion
[ 10167 10162 10161 10158 ] final -175.30 input  -65.29 | X-H torsion
[ 10718 10713 10712 10709 ] final  105.92 input   66.30 | X-H torsion
[ 10763 10752 10751 10750 ] final  -34.87 input  -60.55 | X-H torsion
[ 11005 11000 10999 10996 ] final  105.75 input  -57.11 | X-H torsion

> <Gold.Protein.ActiveResidues>
 VAL166  LYS551  ARG553  GLY616  TRP617  ASP618  TYR619  PRO620  LYS621  CYS622 
 ASP623  PHE694  ASN695  SER759  ASP760  ASP761  ALA762  ILE779  LEU786  VAL792 
 PHE793  MET794  SER795  GLU796  ALA797  LYS798  CYS799  TRP800  GLU811  SER814 

> <Gold.Protein.RotatedAtoms>
  151.7604  133.3333  159.3415 H   0  0  0  0  0  0  0  0  0  0  0  0  # atno 6907 bound_to 6896
  150.7500  134.6111  159.6096 H   0  0  0  0  0  0  0  0  0  0  0  0  # atno 6908 bound_to 6896
  152.3409  134.7137  160.0315 H   0  0  0  0  0  0  0  0  0  0  0  0  # atno 6909 bound_to 6896
  146.2430  140.1218  142.8340 H   0  0  0  0  0  0  0  0  0  0  0  0  # atno 7974 bound_to 7965
  155.8002  140.0891  157.1961 H   0  0  0  0  0  0  0  0  0  0  0  0  # atno 8008 bound_to 7997
  154.3982  140.1474  156.3324 H   0  0  0  0  0  0  0  0  0  0  0  0  # atno 8009 bound_to 7997
  155.8470  140.3436  155.5671 H   0  0  0  0  0  0  0  0  0  0  0  0  # atno 8010 bound_to 7997
  139.5588  144.1922  152.1204 H   0  0  0  0  0  0  0  0  0  0  0  0  # atno 10167 bound_to 10162
  157.6687  131.0839  150.5930 H   0  0  0  0  0  0  0  0  0  0  0  0  # atno 10718 bound_to 10713
  153.8538  135.6846  153.4789 H   0  0  0  0  0  0  0  0  0  0  0  0  # atno 10763 bound_to 10752
  153.1381  135.4669  154.9452 H   0  0  0  0  0  0  0  0  0  0  0  0  # atno 10764 bound_to 10752
  154.7790  135.3262  154.7979 H   0  0  0  0  0  0  0  0  0  0  0  0  # atno 10765 bound_to 10752
  139.8806  134.9346  156.5562 H   0  0  0  0  0  0  0  0  0  0  0  0  # atno 11005 bound_to 11000
  145.0400  140.8938  143.5058 LP  0  0  0  0  0  0  0  0  0  0  0  0  # atno 17320 bound_to 7965
  145.1297  139.2640  143.5546 LP  0  0  0  0  0  0  0  0  0  0  0  0  # atno 17321 bound_to 7965
  140.1431  144.5184  150.6732 LP  0  0  0  0  0  0  0  0  0  0  0  0  # atno 17342 bound_to 10162
  140.6865  143.2353  151.5247 LP  0  0  0  0  0  0  0  0  0  0  0  0  # atno 17343 bound_to 10162
  156.6230  130.4411  149.5815 LP  0  0  0  0  0  0  0  0  0  0  0  0  # atno 17370 bound_to 10713
  156.2341  130.6812  151.1492 LP  0  0  0  0  0  0  0  0  0  0  0  0  # atno 17371 bound_to 10713
  140.8203  133.8359  155.8890 LP  0  0  0  0  0  0  0  0  0  0  0  0  # atno 17394 bound_to 11000
  140.9424  134.1884  157.4788 LP  0  0  0  0  0  0  0  0  0  0  0  0  # atno 17395 bound_to 11000

$$$$
