AV-unprocessed.smi:2153|AV-procd|sdf|8766|dock4
  -GOLD-   2272011543D 1   1.00000     0.00000
 Structure written by MMmdl.
 48 49  0  0  0  0  0  0  0  0  1 V2000
  152.3088  140.9960  160.0483 C   0  0  0  0  0  0  0  0  0  0  0  0
  152.2001  142.5084  159.7947 C   0  0  2  0  0  0  0  0  0  0  0  0
  152.1948  143.2832  161.1282 C   0  0  0  0  0  0  0  0  0  0  0  0
  152.0801  144.7988  160.9067 C   0  0  0  0  0  0  0  0  0  0  0  0
  150.8330  145.1408  160.0803 C   0  0  0  0  0  0  0  0  0  0  0  0
  150.8338  144.3843  158.7442 C   0  0  0  0  0  0  0  0  0  0  0  0
  150.9518  142.8595  158.9533 C   0  0  1  0  0  0  0  0  0  0  0  0
  151.0816  142.2208  157.6892 O   0  0  0  0  0  0  0  0  0  0  0  0
  149.9502  142.3593  156.8415 C   0  0  0  0  0  0  0  0  0  0  0  0
  150.3883  142.1476  155.3886 C   0  0  0  0  0  0  0  0  0  0  0  0
  149.8150  143.1711  154.5255 N   0  0  0  0  0  0  0  0  0  0  0  0
  148.6302  143.0666  153.9088 C   0  0  0  0  0  0  0  0  0  0  0  0
  147.9021  142.0785  154.0152 O   0  0  0  0  0  0  0  0  0  0  0  0
  148.2257  144.2592  153.0305 C   0  0  0  0  0  0  0  0  0  0  0  0
  147.2421  145.1463  153.6660 N   0  0  0  0  0  0  0  0  0  0  0  0
  146.6365  144.7565  154.8468 C   0  0  0  0  0  0  0  0  0  0  0  0
  145.7288  145.5109  155.5037 C   0  0  0  0  0  0  0  0  0  0  0  0
  145.3290  146.8141  154.9884 C   0  0  0  0  0  0  0  0  0  0  0  0
  144.5002  147.5374  155.5430 O   0  0  0  0  0  0  0  0  0  0  0  0
  145.9668  147.1929  153.7850 N   0  0  0  0  0  0  0  0  0  0  0  0
  145.5939  148.4808  153.2377 C   0  0  0  0  0  0  0  0  0  0  0  0
  146.9137  146.3972  153.0981 C   0  0  0  0  0  0  0  0  0  0  0  0
  147.4433  146.7595  152.0451 O   0  0  0  0  0  0  0  0  0  0  0  0
  151.4424  140.6228  160.5952 H   0  0  0  0  0  0  0  0  0  0  0  0
  153.1983  140.7595  160.6328 H   0  0  0  0  0  0  0  0  0  0  0  0
  152.3764  140.4393  159.1133 H   0  0  0  0  0  0  0  0  0  0  0  0
  153.0844  142.8147  159.2337 H   0  0  0  0  0  0  0  0  0  0  0  0
  151.3631  142.9449  161.7479 H   0  0  0  0  0  0  0  0  0  0  0  0
  153.1041  143.0664  161.6897 H   0  0  0  0  0  0  0  0  0  0  0  0
  152.0427  145.3140  161.8670 H   0  0  0  0  0  0  0  0  0  0  0  0
  152.9717  145.1630  160.3945 H   0  0  0  0  0  0  0  0  0  0  0  0
  149.9363  144.8848  160.6459 H   0  0  0  0  0  0  0  0  0  0  0  0
  150.7899  146.2152  159.8996 H   0  0  0  0  0  0  0  0  0  0  0  0
  149.9252  144.6281  158.1945 H   0  0  0  0  0  0  0  0  0  0  0  0
  151.6662  144.7335  158.1317 H   0  0  0  0  0  0  0  0  0  0  0  0
  150.0673  142.4898  159.4767 H   0  0  0  0  0  0  0  0  0  0  0  0
  149.2026  141.6115  157.1095 H   0  0  0  0  0  0  0  0  0  0  0  0
  149.4858  143.3393  156.9543 H   0  0  0  0  0  0  0  0  0  0  0  0
  151.4768  142.1658  155.3171 H   0  0  0  0  0  0  0  0  0  0  0  0
  150.0584  141.1662  155.0447 H   0  0  0  0  0  0  0  0  0  0  0  0
  150.3597  144.0093  154.3826 H   0  0  0  0  0  0  0  0  0  0  0  0
  149.1184  144.8215  152.7508 H   0  0  0  0  0  0  0  0  0  0  0  0
  147.8198  143.8715  152.0950 H   0  0  0  0  0  0  0  0  0  0  0  0
  146.9035  143.7990  155.2701 H   0  0  0  0  0  0  0  0  0  0  0  0
  145.2933  145.1458  156.4223 H   0  0  0  0  0  0  0  0  0  0  0  0
  146.2055  148.7382  152.3738 H   0  0  0  0  0  0  0  0  0  0  0  0
  145.7462  149.2264  154.0202 H   0  0  0  0  0  0  0  0  0  0  0  0
  144.5430  148.4142  152.9509 H   0  0  0  0  0  0  0  0  0  0  0  0
  1  2  1  0  0  0  0
  1 24  1  0  0  0  0
  1 25  1  0  0  0  0
  1 26  1  0  0  0  0
  2  7  1  0  0  0  0
  2  3  1  0  0  0  0
  2 27  1  0  0  0  0
  3  4  1  0  0  0  0
  3 28  1  0  0  0  0
  3 29  1  0  0  0  0
  4  5  1  0  0  0  0
  4 30  1  0  0  0  0
  4 31  1  0  0  0  0
  5  6  1  0  0  0  0
  5 32  1  0  0  0  0
  5 33  1  0  0  0  0
  6  7  1  0  0  0  0
  6 34  1  0  0  0  0
  6 35  1  0  0  0  0
  7  8  1  0  0  0  0
  7 36  1  0  0  0  0
  8  9  1  0  0  0  0
  9 10  1  0  0  0  0
  9 37  1  0  0  0  0
  9 38  1  0  0  0  0
 10 11  1  0  0  0  0
 10 39  1  0  0  0  0
 10 40  1  0  0  0  0
 11 12  1  0  0  0  0
 11 41  1  0  0  0  0
 12 13  2  0  0  0  0
 12 14  1  0  0  0  0
 14 15  1  0  0  0  0
 14 42  1  0  0  0  0
 14 43  1  0  0  0  0
 15 22  1  0  0  0  0
 15 16  1  0  0  0  0
 16 17  2  0  0  0  0
 16 44  1  0  0  0  0
 17 18  1  0  0  0  0
 17 45  1  0  0  0  0
 18 19  2  0  0  0  0
 18 20  1  0  0  0  0
 20 21  1  0  0  0  0
 20 22  1  0  0  0  0
 21 46  1  0  0  0  0
 21 47  1  0  0  0  0
 21 48  1  0  0  0  0
 22 23  2  0  0  0  0
M  END
> <s_m_source_file>
AV-unprocessed.smi

> <i_m_source_file_index>
2153

> <i_lp_mmshare_version>
43012

> <i_f3d_flags>
0

> <s_epik_input>
W0NIM11bQ0BASF0xW0NIMl1bQ0gyXVtDSDJdW0NIMl1bQ0BIXTFPW0NIMl1bQ0gyXVtOSF1DKD1PKVtDSDJdbjJbY0hdW2NIXWMoPU8pbihbQ0gzXSljMj1P

> <s_epik_cmdline>
J2VwaWtfcHl0aG9uJywgJy1waCcsICc3LjAnLCAnLXRuJywgJzgnLCAnLW1hJywgJzIwMCcsICctbWV0YWxfYmluZGluZycsICctaW1hZScsICc8aW5maWxlLm1hZT4nLCAnLW9tYWUnLCAnPG91dGZpbGUubWFlPic=

> <r_lp_tautomer_probability>
1

> <r_epik_Ionization_Penalty>
4.02205e-08

> <r_epik_Ionization_Penalty_Charging>
1.23606e-08

> <r_epik_Ionization_Penalty_Neutral>
2.78599e-08

> <r_epik_State_Penalty>
-0

> <r_epik_Charging_Adjusted_Penalty>
1.23606e-08

> <i_epik_Tot_Q>
0

> <i_epik_Tot_abs_Q>
0

> <r_epik_Metal_State_Penalty>
-0

> <b_epik_Metal_Only>
0

> <s_lp_Force_Field>
OPLS_2005

> <r_lp_Energy>
20.2875

> <b_lp_Chiralities_Consistent>
1

> <s_lp_Variant>
AV-unprocessed.smi:2153-1

> <Gold.Version>
5.8.1

> <Gold.Id.Protein>
6NUR|6NUR_protein|mol2

> <Gold.PLP.Fitness>
48.7283

> <Gold.PLP.PLP>
-49.3009

> <Gold.PLP.part.hbond>
-1.3076

> <Gold.PLP.part.metal>
0.0000

> <Gold.PLP.part.buried>
-10.7630

> <Gold.PLP.part.nonpolar>
-38.6191

> <Gold.PLP.part.repulsive>
0.5528

> <Gold.PLP.ligand.clash>
0.0000

> <Gold.PLP.ligand.torsion>
0.9746

> <Gold.PLP.Chemscore.Hbond>
0.4368

> <Gold.PLP.Chemscore.CHOScore>
0.0000

> <Gold.PLP.Chemscore.Metal>
0.0000

> <Gold.PLP.Chemscore.Internal.Correction>
0.0662

> <Gold.Rescore>
     Score         DG    S(hbond)    S(metal)    S(lipo)     H(rot)  DE(clash)    DE(int)     intcor
     12.33     -13.83       0.68        0.00     100.06       2.20       0.02       1.48       ----

> <Gold.Chemscore.Fitness>
12.3283

> <Gold.Chemscore.DG>
-13.8300

> <Gold.Chemscore.ZeroCoef>
-5.4800

> <Gold.Chemscore.Hbond>
0.6785

> <Gold.Chemscore.Metal>
0.0000

> <Gold.Chemscore.Lipo>
100.0643

> <Gold.Chemscore.Internal_Hbond>
0.0000

> <Gold.Chemscore.DEClash>
0.0168

> <Gold.Chemscore.DEInternal>
1.4849

> <Gold.Chemscore.Rot>
2.1968

> <Gold.Chemscore.Internal.Correction>
   9.000000E+99

> <Gold.Chemscore.Hbond.Weighted>
-2.2663

> <Gold.Chemscore.Metal.Weighted>
-0.0000

> <Gold.Chemscore.Lipo.Weighted>
-11.7075

> <Gold.Chemscore.Internal_Hbond.Weighted>
0.0000

> <Gold.Chemscore.DEClash.Weighted>
0.0168

> <Gold.Chemscore.DEInternal.Weighted>
1.4849

> <Gold.Chemscore.Rot.Weighted>
5.6238

> <Gold.Chemscore.Internal.Correction.Weighted>
   9.000000E+99

> <Gold.Protein.RotatedTorsions>
[ 6907 6896 6895 6894 ] final  -43.87 input  -60.11 | X-H torsion
[ 7974 7965 7964 7962 ] final   -9.55 input  175.53 | X-H torsion
[ 8008 7997 7996 7995 ] final  -64.29 input   59.86 | X-H torsion
[ 10167 10162 10161 10158 ] final   90.58 input  -65.29 | X-H torsion
[ 10718 10713 10712 10709 ] final   74.22 input   66.30 | X-H torsion
[ 10763 10752 10751 10750 ] final  112.11 input  -60.55 | X-H torsion
[ 11005 11000 10999 10996 ] final   49.57 input  -57.11 | X-H torsion

> <Gold.Protein.ActiveResidues>
 VAL166  LYS551  ARG553  GLY616  TRP617  ASP618  TYR619  PRO620  LYS621  CYS622 
 ASP623  PHE694  ASN695  SER759  ASP760  ASP761  ALA762  ILE779  LEU786  VAL792 
 PHE793  MET794  SER795  GLU796  ALA797  LYS798  CYS799  TRP800  GLU811  SER814 

> <Gold.Protein.RotatedAtoms>
  150.9391  134.8802  159.7600 H   0  0  0  0  0  0  0  0  0  0  0  0  # atno 6907 bound_to 6896
  152.5072  134.3967  159.9412 H   0  0  0  0  0  0  0  0  0  0  0  0  # atno 6908 bound_to 6896
  151.3989  133.3724  159.2765 H   0  0  0  0  0  0  0  0  0  0  0  0  # atno 6909 bound_to 6896
  146.2248  140.2633  142.8353 H   0  0  0  0  0  0  0  0  0  0  0  0  # atno 7974 bound_to 7965
  154.4603  140.0957  156.6875 H   0  0  0  0  0  0  0  0  0  0  0  0  # atno 8008 bound_to 7997
  155.5014  140.3473  155.4353 H   0  0  0  0  0  0  0  0  0  0  0  0  # atno 8009 bound_to 7997
  156.0858  140.1384  156.9644 H   0  0  0  0  0  0  0  0  0  0  0  0  # atno 8010 bound_to 7997
  139.8459  144.6618  150.9228 H   0  0  0  0  0  0  0  0  0  0  0  0  # atno 10167 bound_to 10162
  157.6583  130.9667  150.1180 H   0  0  0  0  0  0  0  0  0  0  0  0  # atno 10718 bound_to 10713
  153.4731  135.3696  155.2401 H   0  0  0  0  0  0  0  0  0  0  0  0  # atno 10763 bound_to 10752
  154.8756  135.3936  154.3789 H   0  0  0  0  0  0  0  0  0  0  0  0  # atno 10764 bound_to 10752
  153.4380  135.7083  153.6252 H   0  0  0  0  0  0  0  0  0  0  0  0  # atno 10765 bound_to 10752
  140.1092  134.4978  155.8693 H   0  0  0  0  0  0  0  0  0  0  0  0  # atno 11005 bound_to 11000
  144.9323  140.7988  143.5682 LP  0  0  0  0  0  0  0  0  0  0  0  0  # atno 17320 bound_to 7965
  145.2578  139.2005  143.4908 LP  0  0  0  0  0  0  0  0  0  0  0  0  # atno 17321 bound_to 7965
  140.7793  143.3871  151.1375 LP  0  0  0  0  0  0  0  0  0  0  0  0  # atno 17342 bound_to 10162
  139.7513  143.8774  152.3077 LP  0  0  0  0  0  0  0  0  0  0  0  0  # atno 17343 bound_to 10162
  156.2059  130.3663  149.8730 LP  0  0  0  0  0  0  0  0  0  0  0  0  # atno 17370 bound_to 10713
  156.6621  130.8786  151.3549 LP  0  0  0  0  0  0  0  0  0  0  0  0  # atno 17371 bound_to 10713
  141.2126  133.6721  156.6670 LP  0  0  0  0  0  0  0  0  0  0  0  0  # atno 17394 bound_to 11000
  140.3115  134.8082  157.4180 LP  0  0  0  0  0  0  0  0  0  0  0  0  # atno 17395 bound_to 11000

$$$$
