#       Name:                AV-unprocessed.smi:1240
#       Creating user name   scv26
#       Creation time:       Fri Mar 27 04:29:31 2020


#       File generated by GOLD software.
#

@<TRIPOS>MOLECULE
AV-unprocessed.smi:1240
    55    57     1
SMALL
NO_CHARGES


@<TRIPOS>ATOM
      1 ****        -1.3882   0.6565   1.7637 O.2            1 S1                 0.0000
      2 ****        -1.6815   1.0887   0.6493 C.2            1 S1                 0.0000
      3 ****        -1.5709   0.3670  -0.4748 N.am           1 S1                 0.0000
      4 ****        -1.0943  -1.0125  -0.5417 C.3            1 S1                 0.0000
      5 ****         0.4497  -1.1521  -0.3528 C.3            1 S1                 0.0000
      6 ****         1.1765  -0.1980  -1.3621 C.3            1 S1                 0.0000
      7 ****         2.6917  -0.2191  -1.4699 C.3            1 S1                 0.0000
      8 ****         2.9176   0.5942  -2.7384 C.3            1 S1                 0.0000
      9 ****         1.8288   0.2561  -3.5912 O.3            1 S1                 0.0000
     10 ****         0.7981  -0.3786  -2.8373 C.3            1 S1                 0.0000
     11 ****         0.9633  -2.5456  -0.3749 N.3            1 S1                 0.0000
     12 ****         2.1278  -2.7115   0.5054 C.3            1 S1                 0.0000
     13 ****         2.7356  -4.1198   0.4059 C.3            1 S1                 0.0000
     14 ****         1.7478  -5.0813   0.7556 O.3            1 S1                 0.0000
     15 ****         0.5904  -4.9948  -0.0664 C.3            1 S1                 0.0000
     16 ****        -0.0054  -3.5770   0.0113 C.3            1 S1                 0.0000
     17 ****        -2.1258   2.3309   0.3904 N.am           1 S1                 0.0000
     18 ****        -2.3574   3.3946   1.3047 C.ar           1 S1                 0.0000
     19 ****        -2.3563   4.7108   0.7914 C.ar           1 S1                 0.0000
     20 ****        -2.5928   5.7962   1.6595 C.ar           1 S1                 0.0000
     21 ****        -2.8290   5.5704   2.9695 N.pl3          1 S1                 1.0000
     22 ****        -2.8559   4.3306   3.5035 C.ar           1 S1                 0.0000
     23 ****        -2.6261   3.2062   2.6847 C.ar           1 S1                 0.0000
     24 ****        -1.8302   0.7994  -1.3496 H              1 S1                 0.0000
     25 ****        -1.6363  -1.5733   0.2209 H              1 S1                 0.0000
     26 ****        -1.4023  -1.4276  -1.5016 H              1 S1                 0.0000
     27 ****         0.6516  -0.7567   0.6438 H              1 S1                 0.0000
     28 ****         0.9183   0.8259  -1.0873 H              1 S1                 0.0000
     29 ****         3.1980   0.1994  -0.5997 H              1 S1                 0.0000
     30 ****         3.0644  -1.2270  -1.6516 H              1 S1                 0.0000
     31 ****         2.8769   1.6622  -2.5209 H              1 S1                 0.0000
     32 ****         3.8771   0.3790  -3.2089 H              1 S1                 0.0000
     33 ****         0.7740  -1.4358  -3.1047 H              1 S1                 0.0000
     34 ****        -0.1739   0.0529  -3.0772 H              1 S1                 0.0000
     35 ****         2.9046  -1.9815   0.3035 H              1 S1                 0.0000
     36 ****         1.8289  -2.5327   1.5395 H              1 S1                 0.0000
     37 ****         3.1076  -4.3116  -0.6018 H              1 S1                 0.0000
     38 ****         3.5821  -4.2170   1.0859 H              1 S1                 0.0000
     39 ****         0.8500  -5.2464  -1.0959 H              1 S1                 0.0000
     40 ****        -0.1393  -5.7317   0.2689 H              1 S1                 0.0000
     41 ****        -0.3683  -3.3902   1.0232 H              1 S1                 0.0000
     42 ****        -0.8707  -3.5527  -0.6505 H              1 S1                 0.0000
     43 ****        -2.2479   2.5623  -0.5846 H              1 S1                 0.0000
     44 ****        -2.1688   4.8917  -0.2573 H              1 S1                 0.0000
     45 ****        -2.6017   6.8303   1.3472 H              1 S1                 0.0000
     46 ****        -3.0648   4.2747   4.5619 H              1 S1                 0.0000
     47 ****        -2.6718   2.2236   3.1289 H              1 S1                 0.0000
     48 ****        -2.9992   6.3695   3.5809 H              1 S1                 0.0000
     49 ****        -1.0473  -0.2782   1.8637 LP             1 S1                 0.0000
     50 ****        -1.4908   1.2401   2.5693 LP             1 S1                 0.0000
     51 ****         2.1483  -0.3668  -4.3052 LP             1 S1                 0.0000
     52 ****         1.4669   1.0880  -4.0120 LP             1 S1                 0.0000
     53 ****         1.1977  -2.6795  -1.3377 LP             1 S1                 0.0000
     54 ****         1.4777  -4.9325   1.7069 LP             1 S1                 0.0000
     55 ****         2.1417  -5.9954   0.6601 LP             1 S1                 0.0000
@<TRIPOS>BOND
    1    1    2 2     
    2    2    3 am    
    3    2   17 am    
    4    3    4 1     
    5    3   24 1     
    6    4    5 1     
    7    4   25 1     
    8    4   26 1     
    9    5    6 1     
   10    5   11 1     
   11    5   27 1     
   12    6   10 1     
   13    6    7 1     
   14    6   28 1     
   15    7    8 1     
   16    7   29 1     
   17    7   30 1     
   18    8    9 1     
   19    8   31 1     
   20    8   32 1     
   21    9   10 1     
   22   10   33 1     
   23   10   34 1     
   24   11   16 1     
   25   11   12 1     
   26   12   13 1     
   27   12   35 1     
   28   12   36 1     
   29   13   14 1     
   30   13   37 1     
   31   13   38 1     
   32   14   15 1     
   33   15   16 1     
   34   15   39 1     
   35   15   40 1     
   36   16   41 1     
   37   16   42 1     
   38   17   18 1     
   39   17   43 1     
   40   18   23 ar    
   41   18   19 ar    
   42   19   20 ar    
   43   19   44 1     
   44   20   21 ar    
   45   20   45 1     
   46   21   22 ar    
   47   21   48 1     
   48   22   23 ar    
   49   22   46 1     
   50   23   47 1     
   51    1   49 1     
   52    1   50 1     
   53    9   51 1     
   54    9   52 1     
   55   11   53 1     
   56   14   54 1     
   57   14   55 1     
@<TRIPOS>SUBSTRUCTURE
      1 S1             1
@<TRIPOS>SET
LONE_PAIRS      STATIC     ATOMS    <user>   **** ""
7 49 50 51 52 53 54 55
DONOR_HYDROGENS      STATIC     ATOMS    <user>   **** ""
3 24 43 48
ATOM$BLUE        STATIC     ATOMS    COLORGROUP SYSTEM
7 49 50 51 52 53 54 55
ATOM$RED        STATIC     ATOMS    COLORGROUP SYSTEM
3 24 43 48
