AV-unprocessed.smi:1158|AV-procd|sdf|4913|dock9
  -GOLD-   22720 3493D 1   1.00000     0.00000
 Structure written by MMmdl.
 43 44  0  0  0  0  0  0  0  0  2 V2000
  151.3473  145.4160  159.1885 C   0  0  0  0  0  0  0  0  0  0  0  0
  150.9702  144.3379  158.3391 O   0  0  0  0  0  0  0  0  0  0  0  0
  151.5843  143.1124  158.5159 C   0  0  0  0  0  0  0  0  0  0  0  0
  152.5099  142.9908  159.5001 N   0  0  0  0  0  0  0  0  0  0  0  0
  153.1142  141.7971  159.6697 C   0  0  0  0  0  0  0  0  0  0  0  0
  152.8370  140.6730  158.8706 C   0  0  0  0  0  0  0  0  0  0  0  0
  151.8761  140.7959  157.8500 C   0  0  0  0  0  0  0  0  0  0  0  0
  151.2218  142.0389  157.6687 C   0  0  0  0  0  0  0  0  0  0  0  0
  150.2476  142.2838  156.6615 N   0  0  0  0  0  0  0  0  0  0  0  0
  149.6643  141.4134  155.8207 C   0  0  0  0  0  0  0  0  0  0  0  0
  149.8946  140.2060  155.7660 O   0  0  0  0  0  0  0  0  0  0  0  0
  148.7690  142.0308  155.0369 N   0  0  0  0  0  0  0  0  0  0  0  0
  147.9335  141.3827  154.0266 C   0  0  2  0  0  0  0  0  0  0  0  0
  147.0896  142.4002  153.2357 C   0  0  0  0  0  0  0  0  0  0  0  0
  145.9898  143.0322  154.1064 C   0  0  0  0  0  0  0  0  0  0  0  0
  145.1118  141.9967  154.7126 N   0  3  2  0  0  0  0  0  0  0  0  0
  143.9740  142.6053  155.4511 C   0  0  0  0  0  0  0  0  0  0  0  0
  144.3833  143.7956  156.3367 C   0  0  0  0  0  0  0  0  0  0  0  0
  143.3355  144.3382  156.9551 F   0  0  0  0  0  0  0  0  0  0  0  0
  145.2474  143.3813  157.2624 F   0  0  0  0  0  0  0  0  0  0  0  0
  145.8944  141.0237  155.5215 C   0  0  0  0  0  0  0  0  0  0  0  0
  147.0014  140.3533  154.6856 C   0  0  0  0  0  0  0  0  0  0  0  0
  150.7781  146.3047  158.9170 H   0  0  0  0  0  0  0  0  0  0  0  0
  152.4061  145.6568  159.0822 H   0  0  0  0  0  0  0  0  0  0  0  0
  151.1336  145.1931  160.2348 H   0  0  0  0  0  0  0  0  0  0  0  0
  153.8456  141.7387  160.4621 H   0  0  0  0  0  0  0  0  0  0  0  0
  153.3531  139.7385  159.0336 H   0  0  0  0  0  0  0  0  0  0  0  0
  151.6744  139.9418  157.2229 H   0  0  0  0  0  0  0  0  0  0  0  0
  149.8995  143.2308  156.6289 H   0  0  0  0  0  0  0  0  0  0  0  0
  148.6397  143.0238  155.1647 H   0  0  0  0  0  0  0  0  0  0  0  0
  148.5914  140.8534  153.3350 H   0  0  0  0  0  0  0  0  0  0  0  0
  147.7232  143.1789  152.8095 H   0  0  0  0  0  0  0  0  0  0  0  0
  146.6253  141.8954  152.3875 H   0  0  0  0  0  0  0  0  0  0  0  0
  146.4340  143.6420  154.8947 H   0  0  0  0  0  0  0  0  0  0  0  0
  145.3941  143.7044  153.4876 H   0  0  0  0  0  0  0  0  0  0  0  0
  143.1761  142.8865  154.7621 H   0  0  0  0  0  0  0  0  0  0  0  0
  143.5530  141.8440  156.1095 H   0  0  0  0  0  0  0  0  0  0  0  0
  144.8819  144.5790  155.7651 H   0  0  0  0  0  0  0  0  0  0  0  0
  146.3251  141.5302  156.3867 H   0  0  0  0  0  0  0  0  0  0  0  0
  145.2436  140.2415  155.9067 H   0  0  0  0  0  0  0  0  0  0  0  0
  146.5394  139.7410  153.9099 H   0  0  0  0  0  0  0  0  0  0  0  0
  147.5768  139.6669  155.3082 H   0  0  0  0  0  0  0  0  0  0  0  0
  144.7110  141.4819  153.9413 H   0  0  0  0  0  0  0  0  0  0  0  0
  1  2  1  0  0  0  0
  1 23  1  0  0  0  0
  1 24  1  0  0  0  0
  1 25  1  0  0  0  0
  2  3  1  0  0  0  0
  3  8  1  0  0  0  0
  3  4  2  0  0  0  0
  4  5  1  0  0  0  0
  5  6  2  0  0  0  0
  5 26  1  0  0  0  0
  6  7  1  0  0  0  0
  6 27  1  0  0  0  0
  7  8  2  0  0  0  0
  7 28  1  0  0  0  0
  8  9  1  0  0  0  0
  9 10  1  0  0  0  0
  9 29  1  0  0  0  0
 10 11  2  0  0  0  0
 10 12  1  0  0  0  0
 12 13  1  0  0  0  0
 12 30  1  0  0  0  0
 13 22  1  0  0  0  0
 13 14  1  0  0  0  0
 13 31  1  0  0  0  0
 14 15  1  0  0  0  0
 14 32  1  0  0  0  0
 14 33  1  0  0  0  0
 15 16  1  0  0  0  0
 15 34  1  0  0  0  0
 15 35  1  0  0  0  0
 16 17  1  0  0  0  0
 16 21  1  0  0  0  0
 16 43  1  0  0  0  0
 17 18  1  0  0  0  0
 17 36  1  0  0  0  0
 17 37  1  0  0  0  0
 18 19  1  0  0  0  0
 18 20  1  0  0  0  0
 18 38  1  0  0  0  0
 21 22  1  0  0  0  0
 21 39  1  0  0  0  0
 21 40  1  0  0  0  0
 22 41  1  0  0  0  0
 22 42  1  0  0  0  0
M  CHG  1  16   1
M  END
> <s_m_source_file>
AV-unprocessed.smi

> <i_m_source_file_index>
1158

> <i_lp_mmshare_version>
43012

> <i_f3d_flags>
0

> <s_epik_input>
W0NIM11PYzFuW2NIXVtjSF1bY0hdYzFbTkhdQyg9TylbTkhdW0NIXTJbQ0gyXVtDSDJdTihbQ0gyXVtDSF0oRilGKVtDSDJdW0NIMl0y

> <s_epik_cmdline>
J2VwaWtfcHl0aG9uJywgJy1waCcsICc3LjAnLCAnLXRuJywgJzgnLCAnLW1hJywgJzIwMCcsICctbWV0YWxfYmluZGluZycsICctaW1hZScsICc8aW5maWxlLm1hZT4nLCAnLW9tYWUnLCAnPG91dGZpbGUubWFlPic=

> <r_lp_tautomer_probability>
1

> <r_epik_Ionization_Penalty>
0.802109

> <r_epik_Ionization_Penalty_Charging>
0.802031

> <r_epik_Ionization_Penalty_Neutral>
7.83352e-05

> <r_epik_State_Penalty>
0.833408

> <r_epik_Charging_Adjusted_Penalty>
1.63544

> <i_epik_Tot_Q>
1

> <i_epik_Tot_abs_Q>
1

> <r_epik_Metal_State_Penalty>
0.833416

> <b_epik_Metal_Only>
0

> <s_lp_Force_Field>
OPLS_2005

> <r_lp_Energy>
20.396

> <b_lp_Chiralities_Consistent>
1

> <s_lp_Variant>
AV-unprocessed.smi:1158-3

> <Gold.Version>
5.8.1

> <Gold.Id.Protein>
6NUR|6NUR_protein|mol2

> <Gold.PLP.Fitness>
46.7056

> <Gold.PLP.PLP>
-35.1049

> <Gold.PLP.part.hbond>
-3.0000

> <Gold.PLP.part.metal>
0.0000

> <Gold.PLP.part.buried>
-7.9365

> <Gold.PLP.part.nonpolar>
-24.8031

> <Gold.PLP.part.repulsive>
0.4326

> <Gold.PLP.ligand.clash>
0.0000

> <Gold.PLP.ligand.torsion>
0.1997

> <Gold.PLP.Chemscore.Hbond>
3.9913

> <Gold.PLP.Chemscore.CHOScore>
0.0000

> <Gold.PLP.Chemscore.Metal>
0.0000

> <Gold.Chemscore.Hbonds>
donor molecule, donor type, donor heavy atom, donor atom, acceptor molecule, acceptor atom, score
      L1  H     9    29       P1  8028  0.98
      L1  H    12    30       P1  8028  1.00
      L1  H    16    43       P1 10175  2.00

> <Gold.PLP.Chemscore.Internal.Correction>
0.0264

> <Gold.Rescore>
     Score         DG    S(hbond)    S(metal)    S(lipo)     H(rot)  DE(clash)    DE(int)     intcor
     16.39     -19.60       2.76        0.00      76.29       1.58       1.72       1.50       ----

> <Gold.Chemscore.Fitness>
16.3851

> <Gold.Chemscore.DG>
-19.6003

> <Gold.Chemscore.ZeroCoef>
-5.4800

> <Gold.Chemscore.Hbond>
2.7639

> <Gold.Chemscore.Metal>
0.0000

> <Gold.Chemscore.Lipo>
76.2899

> <Gold.Chemscore.Internal_Hbond>
0.0000

> <Gold.Chemscore.DEClash>
1.7172

> <Gold.Chemscore.DEInternal>
1.4980

> <Gold.Chemscore.Rot>
1.5770

> <Gold.Chemscore.Internal.Correction>
   9.000000E+99

> <Gold.Chemscore.Hbonds>
donor molecule, donor type, donor heavy atom, donor atom, acceptor molecule, acceptor atom, score
      L1  H     9    29       P1  8028  0.87
      L1  H    12    30       P1  8028  1.00
      L1  H    16    43       P1 10175  0.24

> <Gold.Chemscore.Hbond.Weighted>
-9.2315

> <Gold.Chemscore.Metal.Weighted>
-0.0000

> <Gold.Chemscore.Lipo.Weighted>
-8.9259

> <Gold.Chemscore.Internal_Hbond.Weighted>
0.0000

> <Gold.Chemscore.DEClash.Weighted>
1.7172

> <Gold.Chemscore.DEInternal.Weighted>
1.4980

> <Gold.Chemscore.Rot.Weighted>
4.0371

> <Gold.Chemscore.Internal.Correction.Weighted>
   9.000000E+99

> <Gold.Protein.RotatedTorsions>
[ 6907 6896 6895 6894 ] final -112.01 input  -60.11 | X-H torsion
[ 7974 7965 7964 7962 ] final -160.49 input  175.53 | X-H torsion
[ 8008 7997 7996 7995 ] final   77.84 input   59.86 | X-H torsion
[ 10167 10162 10161 10158 ] final   27.18 input  -65.29 | X-H torsion
[ 10718 10713 10712 10709 ] final   48.69 input   66.30 | X-H torsion
[ 10763 10752 10751 10750 ] final  -24.76 input  -60.55 | X-H torsion
[ 11005 11000 10999 10996 ] final  158.86 input  -57.11 | X-H torsion

> <Gold.Protein.ActiveResidues>
 VAL166  LYS551  ARG553  GLY616  TRP617  ASP618  TYR619  PRO620  LYS621  CYS622 
 ASP623  PHE694  ASN695  SER759  ASP760  ASP761  ALA762  ILE779  LEU786  VAL792 
 PHE793  MET794  SER795  GLU796  ALA797  LYS798  CYS799  TRP800  GLU811  SER814 

> <Gold.Protein.RotatedAtoms>
  150.7729  133.9152  159.3381 H   0  0  0  0  0  0  0  0  0  0  0  0  # atno 6907 bound_to 6896
  151.7034  135.0924  160.0264 H   0  0  0  0  0  0  0  0  0  0  0  0  # atno 6908 bound_to 6896
  152.3753  133.6435  159.6154 H   0  0  0  0  0  0  0  0  0  0  0  0  # atno 6909 bound_to 6896
  144.7425  140.3535  143.6111 H   0  0  0  0  0  0  0  0  0  0  0  0  # atno 7974 bound_to 7965
  155.8473  140.3459  155.5670 H   0  0  0  0  0  0  0  0  0  0  0  0  # atno 8008 bound_to 7997
  155.8076  140.0894  157.1942 H   0  0  0  0  0  0  0  0  0  0  0  0  # atno 8009 bound_to 7997
  154.4006  140.1454  156.3335 H   0  0  0  0  0  0  0  0  0  0  0  0  # atno 8010 bound_to 7997
  140.4960  144.0391  150.6314 H   0  0  0  0  0  0  0  0  0  0  0  0  # atno 10167 bound_to 10162
  157.4712  130.8257  149.7990 H   0  0  0  0  0  0  0  0  0  0  0  0  # atno 10718 bound_to 10713
  153.6889  135.6963  153.5096 H   0  0  0  0  0  0  0  0  0  0  0  0  # atno 10763 bound_to 10752
  153.2428  135.4300  155.0715 H   0  0  0  0  0  0  0  0  0  0  0  0  # atno 10764 bound_to 10752
  154.8378  135.3512  154.6431 H   0  0  0  0  0  0  0  0  0  0  0  0  # atno 10765 bound_to 10752
  140.1906  134.8410  157.2907 H   0  0  0  0  0  0  0  0  0  0  0  0  # atno 11005 bound_to 11000
  145.7252  139.1720  143.2462 LP  0  0  0  0  0  0  0  0  0  0  0  0  # atno 17320 bound_to 7965
  146.1247  140.7263  142.9440 LP  0  0  0  0  0  0  0  0  0  0  0  0  # atno 17321 bound_to 7965
  140.3674  143.2874  152.0317 LP  0  0  0  0  0  0  0  0  0  0  0  0  # atno 17342 bound_to 10162
  139.4861  144.6257  151.7170 LP  0  0  0  0  0  0  0  0  0  0  0  0  # atno 17343 bound_to 10162
  156.0074  130.3849  150.2381 LP  0  0  0  0  0  0  0  0  0  0  0  0  # atno 17370 bound_to 10713
  157.0564  131.0077  151.3237 LP  0  0  0  0  0  0  0  0  0  0  0  0  # atno 17371 bound_to 10713
  140.2164  134.4076  155.7587 LP  0  0  0  0  0  0  0  0  0  0  0  0  # atno 17394 bound_to 11000
  141.2226  133.7144  156.8421 LP  0  0  0  0  0  0  0  0  0  0  0  0  # atno 17395 bound_to 11000

$$$$
