#       Name:                AV-unprocessed.smi:2405
#       Creating user name   scv26
#       Creation time:       Fri Mar 27 13:14:32 2020


#       File generated by GOLD software.
#

@<TRIPOS>MOLECULE
AV-unprocessed.smi:2405
    43    44     1
SMALL
NO_CHARGES


@<TRIPOS>ATOM
      1 ****        -4.4152   1.0842   3.1070 C.3            1 S1                 0.0000
      2 ****        -4.0116   0.6243   1.7021 C.3            1 S1                 0.0000
      3 ****        -3.0232  -0.4931   1.7268 C.2            1 S1                 0.0000
      4 ****        -1.7021  -0.3058   1.7788 N.2            1 S1                 0.0000
      5 ****        -0.9873  -1.5075   1.8176 C.2            1 S1                 0.0000
      6 ****         0.5130  -1.4864   1.8595 C.3            1 S1                 0.0000
      7 ****         1.0822  -1.6911   0.4552 C.2            1 S1                 0.0000
      8 ****         1.5236  -2.7915   0.1232 O.2            1 S1                 0.0000
      9 ****         1.0687  -0.6230  -0.3561 N.am           1 S1                 0.0000
     10 ****         1.5643  -0.5977  -1.7283 C.3            1 S1                 0.0000
     11 ****         3.0939  -0.4020  -1.7778 C.3            1 S1                 0.0000
     12 ****         3.3421   0.7861  -2.7142 C.3            1 S1                 0.0000
     13 ****         2.0741   1.6469  -2.6195 C.3            1 S1                 0.0000
     14 ****         2.1486   2.6148  -1.4186 C.2            1 S1                 0.0000
     15 ****         3.0720   3.4579  -1.4384 O.co2          1 S1                 0.0000
     16 ****         1.2928   2.5196  -0.5104 O.co2          1 S1                -1.0000
     17 ****         0.9583   0.5916  -2.4976 C.3            1 S1                 0.0000
     18 ****        -1.7969  -2.6169   1.8187 C.2            1 S1                 0.0000
     19 ****        -3.4849  -2.1907   1.7601 S.3            1 S1                 0.0000
     20 ****        -5.1372   1.8994   3.0564 H              1 S1                 0.0000
     21 ****        -3.5503   1.4394   3.6677 H              1 S1                 0.0000
     22 ****        -4.8700   0.2700   3.6716 H              1 S1                 0.0000
     23 ****        -4.8934   0.2979   1.1503 H              1 S1                 0.0000
     24 ****        -3.5858   1.4595   1.1448 H              1 S1                 0.0000
     25 ****         0.8814  -0.5425   2.2640 H              1 S1                 0.0000
     26 ****         0.8883  -2.2702   2.5184 H              1 S1                 0.0000
     27 ****         0.6962   0.2449   0.0044 H              1 S1                 0.0000
     28 ****         1.2822  -1.5241  -2.2321 H              1 S1                 0.0000
     29 ****         3.4862  -0.1649  -0.7874 H              1 S1                 0.0000
     30 ****         3.6098  -1.2997  -2.1196 H              1 S1                 0.0000
     31 ****         4.2594   1.3204  -2.4622 H              1 S1                 0.0000
     32 ****         3.4551   0.4270  -3.7379 H              1 S1                 0.0000
     33 ****         1.9416   2.2478  -3.5198 H              1 S1                 0.0000
     34 ****         0.6881   0.2604  -3.5010 H              1 S1                 0.0000
     35 ****         0.0363   0.9688  -2.0519 H              1 S1                 0.0000
     36 ****        -1.5016  -3.6553   1.8477 H              1 S1                 0.0000
     37 ****        -1.2704   0.5962   1.7889 LP             1 S1                 0.0000
     38 ****         1.5101  -3.5522   0.7721 LP             1 S1                 0.0000
     39 ****         1.8957  -2.9245  -0.7955 LP             1 S1                 0.0000
     40 ****         3.1629   4.1176  -0.6924 LP             1 S1                 0.0000
     41 ****         3.7196   3.4724  -2.2003 LP             1 S1                 0.0000
     42 ****         1.3193   3.1454   0.2691 LP             1 S1                 0.0000
     43 ****         0.5825   1.8178  -0.5643 LP             1 S1                 0.0000
@<TRIPOS>BOND
    1    1    2 1     
    2    1   20 1     
    3    1   21 1     
    4    1   22 1     
    5    2    3 1     
    6    2   23 1     
    7    2   24 1     
    8    3   19 1     
    9    3    4 2     
   10    4    5 1     
   11    5    6 1     
   12    5   18 2     
   13    6    7 1     
   14    6   25 1     
   15    6   26 1     
   16    7    8 2     
   17    7    9 am    
   18    9   10 1     
   19    9   27 1     
   20   10   17 1     
   21   10   11 1     
   22   10   28 1     
   23   11   12 1     
   24   11   29 1     
   25   11   30 1     
   26   12   13 1     
   27   12   31 1     
   28   12   32 1     
   29   13   14 1     
   30   13   17 1     
   31   13   33 1     
   32   14   15 ar    
   33   14   16 ar    
   34   17   34 1     
   35   17   35 1     
   36   18   19 1     
   37   18   36 1     
   38    4   37 1     
   39    8   38 1     
   40    8   39 1     
   41   15   40 1     
   42   15   41 1     
   43   16   42 1     
   44   16   43 1     
@<TRIPOS>SUBSTRUCTURE
      1 S1             1
@<TRIPOS>SET
LONE_PAIRS      STATIC     ATOMS    <user>   **** ""
7 37 38 39 40 41 42 43
DONOR_HYDROGENS      STATIC     ATOMS    <user>   **** ""
1 27
ATOM$BLUE        STATIC     ATOMS    COLORGROUP SYSTEM
7 37 38 39 40 41 42 43
ATOM$RED        STATIC     ATOMS    COLORGROUP SYSTEM
1 27
