#       Name:                AV-unprocessed.smi:3350
#       Creating user name   scv26
#       Creation time:       Fri Mar 27 19:38:02 2020


#       File generated by GOLD software.
#

@<TRIPOS>MOLECULE
AV-unprocessed.smi:3350
    46    47     1
SMALL
NO_CHARGES


@<TRIPOS>ATOM
      1 ****        -3.9527  -0.9882   2.0321 C.3            1 S1                 0.0000
      2 ****        -3.0424  -0.4896   0.9017 C.3            1 S1                 0.0000
      3 ****        -3.1979  -1.3559  -0.3673 C.3            1 S1                 0.0000
      4 ****        -2.4855  -0.8158  -1.5120 N.pl3          1 S1                 0.0000
      5 ****        -1.3206  -1.2737  -2.0907 C.2            1 S1                 0.0000
      6 ****        -1.0263  -0.4374  -3.1289 C.2            1 S1                 0.0000
      7 ****        -2.0881   0.5094  -3.1107 C.2            1 S1                 0.0000
      8 ****        -2.9630   0.2770  -2.1456 N.2            1 S1                 0.0000
      9 ****        -1.6571  -0.4964   1.3712 N.am           1 S1                 0.0000
     10 ****        -0.7403   0.4472   1.1120 C.2            1 S1                 0.0000
     11 ****        -0.9601   1.4616   0.4503 O.2            1 S1                 0.0000
     12 ****         0.4514   0.1381   1.6431 N.am           1 S1                 0.0000
     13 ****         1.6735   0.9311   1.5174 C.3            1 S1                 0.0000
     14 ****         2.3573   1.0058   2.8905 C.3            1 S1                 0.0000
     15 ****         2.6049   0.3280   0.4442 C.3            1 S1                 0.0000
     16 ****         1.9902   0.1987  -0.9523 C.3            1 S1                 0.0000
     17 ****         3.2149   0.2251  -1.8357 C.3            1 S1                 0.0000
     18 ****         4.0794   1.2590  -1.1236 C.3            1 S1                 0.0000
     19 ****         3.7551   1.1522   0.2599 O.3            1 S1                 0.0000
     20 ****        -5.0001  -0.9680   1.7290 H              1 S1                 0.0000
     21 ****        -3.8565  -0.3618   2.9195 H              1 S1                 0.0000
     22 ****        -3.7088  -2.0121   2.3176 H              1 S1                 0.0000
     23 ****        -3.3499   0.5321   0.6709 H              1 S1                 0.0000
     24 ****        -2.8449  -2.3715  -0.1829 H              1 S1                 0.0000
     25 ****        -4.2516  -1.4390  -0.6378 H              1 S1                 0.0000
     26 ****        -0.7989  -2.1409  -1.7136 H              1 S1                 0.0000
     27 ****        -0.1804  -0.4923  -3.7978 H              1 S1                 0.0000
     28 ****        -2.2488   1.3526  -3.7661 H              1 S1                 0.0000
     29 ****        -1.3725  -1.2902   1.9259 H              1 S1                 0.0000
     30 ****         0.5248  -0.7208   2.1683 H              1 S1                 0.0000
     31 ****         1.4218   1.9511   1.2212 H              1 S1                 0.0000
     32 ****         3.2554   1.6226   2.8507 H              1 S1                 0.0000
     33 ****         2.6497   0.0166   3.2444 H              1 S1                 0.0000
     34 ****         1.6932   1.4443   3.6360 H              1 S1                 0.0000
     35 ****         2.9555  -0.6549   0.7635 H              1 S1                 0.0000
     36 ****         1.3981  -0.7083  -1.0729 H              1 S1                 0.0000
     37 ****         1.3542   1.0561  -1.1771 H              1 S1                 0.0000
     38 ****         3.7051  -0.7494  -1.8274 H              1 S1                 0.0000
     39 ****         2.9940   0.4914  -2.8696 H              1 S1                 0.0000
     40 ****         5.1442   1.1035  -1.2974 H              1 S1                 0.0000
     41 ****         3.8237   2.2641  -1.4603 H              1 S1                 0.0000
     42 ****        -3.7919   0.7945  -1.9331 LP             1 S1                 0.0000
     43 ****        -1.8701   1.6216   0.0678 LP             1 S1                 0.0000
     44 ****        -0.2287   2.1256   0.2953 LP             1 S1                 0.0000
     45 ****         4.5292   0.7501   0.7488 LP             1 S1                 0.0000
     46 ****         3.5678   2.0641   0.6249 LP             1 S1                 0.0000
@<TRIPOS>BOND
    1    1    2 1     
    2    1   20 1     
    3    1   21 1     
    4    1   22 1     
    5    2    3 1     
    6    2    9 1     
    7    2   23 1     
    8    3    4 1     
    9    3   24 1     
   10    3   25 1     
   11    4    8 1     
   12    4    5 1     
   13    5    6 2     
   14    5   26 1     
   15    6    7 1     
   16    6   27 1     
   17    7    8 2     
   18    7   28 1     
   19    9   10 am    
   20    9   29 1     
   21   10   11 2     
   22   10   12 am    
   23   12   13 1     
   24   12   30 1     
   25   13   14 1     
   26   13   15 1     
   27   13   31 1     
   28   14   32 1     
   29   14   33 1     
   30   14   34 1     
   31   15   19 1     
   32   15   16 1     
   33   15   35 1     
   34   16   17 1     
   35   16   36 1     
   36   16   37 1     
   37   17   18 1     
   38   17   38 1     
   39   17   39 1     
   40   18   19 1     
   41   18   40 1     
   42   18   41 1     
   43    8   42 1     
   44   11   43 1     
   45   11   44 1     
   46   19   45 1     
   47   19   46 1     
@<TRIPOS>SUBSTRUCTURE
      1 S1             1
@<TRIPOS>SET
LONE_PAIRS      STATIC     ATOMS    <user>   **** ""
5 42 43 44 45 46
DONOR_HYDROGENS      STATIC     ATOMS    <user>   **** ""
2 29 30
ATOM$BLUE        STATIC     ATOMS    COLORGROUP SYSTEM
5 42 43 44 45 46
ATOM$RED        STATIC     ATOMS    COLORGROUP SYSTEM
2 29 30
