AV-unprocessed.smi:1051|AV-procd|sdf|4614|dock3
  -GOLD-   22720 3113D 1   1.00000     0.00000
 Structure written by MMmdl.
 45 47  0  0  0  0  0  0  0  0  1 V2000
  155.1410  133.6127  165.7230 C   0  0  0  0  0  0  0  0  0  0  0  0
  155.4399  134.0893  164.3024 C   0  0  0  0  0  0  0  0  0  0  0  0
  155.7191  133.2514  163.4455 O   0  0  0  0  0  0  0  0  0  0  0  0
  155.3752  135.5540  164.0316 C   0  0  0  0  0  0  0  0  0  0  0  0
  154.9360  136.4727  165.0130 C   0  0  0  0  0  0  0  0  0  0  0  0
  154.8871  137.8490  164.7255 C   0  0  0  0  0  0  0  0  0  0  0  0
  155.2739  138.3248  163.4593 C   0  0  0  0  0  0  0  0  0  0  0  0
  155.7162  137.4216  162.4620 C   0  0  0  0  0  0  0  0  0  0  0  0
  156.1116  137.7979  161.1962 O   0  0  0  0  0  0  0  0  0  0  0  0
  155.9365  139.1563  160.8097 C   0  0  0  0  0  0  0  0  0  0  0  0
  154.5865  139.3342  160.0940 C   0  0  2  0  0  0  0  0  0  0  0  0
  154.4619  138.2982  159.1407 O   0  0  0  0  0  0  0  0  0  0  0  0
  154.4359  140.7105  159.4147 C   0  0  0  0  0  0  0  0  0  0  0  0
  153.6892  141.6456  160.2536 N   0  0  0  0  0  0  0  0  0  0  0  0
  153.8688  141.8596  161.5784 C   0  0  0  0  0  0  0  0  0  0  0  0
  154.6968  141.2973  162.2948 O   0  0  0  0  0  0  0  0  0  0  0  0
  152.9905  142.8114  161.9720 N   0  0  0  0  0  0  0  0  0  0  0  0
  152.8331  143.3597  163.3136 C   0  0  0  0  0  0  0  0  0  0  0  0
  152.2449  143.2349  160.8647 C   0  0  0  0  0  0  0  0  0  0  0  0
  151.2330  144.2033  160.7496 C   0  0  0  0  0  0  0  0  0  0  0  0
  150.6750  144.4042  159.4651 C   0  0  0  0  0  0  0  0  0  0  0  0
  151.1295  143.6537  158.3494 C   0  0  0  0  0  0  0  0  0  0  0  0
  152.1505  142.6851  158.4942 C   0  0  0  0  0  0  0  0  0  0  0  0
  152.6849  142.5034  159.7818 C   0  0  0  0  0  0  0  0  0  0  0  0
  155.7622  136.0447  162.7630 C   0  0  0  0  0  0  0  0  0  0  0  0
  155.8527  134.0426  166.4279 H   0  0  0  0  0  0  0  0  0  0  0  0
  155.2148  132.5266  165.7845 H   0  0  0  0  0  0  0  0  0  0  0  0
  154.1328  133.9027  166.0193 H   0  0  0  0  0  0  0  0  0  0  0  0
  154.6309  136.1445  165.9953 H   0  0  0  0  0  0  0  0  0  0  0  0
  154.5504  138.5438  165.4808 H   0  0  0  0  0  0  0  0  0  0  0  0
  155.2218  139.3875  163.2791 H   0  0  0  0  0  0  0  0  0  0  0  0
  156.0008  139.8237  161.6712 H   0  0  0  0  0  0  0  0  0  0  0  0
  156.7351  139.4315  160.1187 H   0  0  0  0  0  0  0  0  0  0  0  0
  153.7968  139.1947  160.8338 H   0  0  0  0  0  0  0  0  0  0  0  0
  153.9242  137.6131  159.5082 H   0  0  0  0  0  0  0  0  0  0  0  0
  155.4211  141.1424  159.2352 H   0  0  0  0  0  0  0  0  0  0  0  0
  153.9752  140.6148  158.4298 H   0  0  0  0  0  0  0  0  0  0  0  0
  151.7840  143.3399  163.6098 H   0  0  0  0  0  0  0  0  0  0  0  0
  153.1773  144.3942  163.3397 H   0  0  0  0  0  0  0  0  0  0  0  0
  153.3994  142.7948  164.0554 H   0  0  0  0  0  0  0  0  0  0  0  0
  150.8952  144.7725  161.6029 H   0  0  0  0  0  0  0  0  0  0  0  0
  149.8946  145.1389  159.3319 H   0  0  0  0  0  0  0  0  0  0  0  0
  150.6910  143.8250  157.3771 H   0  0  0  0  0  0  0  0  0  0  0  0
  152.5024  142.1137  157.6481 H   0  0  0  0  0  0  0  0  0  0  0  0
  156.1009  135.3621  161.9967 H   0  0  0  0  0  0  0  0  0  0  0  0
  1  2  1  0  0  0  0
  1 26  1  0  0  0  0
  1 27  1  0  0  0  0
  1 28  1  0  0  0  0
  2  3  2  0  0  0  0
  2  4  1  0  0  0  0
  4 25  1  0  0  0  0
  4  5  2  0  0  0  0
  5  6  1  0  0  0  0
  5 29  1  0  0  0  0
  6  7  2  0  0  0  0
  6 30  1  0  0  0  0
  7  8  1  0  0  0  0
  7 31  1  0  0  0  0
  8  9  1  0  0  0  0
  8 25  2  0  0  0  0
  9 10  1  0  0  0  0
 10 11  1  0  0  0  0
 10 32  1  0  0  0  0
 10 33  1  0  0  0  0
 11 12  1  0  0  0  0
 11 13  1  0  0  0  0
 11 34  1  0  0  0  0
 12 35  1  0  0  0  0
 13 14  1  0  0  0  0
 13 36  1  0  0  0  0
 13 37  1  0  0  0  0
 14 24  1  0  0  0  0
 14 15  1  0  0  0  0
 15 16  2  0  0  0  0
 15 17  1  0  0  0  0
 17 18  1  0  0  0  0
 17 19  1  0  0  0  0
 18 38  1  0  0  0  0
 18 39  1  0  0  0  0
 18 40  1  0  0  0  0
 19 24  2  0  0  0  0
 19 20  1  0  0  0  0
 20 21  2  0  0  0  0
 20 41  1  0  0  0  0
 21 22  1  0  0  0  0
 21 42  1  0  0  0  0
 22 23  2  0  0  0  0
 22 43  1  0  0  0  0
 23 24  1  0  0  0  0
 23 44  1  0  0  0  0
 25 45  1  0  0  0  0
M  END
> <s_m_source_file>
AV-unprocessed.smi

> <i_m_source_file_index>
1051

> <i_lp_mmshare_version>
43012

> <i_f3d_flags>
0

> <s_epik_input>
W0NIM11DKD1PKWMxW2NIXVtjSF1bY0hdYyhbY0hdMSlPW0NIMl1bQ0BIXShbT0hdKVtDSDJdbihjKD1PKW4yW0NIM10pYyhjMjMpW2NIXVtjSF1bY0hdW2NIXTM=

> <s_epik_cmdline>
J2VwaWtfcHl0aG9uJywgJy1waCcsICc3LjAnLCAnLXRuJywgJzgnLCAnLW1hJywgJzIwMCcsICctbWV0YWxfYmluZGluZycsICctaW1hZScsICc8aW5maWxlLm1hZT4nLCAnLW9tYWUnLCAnPG91dGZpbGUubWFlPic=

> <r_lp_tautomer_probability>
1

> <r_epik_Ionization_Penalty>
2.40143e-06

> <r_epik_Ionization_Penalty_Charging>
2.1343e-09

> <r_epik_Ionization_Penalty_Neutral>
2.3993e-06

> <r_epik_State_Penalty>
-0

> <r_epik_Charging_Adjusted_Penalty>
2.1343e-09

> <i_epik_Tot_Q>
0

> <i_epik_Tot_abs_Q>
0

> <r_epik_Metal_State_Penalty>
-0

> <b_epik_Metal_Only>
0

> <s_lp_Force_Field>
OPLS_2005

> <r_lp_Energy>
56.3875

> <b_lp_Chiralities_Consistent>
1

> <s_lp_Variant>
AV-unprocessed.smi:1051-1

> <Gold.Version>
5.8.1

> <Gold.Id.Protein>
6NUR|6NUR_protein|mol2

> <Gold.PLP.Fitness>
56.0488

> <Gold.PLP.PLP>
-55.1869

> <Gold.PLP.part.hbond>
-2.0000

> <Gold.PLP.part.metal>
0.0000

> <Gold.PLP.part.buried>
-0.0094

> <Gold.PLP.part.nonpolar>
-51.1218

> <Gold.PLP.part.repulsive>
0.0000

> <Gold.PLP.ligand.clash>
0.0000

> <Gold.PLP.ligand.torsion>
1.0725

> <Gold.PLP.Chemscore.Hbond>
0.9913

> <Gold.PLP.Chemscore.CHOScore>
0.0000

> <Gold.PLP.Chemscore.Metal>
0.0000

> <Gold.PLP.Chemscore.Internal.Correction>
0.0333

> <Gold.Rescore>
     Score         DG    S(hbond)    S(metal)    S(lipo)     H(rot)  DE(clash)    DE(int)     intcor
     16.72     -20.54       0.92        0.00     152.60       2.30       2.86       0.95       ----

> <Gold.Chemscore.Fitness>
16.7215

> <Gold.Chemscore.DG>
-20.5397

> <Gold.Chemscore.ZeroCoef>
-5.4800

> <Gold.Chemscore.Hbond>
0.9248

> <Gold.Chemscore.Metal>
0.0000

> <Gold.Chemscore.Lipo>
152.6035

> <Gold.Chemscore.Internal_Hbond>
0.0000

> <Gold.Chemscore.DEClash>
2.8637

> <Gold.Chemscore.DEInternal>
0.9545

> <Gold.Chemscore.Rot>
2.2984

> <Gold.Chemscore.Internal.Correction>
   9.000000E+99

> <Gold.Chemscore.Hbond.Weighted>
-3.0890

> <Gold.Chemscore.Metal.Weighted>
-0.0000

> <Gold.Chemscore.Lipo.Weighted>
-17.8546

> <Gold.Chemscore.Internal_Hbond.Weighted>
0.0000

> <Gold.Chemscore.DEClash.Weighted>
2.8637

> <Gold.Chemscore.DEInternal.Weighted>
0.9545

> <Gold.Chemscore.Rot.Weighted>
5.8839

> <Gold.Chemscore.Internal.Correction.Weighted>
   9.000000E+99

> <Gold.Protein.RotatedTorsions>
[ 6907 6896 6895 6894 ] final   62.17 input  -60.11 | X-H torsion
[ 7974 7965 7964 7962 ] final  -12.58 input  175.53 | X-H torsion
[ 8008 7997 7996 7995 ] final -130.58 input   59.86 | X-H torsion
[ 10167 10162 10161 10158 ] final  107.23 input  -65.29 | X-H torsion
[ 10718 10713 10712 10709 ] final -108.37 input   66.30 | X-H torsion
[ 10763 10752 10751 10750 ] final -149.19 input  -60.55 | X-H torsion
[ 11005 11000 10999 10996 ] final   47.91 input  -57.11 | X-H torsion

> <Gold.Protein.ActiveResidues>
 VAL166  LYS551  ARG553  GLY616  TRP617  ASP618  TYR619  PRO620  LYS621  CYS622 
 ASP623  PHE694  ASN695  SER759  ASP760  ASP761  ALA762  ILE779  LEU786  VAL792 
 PHE793  MET794  SER795  GLU796  ALA797  LYS798  CYS799  TRP800  GLU811  SER814 

> <Gold.Protein.RotatedAtoms>
  152.4150  134.6057  160.0011 H   0  0  0  0  0  0  0  0  0  0  0  0  # atno 6907 bound_to 6896
  151.6223  133.3332  159.3098 H   0  0  0  0  0  0  0  0  0  0  0  0  # atno 6908 bound_to 6896
  150.8039  134.7191  159.6692 H   0  0  0  0  0  0  0  0  0  0  0  0  # atno 6909 bound_to 6896
  146.2146  140.3078  142.8380 H   0  0  0  0  0  0  0  0  0  0  0  0  # atno 7974 bound_to 7965
  155.2981  140.0451  157.3027 H   0  0  0  0  0  0  0  0  0  0  0  0  # atno 8008 bound_to 7997
  154.5502  140.2315  155.8464 H   0  0  0  0  0  0  0  0  0  0  0  0  # atno 8009 bound_to 7997
  156.1960  140.3038  155.9435 H   0  0  0  0  0  0  0  0  0  0  0  0  # atno 8010 bound_to 7997
  139.6944  144.7103  151.1293 H   0  0  0  0  0  0  0  0  0  0  0  0  # atno 10167 bound_to 10162
  156.0482  130.5710  150.7952 H   0  0  0  0  0  0  0  0  0  0  0  0  # atno 10718 bound_to 10713
  154.8191  135.3315  154.7090 H   0  0  0  0  0  0  0  0  0  0  0  0  # atno 10763 bound_to 10752
  153.7726  135.6924  153.4908 H   0  0  0  0  0  0  0  0  0  0  0  0  # atno 10764 bound_to 10752
  153.2034  135.4508  155.0243 H   0  0  0  0  0  0  0  0  0  0  0  0  # atno 10765 bound_to 10752
  140.1237  134.4795  155.8576 H   0  0  0  0  0  0  0  0  0  0  0  0  # atno 11005 bound_to 11000
  144.9010  140.7642  143.5867 LP  0  0  0  0  0  0  0  0  0  0  0  0  # atno 17320 bound_to 7965
  145.3004  139.1852  143.4692 LP  0  0  0  0  0  0  0  0  0  0  0  0  # atno 17321 bound_to 7965
  140.7692  143.5513  150.9201 LP  0  0  0  0  0  0  0  0  0  0  0  0  # atno 17342 bound_to 10162
  139.9192  143.6627  152.3100 LP  0  0  0  0  0  0  0  0  0  0  0  0  # atno 17343 bound_to 10162
  157.5381  131.0939  150.9864 LP  0  0  0  0  0  0  0  0  0  0  0  0  # atno 17370 bound_to 10713
  157.0154  130.5653  149.5325 LP  0  0  0  0  0  0  0  0  0  0  0  0  # atno 17371 bound_to 10713
  141.2157  133.6770  156.6938 LP  0  0  0  0  0  0  0  0  0  0  0  0  # atno 17394 bound_to 11000
  140.2931  134.8224  157.4034 LP  0  0  0  0  0  0  0  0  0  0  0  0  # atno 17395 bound_to 11000

$$$$
