#       Name:                AV-unprocessed.smi:232
#       Creating user name   scv26
#       Creation time:       Thu Mar 26 20:30:31 2020


#       File generated by GOLD software.
#

@<TRIPOS>MOLECULE
AV-unprocessed.smi:232
    60    63     1
SMALL
NO_CHARGES


@<TRIPOS>ATOM
      1 ****        -3.8204  -0.7957  -2.9456 C.3            1 S1                 0.0000
      2 ****        -3.2634  -0.4440  -1.5607 C.3            1 S1                 0.0000
      3 ****        -3.6498   0.9761  -1.0946 C.3            1 S1                 0.0000
      4 ****        -5.1609   1.1788  -0.9066 C.3            1 S1                 0.0000
      5 ****        -5.2846   2.1832   0.2456 C.3            1 S1                 0.0000
      6 ****        -3.8374   2.5010   0.6374 C.3            1 S1                 0.0000
      7 ****        -3.6589   2.8041   2.1339 C.3            1 S1                 0.0000
      8 ****        -3.0712   1.3417   0.1935 N.3            1 S1                 0.0000
      9 ****        -1.7235   1.4744   0.1921 C.ar           1 S1                 0.0000
     10 ****        -1.1340   2.5484  -0.3981 N.ar           1 S1                 0.0000
     11 ****         0.1984   2.6555  -0.4107 C.ar           1 S1                 0.0000
     12 ****         1.1090   1.8185   0.0927 N.ar           1 S1                 0.0000
     13 ****         0.5165   0.7401   0.6817 C.ar           1 S1                 0.0000
     14 ****        -0.8808   0.4937   0.7767 C.ar           1 S1                 0.0000
     15 ****        -1.1119  -0.7039   1.4415 N.2            1 S1                 0.0000
     16 ****         0.0848  -1.1448   1.7210 C.2            1 S1                 0.0000
     17 ****         1.1195  -0.3408   1.2981 N.pl3          1 S1                 0.0000
     18 ****         2.5401  -0.5884   1.4646 C.3            1 S1                 0.0000
     19 ****         3.1959  -1.1113   0.1718 C.3            1 S1                 0.0000
     20 ****         2.5815  -2.3164  -0.2452 O.3            1 S1                 0.0000
     21 ****         4.7213  -1.2935   0.3056 C.3            1 S1                 0.0000
     22 ****         5.4497  -1.8642  -0.9145 C.3            1 S1                 0.0000
     23 ****         6.6919  -2.4403  -0.2731 C.3            1 S1                 0.0000
     24 ****         6.1354  -2.9997   1.0337 C.3            1 S1                 0.0000
     25 ****         5.0664  -2.1336   1.4047 O.3            1 S1                 0.0000
     26 ****        -3.4905  -1.7880  -3.2538 H              1 S1                 0.0000
     27 ****        -3.4796  -0.0838  -3.6979 H              1 S1                 0.0000
     28 ****        -4.9104  -0.7942  -2.9503 H              1 S1                 0.0000
     29 ****        -3.6039  -1.1797  -0.8309 H              1 S1                 0.0000
     30 ****        -2.1780  -0.5383  -1.6023 H              1 S1                 0.0000
     31 ****        -3.2971   1.6956  -1.8357 H              1 S1                 0.0000
     32 ****        -5.6331   1.5378  -1.8215 H              1 S1                 0.0000
     33 ****        -5.6493   0.2442  -0.6270 H              1 S1                 0.0000
     34 ****        -5.8286   3.0829  -0.0433 H              1 S1                 0.0000
     35 ****        -5.8226   1.7227   1.0753 H              1 S1                 0.0000
     36 ****        -3.5221   3.3740   0.0637 H              1 S1                 0.0000
     37 ****        -4.2797   3.6478   2.4358 H              1 S1                 0.0000
     38 ****        -2.6246   3.0580   2.3675 H              1 S1                 0.0000
     39 ****        -3.9381   1.9472   2.7477 H              1 S1                 0.0000
     40 ****         0.5911   3.5368  -0.8959 H              1 S1                 0.0000
     41 ****         0.2476  -2.0778   2.2408 H              1 S1                 0.0000
     42 ****         3.0134   0.3423   1.7795 H              1 S1                 0.0000
     43 ****         2.6763  -1.3002   2.2799 H              1 S1                 0.0000
     44 ****         3.0192  -0.3851  -0.6228 H              1 S1                 0.0000
     45 ****         2.9701  -2.5834  -1.0641 H              1 S1                 0.0000
     46 ****         5.1627  -0.3203   0.5279 H              1 S1                 0.0000
     47 ****         4.8806  -2.6647  -1.3877 H              1 S1                 0.0000
     48 ****         5.6687  -1.1089  -1.6698 H              1 S1                 0.0000
     49 ****         7.1821  -3.1967  -0.8864 H              1 S1                 0.0000
     50 ****         7.4109  -1.6462  -0.0672 H              1 S1                 0.0000
     51 ****         5.7304  -3.9998   0.8747 H              1 S1                 0.0000
     52 ****         6.8907  -3.0604   1.8173 H              1 S1                 0.0000
     53 ****        -3.1556   0.6022   0.8614 LP             1 S1                 0.0000
     54 ****        -1.6969   3.2576  -0.8224 LP             1 S1                 0.0000
     55 ****         2.0973   1.9634   0.0442 LP             1 S1                 0.0000
     56 ****        -1.9909  -1.1296   1.6562 LP             1 S1                 0.0000
     57 ****         1.6002  -2.1693  -0.3696 LP             1 S1                 0.0000
     58 ****         2.7274  -3.0257   0.4445 LP             1 S1                 0.0000
     59 ****         4.2715  -2.6809   1.6666 LP             1 S1                 0.0000
     60 ****         5.3510  -1.5677   2.1785 LP             1 S1                 0.0000
@<TRIPOS>BOND
    1    1    2 1     
    2    1   26 1     
    3    1   27 1     
    4    1   28 1     
    5    2    3 1     
    6    2   29 1     
    7    2   30 1     
    8    3    8 1     
    9    3    4 1     
   10    3   31 1     
   11    4    5 1     
   12    4   32 1     
   13    4   33 1     
   14    5    6 1     
   15    5   34 1     
   16    5   35 1     
   17    6    7 1     
   18    6    8 1     
   19    6   36 1     
   20    7   37 1     
   21    7   38 1     
   22    7   39 1     
   23    8    9 1     
   24    9   14 ar    
   25    9   10 ar    
   26   10   11 ar    
   27   11   12 ar    
   28   11   40 1     
   29   12   13 ar    
   30   13   17 1     
   31   13   14 ar    
   32   14   15 1     
   33   15   16 2     
   34   16   17 1     
   35   16   41 1     
   36   17   18 1     
   37   18   19 1     
   38   18   42 1     
   39   18   43 1     
   40   19   20 1     
   41   19   21 1     
   42   19   44 1     
   43   20   45 1     
   44   21   25 1     
   45   21   22 1     
   46   21   46 1     
   47   22   23 1     
   48   22   47 1     
   49   22   48 1     
   50   23   24 1     
   51   23   49 1     
   52   23   50 1     
   53   24   25 1     
   54   24   51 1     
   55   24   52 1     
   56    8   53 1     
   57   10   54 1     
   58   12   55 1     
   59   15   56 1     
   60   20   57 1     
   61   20   58 1     
   62   25   59 1     
   63   25   60 1     
@<TRIPOS>SUBSTRUCTURE
      1 S1             1
@<TRIPOS>SET
LONE_PAIRS      STATIC     ATOMS    <user>   **** ""
8 53 54 55 56 57 58 59 60
DONOR_HYDROGENS      STATIC     ATOMS    <user>   **** ""
1 45
ATOM$BLUE        STATIC     ATOMS    COLORGROUP SYSTEM
8 53 54 55 56 57 58 59 60
ATOM$RED        STATIC     ATOMS    COLORGROUP SYSTEM
1 45
