AV-unprocessed.smi:2990|AV-procd|sdf|11395|dock5
  -GOLD-   2272016323D 1   1.00000     0.00000
 Structure written by MMmdl.
 40 42  0  0  0  0  0  0  0  0  2 V2000
  147.0399  139.7270  153.4879 C   0  0  0  0  0  0  0  0  0  0  0  0
  146.5284  140.7135  154.4832 C   0  0  0  0  0  0  0  0  0  0  0  0
  145.3384  141.3746  154.4196 N   0  3  0  0  0  0  0  0  0  0  0  0
  145.2047  142.2139  155.5266 C   0  0  0  0  0  0  0  0  0  0  0  0
  144.1772  143.0765  155.8962 C   0  0  0  0  0  0  0  0  0  0  0  0
  144.3531  143.7916  157.0991 C   0  0  0  0  0  0  0  0  0  0  0  0
  145.5142  143.6342  157.8833 C   0  0  0  0  0  0  0  0  0  0  0  0
  146.5502  142.7583  157.4969 C   0  0  0  0  0  0  0  0  0  0  0  0
  146.3701  142.0563  156.3051 C   0  0  0  0  0  0  0  0  0  0  0  0
  147.1589  141.1233  155.6206 N   0  0  0  0  0  0  0  0  0  0  0  0
  148.4689  140.7309  156.1653 C   0  0  0  0  0  0  0  0  0  0  0  0
  149.6483  141.2207  155.3014 C   0  0  2  0  0  0  0  0  0  0  0  0
  149.9070  140.2986  154.2618 O   0  0  0  0  0  0  0  0  0  0  0  0
  150.9372  141.4110  156.1143 C   0  0  0  0  0  0  0  0  0  0  0  0
  151.0164  142.7647  156.5405 O   0  0  0  0  0  0  0  0  0  0  0  0
  151.5262  143.0261  157.7940 C   0  0  0  0  0  0  0  0  0  0  0  0
  151.6219  144.3806  158.1748 C   0  0  0  0  0  0  0  0  0  0  0  0
  152.1344  144.7408  159.4359 C   0  0  0  0  0  0  0  0  0  0  0  0
  152.5594  143.7442  160.3334 C   0  0  0  0  0  0  0  0  0  0  0  0
  152.4684  142.3885  159.9675 C   0  0  0  0  0  0  0  0  0  0  0  0
  151.9545  142.0280  158.7062 C   0  0  0  0  0  0  0  0  0  0  0  0
  146.3086  139.5675  152.6952 H   0  0  0  0  0  0  0  0  0  0  0  0
  147.2393  138.7713  153.9729 H   0  0  0  0  0  0  0  0  0  0  0  0
  147.9645  140.0908  153.0395 H   0  0  0  0  0  0  0  0  0  0  0  0
  143.2859  143.1972  155.2979 H   0  0  0  0  0  0  0  0  0  0  0  0
  143.5813  144.4728  157.4275 H   0  0  0  0  0  0  0  0  0  0  0  0
  145.6127  144.1962  158.8008 H   0  0  0  0  0  0  0  0  0  0  0  0
  147.4325  142.6416  158.1088 H   0  0  0  0  0  0  0  0  0  0  0  0
  148.5390  141.1581  157.1662 H   0  0  0  0  0  0  0  0  0  0  0  0
  148.4967  139.6494  156.2992 H   0  0  0  0  0  0  0  0  0  0  0  0
  149.3854  142.1704  154.8338 H   0  0  0  0  0  0  0  0  0  0  0  0
  149.0887  140.0861  153.8393 H   0  0  0  0  0  0  0  0  0  0  0  0
  150.9455  140.7348  156.9711 H   0  0  0  0  0  0  0  0  0  0  0  0
  151.8003  141.1771  155.4882 H   0  0  0  0  0  0  0  0  0  0  0  0
  151.2984  145.1524  157.4920 H   0  0  0  0  0  0  0  0  0  0  0  0
  152.2017  145.7822  159.7136 H   0  0  0  0  0  0  0  0  0  0  0  0
  152.9545  144.0192  161.3002 H   0  0  0  0  0  0  0  0  0  0  0  0
  152.7944  141.6226  160.6557 H   0  0  0  0  0  0  0  0  0  0  0  0
  151.9015  140.9779  158.4625 H   0  0  0  0  0  0  0  0  0  0  0  0
  144.6671  141.2580  153.6715 H   0  0  0  0  0  0  0  0  0  0  0  0
  1  2  1  0  0  0  0
  1 22  1  0  0  0  0
  1 23  1  0  0  0  0
  1 24  1  0  0  0  0
  2 10  1  0  0  0  0
  2  3  2  0  0  0  0
  3  4  1  0  0  0  0
  3 40  1  0  0  0  0
  4  9  2  0  0  0  0
  4  5  1  0  0  0  0
  5  6  2  0  0  0  0
  5 25  1  0  0  0  0
  6  7  1  0  0  0  0
  6 26  1  0  0  0  0
  7  8  2  0  0  0  0
  7 27  1  0  0  0  0
  8  9  1  0  0  0  0
  8 28  1  0  0  0  0
  9 10  1  0  0  0  0
 10 11  1  0  0  0  0
 11 12  1  0  0  0  0
 11 29  1  0  0  0  0
 11 30  1  0  0  0  0
 12 13  1  0  0  0  0
 12 14  1  0  0  0  0
 12 31  1  0  0  0  0
 13 32  1  0  0  0  0
 14 15  1  0  0  0  0
 14 33  1  0  0  0  0
 14 34  1  0  0  0  0
 15 16  1  0  0  0  0
 16 21  1  0  0  0  0
 16 17  2  0  0  0  0
 17 18  1  0  0  0  0
 17 35  1  0  0  0  0
 18 19  2  0  0  0  0
 18 36  1  0  0  0  0
 19 20  1  0  0  0  0
 19 37  1  0  0  0  0
 20 21  2  0  0  0  0
 20 38  1  0  0  0  0
 21 39  1  0  0  0  0
M  CHG  1   3   1
M  END
> <s_m_source_file>
AV-unprocessed.smi

> <i_m_source_file_index>
2990

> <i_lp_mmshare_version>
43012

> <i_f3d_flags>
0

> <s_epik_input>
W2NIXTFbY0hdW2NIXVtjSF1jKGMxMiluKGMobjIpW0NIM10pW0NIMl1bQ0BIXShbT0hdKVtDSDJdT2MzW2NIXVtjSF1bY0hdW2NIXVtjSF0z

> <s_epik_cmdline>
J2VwaWtfcHl0aG9uJywgJy1waCcsICc3LjAnLCAnLXRuJywgJzgnLCAnLW1hJywgJzIwMCcsICctbWV0YWxfYmluZGluZycsICctaW1hZScsICc8aW5maWxlLm1hZT4nLCAnLW9tYWUnLCAnPG91dGZpbGUubWFlPic=

> <r_lp_tautomer_probability>
1

> <r_epik_Ionization_Penalty>
1.00673

> <r_epik_Ionization_Penalty_Charging>
1.00673

> <r_epik_Ionization_Penalty_Neutral>
2.3993e-06

> <r_epik_State_Penalty>
1.05579

> <r_epik_Charging_Adjusted_Penalty>
2.06252

> <i_epik_Tot_Q>
1

> <i_epik_Tot_abs_Q>
1

> <r_epik_Metal_State_Penalty>
5.03947

> <b_epik_Metal_Only>
0

> <s_lp_Force_Field>
OPLS_2005

> <r_lp_Energy>
19.3411

> <b_lp_Chiralities_Consistent>
1

> <s_lp_Variant>
AV-unprocessed.smi:2990-3

> <Gold.Version>
5.8.1

> <Gold.Id.Protein>
6NUR|6NUR_protein|mol2

> <Gold.PLP.Fitness>
47.1598

> <Gold.PLP.PLP>
-40.7996

> <Gold.PLP.part.hbond>
-2.9056

> <Gold.PLP.part.metal>
0.0000

> <Gold.PLP.part.buried>
-6.4470

> <Gold.PLP.part.nonpolar>
-33.0745

> <Gold.PLP.part.repulsive>
0.8053

> <Gold.PLP.ligand.clash>
0.0000

> <Gold.PLP.ligand.torsion>
1.0825

> <Gold.PLP.Chemscore.Hbond>
2.8160

> <Gold.PLP.Chemscore.CHOScore>
0.0000

> <Gold.PLP.Chemscore.Metal>
0.0000

> <Gold.Chemscore.Hbonds>
donor molecule, donor type, donor heavy atom, donor atom, acceptor molecule, acceptor atom, score
      L1  H     3    40       P1 10175  2.00
      P1  H  7989  7998       L1    13  0.86

> <Gold.PLP.Chemscore.Internal.Correction>
0.0773

> <Gold.Rescore>
     Score         DG    S(hbond)    S(metal)    S(lipo)     H(rot)  DE(clash)    DE(int)     intcor
     16.84     -18.95       1.78        0.00     110.67       2.12       0.94       1.17       ----

> <Gold.Chemscore.Fitness>
16.8421

> <Gold.Chemscore.DG>
-18.9514

> <Gold.Chemscore.ZeroCoef>
-5.4800

> <Gold.Chemscore.Hbond>
1.7803

> <Gold.Chemscore.Metal>
0.0000

> <Gold.Chemscore.Lipo>
110.6701

> <Gold.Chemscore.Internal_Hbond>
0.0000

> <Gold.Chemscore.DEClash>
0.9443

> <Gold.Chemscore.DEInternal>
1.1651

> <Gold.Chemscore.Rot>
2.1184

> <Gold.Chemscore.Internal.Correction>
   9.000000E+99

> <Gold.Chemscore.Hbonds>
donor molecule, donor type, donor heavy atom, donor atom, acceptor molecule, acceptor atom, score
      L1  H     3    40       P1 10175  0.35
      P1  H  7989  7998       L1    13  0.42

> <Gold.Chemscore.Hbond.Weighted>
-5.9461

> <Gold.Chemscore.Metal.Weighted>
-0.0000

> <Gold.Chemscore.Lipo.Weighted>
-12.9484

> <Gold.Chemscore.Internal_Hbond.Weighted>
0.0000

> <Gold.Chemscore.DEClash.Weighted>
0.9443

> <Gold.Chemscore.DEInternal.Weighted>
1.1651

> <Gold.Chemscore.Rot.Weighted>
5.4231

> <Gold.Chemscore.Internal.Correction.Weighted>
   9.000000E+99

> <Gold.Protein.RotatedTorsions>
[ 6907 6896 6895 6894 ] final -140.42 input  -60.11 | X-H torsion
[ 7974 7965 7964 7962 ] final   47.66 input  175.53 | X-H torsion
[ 8008 7997 7996 7995 ] final -109.46 input   59.86 | X-H torsion
[ 10167 10162 10161 10158 ] final  -23.35 input  -65.29 | X-H torsion
[ 10718 10713 10712 10709 ] final  147.77 input   66.30 | X-H torsion
[ 10763 10752 10751 10750 ] final   51.92 input  -60.55 | X-H torsion
[ 11005 11000 10999 10996 ] final  -14.20 input  -57.11 | X-H torsion

> <Gold.Protein.ActiveResidues>
 VAL166  LYS551  ARG553  GLY616  TRP617  ASP618  TYR619  PRO620  LYS621  CYS622 
 ASP623  PHE694  ASN695  SER759  ASP760  ASP761  ALA762  ILE779  LEU786  VAL792 
 PHE793  MET794  SER795  GLU796  ALA797  LYS798  CYS799  TRP800  GLU811  SER814 

> <Gold.Protein.RotatedAtoms>
  151.0605  133.5548  159.2634 H   0  0  0  0  0  0  0  0  0  0  0  0  # atno 6907 bound_to 6896
  151.2526  135.0626  159.9077 H   0  0  0  0  0  0  0  0  0  0  0  0  # atno 6908 bound_to 6896
  152.5397  134.0363  159.8101 H   0  0  0  0  0  0  0  0  0  0  0  0  # atno 6909 bound_to 6896
  146.0277  139.4726  142.9857 H   0  0  0  0  0  0  0  0  0  0  0  0  # atno 7974 bound_to 7965
  154.9598  140.0399  157.2184 H   0  0  0  0  0  0  0  0  0  0  0  0  # atno 8008 bound_to 7997
  154.7900  140.2834  155.5976 H   0  0  0  0  0  0  0  0  0  0  0  0  # atno 8009 bound_to 7997
  156.2948  140.2575  156.2745 H   0  0  0  0  0  0  0  0  0  0  0  0  # atno 8010 bound_to 7997
  140.7288  143.4451  151.0599 H   0  0  0  0  0  0  0  0  0  0  0  0  # atno 10167 bound_to 10162
  157.3168  131.0897  151.1272 H   0  0  0  0  0  0  0  0  0  0  0  0  # atno 10718 bound_to 10713
  152.9787  135.5830  154.4494 H   0  0  0  0  0  0  0  0  0  0  0  0  # atno 10763 bound_to 10752
  154.4085  135.2769  155.2054 H   0  0  0  0  0  0  0  0  0  0  0  0  # atno 10764 bound_to 10752
  154.3854  135.6137  153.5868 H   0  0  0  0  0  0  0  0  0  0  0  0  # atno 10765 bound_to 10752
  140.7839  133.8341  155.9317 H   0  0  0  0  0  0  0  0  0  0  0  0  # atno 11005 bound_to 11000
  145.7092  141.0112  143.1463 LP  0  0  0  0  0  0  0  0  0  0  0  0  # atno 17320 bound_to 7965
  144.7016  139.8736  143.7442 LP  0  0  0  0  0  0  0  0  0  0  0  0  # atno 17321 bound_to 7965
  139.8122  143.7935  152.3172 LP  0  0  0  0  0  0  0  0  0  0  0  0  # atno 17342 bound_to 10162
  139.7989  144.7382  150.9852 LP  0  0  0  0  0  0  0  0  0  0  0  0  # atno 17343 bound_to 10162
  157.2573  130.6642  149.5958 LP  0  0  0  0  0  0  0  0  0  0  0  0  # atno 17370 bound_to 10713
  155.9682  130.4519  150.5755 LP  0  0  0  0  0  0  0  0  0  0  0  0  # atno 17371 bound_to 10713
  140.9455  134.1845  157.4766 LP  0  0  0  0  0  0  0  0  0  0  0  0  # atno 17394 bound_to 11000
  139.8739  134.9889  156.5432 LP  0  0  0  0  0  0  0  0  0  0  0  0  # atno 17395 bound_to 11000

$$$$
