AV-unprocessed.smi:1669|AV-procd|sdf|6691|dock9
  -GOLD-   22720 7423D 1   1.00000     0.00000
 Structure written by MMmdl.
 49 51  0  0  0  0  0  0  0  0  3 V2000
  146.5168  142.9180  153.6879 C   0  0  0  0  0  0  0  0  0  0  0  0
  147.0512  142.4416  154.9858 N   0  3  1  0  0  0  0  0  0  0  0  0
  145.9517  142.0310  155.8980 C   0  0  0  0  0  0  0  0  0  0  0  0
  145.1038  143.2022  156.3661 C   0  0  0  0  0  0  0  0  0  0  0  0
  145.1245  143.5995  157.7208 C   0  0  0  0  0  0  0  0  0  0  0  0
  144.3466  144.6922  158.1499 C   0  0  0  0  0  0  0  0  0  0  0  0
  143.5416  145.3888  157.2280 C   0  0  0  0  0  0  0  0  0  0  0  0
  143.5144  144.9923  155.8768 C   0  0  0  0  0  0  0  0  0  0  0  0
  144.2937  143.9008  155.4464 C   0  0  0  0  0  0  0  0  0  0  0  0
  148.1061  141.4002  154.8393 C   0  0  0  0  0  0  0  0  0  0  0  0
  148.9960  141.2195  156.0900 C   0  0  1  0  0  0  0  0  0  0  0  0
  149.1026  139.8439  156.3968 O   0  0  0  0  0  0  0  0  0  0  0  0
  150.4336  141.7511  155.9052 C   0  0  0  0  0  0  0  0  0  0  0  0
  151.3739  141.2811  156.9365 N   0  0  0  0  0  0  0  0  0  0  0  0
  152.0882  140.1202  157.0060 C   0  0  0  0  0  0  0  0  0  0  0  0
  152.0851  139.0028  156.0157 C   0  0  0  0  0  0  0  0  0  0  0  0
  153.3628  138.7721  155.4656 O   0  0  0  0  0  0  0  0  0  0  0  0
  152.8291  140.1688  158.1485 N   0  3  0  0  0  0  0  0  0  0  0  0
  152.5918  141.3708  158.8159 C   0  0  0  0  0  0  0  0  0  0  0  0
  153.1110  141.8672  160.0076 C   0  0  0  0  0  0  0  0  0  0  0  0
  152.6587  143.1395  160.4141 C   0  0  0  0  0  0  0  0  0  0  0  0
  151.7276  143.8672  159.6454 C   0  0  0  0  0  0  0  0  0  0  0  0
  151.2098  143.3545  158.4379 C   0  0  0  0  0  0  0  0  0  0  0  0
  151.6603  142.0940  158.0422 C   0  0  0  0  0  0  0  0  0  0  0  0
  146.0777  142.0962  153.1208 H   0  0  0  0  0  0  0  0  0  0  0  0
  147.2922  143.3809  153.0789 H   0  0  0  0  0  0  0  0  0  0  0  0
  145.7457  143.6737  153.8410 H   0  0  0  0  0  0  0  0  0  0  0  0
  145.2906  141.3303  155.3857 H   0  0  0  0  0  0  0  0  0  0  0  0
  146.3629  141.4971  156.7563 H   0  0  0  0  0  0  0  0  0  0  0  0
  145.7416  143.0723  158.4340 H   0  0  0  0  0  0  0  0  0  0  0  0
  144.3665  144.9962  159.1862 H   0  0  0  0  0  0  0  0  0  0  0  0
  142.9440  146.2264  157.5572 H   0  0  0  0  0  0  0  0  0  0  0  0
  142.8957  145.5263  155.1705 H   0  0  0  0  0  0  0  0  0  0  0  0
  144.2694  143.6039  154.4078 H   0  0  0  0  0  0  0  0  0  0  0  0
  147.6455  140.4362  154.6294 H   0  0  0  0  0  0  0  0  0  0  0  0
  148.7146  141.6470  153.9683 H   0  0  0  0  0  0  0  0  0  0  0  0
  148.5536  141.7276  156.9457 H   0  0  0  0  0  0  0  0  0  0  0  0
  148.8106  139.3381  155.6540 H   0  0  0  0  0  0  0  0  0  0  0  0
  150.8264  141.4311  154.9391 H   0  0  0  0  0  0  0  0  0  0  0  0
  150.4476  142.8410  155.8830 H   0  0  0  0  0  0  0  0  0  0  0  0
  151.7368  138.0897  156.4989 H   0  0  0  0  0  0  0  0  0  0  0  0
  151.3842  139.2275  155.2120 H   0  0  0  0  0  0  0  0  0  0  0  0
  153.2591  138.4426  154.5857 H   0  0  0  0  0  0  0  0  0  0  0  0
  153.8273  141.3130  160.5968 H   0  0  0  0  0  0  0  0  0  0  0  0
  153.0349  143.5665  161.3328 H   0  0  0  0  0  0  0  0  0  0  0  0
  151.4059  144.8406  159.9878 H   0  0  0  0  0  0  0  0  0  0  0  0
  150.4985  143.9263  157.8609 H   0  0  0  0  0  0  0  0  0  0  0  0
  147.4915  143.2370  155.4263 H   0  0  0  0  0  0  0  0  0  0  0  0
  153.4597  139.4341  158.4430 H   0  0  0  0  0  0  0  0  0  0  0  0
  1  2  1  0  0  0  0
  1 25  1  0  0  0  0
  1 26  1  0  0  0  0
  1 27  1  0  0  0  0
  2  3  1  0  0  0  0
  2 10  1  0  0  0  0
  2 48  1  0  0  0  0
  3  4  1  0  0  0  0
  3 28  1  0  0  0  0
  3 29  1  0  0  0  0
  4  9  1  0  0  0  0
  4  5  2  0  0  0  0
  5  6  1  0  0  0  0
  5 30  1  0  0  0  0
  6  7  2  0  0  0  0
  6 31  1  0  0  0  0
  7  8  1  0  0  0  0
  7 32  1  0  0  0  0
  8  9  2  0  0  0  0
  8 33  1  0  0  0  0
  9 34  1  0  0  0  0
 10 11  1  0  0  0  0
 10 35  1  0  0  0  0
 10 36  1  0  0  0  0
 11 12  1  0  0  0  0
 11 13  1  0  0  0  0
 11 37  1  0  0  0  0
 12 38  1  0  0  0  0
 13 14  1  0  0  0  0
 13 39  1  0  0  0  0
 13 40  1  0  0  0  0
 14 24  1  0  0  0  0
 14 15  1  0  0  0  0
 15 16  1  0  0  0  0
 15 18  2  0  0  0  0
 16 17  1  0  0  0  0
 16 41  1  0  0  0  0
 16 42  1  0  0  0  0
 17 43  1  0  0  0  0
 18 19  1  0  0  0  0
 18 49  1  0  0  0  0
 19 24  2  0  0  0  0
 19 20  1  0  0  0  0
 20 21  2  0  0  0  0
 20 44  1  0  0  0  0
 21 22  1  0  0  0  0
 21 45  1  0  0  0  0
 22 23  2  0  0  0  0
 22 46  1  0  0  0  0
 23 24  1  0  0  0  0
 23 47  1  0  0  0  0
M  CHG  1   2   1
M  CHG  1  18   1
M  END
> <s_m_source_file>
AV-unprocessed.smi

> <i_m_source_file_index>
1669

> <i_lp_mmshare_version>
43012

> <i_f3d_flags>
0

> <s_epik_input>
W2NIXTFbY0hdW2NIXVtjSF1bY0hdYzFbQ0gyXU4oW0NIM10pW0NIMl1bQ0BIXShbT0hdKVtDSDJdbihjKG4yKVtDSDJdW09IXSljKGMyMylbY0hdW2NIXVtjSF1bY0hdMw==

> <s_epik_cmdline>
J2VwaWtfcHl0aG9uJywgJy1waCcsICc3LjAnLCAnLXRuJywgJzgnLCAnLW1hJywgJzIwMCcsICctbWV0YWxfYmluZGluZycsICctaW1hZScsICc8aW5maWxlLm1hZT4nLCAnLW9tYWUnLCAnPG91dGZpbGUubWFlPic=

> <r_epik_Ionization_Penalty>
1.57484

> <r_epik_Ionization_Penalty_Charging>
1.57398

> <r_epik_Ionization_Penalty_Neutral>
0.000858917

> <r_epik_State_Penalty>
1.64997

> <r_epik_Charging_Adjusted_Penalty>
3.22395

> <i_epik_Tot_Q>
2

> <i_epik_Tot_abs_Q>
2

> <r_epik_Metal_State_Penalty>
5.70481

> <b_epik_Metal_Only>
0

> <s_lp_Force_Field>
OPLS_2005

> <r_lp_Energy>
25.6323

> <b_lp_Chiralities_Consistent>
1

> <s_lp_Variant>
AV-unprocessed.smi:1669-9

> <Gold.Version>
5.8.1

> <Gold.Id.Protein>
6NUR|6NUR_protein|mol2

> <Gold.PLP.Fitness>
51.5797

> <Gold.PLP.PLP>
-45.1208

> <Gold.PLP.part.hbond>
-2.0000

> <Gold.PLP.part.metal>
0.0000

> <Gold.PLP.part.buried>
-7.8503

> <Gold.PLP.part.nonpolar>
-36.0044

> <Gold.PLP.part.repulsive>
0.2043

> <Gold.PLP.ligand.clash>
0.0000

> <Gold.PLP.ligand.torsion>
1.3862

> <Gold.PLP.Chemscore.Hbond>
3.0000

> <Gold.PLP.Chemscore.CHOScore>
0.0000

> <Gold.PLP.Chemscore.Metal>
0.0000

> <Gold.Chemscore.Hbonds>
donor molecule, donor type, donor heavy atom, donor atom, acceptor molecule, acceptor atom, score
      L1  H     2    48       P1  8028  1.70
      P1  H  7997  8009       L1    17  0.91

> <Gold.PLP.Chemscore.Internal.Correction>
0.2313

> <Gold.Rescore>
     Score         DG    S(hbond)    S(metal)    S(lipo)     H(rot)  DE(clash)    DE(int)     intcor
     11.89     -13.90       0.90        0.00     117.84       3.27       0.36       1.64       ----

> <Gold.Chemscore.Fitness>
11.8940

> <Gold.Chemscore.DG>
-13.9002

> <Gold.Chemscore.ZeroCoef>
-5.4800

> <Gold.Chemscore.Hbond>
0.9008

> <Gold.Chemscore.Metal>
0.0000

> <Gold.Chemscore.Lipo>
117.8422

> <Gold.Chemscore.Internal_Hbond>
0.0000

> <Gold.Chemscore.DEClash>
0.3629

> <Gold.Chemscore.DEInternal>
1.6434

> <Gold.Chemscore.Rot>
3.2718

> <Gold.Chemscore.Internal.Correction>
   9.000000E+99

> <Gold.Chemscore.Hbonds>
donor molecule, donor type, donor heavy atom, donor atom, acceptor molecule, acceptor atom, score
      L1  H     2    48       P1  8028  0.14
      P1  H  7997  8009       L1    17  0.31

> <Gold.Chemscore.Hbond.Weighted>
-3.0086

> <Gold.Chemscore.Metal.Weighted>
-0.0000

> <Gold.Chemscore.Lipo.Weighted>
-13.7875

> <Gold.Chemscore.Internal_Hbond.Weighted>
0.0000

> <Gold.Chemscore.DEClash.Weighted>
0.3629

> <Gold.Chemscore.DEInternal.Weighted>
1.6434

> <Gold.Chemscore.Rot.Weighted>
8.3759

> <Gold.Chemscore.Internal.Correction.Weighted>
   9.000000E+99

> <Gold.Protein.RotatedTorsions>
[ 6907 6896 6895 6894 ] final -179.85 input  -60.11 | X-H torsion
[ 7974 7965 7964 7962 ] final  -68.53 input  175.53 | X-H torsion
[ 8008 7997 7996 7995 ] final -158.44 input   59.86 | X-H torsion
[ 10167 10162 10161 10158 ] final  118.31 input  -65.29 | X-H torsion
[ 10718 10713 10712 10709 ] final  107.13 input   66.30 | X-H torsion
[ 10763 10752 10751 10750 ] final -122.80 input  -60.55 | X-H torsion
[ 11005 11000 10999 10996 ] final   75.68 input  -57.11 | X-H torsion

> <Gold.Protein.ActiveResidues>
 VAL166  LYS551  ARG553  GLY616  TRP617  ASP618  TYR619  PRO620  LYS621  CYS622 
 ASP623  PHE694  ASN695  SER759  ASP760  ASP761  ALA762  ILE779  LEU786  VAL792 
 PHE793  MET794  SER795  GLU796  ALA797  LYS798  CYS799  TRP800  GLU811  SER814 

> <Gold.Protein.RotatedAtoms>
  151.6601  133.3317  159.3171 H   0  0  0  0  0  0  0  0  0  0  0  0  # atno 6907 bound_to 6896
  150.7917  134.6950  159.6528 H   0  0  0  0  0  0  0  0  0  0  0  0  # atno 6908 bound_to 6896
  152.3998  134.6309  160.0126 H   0  0  0  0  0  0  0  0  0  0  0  0  # atno 6909 bound_to 6896
  145.7153  140.9061  143.0659 H   0  0  0  0  0  0  0  0  0  0  0  0  # atno 7974 bound_to 7965
  155.7475  140.0822  157.2217 H   0  0  0  0  0  0  0  0  0  0  0  0  # atno 8008 bound_to 7997
  154.4015  140.1566  156.2742 H   0  0  0  0  0  0  0  0  0  0  0  0  # atno 8009 bound_to 7997
  155.8962  140.3412  155.5995 H   0  0  0  0  0  0  0  0  0  0  0  0  # atno 8010 bound_to 7997
  139.6120  144.7084  151.2824 H   0  0  0  0  0  0  0  0  0  0  0  0  # atno 10167 bound_to 10162
  157.6641  131.0866  150.6110 H   0  0  0  0  0  0  0  0  0  0  0  0  # atno 10718 bound_to 10713
  154.8696  135.4120  154.2841 H   0  0  0  0  0  0  0  0  0  0  0  0  # atno 10763 bound_to 10752
  153.3728  135.7008  153.6630 H   0  0  0  0  0  0  0  0  0  0  0  0  # atno 10764 bound_to 10752
  153.5484  135.3634  155.2721 H   0  0  0  0  0  0  0  0  0  0  0  0  # atno 10765 bound_to 10752
  139.9333  134.7538  156.1301 H   0  0  0  0  0  0  0  0  0  0  0  0  # atno 11005 bound_to 11000
  144.6931  139.9129  143.7464 LP  0  0  0  0  0  0  0  0  0  0  0  0  # atno 17320 bound_to 7965
  146.0675  139.3665  143.0543 LP  0  0  0  0  0  0  0  0  0  0  0  0  # atno 17321 bound_to 7965
  140.7325  143.6821  150.7992 LP  0  0  0  0  0  0  0  0  0  0  0  0  # atno 17342 bound_to 10162
  140.0417  143.5339  152.2715 LP  0  0  0  0  0  0  0  0  0  0  0  0  # atno 17343 bound_to 10162
  156.6412  130.4459  149.5752 LP  0  0  0  0  0  0  0  0  0  0  0  0  # atno 17370 bound_to 10713
  156.2208  130.6736  151.1366 LP  0  0  0  0  0  0  0  0  0  0  0  0  # atno 17371 bound_to 10713
  141.0933  133.6705  156.2589 LP  0  0  0  0  0  0  0  0  0  0  0  0  # atno 17394 bound_to 11000
  140.6144  134.5425  157.5538 LP  0  0  0  0  0  0  0  0  0  0  0  0  # atno 17395 bound_to 11000

$$$$
