#       Name:                AV-unprocessed.smi:1012
#       Creating user name   scv26
#       Creation time:       Fri Mar 27 02:37:31 2020


#       File generated by GOLD software.
#

@<TRIPOS>MOLECULE
AV-unprocessed.smi:1012
    50    52     1
SMALL
NO_CHARGES


@<TRIPOS>ATOM
      1 ****        -2.9439   2.9896   2.1959 C.3            1 S1                 0.0000
      2 ****        -2.5326   2.6573   0.8783 O.3            1 S1                 0.0000
      3 ****        -3.5047   2.4546  -0.0804 C.ar           1 S1                 0.0000
      4 ****        -4.8933   2.6059   0.1664 C.ar           1 S1                 0.0000
      5 ****        -5.8317   2.3875  -0.8601 C.ar           1 S1                 0.0000
      6 ****        -5.3981   2.0157  -2.1447 C.ar           1 S1                 0.0000
      7 ****        -4.0239   1.8625  -2.4022 C.ar           1 S1                 0.0000
      8 ****        -3.0786   2.0775  -1.3769 C.ar           1 S1                 0.0000
      9 ****        -1.5989   1.9178  -1.6776 C.3            1 S1                 0.0000
     10 ****        -1.0125   0.8990  -0.8841 O.3            1 S1                 0.0000
     11 ****         0.3886   0.7914  -1.0721 C.3            1 S1                 0.0000
     12 ****         0.9308  -0.3135  -0.1524 C.3            1 S1                 0.0000
     13 ****         0.7041  -1.5637  -0.7738 O.3            1 S1                 0.0000
     14 ****         2.4394  -0.1503   0.1158 C.3            1 S1                 0.0000
     15 ****         2.9593  -1.1712   1.0084 N.pl3          1 S1                 0.0000
     16 ****         2.9000  -1.1747   2.3537 C.2            1 S1                 0.0000
     17 ****         3.4418  -2.2121   2.9853 N.2            1 S1                 0.0000
     18 ****         3.9061  -2.9725   1.9258 C.ar           1 S1                 0.0000
     19 ****         4.5860  -4.2112   1.9152 C.ar           1 S1                 0.0000
     20 ****         4.9652  -4.8080   0.6949 C.ar           1 S1                 0.0000
     21 ****         5.6152  -5.9959   0.7026 F              1 S1                 0.0000
     22 ****         4.6708  -4.1759  -0.5315 C.ar           1 S1                 0.0000
     23 ****         5.0368  -4.7568  -1.6986 F              1 S1                 0.0000
     24 ****         3.9953  -2.9405  -0.5458 C.ar           1 S1                 0.0000
     25 ****         3.6195  -2.3487   0.6741 C.ar           1 S1                 0.0000
     26 ****        -2.0641   3.0913   2.8311 H              1 S1                 0.0000
     27 ****        -3.5719   2.2084   2.6264 H              1 S1                 0.0000
     28 ****        -3.4792   3.9396   2.2194 H              1 S1                 0.0000
     29 ****        -5.2669   2.8922   1.1376 H              1 S1                 0.0000
     30 ****        -6.8864   2.5069  -0.6605 H              1 S1                 0.0000
     31 ****        -6.1182   1.8495  -2.9322 H              1 S1                 0.0000
     32 ****        -3.6989   1.5774  -3.3920 H              1 S1                 0.0000
     33 ****        -1.4535   1.6870  -2.7340 H              1 S1                 0.0000
     34 ****        -1.1070   2.8732  -1.4884 H              1 S1                 0.0000
     35 ****         0.6391   0.5984  -2.1170 H              1 S1                 0.0000
     36 ****         0.8427   1.7464  -0.8022 H              1 S1                 0.0000
     37 ****         0.3980  -0.2894   0.7995 H              1 S1                 0.0000
     38 ****        -0.2251  -1.6603  -0.9170 H              1 S1                 0.0000
     39 ****         3.0014  -0.1802  -0.8186 H              1 S1                 0.0000
     40 ****         2.6374   0.8234   0.5658 H              1 S1                 0.0000
     41 ****         2.4315  -0.3693   2.9001 H              1 S1                 0.0000
     42 ****         4.8159  -4.7046   2.8477 H              1 S1                 0.0000
     43 ****         3.7653  -2.4558  -1.4828 H              1 S1                 0.0000
     44 ****        -1.9970   1.8151   0.9392 LP             1 S1                 0.0000
     45 ****        -1.9482   3.4013   0.5544 LP             1 S1                 0.0000
     46 ****        -1.4348   0.0249  -1.1240 LP             1 S1                 0.0000
     47 ****        -1.1907   1.1022   0.0787 LP             1 S1                 0.0000
     48 ****         1.0333  -2.2997  -0.1823 LP             1 S1                 0.0000
     49 ****         1.1864  -1.5985  -1.6491 LP             1 S1                 0.0000
     50 ****         3.4988  -2.3947   3.9669 LP             1 S1                 0.0000
@<TRIPOS>BOND
    1    1    2 1     
    2    1   26 1     
    3    1   27 1     
    4    1   28 1     
    5    2    3 1     
    6    3    8 ar    
    7    3    4 ar    
    8    4    5 ar    
    9    4   29 1     
   10    5    6 ar    
   11    5   30 1     
   12    6    7 ar    
   13    6   31 1     
   14    7    8 ar    
   15    7   32 1     
   16    8    9 1     
   17    9   10 1     
   18    9   33 1     
   19    9   34 1     
   20   10   11 1     
   21   11   12 1     
   22   11   35 1     
   23   11   36 1     
   24   12   13 1     
   25   12   14 1     
   26   12   37 1     
   27   13   38 1     
   28   14   15 1     
   29   14   39 1     
   30   14   40 1     
   31   15   25 1     
   32   15   16 1     
   33   16   17 2     
   34   16   41 1     
   35   17   18 1     
   36   18   25 ar    
   37   18   19 ar    
   38   19   20 ar    
   39   19   42 1     
   40   20   21 1     
   41   20   22 ar    
   42   22   23 1     
   43   22   24 ar    
   44   24   25 ar    
   45   24   43 1     
   46    2   44 1     
   47    2   45 1     
   48   10   46 1     
   49   10   47 1     
   50   13   48 1     
   51   13   49 1     
   52   17   50 1     
@<TRIPOS>SUBSTRUCTURE
      1 S1             1
@<TRIPOS>SET
LONE_PAIRS      STATIC     ATOMS    <user>   **** ""
7 44 45 46 47 48 49 50
DONOR_HYDROGENS      STATIC     ATOMS    <user>   **** ""
1 38
ATOM$BLUE        STATIC     ATOMS    COLORGROUP SYSTEM
7 44 45 46 47 48 49 50
ATOM$RED        STATIC     ATOMS    COLORGROUP SYSTEM
1 38
