AV-unprocessed.smi:2044|AV-procd|sdf|8298|dock3
  -GOLD-   2272010563D 1   1.00000     0.00000
 Structure written by MMmdl.
 39 40  0  0  0  0  0  0  0  0  1 V2000
  138.2225  137.1233  153.7533 C   0  0  0  0  0  0  0  0  0  0  0  0
  139.7061  137.1681  153.8874 C   0  0  0  0  0  0  0  0  0  0  0  0
  140.6420  138.1060  153.5527 C   0  0  0  0  0  0  0  0  0  0  0  0
  141.8614  137.4992  153.9552 C   0  0  0  0  0  0  0  0  0  0  0  0
  143.1006  138.1645  153.7726 N   0  0  0  0  0  0  0  0  0  0  0  0
  144.3236  137.7270  154.1175 C   0  0  0  0  0  0  0  0  0  0  0  0
  144.5619  136.6539  154.6727 O   0  0  0  0  0  0  0  0  0  0  0  0
  145.2692  138.6170  153.7838 N   0  0  0  0  0  0  0  0  0  0  0  0
  146.7024  138.4710  154.0320 C   0  0  0  0  0  0  0  0  0  0  0  0
  147.3717  139.8079  154.4464 C   0  0  2  0  0  0  0  0  0  0  0  0
  147.3093  140.7805  153.2470 C   0  0  0  0  0  0  0  0  0  0  0  0
  148.7306  139.6523  155.0114 N   0  0  0  0  0  0  0  0  0  0  0  0
  149.6519  138.9890  154.0836 C   0  0  0  0  0  0  0  0  0  0  0  0
  151.0723  138.8477  154.6576 C   0  0  0  0  0  0  0  0  0  0  0  0
  151.5730  140.1284  155.0180 O   0  0  0  0  0  0  0  0  0  0  0  0
  150.7454  140.7794  155.9726 C   0  0  0  0  0  0  0  0  0  0  0  0
  149.3240  140.9339  155.4048 C   0  0  0  0  0  0  0  0  0  0  0  0
  141.6857  136.2994  154.4877 N   0  0  0  0  0  0  0  0  0  0  0  0
  140.3036  136.0808  154.4463 O   0  0  0  0  0  0  0  0  0  0  0  0
  137.8096  138.1286  153.6674 H   0  0  0  0  0  0  0  0  0  0  0  0
  137.7670  136.6448  154.6207 H   0  0  0  0  0  0  0  0  0  0  0  0
  137.9331  136.5614  152.8655 H   0  0  0  0  0  0  0  0  0  0  0  0
  140.4772  139.0691  153.0931 H   0  0  0  0  0  0  0  0  0  0  0  0
  143.0510  139.0690  153.3277 H   0  0  0  0  0  0  0  0  0  0  0  0
  144.9760  139.4741  153.3384 H   0  0  0  0  0  0  0  0  0  0  0  0
  146.8875  137.7096  154.7914 H   0  0  0  0  0  0  0  0  0  0  0  0
  147.1634  138.0682  153.1310 H   0  0  0  0  0  0  0  0  0  0  0  0
  146.7357  140.2388  155.2212 H   0  0  0  0  0  0  0  0  0  0  0  0
  146.3203  140.7786  152.7881 H   0  0  0  0  0  0  0  0  0  0  0  0
  148.0307  140.5115  152.4750 H   0  0  0  0  0  0  0  0  0  0  0  0
  147.5033  141.8107  153.5438 H   0  0  0  0  0  0  0  0  0  0  0  0
  149.2962  137.9881  153.8426 H   0  0  0  0  0  0  0  0  0  0  0  0
  149.6950  139.5438  153.1450 H   0  0  0  0  0  0  0  0  0  0  0  0
  151.0737  138.1891  155.5277 H   0  0  0  0  0  0  0  0  0  0  0  0
  151.7372  138.4020  153.9175 H   0  0  0  0  0  0  0  0  0  0  0  0
  150.7309  140.2091  156.9027 H   0  0  0  0  0  0  0  0  0  0  0  0
  151.1691  141.7568  156.2030 H   0  0  0  0  0  0  0  0  0  0  0  0
  149.3490  141.6085  154.5476 H   0  0  0  0  0  0  0  0  0  0  0  0
  148.7182  141.4182  156.1690 H   0  0  0  0  0  0  0  0  0  0  0  0
  1  2  1  0  0  0  0
  1 20  1  0  0  0  0
  1 21  1  0  0  0  0
  1 22  1  0  0  0  0
  2 19  1  0  0  0  0
  2  3  2  0  0  0  0
  3  4  1  0  0  0  0
  3 23  1  0  0  0  0
  4  5  1  0  0  0  0
  4 18  2  0  0  0  0
  5  6  1  0  0  0  0
  5 24  1  0  0  0  0
  6  7  2  0  0  0  0
  6  8  1  0  0  0  0
  8  9  1  0  0  0  0
  8 25  1  0  0  0  0
  9 10  1  0  0  0  0
  9 26  1  0  0  0  0
  9 27  1  0  0  0  0
 10 11  1  0  0  0  0
 10 12  1  0  0  0  0
 10 28  1  0  0  0  0
 11 29  1  0  0  0  0
 11 30  1  0  0  0  0
 11 31  1  0  0  0  0
 12 17  1  0  0  0  0
 12 13  1  0  0  0  0
 13 14  1  0  0  0  0
 13 32  1  0  0  0  0
 13 33  1  0  0  0  0
 14 15  1  0  0  0  0
 14 34  1  0  0  0  0
 14 35  1  0  0  0  0
 15 16  1  0  0  0  0
 16 17  1  0  0  0  0
 16 36  1  0  0  0  0
 16 37  1  0  0  0  0
 17 38  1  0  0  0  0
 17 39  1  0  0  0  0
 18 19  1  0  0  0  0
M  END
> <s_m_source_file>
AV-unprocessed.smi

> <i_m_source_file_index>
2044

> <i_lp_mmshare_version>
43012

> <i_f3d_flags>
0

> <s_epik_input>
W0NIM11jMVtjSF1jKG5vMSlbTkhdQyg9TylbTkhdW0NIMl1bQ0BIXShbQ0gzXSlOMltDSDJdW0NIMl1PW0NIMl1bQ0gyXTI=

> <s_epik_cmdline>
J2VwaWtfcHl0aG9uJywgJy1waCcsICc3LjAnLCAnLXRuJywgJzgnLCAnLW1hJywgJzIwMCcsICctbWV0YWxfYmluZGluZycsICctaW1hZScsICc8aW5maWxlLm1hZT4nLCAnLW9tYWUnLCAnPG91dGZpbGUubWFlPic=

> <r_epik_Ionization_Penalty>
0.214073

> <r_epik_Ionization_Penalty_Charging>
0

> <r_epik_Ionization_Penalty_Neutral>
0.214073

> <r_epik_State_Penalty>
0.204211

> <r_epik_Charging_Adjusted_Penalty>
0.204211

> <i_epik_Tot_Q>
0

> <i_epik_Tot_abs_Q>
0

> <r_epik_Metal_State_Penalty>
0.217151

> <b_epik_Metal_Only>
0

> <s_lp_Force_Field>
OPLS_2005

> <r_lp_Energy>
29.787

> <b_lp_Chiralities_Consistent>
1

> <s_lp_Variant>
AV-unprocessed.smi:2044-1

> <Gold.Version>
5.8.1

> <Gold.Id.Protein>
6NUR|6NUR_protein|mol2

> <Gold.PLP.Fitness>
41.9824

> <Gold.PLP.PLP>
-30.4084

> <Gold.PLP.part.hbond>
-4.1539

> <Gold.PLP.part.metal>
0.0000

> <Gold.PLP.part.buried>
-3.6539

> <Gold.PLP.part.nonpolar>
-22.6243

> <Gold.PLP.part.repulsive>
0.2375

> <Gold.PLP.ligand.clash>
0.0000

> <Gold.PLP.ligand.torsion>
0.2256

> <Gold.PLP.Chemscore.Hbond>
3.9920

> <Gold.PLP.Chemscore.CHOScore>
0.0000

> <Gold.PLP.Chemscore.Metal>
0.0000

> <Gold.Chemscore.Hbonds>
donor molecule, donor type, donor heavy atom, donor atom, acceptor molecule, acceptor atom, score
      L1  H     5    24       P1 10175  1.00
      L1  H     8    25       P1 10175  0.99
      P1  H  7989  7998       L1    15  1.00
      P1  H 11000 11005       L1    19  0.93

> <Gold.PLP.Chemscore.Internal.Correction>
0.0492

> <Gold.Rescore>
     Score         DG    S(hbond)    S(metal)    S(lipo)     H(rot)  DE(clash)    DE(int)     intcor
     17.57     -19.30       3.09        0.00      64.41       1.58       0.21       1.52       ----

> <Gold.Chemscore.Fitness>
17.5656

> <Gold.Chemscore.DG>
-19.2960

> <Gold.Chemscore.ZeroCoef>
-5.4800

> <Gold.Chemscore.Hbond>
3.0877

> <Gold.Chemscore.Metal>
0.0000

> <Gold.Chemscore.Lipo>
64.4102

> <Gold.Chemscore.Internal_Hbond>
0.0000

> <Gold.Chemscore.DEClash>
0.2127

> <Gold.Chemscore.DEInternal>
1.5178

> <Gold.Chemscore.Rot>
1.5753

> <Gold.Chemscore.Internal.Correction>
   9.000000E+99

> <Gold.Chemscore.Hbonds>
donor molecule, donor type, donor heavy atom, donor atom, acceptor molecule, acceptor atom, score
      L1  H     5    24       P1 10175  0.99
      L1  H     8    25       P1 10175  0.94
      P1  H  7989  7998       L1    15  0.26
      P1  H 11000 11005       L1    19  0.26

> <Gold.Chemscore.Hbond.Weighted>
-10.3129

> <Gold.Chemscore.Metal.Weighted>
-0.0000

> <Gold.Chemscore.Lipo.Weighted>
-7.5360

> <Gold.Chemscore.Internal_Hbond.Weighted>
0.0000

> <Gold.Chemscore.DEClash.Weighted>
0.2127

> <Gold.Chemscore.DEInternal.Weighted>
1.5178

> <Gold.Chemscore.Rot.Weighted>
4.0329

> <Gold.Chemscore.Internal.Correction.Weighted>
   9.000000E+99

> <Gold.Protein.RotatedTorsions>
[ 6907 6896 6895 6894 ] final -171.74 input  -60.11 | X-H torsion
[ 7974 7965 7964 7962 ] final  150.61 input  175.53 | X-H torsion
[ 8008 7997 7996 7995 ] final  134.34 input   59.86 | X-H torsion
[ 10167 10162 10161 10158 ] final  104.71 input  -65.29 | X-H torsion
[ 10718 10713 10712 10709 ] final  -98.12 input   66.30 | X-H torsion
[ 10763 10752 10751 10750 ] final  -10.35 input  -60.55 | X-H torsion
[ 11005 11000 10999 10996 ] final   53.88 input  -57.11 | X-H torsion

> <Gold.Protein.ActiveResidues>
 VAL166  LYS551  ARG553  GLY616  TRP617  ASP618  TYR619  PRO620  LYS621  CYS622 
 ASP623  PHE694  ASN695  SER759  ASP760  ASP761  ALA762  ILE779  LEU786  VAL792 
 PHE793  MET794  SER795  GLU796  ALA797  LYS798  CYS799  TRP800  GLU811  SER814 

> <Gold.Protein.RotatedAtoms>
  151.5287  133.3453  159.2914 H   0  0  0  0  0  0  0  0  0  0  0  0  # atno 6907 bound_to 6896
  150.8607  134.7960  159.7091 H   0  0  0  0  0  0  0  0  0  0  0  0  # atno 6908 bound_to 6896
  152.4627  134.5156  159.9818 H   0  0  0  0  0  0  0  0  0  0  0  0  # atno 6909 bound_to 6896
  144.8352  139.6430  143.6041 H   0  0  0  0  0  0  0  0  0  0  0  0  # atno 7974 bound_to 7965
  156.2998  140.2498  156.3400 H   0  0  0  0  0  0  0  0  0  0  0  0  # atno 8008 bound_to 7997
  154.9064  140.0404  157.1941 H   0  0  0  0  0  0  0  0  0  0  0  0  # atno 8009 bound_to 7997
  154.8449  140.2897  155.5639 H   0  0  0  0  0  0  0  0  0  0  0  0  # atno 8010 bound_to 7997
  139.7154  144.7069  151.0958 H   0  0  0  0  0  0  0  0  0  0  0  0  # atno 10167 bound_to 10162
  156.0100  130.5224  150.6476 H   0  0  0  0  0  0  0  0  0  0  0  0  # atno 10718 bound_to 10713
  153.4679  135.7016  153.6011 H   0  0  0  0  0  0  0  0  0  0  0  0  # atno 10763 bound_to 10752
  153.4277  135.3810  155.2151 H   0  0  0  0  0  0  0  0  0  0  0  0  # atno 10764 bound_to 10752
  154.8726  135.3943  154.4113 H   0  0  0  0  0  0  0  0  0  0  0  0  # atno 10765 bound_to 10752
  140.0731  134.5442  155.9025 H   0  0  0  0  0  0  0  0  0  0  0  0  # atno 11005 bound_to 11000
  146.2651  139.6501  142.9335 LP  0  0  0  0  0  0  0  0  0  0  0  0  # atno 17320 bound_to 7965
  145.4810  141.0438  143.2645 LP  0  0  0  0  0  0  0  0  0  0  0  0  # atno 17321 bound_to 7965
  140.7742  143.5236  150.9506 LP  0  0  0  0  0  0  0  0  0  0  0  0  # atno 17342 bound_to 10162
  139.8922  143.6939  152.3143 LP  0  0  0  0  0  0  0  0  0  0  0  0  # atno 17343 bound_to 10162
  157.4243  131.0841  151.1100 LP  0  0  0  0  0  0  0  0  0  0  0  0  # atno 17370 bound_to 10713
  157.1692  130.6260  149.5635 LP  0  0  0  0  0  0  0  0  0  0  0  0  # atno 17371 bound_to 10713
  141.2019  133.6621  156.5978 LP  0  0  0  0  0  0  0  0  0  0  0  0  # atno 17394 bound_to 11000
  140.3598  134.7697  157.4526 LP  0  0  0  0  0  0  0  0  0  0  0  0  # atno 17395 bound_to 11000

$$$$
