AV-unprocessed.smi:688|AV-procd|sdf|3355|dock4
  -GOLD-   22720 0333D 1   1.00000     0.00000
 Structure written by MMmdl.
 36 37  0  0  0  0  0  0  0  0  1 V2000
  141.1373  135.0729  154.4630 O   0  0  0  0  0  0  0  0  0  0  0  0
  142.0707  135.3743  153.7219 C   0  0  0  0  0  0  0  0  0  0  0  0
  143.0217  134.4104  153.3732 N   0  0  0  0  0  0  0  0  0  0  0  0
  144.1247  134.6199  152.5449 C   0  0  0  0  0  0  0  0  0  0  0  0
  144.8996  133.6932  152.3085 O   0  0  0  0  0  0  0  0  0  0  0  0
  144.2862  135.9210  152.0159 N   0  0  0  0  0  0  0  0  0  0  0  0
  145.4272  136.1653  151.1650 C   0  0  0  0  0  0  0  0  0  0  0  0
  146.5039  137.0779  151.7949 C   0  0  1  0  0  0  0  0  0  0  0  0
  146.6099  138.2230  150.9749 O   0  0  0  0  0  0  0  0  0  0  0  0
  146.1599  137.5413  153.2218 C   0  0  0  0  0  0  0  0  0  0  0  0
  147.3386  138.0286  153.8411 O   0  0  0  0  0  0  0  0  0  0  0  0
  147.5645  139.4056  153.5903 C   0  0  0  0  0  0  0  0  0  0  0  0
  148.5612  139.9884  154.5717 C   0  0  0  0  0  0  0  0  0  0  0  0
  149.8661  139.4579  154.6441 C   0  0  0  0  0  0  0  0  0  0  0  0
  150.7971  139.9901  155.5571 C   0  0  0  0  0  0  0  0  0  0  0  0
  150.4263  141.0544  156.4019 C   0  0  0  0  0  0  0  0  0  0  0  0
  151.5672  141.7072  157.5195 Cl  0  0  0  0  0  0  0  0  0  0  0  0
  149.1229  141.5845  156.3344 C   0  0  0  0  0  0  0  0  0  0  0  0
  148.1910  141.0512  155.4226 C   0  0  0  0  0  0  0  0  0  0  0  0
  143.3672  136.9091  152.3360 C   0  0  0  0  0  0  0  0  0  0  0  0
  142.2992  136.6973  153.1425 C   0  0  0  0  0  0  0  0  0  0  0  0
  141.2009  137.9822  153.4980 Cl  0  0  0  0  0  0  0  0  0  0  0  0
  142.8998  133.4829  153.7530 H   0  0  0  0  0  0  0  0  0  0  0  0
  145.8257  135.1868  150.8858 H   0  0  0  0  0  0  0  0  0  0  0  0
  145.0359  136.6033  150.2452 H   0  0  0  0  0  0  0  0  0  0  0  0
  147.4671  136.5669  151.7959 H   0  0  0  0  0  0  0  0  0  0  0  0
  145.7385  138.4944  150.7290 H   0  0  0  0  0  0  0  0  0  0  0  0
  145.3714  138.2960  153.2109 H   0  0  0  0  0  0  0  0  0  0  0  0
  145.7950  136.7024  153.8148 H   0  0  0  0  0  0  0  0  0  0  0  0
  147.9259  139.5415  152.5696 H   0  0  0  0  0  0  0  0  0  0  0  0
  146.6293  139.9605  153.6789 H   0  0  0  0  0  0  0  0  0  0  0  0
  150.1551  138.6419  153.9979 H   0  0  0  0  0  0  0  0  0  0  0  0
  151.7953  139.5805  155.6079 H   0  0  0  0  0  0  0  0  0  0  0  0
  148.8358  142.4003  156.9819 H   0  0  0  0  0  0  0  0  0  0  0  0
  147.1934  141.4629  155.3787 H   0  0  0  0  0  0  0  0  0  0  0  0
  143.5075  137.9005  151.9291 H   0  0  0  0  0  0  0  0  0  0  0  0
  1  2  2  0  0  0  0
  2 21  1  0  0  0  0
  2  3  1  0  0  0  0
  3 23  1  0  0  0  0
  3  4  1  0  0  0  0
  4  5  2  0  0  0  0
  4  6  1  0  0  0  0
  6  7  1  0  0  0  0
  6 20  1  0  0  0  0
  7  8  1  0  0  0  0
  7 24  1  0  0  0  0
  7 25  1  0  0  0  0
  8  9  1  0  0  0  0
  8 10  1  0  0  0  0
  8 26  1  0  0  0  0
  9 27  1  0  0  0  0
 10 11  1  0  0  0  0
 10 28  1  0  0  0  0
 10 29  1  0  0  0  0
 11 12  1  0  0  0  0
 12 13  1  0  0  0  0
 12 30  1  0  0  0  0
 12 31  1  0  0  0  0
 13 19  1  0  0  0  0
 13 14  2  0  0  0  0
 14 15  1  0  0  0  0
 14 32  1  0  0  0  0
 15 16  2  0  0  0  0
 15 33  1  0  0  0  0
 16 17  1  0  0  0  0
 16 18  1  0  0  0  0
 18 19  2  0  0  0  0
 18 34  1  0  0  0  0
 19 35  1  0  0  0  0
 20 21  2  0  0  0  0
 20 36  1  0  0  0  0
 21 22  1  0  0  0  0
M  END
> <s_m_source_file>
AV-unprocessed.smi

> <i_m_source_file_index>
688

> <i_lp_mmshare_version>
43012

> <i_f3d_flags>
0

> <s_epik_input>
Tz1jMVtuSF1jKD1PKW4oW2NIXWMxQ2wpW0NIMl1bQ0BIXShbT0hdKVtDSDJdT1tDSDJdYzJbY0hdW2NIXWMoQ2wpW2NIXVtjSF0y

> <s_epik_cmdline>
J2VwaWtfcHl0aG9uJywgJy1waCcsICc3LjAnLCAnLXRuJywgJzgnLCAnLW1hJywgJzIwMCcsICctbWV0YWxfYmluZGluZycsICctaW1hZScsICc8aW5maWxlLm1hZT4nLCAnLW9tYWUnLCAnPG91dGZpbGUubWFlPic=

> <r_lp_tautomer_probability>
0.999537

> <r_epik_Ionization_Penalty>
0.0280571

> <r_epik_Ionization_Penalty_Charging>
0.028057

> <r_epik_Ionization_Penalty_Neutral>
6.25502e-08

> <r_epik_State_Penalty>
0.0230008

> <r_epik_Charging_Adjusted_Penalty>
0.0510579

> <i_epik_Tot_Q>
0

> <i_epik_Tot_abs_Q>
0

> <r_epik_Metal_State_Penalty>
2.1942

> <b_epik_Metal_Only>
0

> <s_lp_Force_Field>
OPLS_2005

> <r_lp_Energy>
13.9943

> <b_lp_Chiralities_Consistent>
1

> <s_lp_Variant>
AV-unprocessed.smi:688-2

> <Gold.Version>
5.8.1

> <Gold.Id.Protein>
6NUR|6NUR_protein|mol2

> <Gold.PLP.Fitness>
49.6006

> <Gold.PLP.PLP>
-34.6107

> <Gold.PLP.part.hbond>
-4.0836

> <Gold.PLP.part.metal>
0.0000

> <Gold.PLP.part.buried>
0.3696

> <Gold.PLP.part.nonpolar>
-30.9257

> <Gold.PLP.part.repulsive>
0.5041

> <Gold.PLP.ligand.clash>
0.0902

> <Gold.PLP.ligand.torsion>
1.2146

> <Gold.PLP.Chemscore.Hbond>
3.8385

> <Gold.PLP.Chemscore.CHOScore>
1.9316

> <Gold.PLP.Chemscore.Metal>
0.0000

> <Gold.Chemscore.Hbonds>
donor molecule, donor type, donor heavy atom, donor atom, acceptor molecule, acceptor atom, score
      L1  H     3    23       P1 10957  1.00
      L1  H     9    27       P1 10171  0.91
      P1  H  7954  7966       L1     9  1.00
      P1  H 11000 11005       L1     1  0.90
      L1  C    20    36       P1 10171  1.00
      L1  C    20    36       P1 10175  0.87

> <Gold.PLP.Chemscore.Internal.Correction>
0.1989

> <Gold.Rescore>
     Score         DG    S(hbond)    S(metal)    S(lipo)     H(rot)  DE(clash)    DE(int)     intcor
     15.54     -19.63       3.64        0.00      81.29       2.94       1.74       2.35       ----

> <Gold.Chemscore.Fitness>
15.5369

> <Gold.Chemscore.DG>
-19.6251

> <Gold.Chemscore.ZeroCoef>
-5.4800

> <Gold.Chemscore.Hbond>
3.6432

> <Gold.Chemscore.Metal>
0.0000

> <Gold.Chemscore.Lipo>
81.2862

> <Gold.Chemscore.Internal_Hbond>
0.0000

> <Gold.Chemscore.DEClash>
1.7419

> <Gold.Chemscore.DEInternal>
2.3464

> <Gold.Chemscore.Rot>
2.9429

> <Gold.Chemscore.Internal.Correction>
   9.000000E+99

> <Gold.Chemscore.Hbonds>
donor molecule, donor type, donor heavy atom, donor atom, acceptor molecule, acceptor atom, score
      L1  H     3    23       P1 10957  0.95
      L1  H     9    27       P1 10171  0.87
      P1  H  7954  7966       L1     9  0.44
      P1  H 11000 11005       L1     1  0.88

> <Gold.Chemscore.Hbond.Weighted>
-12.1684

> <Gold.Chemscore.Metal.Weighted>
-0.0000

> <Gold.Chemscore.Lipo.Weighted>
-9.5105

> <Gold.Chemscore.Internal_Hbond.Weighted>
0.0000

> <Gold.Chemscore.DEClash.Weighted>
1.7419

> <Gold.Chemscore.DEInternal.Weighted>
2.3464

> <Gold.Chemscore.Rot.Weighted>
7.5337

> <Gold.Chemscore.Internal.Correction.Weighted>
   9.000000E+99

> <Gold.Protein.RotatedTorsions>
[ 6907 6896 6895 6894 ] final   95.11 input  -60.11 | X-H torsion
[ 7974 7965 7964 7962 ] final  161.80 input  175.53 | X-H torsion
[ 8008 7997 7996 7995 ] final  142.49 input   59.86 | X-H torsion
[ 10167 10162 10161 10158 ] final -125.49 input  -65.29 | X-H torsion
[ 10718 10713 10712 10709 ] final -123.45 input   66.30 | X-H torsion
[ 10763 10752 10751 10750 ] final   48.06 input  -60.55 | X-H torsion
[ 11005 11000 10999 10996 ] final   27.27 input  -57.11 | X-H torsion

> <Gold.Protein.ActiveResidues>
 VAL166  LYS551  ARG553  GLY616  TRP617  ASP618  TYR619  PRO620  LYS621  CYS622 
 ASP623  PHE694  ASN695  SER759  ASP760  ASP761  ALA762  ILE779  LEU786  VAL792 
 PHE793  MET794  SER795  GLU796  ALA797  LYS798  CYS799  TRP800  GLU811  SER814 

> <Gold.Protein.RotatedAtoms>
  152.5446  134.1090  159.8350 H   0  0  0  0  0  0  0  0  0  0  0  0  # atno 6907 bound_to 6896
  151.1159  133.5132  159.2611 H   0  0  0  0  0  0  0  0  0  0  0  0  # atno 6908 bound_to 6896
  151.1833  135.0380  159.8856 H   0  0  0  0  0  0  0  0  0  0  0  0  # atno 6909 bound_to 6896
  144.7667  139.7950  143.6312 H   0  0  0  0  0  0  0  0  0  0  0  0  # atno 7974 bound_to 7965
  156.2948  140.2287  156.4737 H   0  0  0  0  0  0  0  0  0  0  0  0  # atno 8008 bound_to 7997
  154.7913  140.0454  157.1224 H   0  0  0  0  0  0  0  0  0  0  0  0  # atno 8009 bound_to 7997
  154.9642  140.3058  155.5020 H   0  0  0  0  0  0  0  0  0  0  0  0  # atno 8010 bound_to 7997
  139.9815  143.5737  152.2376 H   0  0  0  0  0  0  0  0  0  0  0  0  # atno 10167 bound_to 10162
  156.1503  130.6530  150.9903 H   0  0  0  0  0  0  0  0  0  0  0  0  # atno 10718 bound_to 10713
  152.9795  135.5956  154.3863 H   0  0  0  0  0  0  0  0  0  0  0  0  # atno 10763 bound_to 10752
  154.3523  135.2767  155.2367 H   0  0  0  0  0  0  0  0  0  0  0  0  # atno 10764 bound_to 10752
  154.4401  135.6015  153.6179 H   0  0  0  0  0  0  0  0  0  0  0  0  # atno 10765 bound_to 10752
  140.3281  134.2469  155.7706 H   0  0  0  0  0  0  0  0  0  0  0  0  # atno 11005 bound_to 11000
  146.1781  139.4961  142.9884 LP  0  0  0  0  0  0  0  0  0  0  0  0  # atno 17320 bound_to 7965
  145.6447  141.0276  143.1793 LP  0  0  0  0  0  0  0  0  0  0  0  0  # atno 17321 bound_to 7965
  139.6406  144.7654  151.2346 LP  0  0  0  0  0  0  0  0  0  0  0  0  # atno 17342 bound_to 10162
  140.7487  143.6323  150.8411 LP  0  0  0  0  0  0  0  0  0  0  0  0  # atno 17343 bound_to 10162
  157.6651  131.0873  150.7747 LP  0  0  0  0  0  0  0  0  0  0  0  0  # atno 17370 bound_to 10713
  156.7816  130.4861  149.5400 LP  0  0  0  0  0  0  0  0  0  0  0  0  # atno 17371 bound_to 10713
  141.2070  133.7817  157.0143 LP  0  0  0  0  0  0  0  0  0  0  0  0  # atno 17394 bound_to 11000
  140.0884  134.9607  157.1737 LP  0  0  0  0  0  0  0  0  0  0  0  0  # atno 17395 bound_to 11000

$$$$
