AV-unprocessed.smi:2106|AV-procd|sdf|8598|dock4
  -GOLD-   2272011333D 1   1.00000     0.00000
 Structure written by MMmdl.
 48 49  0  0  0  0  0  0  0  0  2 V2000
  150.5816  142.2687  156.7153 C   0  0  0  0  0  0  0  0  0  0  0  0
  149.9261  141.1906  155.9040 C   0  0  0  0  0  0  0  0  0  0  0  0
  148.5755  141.1185  155.4625 C   0  0  0  0  0  0  0  0  0  0  0  0
  148.5089  139.9436  154.7682 C   0  0  0  0  0  0  0  0  0  0  0  0
  147.3573  139.3076  154.0616 C   0  0  0  0  0  0  0  0  0  0  0  0
  149.7707  139.3773  154.8165 N   0  0  0  0  0  0  0  0  0  0  0  0
  150.2415  138.1328  154.2298 C   0  0  0  0  0  0  0  0  0  0  0  0
  149.8023  136.9299  155.0661 C   0  0  0  0  0  0  0  0  0  0  0  0
  150.2557  136.7672  156.1989 O   0  0  0  0  0  0  0  0  0  0  0  0
  148.9177  136.0957  154.4978 N   0  0  0  0  0  0  0  0  0  0  0  0
  148.3513  134.9124  155.1345 C   0  0  0  0  0  0  0  0  0  0  0  0
  148.1888  133.7485  154.1365 C   0  0  0  0  0  0  0  0  0  0  0  0
  147.1716  134.0280  153.0921 N   0  3  1  0  0  0  0  0  0  0  0  0
  146.9302  132.8565  152.2179 C   0  0  0  0  0  0  0  0  0  0  0  0
  145.9484  133.2149  151.0875 C   0  0  1  0  0  0  0  0  0  0  0  0
  145.5982  131.9981  150.2238 C   0  0  0  0  0  0  0  0  0  0  0  0
  144.7371  133.7127  151.6494 O   0  0  0  0  0  0  0  0  0  0  0  0
  144.8921  134.8505  152.4967 C   0  0  2  0  0  0  0  0  0  0  0  0
  145.2424  136.1239  151.7057 C   0  0  0  0  0  0  0  0  0  0  0  0
  145.8868  134.5380  153.6320 C   0  0  0  0  0  0  0  0  0  0  0  0
  150.6370  140.1454  155.5136 N   0  0  0  0  0  0  0  0  0  0  0  0
  149.8664  143.0444  156.9894 H   0  0  0  0  0  0  0  0  0  0  0  0
  151.3888  142.7438  156.1577 H   0  0  0  0  0  0  0  0  0  0  0  0
  151.0028  141.8662  157.6371 H   0  0  0  0  0  0  0  0  0  0  0  0
  147.7753  141.8243  155.6297 H   0  0  0  0  0  0  0  0  0  0  0  0
  146.4691  139.9365  154.1213 H   0  0  0  0  0  0  0  0  0  0  0  0
  147.1142  138.3420  154.5054 H   0  0  0  0  0  0  0  0  0  0  0  0
  147.5848  139.1503  153.0073 H   0  0  0  0  0  0  0  0  0  0  0  0
  149.8606  138.0458  153.2106 H   0  0  0  0  0  0  0  0  0  0  0  0
  151.3292  138.1583  154.1577 H   0  0  0  0  0  0  0  0  0  0  0  0
  148.5949  136.3141  153.5657 H   0  0  0  0  0  0  0  0  0  0  0  0
  148.9837  134.6329  155.9773 H   0  0  0  0  0  0  0  0  0  0  0  0
  147.3806  135.1847  155.5497 H   0  0  0  0  0  0  0  0  0  0  0  0
  149.1533  133.5777  153.6560 H   0  0  0  0  0  0  0  0  0  0  0  0
  147.9326  132.8213  154.6515 H   0  0  0  0  0  0  0  0  0  0  0  0
  147.8732  132.5179  151.7866 H   0  0  0  0  0  0  0  0  0  0  0  0
  146.5371  132.0319  152.8154 H   0  0  0  0  0  0  0  0  0  0  0  0
  146.3937  133.9711  150.4406 H   0  0  0  0  0  0  0  0  0  0  0  0
  146.4892  131.5764  149.7577 H   0  0  0  0  0  0  0  0  0  0  0  0
  144.9049  132.2716  149.4280 H   0  0  0  0  0  0  0  0  0  0  0  0
  145.1283  131.2140  150.8183 H   0  0  0  0  0  0  0  0  0  0  0  0
  143.9152  135.0219  152.9502 H   0  0  0  0  0  0  0  0  0  0  0  0
  145.2213  136.9995  152.3549 H   0  0  0  0  0  0  0  0  0  0  0  0
  144.5234  136.2927  150.9037 H   0  0  0  0  0  0  0  0  0  0  0  0
  146.2357  136.0769  151.2599 H   0  0  0  0  0  0  0  0  0  0  0  0
  145.4577  133.7866  154.2969 H   0  0  0  0  0  0  0  0  0  0  0  0
  146.0421  135.4343  154.2314 H   0  0  0  0  0  0  0  0  0  0  0  0
  147.5541  134.7520  152.5008 H   0  0  0  0  0  0  0  0  0  0  0  0
  1  2  1  0  0  0  0
  1 22  1  0  0  0  0
  1 23  1  0  0  0  0
  1 24  1  0  0  0  0
  2 21  2  0  0  0  0
  2  3  1  0  0  0  0
  3  4  2  0  0  0  0
  3 25  1  0  0  0  0
  4  5  1  0  0  0  0
  4  6  1  0  0  0  0
  5 26  1  0  0  0  0
  5 27  1  0  0  0  0
  5 28  1  0  0  0  0
  6  7  1  0  0  0  0
  6 21  1  0  0  0  0
  7  8  1  0  0  0  0
  7 29  1  0  0  0  0
  7 30  1  0  0  0  0
  8  9  2  0  0  0  0
  8 10  1  0  0  0  0
 10 11  1  0  0  0  0
 10 31  1  0  0  0  0
 11 12  1  0  0  0  0
 11 32  1  0  0  0  0
 11 33  1  0  0  0  0
 12 13  1  0  0  0  0
 12 34  1  0  0  0  0
 12 35  1  0  0  0  0
 13 20  1  0  0  0  0
 13 14  1  0  0  0  0
 13 48  1  0  0  0  0
 14 15  1  0  0  0  0
 14 36  1  0  0  0  0
 14 37  1  0  0  0  0
 15 16  1  0  0  0  0
 15 17  1  0  0  0  0
 15 38  1  0  0  0  0
 16 39  1  0  0  0  0
 16 40  1  0  0  0  0
 16 41  1  0  0  0  0
 17 18  1  0  0  0  0
 18 19  1  0  0  0  0
 18 20  1  0  0  0  0
 18 42  1  0  0  0  0
 19 43  1  0  0  0  0
 19 44  1  0  0  0  0
 19 45  1  0  0  0  0
 20 46  1  0  0  0  0
 20 47  1  0  0  0  0
M  CHG  1  13   1
M  END
> <s_m_source_file>
AV-unprocessed.smi

> <i_m_source_file_index>
2106

> <i_lp_mmshare_version>
43012

> <i_f3d_flags>
0

> <s_epik_input>
W0NIM11jMVtjSF1jKFtDSDNdKW4objEpW0NIMl1DKD1PKVtOSF1bQ0gyXVtDSDJdTjJbQ0gyXVtDQEBIXShbQ0gzXSlPW0NAQEhdKFtDSDNdKVtDSDJdMg==

> <s_epik_cmdline>
J2VwaWtfcHl0aG9uJywgJy1waCcsICc3LjAnLCAnLXRuJywgJzgnLCAnLW1hJywgJzIwMCcsICctbWV0YWxfYmluZGluZycsICctaW1hZScsICc8aW5maWxlLm1hZT4nLCAnLW9tYWUnLCAnPG91dGZpbGUubWFlPic=

> <r_lp_tautomer_probability>
1

> <r_epik_Ionization_Penalty>
0.748586

> <r_epik_Ionization_Penalty_Charging>
0.748396

> <r_epik_Ionization_Penalty_Neutral>
0.000189656

> <r_epik_State_Penalty>
0.775162

> <r_epik_Charging_Adjusted_Penalty>
1.52356

> <i_epik_Tot_Q>
1

> <i_epik_Tot_abs_Q>
1

> <r_epik_Metal_State_Penalty>
0.775295

> <b_epik_Metal_Only>
0

> <s_lp_Force_Field>
OPLS_2005

> <r_lp_Energy>
15.4858

> <b_lp_Chiralities_Consistent>
1

> <s_lp_Variant>
AV-unprocessed.smi:2106-6

> <Gold.Version>
5.8.1

> <Gold.Id.Protein>
6NUR|6NUR_protein|mol2

> <Gold.PLP.Fitness>
45.7760

> <Gold.PLP.PLP>
-37.1823

> <Gold.PLP.part.hbond>
-2.8719

> <Gold.PLP.part.metal>
0.0000

> <Gold.PLP.part.buried>
-4.8540

> <Gold.PLP.part.nonpolar>
-30.8877

> <Gold.PLP.part.repulsive>
0.1864

> <Gold.PLP.ligand.clash>
0.0000

> <Gold.PLP.ligand.torsion>
0.4957

> <Gold.PLP.Chemscore.Hbond>
3.1787

> <Gold.PLP.Chemscore.CHOScore>
0.0000

> <Gold.PLP.Chemscore.Metal>
0.0000

> <Gold.Chemscore.Hbonds>
donor molecule, donor type, donor heavy atom, donor atom, acceptor molecule, acceptor atom, score
      L1  H    10    31       P1  7948  0.90
      L1  H    13    48       P1  7948  1.66
      P1  H  7989  7998       L1    21  0.10

> <Gold.PLP.Chemscore.Internal.Correction>
0.0489

> <Gold.Rescore>
     Score         DG    S(hbond)    S(metal)    S(lipo)     H(rot)  DE(clash)    DE(int)     intcor
     16.85     -17.45       1.92        0.00      85.36       1.73       0.01       0.58       ----

> <Gold.Chemscore.Fitness>
16.8513

> <Gold.Chemscore.DG>
-17.4490

> <Gold.Chemscore.ZeroCoef>
-5.4800

> <Gold.Chemscore.Hbond>
1.9206

> <Gold.Chemscore.Metal>
0.0000

> <Gold.Chemscore.Lipo>
85.3608

> <Gold.Chemscore.Internal_Hbond>
0.0000

> <Gold.Chemscore.DEClash>
0.0130

> <Gold.Chemscore.DEInternal>
0.5847

> <Gold.Chemscore.Rot>
1.7316

> <Gold.Chemscore.Internal.Correction>
   9.000000E+99

> <Gold.Chemscore.Hbonds>
donor molecule, donor type, donor heavy atom, donor atom, acceptor molecule, acceptor atom, score
      L1  H    10    31       P1  7948  0.88
      L1  H    13    48       P1  7948  0.75

> <Gold.Chemscore.Hbond.Weighted>
-6.4148

> <Gold.Chemscore.Metal.Weighted>
-0.0000

> <Gold.Chemscore.Lipo.Weighted>
-9.9872

> <Gold.Chemscore.Internal_Hbond.Weighted>
0.0000

> <Gold.Chemscore.DEClash.Weighted>
0.0130

> <Gold.Chemscore.DEInternal.Weighted>
0.5847

> <Gold.Chemscore.Rot.Weighted>
4.4330

> <Gold.Chemscore.Internal.Correction.Weighted>
   9.000000E+99

> <Gold.Protein.RotatedTorsions>
[ 6907 6896 6895 6894 ] final  140.57 input  -60.11 | X-H torsion
[ 7974 7965 7964 7962 ] final  126.73 input  175.53 | X-H torsion
[ 8008 7997 7996 7995 ] final  -12.99 input   59.86 | X-H torsion
[ 10167 10162 10161 10158 ] final -133.83 input  -65.29 | X-H torsion
[ 10718 10713 10712 10709 ] final   44.96 input   66.30 | X-H torsion
[ 10763 10752 10751 10750 ] final -147.28 input  -60.55 | X-H torsion
[ 11005 11000 10999 10996 ] final -173.67 input  -57.11 | X-H torsion

> <Gold.Protein.ActiveResidues>
 VAL166  LYS551  ARG553  GLY616  TRP617  ASP618  TYR619  PRO620  LYS621  CYS622 
 ASP623  PHE694  ASN695  SER759  ASP760  ASP761  ALA762  ILE779  LEU786  VAL792 
 PHE793  MET794  SER795  GLU796  ALA797  LYS798  CYS799  TRP800  GLU811  SER814 

> <Gold.Protein.RotatedAtoms>
  152.2414  133.5139  159.5272 H   0  0  0  0  0  0  0  0  0  0  0  0  # atno 6907 bound_to 6896
  150.7065  134.1083  159.4000 H   0  0  0  0  0  0  0  0  0  0  0  0  # atno 6908 bound_to 6896
  151.9004  135.0380  160.0556 H   0  0  0  0  0  0  0  0  0  0  0  0  # atno 6909 bound_to 6896
  145.0585  139.3825  143.5018 H   0  0  0  0  0  0  0  0  0  0  0  0  # atno 7974 bound_to 7965
  154.5331  140.2261  155.8770 H   0  0  0  0  0  0  0  0  0  0  0  0  # atno 8008 bound_to 7997
  156.1783  140.3106  155.9065 H   0  0  0  0  0  0  0  0  0  0  0  0  # atno 8009 bound_to 7997
  155.3411  140.0450  157.3035 H   0  0  0  0  0  0  0  0  0  0  0  0  # atno 8010 bound_to 7997
  139.8942  143.6685  152.2607 H   0  0  0  0  0  0  0  0  0  0  0  0  # atno 10167 bound_to 10162
  157.4324  130.8033  149.7616 H   0  0  0  0  0  0  0  0  0  0  0  0  # atno 10718 bound_to 10713
  154.8294  135.3364  154.6794 H   0  0  0  0  0  0  0  0  0  0  0  0  # atno 10763 bound_to 10752
  153.7415  135.6945  153.4970 H   0  0  0  0  0  0  0  0  0  0  0  0  # atno 10764 bound_to 10752
  153.2240  135.4439  155.0473 H   0  0  0  0  0  0  0  0  0  0  0  0  # atno 10765 bound_to 10752
  140.4832  134.6056  157.4927 H   0  0  0  0  0  0  0  0  0  0  0  0  # atno 11005 bound_to 11000
  146.3523  140.0271  142.8653 LP  0  0  0  0  0  0  0  0  0  0  0  0  # atno 17320 bound_to 7965
  145.1439  140.9586  143.4473 LP  0  0  0  0  0  0  0  0  0  0  0  0  # atno 17321 bound_to 7965
  139.7082  144.7624  151.1156 LP  0  0  0  0  0  0  0  0  0  0  0  0  # atno 17342 bound_to 10162
  140.7720  143.5365  150.9362 LP  0  0  0  0  0  0  0  0  0  0  0  0  # atno 17343 bound_to 10162
  155.9918  130.3935  150.2969 LP  0  0  0  0  0  0  0  0  0  0  0  0  # atno 17370 bound_to 10713
  157.1127  131.0225  151.3041 LP  0  0  0  0  0  0  0  0  0  0  0  0  # atno 17371 bound_to 10713
  139.9814  134.7131  155.9853 LP  0  0  0  0  0  0  0  0  0  0  0  0  # atno 17394 bound_to 11000
  141.1521  133.6547  156.4046 LP  0  0  0  0  0  0  0  0  0  0  0  0  # atno 17395 bound_to 11000

$$$$
