AV-unprocessed.smi:2063|AV-procd|sdf|8408|dock6
  -GOLD-   2272011 93D 1   1.00000     0.00000
 Structure written by MMmdl.
 39 40  0  0  0  0  0  0  0  0  1 V2000
  152.0937  140.2338  158.3575 C   0  0  0  0  0  0  0  0  0  0  0  0
  151.9144  140.8057  156.9436 C   0  0  0  0  0  0  0  0  0  0  0  0
  151.1663  142.1467  156.9255 C   0  0  0  0  0  0  0  0  0  0  0  0
  151.3087  139.8093  156.0046 C   0  0  0  0  0  0  0  0  0  0  0  0
  151.1008  140.0637  154.7055 N   0  0  0  0  0  0  0  0  0  0  0  0
  150.5336  138.9862  154.0404 N   0  0  0  0  0  0  0  0  0  0  0  0
  150.3268  137.9459  154.8591 C   0  0  0  0  0  0  0  0  0  0  0  0
  149.7630  136.7118  154.4397 N   0  0  0  0  0  0  0  0  0  0  0  0
  149.6252  135.5761  155.1462 C   0  0  0  0  0  0  0  0  0  0  0  0
  149.9979  135.4117  156.3080 O   0  0  0  0  0  0  0  0  0  0  0  0
  149.0174  134.6258  154.4200 N   0  0  0  0  0  0  0  0  0  0  0  0
  148.7086  133.2691  154.8705 C   0  0  2  0  0  0  0  0  0  0  0  0
  149.9982  132.6186  155.3925 C   0  0  0  0  0  0  0  0  0  0  0  0
  148.0752  132.4484  153.7273 C   0  0  2  0  0  0  0  0  0  0  0  0
  146.7909  133.0358  153.1391 C   0  0  0  0  0  0  0  0  0  0  0  0
  146.1523  131.8136  152.5215 C   0  0  0  0  0  0  0  0  0  0  0  0
  146.4900  130.7324  153.5439 C   0  0  0  0  0  0  0  0  0  0  0  0
  147.6885  131.1563  154.1900 O   0  0  0  0  0  0  0  0  0  0  0  0
  150.8137  138.2018  156.5258 S   0  0  0  0  0  0  0  0  0  0  0  0
  152.7011  139.3285  158.3398 H   0  0  0  0  0  0  0  0  0  0  0  0
  151.1333  139.9822  158.8089 H   0  0  0  0  0  0  0  0  0  0  0  0
  152.5899  140.9516  159.0112 H   0  0  0  0  0  0  0  0  0  0  0  0
  152.9175  141.0106  156.5674 H   0  0  0  0  0  0  0  0  0  0  0  0
  151.1307  142.5620  155.9178 H   0  0  0  0  0  0  0  0  0  0  0  0
  151.6570  142.8791  157.5672 H   0  0  0  0  0  0  0  0  0  0  0  0
  150.1399  142.0335  157.2760 H   0  0  0  0  0  0  0  0  0  0  0  0
  149.4160  136.6945  153.4922 H   0  0  0  0  0  0  0  0  0  0  0  0
  148.7453  134.8566  153.4757 H   0  0  0  0  0  0  0  0  0  0  0  0
  148.0019  133.3077  155.7015 H   0  0  0  0  0  0  0  0  0  0  0  0
  149.8060  131.6180  155.7803 H   0  0  0  0  0  0  0  0  0  0  0  0
  150.4331  133.2042  156.2031 H   0  0  0  0  0  0  0  0  0  0  0  0
  150.7475  132.5312  154.6048 H   0  0  0  0  0  0  0  0  0  0  0  0
  148.7990  132.3078  152.9224 H   0  0  0  0  0  0  0  0  0  0  0  0
  146.1506  133.4312  153.9290 H   0  0  0  0  0  0  0  0  0  0  0  0
  146.9760  133.8313  152.4169 H   0  0  0  0  0  0  0  0  0  0  0  0
  145.0804  131.9249  152.3556 H   0  0  0  0  0  0  0  0  0  0  0  0
  146.6259  131.5887  151.5649 H   0  0  0  0  0  0  0  0  0  0  0  0
  145.7023  130.6552  154.2939 H   0  0  0  0  0  0  0  0  0  0  0  0
  146.6135  129.7531  153.0811 H   0  0  0  0  0  0  0  0  0  0  0  0
  1  2  1  0  0  0  0
  1 20  1  0  0  0  0
  1 21  1  0  0  0  0
  1 22  1  0  0  0  0
  2  3  1  0  0  0  0
  2  4  1  0  0  0  0
  2 23  1  0  0  0  0
  3 24  1  0  0  0  0
  3 25  1  0  0  0  0
  3 26  1  0  0  0  0
  4 19  1  0  0  0  0
  4  5  2  0  0  0  0
  5  6  1  0  0  0  0
  6  7  2  0  0  0  0
  7  8  1  0  0  0  0
  7 19  1  0  0  0  0
  8  9  1  0  0  0  0
  8 27  1  0  0  0  0
  9 10  2  0  0  0  0
  9 11  1  0  0  0  0
 11 12  1  0  0  0  0
 11 28  1  0  0  0  0
 12 13  1  0  0  0  0
 12 14  1  0  0  0  0
 12 29  1  0  0  0  0
 13 30  1  0  0  0  0
 13 31  1  0  0  0  0
 13 32  1  0  0  0  0
 14 18  1  0  0  0  0
 14 15  1  0  0  0  0
 14 33  1  0  0  0  0
 15 16  1  0  0  0  0
 15 34  1  0  0  0  0
 15 35  1  0  0  0  0
 16 17  1  0  0  0  0
 16 36  1  0  0  0  0
 16 37  1  0  0  0  0
 17 18  1  0  0  0  0
 17 38  1  0  0  0  0
 17 39  1  0  0  0  0
M  END
> <s_m_source_file>
AV-unprocessed.smi

> <i_m_source_file_index>
2063

> <i_lp_mmshare_version>
43012

> <i_f3d_flags>
0

> <s_epik_input>
W0NIM11bQ0hdKFtDSDNdKWMxbm5jKHMxKVtOSF1DKD1PKVtOSF1bQ0BIXShbQ0gzXSlbQ0BASF0yW0NIMl1bQ0gyXVtDSDJdTzI=

> <s_epik_cmdline>
J2VwaWtfcHl0aG9uJywgJy1waCcsICc3LjAnLCAnLXRuJywgJzgnLCAnLW1hJywgJzIwMCcsICctbWV0YWxfYmluZGluZycsICctaW1hZScsICc8aW5maWxlLm1hZT4nLCAnLW9tYWUnLCAnPG91dGZpbGUubWFlPic=

> <r_lp_tautomer_probability>
1

> <r_epik_Ionization_Penalty>
0.00050567

> <r_epik_Ionization_Penalty_Charging>
0

> <r_epik_Ionization_Penalty_Neutral>
0.00050567

> <r_epik_State_Penalty>
-0

> <r_epik_Charging_Adjusted_Penalty>
0

> <i_epik_Tot_Q>
0

> <i_epik_Tot_abs_Q>
0

> <r_epik_Metal_State_Penalty>
0.219912

> <b_epik_Metal_Only>
0

> <s_lp_Force_Field>
OPLS_2005

> <r_lp_Energy>
10.8376

> <b_lp_Chiralities_Consistent>
1

> <s_lp_Variant>
AV-unprocessed.smi:2063-1

> <Gold.Version>
5.8.1

> <Gold.Id.Protein>
6NUR|6NUR_protein|mol2

> <Gold.PLP.Fitness>
37.4906

> <Gold.PLP.PLP>
-29.1863

> <Gold.PLP.part.hbond>
-3.7819

> <Gold.PLP.part.metal>
0.0000

> <Gold.PLP.part.buried>
-5.1089

> <Gold.PLP.part.nonpolar>
-21.2699

> <Gold.PLP.part.repulsive>
0.4295

> <Gold.PLP.ligand.clash>
0.0000

> <Gold.PLP.ligand.torsion>
0.0823

> <Gold.PLP.Chemscore.Hbond>
2.7940

> <Gold.PLP.Chemscore.CHOScore>
0.0000

> <Gold.PLP.Chemscore.Metal>
0.0000

> <Gold.Chemscore.Hbonds>
donor molecule, donor type, donor heavy atom, donor atom, acceptor molecule, acceptor atom, score
      L1  H     8    27       P1  7948  1.00
      L1  H    11    28       P1  7948  0.77
      P1  H  7989  7998       L1     5  1.00

> <Gold.PLP.Chemscore.Internal.Correction>
0.0869

> <Gold.Rescore>
     Score         DG    S(hbond)    S(metal)    S(lipo)     H(rot)  DE(clash)    DE(int)     intcor
     12.92     -14.95       1.93        0.00      56.75       1.42       0.03       2.00       ----

> <Gold.Chemscore.Fitness>
12.9189

> <Gold.Chemscore.DG>
-14.9521

> <Gold.Chemscore.ZeroCoef>
-5.4800

> <Gold.Chemscore.Hbond>
1.9327

> <Gold.Chemscore.Metal>
0.0000

> <Gold.Chemscore.Lipo>
56.7494

> <Gold.Chemscore.Internal_Hbond>
0.0000

> <Gold.Chemscore.DEClash>
0.0341

> <Gold.Chemscore.DEInternal>
1.9991

> <Gold.Chemscore.Rot>
1.4152

> <Gold.Chemscore.Internal.Correction>
   9.000000E+99

> <Gold.Chemscore.Hbonds>
donor molecule, donor type, donor heavy atom, donor atom, acceptor molecule, acceptor atom, score
      L1  H     8    27       P1  7948  0.88
      L1  H    11    28       P1  7948  0.37
      P1  H  7989  7998       L1     5  0.24

> <Gold.Chemscore.Hbond.Weighted>
-6.4554

> <Gold.Chemscore.Metal.Weighted>
-0.0000

> <Gold.Chemscore.Lipo.Weighted>
-6.6397

> <Gold.Chemscore.Internal_Hbond.Weighted>
0.0000

> <Gold.Chemscore.DEClash.Weighted>
0.0341

> <Gold.Chemscore.DEInternal.Weighted>
1.9991

> <Gold.Chemscore.Rot.Weighted>
3.6229

> <Gold.Chemscore.Internal.Correction.Weighted>
   9.000000E+99

> <Gold.Protein.RotatedTorsions>
[ 6907 6896 6895 6894 ] final  -24.86 input  -60.11 | X-H torsion
[ 7974 7965 7964 7962 ] final  -12.25 input  175.53 | X-H torsion
[ 8008 7997 7996 7995 ] final -128.04 input   59.86 | X-H torsion
[ 10167 10162 10161 10158 ] final -163.69 input  -65.29 | X-H torsion
[ 10718 10713 10712 10709 ] final -114.56 input   66.30 | X-H torsion
[ 10763 10752 10751 10750 ] final -159.09 input  -60.55 | X-H torsion
[ 11005 11000 10999 10996 ] final  -66.29 input  -57.11 | X-H torsion

> <Gold.Protein.ActiveResidues>
 VAL166  LYS551  ARG553  GLY616  TRP617  ASP618  TYR619  PRO620  LYS621  CYS622 
 ASP623  PHE694  ASN695  SER759  ASP760  ASP761  ALA762  ILE779  LEU786  VAL792 
 PHE793  MET794  SER795  GLU796  ALA797  LYS798  CYS799  TRP800  GLU811  SER814 

> <Gold.Protein.RotatedAtoms>
  151.1834  135.0371  159.8801 H   0  0  0  0  0  0  0  0  0  0  0  0  # atno 6907 bound_to 6896
  152.5443  134.1037  159.8339 H   0  0  0  0  0  0  0  0  0  0  0  0  # atno 6908 bound_to 6896
  151.1157  133.5093  159.2636 H   0  0  0  0  0  0  0  0  0  0  0  0  # atno 6909 bound_to 6896
  146.2158  140.3030  142.8376 H   0  0  0  0  0  0  0  0  0  0  0  0  # atno 7974 bound_to 7965
  155.2562  140.0434  157.2992 H   0  0  0  0  0  0  0  0  0  0  0  0  # atno 8008 bound_to 7997
  154.5739  140.2381  155.8121 H   0  0  0  0  0  0  0  0  0  0  0  0  # atno 8009 bound_to 7997
  156.2143  140.2989  155.9811 H   0  0  0  0  0  0  0  0  0  0  0  0  # atno 8010 bound_to 7997
  139.6303  144.0453  152.2010 H   0  0  0  0  0  0  0  0  0  0  0  0  # atno 10167 bound_to 10162
  156.0838  130.6033  150.8791 H   0  0  0  0  0  0  0  0  0  0  0  0  # atno 10718 bound_to 10713
  154.7503  135.3091  154.8569 H   0  0  0  0  0  0  0  0  0  0  0  0  # atno 10763 bound_to 10752
  153.9358  135.6780  153.4749 H   0  0  0  0  0  0  0  0  0  0  0  0  # atno 10764 bound_to 10752
  153.1099  135.4871  154.8945 H   0  0  0  0  0  0  0  0  0  0  0  0  # atno 10765 bound_to 10752
  141.1478  133.6697  156.6117 H   0  0  0  0  0  0  0  0  0  0  0  0  # atno 11005 bound_to 11000
  144.9043  140.7681  143.5847 LP  0  0  0  0  0  0  0  0  0  0  0  0  # atno 17320 bound_to 7965
  145.2958  139.1867  143.4716 LP  0  0  0  0  0  0  0  0  0  0  0  0  # atno 17321 bound_to 7965
  140.0117  144.6219  150.7642 LP  0  0  0  0  0  0  0  0  0  0  0  0  # atno 17342 bound_to 10162
  140.7435  143.2847  151.3498 LP  0  0  0  0  0  0  0  0  0  0  0  0  # atno 17343 bound_to 10162
  157.5965  131.0943  150.9033 LP  0  0  0  0  0  0  0  0  0  0  0  0  # atno 17370 bound_to 10713
  156.9198  130.5311  149.5279 LP  0  0  0  0  0  0  0  0  0  0  0  0  # atno 17371 bound_to 10713
  140.3609  134.7688  157.4533 LP  0  0  0  0  0  0  0  0  0  0  0  0  # atno 17394 bound_to 11000
  140.0786  134.5763  155.8565 LP  0  0  0  0  0  0  0  0  0  0  0  0  # atno 17395 bound_to 11000

$$$$
