AV-unprocessed.smi:3056|AV-procd|sdf|11660|dock8
  -GOLD-   2272017 63D 1   1.00000     0.00000
 Structure written by MMmdl.
 47 48  0  0  0  0  0  0  0  0  1 V2000
  150.9236  143.4718  157.8116 C   0  0  0  0  0  0  0  0  0  0  0  0
  150.8881  142.1516  157.0979 C   0  0  0  0  0  0  0  0  0  0  0  0
  151.3232  140.8864  157.5825 C   0  0  0  0  0  0  0  0  0  0  0  0
  151.1375  139.9107  156.7096 N   0  0  0  0  0  0  0  0  0  0  0  0
  150.5927  140.5158  155.6292 N   0  0  0  0  0  0  0  0  0  0  0  0
  150.1866  139.7417  154.4592 C   0  0  1  0  0  0  0  0  0  0  0  0
  151.0149  138.4484  154.2951 C   0  0  0  0  0  0  0  0  0  0  0  0
  148.6497  139.5299  154.4376 C   0  0  1  0  0  0  0  0  0  0  0  0
  147.8616  140.8312  154.6757 C   0  0  0  0  0  0  0  0  0  0  0  0
  148.2387  138.9239  153.1691 N   0  0  0  0  0  0  0  0  0  0  0  0
  146.7914  138.6702  153.0495 C   0  0  0  0  0  0  0  0  0  0  0  0
  146.3815  137.7931  151.8484 C   0  0  0  0  0  0  0  0  0  0  0  0
  146.7522  138.1165  150.7184 O   0  0  0  0  0  0  0  0  0  0  0  0
  145.6210  136.6933  152.0643 N   0  0  0  0  0  0  0  0  0  0  0  0
  145.2947  135.7247  151.0155 C   0  0  0  0  0  0  0  0  0  0  0  0
  145.9929  134.3977  151.3648 C   0  0  0  0  0  0  0  0  0  0  0  0
  145.5783  133.9570  152.6575 O   0  0  0  0  0  0  0  0  0  0  0  0
  145.8402  134.9019  153.6956 C   0  0  2  0  0  0  0  0  0  0  0  0
  145.3621  134.3027  155.0225 C   0  0  0  0  0  0  0  0  0  0  0  0
  145.1218  136.2235  153.3590 C   0  0  0  0  0  0  0  0  0  0  0  0
  150.4222  141.8677  155.8456 C   0  0  0  0  0  0  0  0  0  0  0  0
  151.8475  143.5998  158.3757 H   0  0  0  0  0  0  0  0  0  0  0  0
  150.0989  143.5663  158.5181 H   0  0  0  0  0  0  0  0  0  0  0  0
  150.8519  144.3103  157.1187 H   0  0  0  0  0  0  0  0  0  0  0  0
  151.7585  140.6479  158.5416 H   0  0  0  0  0  0  0  0  0  0  0  0
  150.4303  140.3659  153.5982 H   0  0  0  0  0  0  0  0  0  0  0  0
  150.8157  137.9666  153.3385 H   0  0  0  0  0  0  0  0  0  0  0  0
  150.8028  137.7229  155.0807 H   0  0  0  0  0  0  0  0  0  0  0  0
  152.0829  138.6657  154.3264 H   0  0  0  0  0  0  0  0  0  0  0  0
  148.4185  138.8567  155.2637 H   0  0  0  0  0  0  0  0  0  0  0  0
  148.2031  141.3321  155.5816 H   0  0  0  0  0  0  0  0  0  0  0  0
  146.7961  140.6391  154.7992 H   0  0  0  0  0  0  0  0  0  0  0  0
  147.9736  141.5307  153.8471 H   0  0  0  0  0  0  0  0  0  0  0  0
  148.7662  138.0743  153.0201 H   0  0  0  0  0  0  0  0  0  0  0  0
  146.4389  138.2230  153.9783 H   0  0  0  0  0  0  0  0  0  0  0  0
  146.2852  139.6302  152.9489 H   0  0  0  0  0  0  0  0  0  0  0  0
  144.2139  135.5838  150.9696 H   0  0  0  0  0  0  0  0  0  0  0  0
  145.5999  136.0522  150.0210 H   0  0  0  0  0  0  0  0  0  0  0  0
  145.7384  133.6320  150.6321 H   0  0  0  0  0  0  0  0  0  0  0  0
  147.0776  134.5137  151.3432 H   0  0  0  0  0  0  0  0  0  0  0  0
  146.9164  135.0741  153.7580 H   0  0  0  0  0  0  0  0  0  0  0  0
  145.5454  134.9879  155.8504 H   0  0  0  0  0  0  0  0  0  0  0  0
  145.8853  133.3715  155.2405 H   0  0  0  0  0  0  0  0  0  0  0  0
  144.2938  134.0870  154.9961 H   0  0  0  0  0  0  0  0  0  0  0  0
  145.2475  136.9441  154.1653 H   0  0  0  0  0  0  0  0  0  0  0  0
  144.0459  136.0565  153.2874 H   0  0  0  0  0  0  0  0  0  0  0  0
  149.9784  142.5096  155.0990 H   0  0  0  0  0  0  0  0  0  0  0  0
  1  2  1  0  0  0  0
  1 22  1  0  0  0  0
  1 23  1  0  0  0  0
  1 24  1  0  0  0  0
  2 21  2  0  0  0  0
  2  3  1  0  0  0  0
  3  4  2  0  0  0  0
  3 25  1  0  0  0  0
  4  5  1  0  0  0  0
  5  6  1  0  0  0  0
  5 21  1  0  0  0  0
  6  7  1  0  0  0  0
  6  8  1  0  0  0  0
  6 26  1  0  0  0  0
  7 27  1  0  0  0  0
  7 28  1  0  0  0  0
  7 29  1  0  0  0  0
  8  9  1  0  0  0  0
  8 10  1  0  0  0  0
  8 30  1  0  0  0  0
  9 31  1  0  0  0  0
  9 32  1  0  0  0  0
  9 33  1  0  0  0  0
 10 11  1  0  0  0  0
 10 34  1  0  0  0  0
 11 12  1  0  0  0  0
 11 35  1  0  0  0  0
 11 36  1  0  0  0  0
 12 13  2  0  0  0  0
 12 14  1  0  0  0  0
 14 20  1  0  0  0  0
 14 15  1  0  0  0  0
 15 16  1  0  0  0  0
 15 37  1  0  0  0  0
 15 38  1  0  0  0  0
 16 17  1  0  0  0  0
 16 39  1  0  0  0  0
 16 40  1  0  0  0  0
 17 18  1  0  0  0  0
 18 19  1  0  0  0  0
 18 20  1  0  0  0  0
 18 41  1  0  0  0  0
 19 42  1  0  0  0  0
 19 43  1  0  0  0  0
 19 44  1  0  0  0  0
 20 45  1  0  0  0  0
 20 46  1  0  0  0  0
 21 47  1  0  0  0  0
M  END
> <s_m_source_file>
AV-unprocessed.smi

> <i_m_source_file_index>
3056

> <i_lp_mmshare_version>
43012

> <i_f3d_flags>
0

> <s_epik_input>
W0NIM11jMVtjSF1ubihbY0hdMSlbQ0BIXShbQ0gzXSlbQ0BIXShbQ0gzXSlbTkhdW0NIMl1DKD1PKU4yW0NIMl1bQ0gyXU9bQ0BASF0oW0NIM10pW0NIMl0y

> <s_epik_cmdline>
J2VwaWtfcHl0aG9uJywgJy1waCcsICc3LjAnLCAnLXRuJywgJzgnLCAnLW1hJywgJzIwMCcsICctbWV0YWxfYmluZGluZycsICctaW1hZScsICc8aW5maWxlLm1hZT4nLCAnLW9tYWUnLCAnPG91dGZpbGUubWFlPic=

> <r_lp_tautomer_probability>
1

> <r_epik_Ionization_Penalty>
0.667689

> <r_epik_Ionization_Penalty_Charging>
0

> <r_epik_Ionization_Penalty_Neutral>
0.667689

> <r_epik_State_Penalty>
0.684601

> <r_epik_Charging_Adjusted_Penalty>
0.684601

> <i_epik_Tot_Q>
0

> <i_epik_Tot_abs_Q>
0

> <r_epik_Metal_State_Penalty>
0.681448

> <b_epik_Metal_Only>
0

> <s_lp_Force_Field>
OPLS_2005

> <r_lp_Energy>
31.287

> <b_lp_Chiralities_Consistent>
1

> <s_lp_Variant>
AV-unprocessed.smi:3056-16

> <Gold.Version>
5.8.1

> <Gold.Id.Protein>
6NUR|6NUR_protein|mol2

> <Gold.PLP.Fitness>
42.9609

> <Gold.PLP.PLP>
-36.5513

> <Gold.PLP.part.hbond>
-2.8785

> <Gold.PLP.part.metal>
0.0000

> <Gold.PLP.part.buried>
-4.5269

> <Gold.PLP.part.nonpolar>
-32.8117

> <Gold.PLP.part.repulsive>
1.1632

> <Gold.PLP.ligand.clash>
0.0008

> <Gold.PLP.ligand.torsion>
0.6960

> <Gold.PLP.Chemscore.Hbond>
1.6661

> <Gold.PLP.Chemscore.CHOScore>
0.8653

> <Gold.PLP.Chemscore.Metal>
0.0000

> <Gold.Chemscore.Hbonds>
donor molecule, donor type, donor heavy atom, donor atom, acceptor molecule, acceptor atom, score
      L1  H    10    34       P1  7948  0.63
      P1  H  7954  7966       L1    13  1.00
      L1  C    21    47       P1  8028  0.87

> <Gold.PLP.Chemscore.Internal.Correction>
0.2083

> <Gold.Rescore>
     Score         DG    S(hbond)    S(metal)    S(lipo)     H(rot)  DE(clash)    DE(int)     intcor
     15.58     -16.68       1.80        0.00      81.21       1.68       0.80       0.30       ----

> <Gold.Chemscore.Fitness>
15.5764

> <Gold.Chemscore.DG>
-16.6796

> <Gold.Chemscore.ZeroCoef>
-5.4800

> <Gold.Chemscore.Hbond>
1.7956

> <Gold.Chemscore.Metal>
0.0000

> <Gold.Chemscore.Lipo>
81.2072

> <Gold.Chemscore.Internal_Hbond>
0.0000

> <Gold.Chemscore.DEClash>
0.7995

> <Gold.Chemscore.DEInternal>
0.3037

> <Gold.Chemscore.Rot>
1.6793

> <Gold.Chemscore.Internal.Correction>
   9.000000E+99

> <Gold.Chemscore.Hbonds>
donor molecule, donor type, donor heavy atom, donor atom, acceptor molecule, acceptor atom, score
      L1  H    10    34       P1  7948  0.61
      P1  H  7954  7966       L1    13  0.97

> <Gold.Chemscore.Hbond.Weighted>
-5.9974

> <Gold.Chemscore.Metal.Weighted>
-0.0000

> <Gold.Chemscore.Lipo.Weighted>
-9.5012

> <Gold.Chemscore.Internal_Hbond.Weighted>
0.0000

> <Gold.Chemscore.DEClash.Weighted>
0.7995

> <Gold.Chemscore.DEInternal.Weighted>
0.3037

> <Gold.Chemscore.Rot.Weighted>
4.2990

> <Gold.Chemscore.Internal.Correction.Weighted>
   9.000000E+99

> <Gold.Protein.RotatedTorsions>
[ 6907 6896 6895 6894 ] final  -98.08 input  -60.11 | X-H torsion
[ 7974 7965 7964 7962 ] final  -35.12 input  175.53 | X-H torsion
[ 8008 7997 7996 7995 ] final -123.26 input   59.86 | X-H torsion
[ 10167 10162 10161 10158 ] final  105.45 input  -65.29 | X-H torsion
[ 10718 10713 10712 10709 ] final -120.66 input   66.30 | X-H torsion
[ 10763 10752 10751 10750 ] final  158.11 input  -60.55 | X-H torsion
[ 11005 11000 10999 10996 ] final -139.41 input  -57.11 | X-H torsion

> <Gold.Protein.ActiveResidues>
 VAL166  LYS551  ARG553  GLY616  TRP617  ASP618  TYR619  PRO620  LYS621  CYS622 
 ASP623  PHE694  ASN695  SER759  ASP760  ASP761  ALA762  ILE779  LEU786  VAL792 
 PHE793  MET794  SER795  GLU796  ALA797  LYS798  CYS799  TRP800  GLU811  SER814 

> <Gold.Protein.RotatedAtoms>
  150.7035  134.1250  159.4048 H   0  0  0  0  0  0  0  0  0  0  0  0  # atno 6907 bound_to 6896
  151.9236  135.0285  160.0533 H   0  0  0  0  0  0  0  0  0  0  0  0  # atno 6908 bound_to 6896
  152.2235  133.4967  159.5212 H   0  0  0  0  0  0  0  0  0  0  0  0  # atno 6909 bound_to 6896
  146.0772  140.6122  142.8925 H   0  0  0  0  0  0  0  0  0  0  0  0  # atno 7974 bound_to 7965
  155.1777  140.0410  157.2876 H   0  0  0  0  0  0  0  0  0  0  0  0  # atno 8008 bound_to 7997
  154.6225  140.2504  155.7504 H   0  0  0  0  0  0  0  0  0  0  0  0  # atno 8009 bound_to 7997
  156.2441  140.2892  156.0540 H   0  0  0  0  0  0  0  0  0  0  0  0  # atno 8010 bound_to 7997
  139.7091  144.7081  151.1056 H   0  0  0  0  0  0  0  0  0  0  0  0  # atno 10167 bound_to 10162
  156.1276  130.6371  150.9568 H   0  0  0  0  0  0  0  0  0  0  0  0  # atno 10718 bound_to 10713
  154.2109  135.2786  155.2958 H   0  0  0  0  0  0  0  0  0  0  0  0  # atno 10763 bound_to 10752
  154.5779  135.5598  153.7161 H   0  0  0  0  0  0  0  0  0  0  0  0  # atno 10764 bound_to 10752
  153.0064  135.6337  154.2248 H   0  0  0  0  0  0  0  0  0  0  0  0  # atno 10765 bound_to 10752
  140.8522  134.2272  157.4754 H   0  0  0  0  0  0  0  0  0  0  0  0  # atno 11005 bound_to 11000
  144.7269  140.4554  143.6966 LP  0  0  0  0  0  0  0  0  0  0  0  0  # atno 17320 bound_to 7965
  145.6284  139.1533  143.2983 LP  0  0  0  0  0  0  0  0  0  0  0  0  # atno 17321 bound_to 7965
  140.7729  143.5317  150.9415 LP  0  0  0  0  0  0  0  0  0  0  0  0  # atno 17342 bound_to 10162
  139.9001  143.6846  152.3132 LP  0  0  0  0  0  0  0  0  0  0  0  0  # atno 17343 bound_to 10162
  157.6456  131.0904  150.8160 LP  0  0  0  0  0  0  0  0  0  0  0  0  # atno 17370 bound_to 10713
  156.8248  130.4996  149.5338 LP  0  0  0  0  0  0  0  0  0  0  0  0  # atno 17371 bound_to 10713
  139.8704  134.9689  156.4646 LP  0  0  0  0  0  0  0  0  0  0  0  0  # atno 17394 bound_to 11000
  140.8777  133.7941  155.9433 LP  0  0  0  0  0  0  0  0  0  0  0  0  # atno 17395 bound_to 11000

$$$$
