AV-unprocessed.smi:3150|AV-procd|sdf|12014|dock6
  -GOLD-   2272017423D 1   1.00000     0.00000
 Structure written by MMmdl.
 32 33  0  0  0  0  0  0  0  0  2 V2000
  152.2507  139.4585  155.1537 C   0  0  0  0  0  0  0  0  0  0  0  0
  151.3543  140.3867  155.9874 C   0  0  1  0  0  0  0  0  0  0  0  0
  150.0073  139.9528  155.8159 O   0  0  0  0  0  0  0  0  0  0  0  0
  149.5454  139.9212  154.4708 C   0  0  0  0  0  0  0  0  0  0  0  0
  148.7754  141.1932  154.1892 C   0  0  0  0  0  0  0  0  0  0  0  0
  147.5389  141.5284  154.9925 C   0  0  0  0  0  0  0  0  0  0  0  0
  147.4099  141.1410  153.5414 C   0  0  0  0  0  0  0  0  0  0  0  0
  151.7404  140.3577  157.4757 C   0  0  0  0  0  0  0  0  0  0  0  0
  151.7145  139.2922  158.0935 O   0  0  0  0  0  0  0  0  0  0  0  0
  152.0747  141.5464  158.0109 N   0  0  0  0  0  0  0  0  0  0  0  0
  152.4569  141.8473  159.3472 C   0  0  0  0  0  0  0  0  0  0  0  0
  151.8220  142.7779  160.1037 N   0  0  0  0  0  0  0  0  0  0  0  0
  152.2453  143.0059  161.3641 C   0  0  0  0  0  0  0  0  0  0  0  0
  153.3254  142.3231  161.9502 C   0  0  0  0  0  0  0  0  0  0  0  0
  153.9933  141.3563  161.1789 C   0  0  0  0  0  0  0  0  0  0  0  0
  153.5576  141.1117  159.8612 C   0  0  0  0  0  0  0  0  0  0  0  0
  154.2097  140.1711  159.1103 O   0  5  0  0  0  0  0  0  0  0  0  0
  153.3027  139.7264  155.2568 H   0  0  0  0  0  0  0  0  0  0  0  0
  151.9966  139.5256  154.0957 H   0  0  0  0  0  0  0  0  0  0  0  0
  152.1381  138.4156  155.4526 H   0  0  0  0  0  0  0  0  0  0  0  0
  151.4604  141.4012  155.5977 H   0  0  0  0  0  0  0  0  0  0  0  0
  150.3705  139.8336  153.7629 H   0  0  0  0  0  0  0  0  0  0  0  0
  148.8829  139.0682  154.3196 H   0  0  0  0  0  0  0  0  0  0  0  0
  149.4055  142.0385  153.9190 H   0  0  0  0  0  0  0  0  0  0  0  0
  147.2050  140.8063  155.7351 H   0  0  0  0  0  0  0  0  0  0  0  0
  147.3755  142.5725  155.2510 H   0  0  0  0  0  0  0  0  0  0  0  0
  147.1625  141.9265  152.8302 H   0  0  0  0  0  0  0  0  0  0  0  0
  146.9927  140.1612  153.3172 H   0  0  0  0  0  0  0  0  0  0  0  0
  152.0444  142.3443  157.3925 H   0  0  0  0  0  0  0  0  0  0  0  0
  151.7051  143.7566  161.9218 H   0  0  0  0  0  0  0  0  0  0  0  0
  153.6331  142.5352  162.9632 H   0  0  0  0  0  0  0  0  0  0  0  0
  154.8286  140.8111  161.5943 H   0  0  0  0  0  0  0  0  0  0  0  0
  1  2  1  0  0  0  0
  1 18  1  0  0  0  0
  1 19  1  0  0  0  0
  1 20  1  0  0  0  0
  2  3  1  0  0  0  0
  2  8  1  0  0  0  0
  2 21  1  0  0  0  0
  3  4  1  0  0  0  0
  4  5  1  0  0  0  0
  4 22  1  0  0  0  0
  4 23  1  0  0  0  0
  5  7  1  0  0  0  0
  5  6  1  0  0  0  0
  5 24  1  0  0  0  0
  6  7  1  0  0  0  0
  6 25  1  0  0  0  0
  6 26  1  0  0  0  0
  7 27  1  0  0  0  0
  7 28  1  0  0  0  0
  8  9  2  0  0  0  0
  8 10  1  0  0  0  0
 10 29  1  0  0  0  0
 10 11  1  0  0  0  0
 11 16  2  0  0  0  0
 11 12  1  0  0  0  0
 12 13  2  0  0  0  0
 13 30  1  0  0  0  0
 13 14  1  0  0  0  0
 14 31  1  0  0  0  0
 14 15  2  0  0  0  0
 15 16  1  0  0  0  0
 15 32  1  0  0  0  0
 16 17  1  0  0  0  0
M  CHG  1  17  -1
M  END
> <s_m_source_file>
AV-unprocessed.smi

> <i_m_source_file_index>
3150

> <i_lp_mmshare_version>
43012

> <i_f3d_flags>
0

> <s_epik_input>
W0NIMl0xW0NIMl1bQ0hdMVtDSDJdT1tDQEBIXShbQ0gzXSlDKD1PKVtOSF1jMm5bY0hdW2NIXVtjSF1jMltPSF0=

> <s_epik_cmdline>
J2VwaWtfcHl0aG9uJywgJy1waCcsICc3LjAnLCAnLXRuJywgJzgnLCAnLW1hJywgJzIwMCcsICctbWV0YWxfYmluZGluZycsICctaW1hZScsICc8aW5maWxlLm1hZT4nLCAnLW9tYWUnLCAnPG91dGZpbGUubWFlPic=

> <r_epik_Ionization_Penalty>
4.12024

> <r_epik_Ionization_Penalty_Charging>
2.08551

> <r_epik_Ionization_Penalty_Neutral>
2.03473

> <r_epik_State_Penalty>
2.65726

> <r_epik_Charging_Adjusted_Penalty>
4.74277

> <i_epik_Tot_Q>
-1

> <i_epik_Tot_abs_Q>
1

> <r_epik_Metal_State_Penalty>
0.600747

> <b_epik_Metal_Only>
0

> <s_lp_Force_Field>
OPLS_2005

> <r_lp_Energy>
13.8702

> <b_lp_Chiralities_Consistent>
1

> <s_lp_Variant>
AV-unprocessed.smi:3150-8

> <Gold.Version>
5.8.1

> <Gold.Id.Protein>
6NUR|6NUR_protein|mol2

> <Gold.PLP.Fitness>
42.5223

> <Gold.PLP.PLP>
-38.1667

> <Gold.PLP.part.hbond>
-1.0000

> <Gold.PLP.part.metal>
0.0000

> <Gold.PLP.part.buried>
-3.4717

> <Gold.PLP.part.nonpolar>
-32.9580

> <Gold.PLP.part.repulsive>
0.1095

> <Gold.PLP.ligand.clash>
0.0000

> <Gold.PLP.ligand.torsion>
1.1177

> <Gold.PLP.Chemscore.Hbond>
2.0000

> <Gold.PLP.Chemscore.CHOScore>
0.0000

> <Gold.PLP.Chemscore.Metal>
0.0000

> <Gold.Chemscore.Hbonds>
donor molecule, donor type, donor heavy atom, donor atom, acceptor molecule, acceptor atom, score
      P1  H  7997  8008       L1    17  1.89

> <Gold.PLP.Chemscore.Internal.Correction>
0.5910

> <Gold.Rescore>
     Score         DG    S(hbond)    S(metal)    S(lipo)     H(rot)  DE(clash)    DE(int)     intcor
     13.20     -14.55       0.98        0.00      85.34       1.64       0.05       1.30       ----

> <Gold.Chemscore.Fitness>
13.1967

> <Gold.Chemscore.DG>
-14.5454

> <Gold.Chemscore.ZeroCoef>
-5.4800

> <Gold.Chemscore.Hbond>
0.9806

> <Gold.Chemscore.Metal>
0.0000

> <Gold.Chemscore.Lipo>
85.3439

> <Gold.Chemscore.Internal_Hbond>
0.0000

> <Gold.Chemscore.DEClash>
0.0508

> <Gold.Chemscore.DEInternal>
1.2979

> <Gold.Chemscore.Rot>
1.6387

> <Gold.Chemscore.Internal.Correction>
   9.000000E+99

> <Gold.Chemscore.Hbonds>
donor molecule, donor type, donor heavy atom, donor atom, acceptor molecule, acceptor atom, score
      P1  H  7997  8008       L1    17  0.89

> <Gold.Chemscore.Hbond.Weighted>
-3.2752

> <Gold.Chemscore.Metal.Weighted>
-0.0000

> <Gold.Chemscore.Lipo.Weighted>
-9.9852

> <Gold.Chemscore.Internal_Hbond.Weighted>
0.0000

> <Gold.Chemscore.DEClash.Weighted>
0.0508

> <Gold.Chemscore.DEInternal.Weighted>
1.2979

> <Gold.Chemscore.Rot.Weighted>
4.1950

> <Gold.Chemscore.Internal.Correction.Weighted>
   9.000000E+99

> <Gold.Protein.RotatedTorsions>
[ 6907 6896 6895 6894 ] final   93.45 input  -60.11 | X-H torsion
[ 7974 7965 7964 7962 ] final  -51.87 input  175.53 | X-H torsion
[ 8008 7997 7996 7995 ] final -110.69 input   59.86 | X-H torsion
[ 10167 10162 10161 10158 ] final  174.95 input  -65.29 | X-H torsion
[ 10718 10713 10712 10709 ] final  -71.59 input   66.30 | X-H torsion
[ 10763 10752 10751 10750 ] final    1.22 input  -60.55 | X-H torsion
[ 11005 11000 10999 10996 ] final -132.36 input  -57.11 | X-H torsion

> <Gold.Protein.ActiveResidues>
 VAL166  LYS551  ARG553  GLY616  TRP617  ASP618  TYR619  PRO620  LYS621  CYS622 
 ASP623  PHE694  ASN695  SER759  ASP760  ASP761  ALA762  ILE779  LEU786  VAL792 
 PHE793  MET794  SER795  GLU796  ALA797  LYS798  CYS799  TRP800  GLU811  SER814 

> <Gold.Protein.RotatedAtoms>
  152.5452  134.1345  159.8452 H   0  0  0  0  0  0  0  0  0  0  0  0  # atno 6907 bound_to 6896
  151.1387  133.4979  159.2605 H   0  0  0  0  0  0  0  0  0  0  0  0  # atno 6908 bound_to 6896
  151.1596  135.0277  159.8759 H   0  0  0  0  0  0  0  0  0  0  0  0  # atno 6909 bound_to 6896
  145.9142  140.7889  142.9680 H   0  0  0  0  0  0  0  0  0  0  0  0  # atno 7974 bound_to 7965
  154.9784  140.0396  157.2266 H   0  0  0  0  0  0  0  0  0  0  0  0  # atno 8008 bound_to 7997
  154.7737  140.2806  155.6095 H   0  0  0  0  0  0  0  0  0  0  0  0  # atno 8009 bound_to 7997
  156.2925  140.2605  156.2545 H   0  0  0  0  0  0  0  0  0  0  0  0  # atno 8010 bound_to 7997
  139.5160  144.3088  152.0311 H   0  0  0  0  0  0  0  0  0  0  0  0  # atno 10167 bound_to 10162
  156.0356  130.4354  150.2466 H   0  0  0  0  0  0  0  0  0  0  0  0  # atno 10718 bound_to 10713
  153.3108  135.6962  153.7118 H   0  0  0  0  0  0  0  0  0  0  0  0  # atno 10763 bound_to 10752
  153.5996  135.3464  155.2941 H   0  0  0  0  0  0  0  0  0  0  0  0  # atno 10764 bound_to 10752
  154.8574  135.4337  154.2245 H   0  0  0  0  0  0  0  0  0  0  0  0  # atno 10765 bound_to 10752
  140.9177  134.1485  157.4339 H   0  0  0  0  0  0  0  0  0  0  0  0  # atno 11005 bound_to 11000
  144.6746  140.1874  143.7400 LP  0  0  0  0  0  0  0  0  0  0  0  0  # atno 17320 bound_to 7965
  145.8632  139.2234  143.1704 LP  0  0  0  0  0  0  0  0  0  0  0  0  # atno 17321 bound_to 7965
  140.2533  144.4146  150.6213 LP  0  0  0  0  0  0  0  0  0  0  0  0  # atno 17342 bound_to 10162
  140.6209  143.2176  151.6695 LP  0  0  0  0  0  0  0  0  0  0  0  0  # atno 17343 bound_to 10162
  157.0566  131.0078  151.3236 LP  0  0  0  0  0  0  0  0  0  0  0  0  # atno 17370 bound_to 10713
  157.5101  130.7933  149.7696 LP  0  0  0  0  0  0  0  0  0  0  0  0  # atno 17371 bound_to 10713
  139.8769  134.9960  156.5771 LP  0  0  0  0  0  0  0  0  0  0  0  0  # atno 17394 bound_to 11000
  140.8028  133.8491  155.8742 LP  0  0  0  0  0  0  0  0  0  0  0  0  # atno 17395 bound_to 11000

$$$$
