AV-unprocessed.smi:730|AV-procd|sdf|3522|dock8
  -GOLD-   22720 0513D 1   1.00000     0.00000
 Structure written by MMmdl.
 40 41  0  0  0  0  0  0  0  0  1 V2000
  144.2781  131.6464  151.0921 C   0  0  0  0  0  0  0  0  0  0  0  0
  144.6365  132.8026  150.1373 C   0  0  0  0  0  0  0  0  0  0  0  0
  146.0966  132.6213  149.6821 C   0  0  0  0  0  0  0  0  0  0  0  0
  143.7088  132.7238  148.9102 C   0  0  0  0  0  0  0  0  0  0  0  0
  144.4743  134.1313  150.8213 C   0  0  0  0  0  0  0  0  0  0  0  0
  145.2525  135.2550  150.8945 C   0  0  0  0  0  0  0  0  0  0  0  0
  144.4834  136.1321  151.7039 C   0  0  0  0  0  0  0  0  0  0  0  0
  144.9547  137.4316  152.0208 N   0  0  0  0  0  0  0  0  0  0  0  0
  145.7895  137.7793  153.0148 C   0  0  0  0  0  0  0  0  0  0  0  0
  146.2887  137.0008  153.8278 O   0  0  0  0  0  0  0  0  0  0  0  0
  146.0186  139.1004  153.0191 N   0  0  0  0  0  0  0  0  0  0  0  0
  146.8864  139.7987  153.9650 C   0  0  2  0  0  0  0  0  0  0  0  0
  146.0903  140.2388  155.2082 C   0  0  0  0  0  0  0  0  0  0  0  0
  145.7691  141.7154  154.9854 C   0  0  0  0  0  0  0  0  0  0  0  0
  147.0007  142.2465  154.2599 C   0  0  0  0  0  0  0  0  0  0  0  0
  147.4331  141.1002  153.3347 C   0  0  1  0  0  0  0  0  0  0  0  0
  148.8410  141.0716  153.2212 O   0  0  0  0  0  0  0  0  0  0  0  0
  143.3373  135.5975  152.0934 N   0  0  0  0  0  0  0  0  0  0  0  0
  143.3254  134.3166  151.5309 O   0  0  0  0  0  0  0  0  0  0  0  0
  144.3950  130.6774  150.6056 H   0  0  0  0  0  0  0  0  0  0  0  0
  143.2445  131.7176  151.4331 H   0  0  0  0  0  0  0  0  0  0  0  0
  144.9178  131.6466  151.9754 H   0  0  0  0  0  0  0  0  0  0  0  0
  146.7828  132.6648  150.5286 H   0  0  0  0  0  0  0  0  0  0  0  0
  146.3957  133.3993  148.9785 H   0  0  0  0  0  0  0  0  0  0  0  0
  146.2443  131.6607  149.1877 H   0  0  0  0  0  0  0  0  0  0  0  0
  143.8011  131.7638  148.4014 H   0  0  0  0  0  0  0  0  0  0  0  0
  143.9418  133.5016  148.1819 H   0  0  0  0  0  0  0  0  0  0  0  0
  142.6634  132.8454  149.1958 H   0  0  0  0  0  0  0  0  0  0  0  0
  146.2175  135.4222  150.4395 H   0  0  0  0  0  0  0  0  0  0  0  0
  144.6200  138.1759  151.4273 H   0  0  0  0  0  0  0  0  0  0  0  0
  145.5658  139.6655  152.3158 H   0  0  0  0  0  0  0  0  0  0  0  0
  147.7009  139.1360  154.2652 H   0  0  0  0  0  0  0  0  0  0  0  0
  145.1952  139.6425  155.3910 H   0  0  0  0  0  0  0  0  0  0  0  0
  146.7244  140.1418  156.0904 H   0  0  0  0  0  0  0  0  0  0  0  0
  144.8907  141.8108  154.3459 H   0  0  0  0  0  0  0  0  0  0  0  0
  145.5667  142.2462  155.9161 H   0  0  0  0  0  0  0  0  0  0  0  0
  146.8035  143.1717  153.7175 H   0  0  0  0  0  0  0  0  0  0  0  0
  147.7782  142.4569  154.9966 H   0  0  0  0  0  0  0  0  0  0  0  0
  147.0084  141.2594  152.3419 H   0  0  0  0  0  0  0  0  0  0  0  0
  149.0861  140.3102  152.7176 H   0  0  0  0  0  0  0  0  0  0  0  0
  1  2  1  0  0  0  0
  1 20  1  0  0  0  0
  1 21  1  0  0  0  0
  1 22  1  0  0  0  0
  2  3  1  0  0  0  0
  2  4  1  0  0  0  0
  2  5  1  0  0  0  0
  3 23  1  0  0  0  0
  3 24  1  0  0  0  0
  3 25  1  0  0  0  0
  4 26  1  0  0  0  0
  4 27  1  0  0  0  0
  4 28  1  0  0  0  0
  5 19  1  0  0  0  0
  5  6  2  0  0  0  0
  6  7  1  0  0  0  0
  6 29  1  0  0  0  0
  7  8  1  0  0  0  0
  7 18  2  0  0  0  0
  8  9  1  0  0  0  0
  8 30  1  0  0  0  0
  9 10  2  0  0  0  0
  9 11  1  0  0  0  0
 11 12  1  0  0  0  0
 11 31  1  0  0  0  0
 12 16  1  0  0  0  0
 12 13  1  0  0  0  0
 12 32  1  0  0  0  0
 13 14  1  0  0  0  0
 13 33  1  0  0  0  0
 13 34  1  0  0  0  0
 14 15  1  0  0  0  0
 14 35  1  0  0  0  0
 14 36  1  0  0  0  0
 15 16  1  0  0  0  0
 15 37  1  0  0  0  0
 15 38  1  0  0  0  0
 16 17  1  0  0  0  0
 16 39  1  0  0  0  0
 17 40  1  0  0  0  0
 18 19  1  0  0  0  0
M  END
> <s_m_source_file>
AV-unprocessed.smi

> <i_m_source_file_index>
730

> <i_lp_mmshare_version>
43012

> <i_f3d_flags>
0

> <s_epik_input>
W0NIM11DKFtDSDNdKShbQ0gzXSljMVtjSF1jKG5vMSlbTkhdQyg9TylbTkhdW0NAQEhdMltDSDJdW0NIMl1bQ0gyXVtDQEhdMltPSF0=

> <s_epik_cmdline>
J2VwaWtfcHl0aG9uJywgJy1waCcsICc3LjAnLCAnLXRuJywgJzgnLCAnLW1hJywgJzIwMCcsICctbWV0YWxfYmluZGluZycsICctaW1hZScsICc8aW5maWxlLm1hZT4nLCAnLW9tYWUnLCAnPG91dGZpbGUubWFlPic=

> <r_lp_tautomer_probability>
1

> <r_epik_Ionization_Penalty>
2.23071e-05

> <r_epik_Ionization_Penalty_Charging>
0

> <r_epik_Ionization_Penalty_Neutral>
2.23071e-05

> <r_epik_State_Penalty>
-0

> <r_epik_Charging_Adjusted_Penalty>
0

> <i_epik_Tot_Q>
0

> <i_epik_Tot_abs_Q>
0

> <r_epik_Metal_State_Penalty>
-0

> <b_epik_Metal_Only>
0

> <s_lp_Force_Field>
OPLS_2005

> <r_lp_Energy>
16.5614

> <b_lp_Chiralities_Consistent>
1

> <s_lp_Variant>
AV-unprocessed.smi:730-1

> <Gold.Version>
5.8.1

> <Gold.Id.Protein>
6NUR|6NUR_protein|mol2

> <Gold.PLP.Fitness>
41.5974

> <Gold.PLP.PLP>
-35.0162

> <Gold.PLP.part.hbond>
-3.9557

> <Gold.PLP.part.metal>
0.0000

> <Gold.PLP.part.buried>
-5.8554

> <Gold.PLP.part.nonpolar>
-25.7742

> <Gold.PLP.part.repulsive>
0.4724

> <Gold.PLP.ligand.clash>
0.0000

> <Gold.PLP.ligand.torsion>
1.5989

> <Gold.PLP.Chemscore.Hbond>
3.2576

> <Gold.PLP.Chemscore.CHOScore>
0.0000

> <Gold.PLP.Chemscore.Metal>
0.0000

> <Gold.Chemscore.Hbonds>
donor molecule, donor type, donor heavy atom, donor atom, acceptor molecule, acceptor atom, score
      L1  H     8    30       P1 10171  0.91
      L1  H    11    31       P1 10175  0.51
      L1  H    17    40       P1  7957  0.70
      P1  H  8011  8017       L1    17  1.00

> <Gold.PLP.Chemscore.Internal.Correction>
0.0061

> <Gold.Rescore>
     Score         DG    S(hbond)    S(metal)    S(lipo)     H(rot)  DE(clash)    DE(int)     intcor
     17.67     -19.13       2.62        0.00      79.36       1.71       0.20       1.25       ----

> <Gold.Chemscore.Fitness>
17.6682

> <Gold.Chemscore.DG>
-19.1271

> <Gold.Chemscore.ZeroCoef>
-5.4800

> <Gold.Chemscore.Hbond>
2.6185

> <Gold.Chemscore.Metal>
0.0000

> <Gold.Chemscore.Lipo>
79.3624

> <Gold.Chemscore.Internal_Hbond>
0.0000

> <Gold.Chemscore.DEClash>
0.2042

> <Gold.Chemscore.DEInternal>
1.2547

> <Gold.Chemscore.Rot>
1.7125

> <Gold.Chemscore.Internal.Correction>
   9.000000E+99

> <Gold.Chemscore.Hbonds>
donor molecule, donor type, donor heavy atom, donor atom, acceptor molecule, acceptor atom, score
      L1  H     8    30       P1 10171  0.90
      L1  H    11    31       P1 10175  0.46
      L1  H    17    40       P1  7957  0.70
      P1  H  8011  8017       L1    17  0.29

> <Gold.Chemscore.Hbond.Weighted>
-8.7458

> <Gold.Chemscore.Metal.Weighted>
-0.0000

> <Gold.Chemscore.Lipo.Weighted>
-9.2854

> <Gold.Chemscore.Internal_Hbond.Weighted>
0.0000

> <Gold.Chemscore.DEClash.Weighted>
0.2042

> <Gold.Chemscore.DEInternal.Weighted>
1.2547

> <Gold.Chemscore.Rot.Weighted>
4.3841

> <Gold.Chemscore.Internal.Correction.Weighted>
   9.000000E+99

> <Gold.Protein.RotatedTorsions>
[ 6907 6896 6895 6894 ] final  137.02 input  -60.11 | X-H torsion
[ 7974 7965 7964 7962 ] final -137.91 input  175.53 | X-H torsion
[ 8008 7997 7996 7995 ] final   99.27 input   59.86 | X-H torsion
[ 10167 10162 10161 10158 ] final  -21.97 input  -65.29 | X-H torsion
[ 10718 10713 10712 10709 ] final -153.45 input   66.30 | X-H torsion
[ 10763 10752 10751 10750 ] final   67.18 input  -60.55 | X-H torsion
[ 11005 11000 10999 10996 ] final    1.77 input  -57.11 | X-H torsion

> <Gold.Protein.ActiveResidues>
 VAL166  LYS551  ARG553  GLY616  TRP617  ASP618  TYR619  PRO620  LYS621  CYS622 
 ASP623  PHE694  ASN695  SER759  ASP760  ASP761  ALA762  ILE779  LEU786  VAL792 
 PHE793  MET794  SER795  GLU796  ALA797  LYS798  CYS799  TRP800  GLU811  SER814 

> <Gold.Protein.RotatedAtoms>
  152.2827  133.5486  159.5507 H   0  0  0  0  0  0  0  0  0  0  0  0  # atno 6907 bound_to 6896
  150.7202  134.0540  159.3817 H   0  0  0  0  0  0  0  0  0  0  0  0  # atno 6908 bound_to 6896
  151.8450  135.0577  160.0503 H   0  0  0  0  0  0  0  0  0  0  0  0  # atno 6909 bound_to 6896
  144.8802  140.6497  143.5210 H   0  0  0  0  0  0  0  0  0  0  0  0  # atno 7974 bound_to 7965
  156.1088  140.3231  155.8043 H   0  0  0  0  0  0  0  0  0  0  0  0  # atno 8008 bound_to 7997
  155.4709  140.0546  157.2997 H   0  0  0  0  0  0  0  0  0  0  0  0  # atno 8009 bound_to 7997
  154.4746  140.2026  155.9925 H   0  0  0  0  0  0  0  0  0  0  0  0  # atno 8010 bound_to 7997
  140.7284  143.4578  151.0423 H   0  0  0  0  0  0  0  0  0  0  0  0  # atno 10167 bound_to 10162
  156.4859  130.8325  151.2550 H   0  0  0  0  0  0  0  0  0  0  0  0  # atno 10718 bound_to 10713
  153.0174  135.5293  154.6940 H   0  0  0  0  0  0  0  0  0  0  0  0  # atno 10763 bound_to 10752
  154.6067  135.2874  155.0479 H   0  0  0  0  0  0  0  0  0  0  0  0  # atno 10764 bound_to 10752
  154.1516  135.6562  153.5017 H   0  0  0  0  0  0  0  0  0  0  0  0  # atno 10765 bound_to 10752
  140.6117  133.9742  155.8180 H   0  0  0  0  0  0  0  0  0  0  0  0  # atno 11005 bound_to 11000
  145.3968  139.1605  143.4199 LP  0  0  0  0  0  0  0  0  0  0  0  0  # atno 17320 bound_to 7965
  146.2990  140.4061  142.8711 LP  0  0  0  0  0  0  0  0  0  0  0  0  # atno 17321 bound_to 7965
  139.8260  143.7755  152.3178 LP  0  0  0  0  0  0  0  0  0  0  0  0  # atno 17342 bound_to 10162
  139.7854  144.7429  151.0029 LP  0  0  0  0  0  0  0  0  0  0  0  0  # atno 17343 bound_to 10162
  157.7479  131.0029  150.3019 LP  0  0  0  0  0  0  0  0  0  0  0  0  # atno 17370 bound_to 10713
  156.3474  130.3825  149.7357 LP  0  0  0  0  0  0  0  0  0  0  0  0  # atno 17371 bound_to 10713
  141.0803  134.0072  157.3395 LP  0  0  0  0  0  0  0  0  0  0  0  0  # atno 17394 bound_to 11000
  139.9189  135.0199  156.7990 LP  0  0  0  0  0  0  0  0  0  0  0  0  # atno 17395 bound_to 11000

$$$$
