AV-unprocessed.smi:1166|AV-procd|sdf|4936|dock1
  -GOLD-   22720 3523D 1   1.00000     0.00000
 Structure written by MMmdl.
 46 47  0  0  0  0  0  0  0  0  1 V2000
  146.7359  133.1892  151.2801 C   0  0  0  0  0  0  0  0  0  0  0  0
  145.2869  133.1683  151.4533 N   0  0  0  0  0  0  0  0  0  0  0  0
  144.5629  131.9070  151.3566 C   0  0  0  0  0  0  0  0  0  0  0  0
  144.6036  134.3549  151.8056 C   0  0  0  0  0  0  0  0  0  0  0  0
  143.3016  134.3207  152.3638 C   0  0  0  0  0  0  0  0  0  0  0  0
  142.6645  135.5309  152.6969 C   0  0  0  0  0  0  0  0  0  0  0  0
  143.3291  136.7490  152.4605 C   0  0  0  0  0  0  0  0  0  0  0  0
  142.6684  137.9528  152.8254 N   0  0  0  0  0  0  0  0  0  0  0  0
  141.3839  138.1269  153.1792 C   0  0  0  0  0  0  0  0  0  0  0  0
  140.5422  137.2335  153.2714 O   0  0  0  0  0  0  0  0  0  0  0  0
  141.1276  139.4149  153.4472 N   0  0  0  0  0  0  0  0  0  0  0  0
  139.8430  139.9429  153.8951 C   0  0  2  0  0  0  0  0  0  0  0  0
  138.6848  139.3084  153.1079 C   0  0  0  0  0  0  0  0  0  0  0  0
  137.3549  139.9193  153.5638 C   0  0  0  0  0  0  0  0  0  0  0  0
  137.3659  141.4520  153.4258 C   0  0  0  0  0  0  0  0  0  0  0  0
  138.5281  142.0541  154.1108 N   0  0  0  0  0  0  0  0  0  0  0  0
  138.3292  142.8052  155.6680 S   0  0  0  0  0  0  0  0  0  0  0  0
  138.0159  144.5760  155.2795 C   0  0  0  0  0  0  0  0  0  0  0  0
  137.1139  142.2496  156.2828 O   0  0  0  0  0  0  0  0  0  0  0  0
  139.6135  142.7120  156.3792 O   0  0  0  0  0  0  0  0  0  0  0  0
  139.8330  141.4755  153.7345 C   0  0  0  0  0  0  0  0  0  0  0  0
  144.6307  136.6880  151.9105 C   0  0  0  0  0  0  0  0  0  0  0  0
  145.2451  135.5297  151.5912 N   0  0  0  0  0  0  0  0  0  0  0  0
  147.0203  133.9049  150.5082 H   0  0  0  0  0  0  0  0  0  0  0  0
  147.1155  132.2117  150.9820 H   0  0  0  0  0  0  0  0  0  0  0  0
  147.2283  133.4698  152.2117 H   0  0  0  0  0  0  0  0  0  0  0  0
  144.0739  131.6722  152.3026 H   0  0  0  0  0  0  0  0  0  0  0  0
  145.2332  131.0819  151.1157 H   0  0  0  0  0  0  0  0  0  0  0  0
  143.8056  131.9585  150.5739 H   0  0  0  0  0  0  0  0  0  0  0  0
  142.7793  133.3932  152.5429 H   0  0  0  0  0  0  0  0  0  0  0  0
  141.6731  135.5196  153.1257 H   0  0  0  0  0  0  0  0  0  0  0  0
  143.2581  138.7704  152.8770 H   0  0  0  0  0  0  0  0  0  0  0  0
  141.8806  140.0797  153.3470 H   0  0  0  0  0  0  0  0  0  0  0  0
  139.7200  139.7038  154.9514 H   0  0  0  0  0  0  0  0  0  0  0  0
  138.8202  139.4755  152.0384 H   0  0  0  0  0  0  0  0  0  0  0  0
  138.6658  138.2282  153.2577 H   0  0  0  0  0  0  0  0  0  0  0  0
  136.5367  139.5034  152.9754 H   0  0  0  0  0  0  0  0  0  0  0  0
  137.1585  139.6372  154.5974 H   0  0  0  0  0  0  0  0  0  0  0  0
  137.4126  141.7222  152.3703 H   0  0  0  0  0  0  0  0  0  0  0  0
  136.4375  141.8737  153.8096 H   0  0  0  0  0  0  0  0  0  0  0  0
  137.9027  145.1288  156.2117 H   0  0  0  0  0  0  0  0  0  0  0  0
  137.0995  144.6735  154.7002 H   0  0  0  0  0  0  0  0  0  0  0  0
  138.8557  144.9895  154.7239 H   0  0  0  0  0  0  0  0  0  0  0  0
  140.6288  141.9262  154.3272 H   0  0  0  0  0  0  0  0  0  0  0  0
  140.0366  141.7403  152.6959 H   0  0  0  0  0  0  0  0  0  0  0  0
  145.2203  137.5739  151.7340 H   0  0  0  0  0  0  0  0  0  0  0  0
  1  2  1  0  0  0  0
  1 24  1  0  0  0  0
  1 25  1  0  0  0  0
  1 26  1  0  0  0  0
  2  3  1  0  0  0  0
  2  4  1  0  0  0  0
  3 27  1  0  0  0  0
  3 28  1  0  0  0  0
  3 29  1  0  0  0  0
  4 23  1  0  0  0  0
  4  5  2  0  0  0  0
  5  6  1  0  0  0  0
  5 30  1  0  0  0  0
  6  7  2  0  0  0  0
  6 31  1  0  0  0  0
  7  8  1  0  0  0  0
  7 22  1  0  0  0  0
  8  9  1  0  0  0  0
  8 32  1  0  0  0  0
  9 10  2  0  0  0  0
  9 11  1  0  0  0  0
 11 12  1  0  0  0  0
 11 33  1  0  0  0  0
 12 21  1  0  0  0  0
 12 13  1  0  0  0  0
 12 34  1  0  0  0  0
 13 14  1  0  0  0  0
 13 35  1  0  0  0  0
 13 36  1  0  0  0  0
 14 15  1  0  0  0  0
 14 37  1  0  0  0  0
 14 38  1  0  0  0  0
 15 16  1  0  0  0  0
 15 39  1  0  0  0  0
 15 40  1  0  0  0  0
 16 17  1  0  0  0  0
 16 21  1  0  0  0  0
 17 18  1  0  0  0  0
 17 19  2  0  0  0  0
 17 20  2  0  0  0  0
 18 41  1  0  0  0  0
 18 42  1  0  0  0  0
 18 43  1  0  0  0  0
 21 44  1  0  0  0  0
 21 45  1  0  0  0  0
 22 23  2  0  0  0  0
 22 46  1  0  0  0  0
M  END
> <s_m_source_file>
AV-unprocessed.smi

> <i_m_source_file_index>
1166

> <i_lp_mmshare_version>
43012

> <i_f3d_flags>
0

> <s_epik_input>
W0NIM11OKFtDSDNdKWMxW2NIXVtjSF1jKFtjSF1uMSlbTkhdQyg9TylbTkhdW0NAQEhdMltDSDJdW0NIMl1bQ0gyXU4oW0NIMl0yKVMoPU8pKD1PKVtDSDNd

> <s_epik_cmdline>
J2VwaWtfcHl0aG9uJywgJy1waCcsICc3LjAnLCAnLXRuJywgJzgnLCAnLW1hJywgJzIwMCcsICctbWV0YWxfYmluZGluZycsICctaW1hZScsICc8aW5maWxlLm1hZT4nLCAnLW9tYWUnLCAnPG91dGZpbGUubWFlPic=

> <r_lp_tautomer_probability>
1

> <r_epik_Ionization_Penalty>
0.585334

> <r_epik_Ionization_Penalty_Charging>
0

> <r_epik_Ionization_Penalty_Neutral>
0.585334

> <r_epik_State_Penalty>
0.597345

> <r_epik_Charging_Adjusted_Penalty>
0.597345

> <i_epik_Tot_Q>
0

> <i_epik_Tot_abs_Q>
0

> <r_epik_Metal_State_Penalty>
0.29678

> <b_epik_Metal_Only>
0

> <s_lp_Force_Field>
OPLS_2005

> <r_lp_Energy>
0.833523

> <b_lp_Chiralities_Consistent>
1

> <s_lp_Variant>
AV-unprocessed.smi:1166-3

> <Gold.Version>
5.8.1

> <Gold.Id.Protein>
6NUR|6NUR_protein|mol2

> <Gold.PLP.Fitness>
40.3118

> <Gold.PLP.PLP>
-34.0177

> <Gold.PLP.part.hbond>
-3.1083

> <Gold.PLP.part.metal>
0.0000

> <Gold.PLP.part.buried>
-2.1442

> <Gold.PLP.part.nonpolar>
-28.9449

> <Gold.PLP.part.repulsive>
0.3968

> <Gold.PLP.ligand.clash>
0.0000

> <Gold.PLP.ligand.torsion>
1.3947

> <Gold.PLP.Chemscore.Hbond>
1.9280

> <Gold.PLP.Chemscore.CHOScore>
0.4107

> <Gold.PLP.Chemscore.Metal>
0.0000

> <Gold.Chemscore.Hbonds>
donor molecule, donor type, donor heavy atom, donor atom, acceptor molecule, acceptor atom, score
      L1  H     8    32       P1 10175  1.00
      L1  H    11    33       P1 10175  0.93
      L1  C    22    46       P1 10171  0.36

> <Gold.PLP.Chemscore.Internal.Correction>
2.0674

> <Gold.Rescore>
     Score         DG    S(hbond)    S(metal)    S(lipo)     H(rot)  DE(clash)    DE(int)     intcor
     12.38     -16.60       1.65        0.00      69.90       1.00       0.04       4.19       ----

> <Gold.Chemscore.Fitness>
12.3755

> <Gold.Chemscore.DG>
-16.6047

> <Gold.Chemscore.ZeroCoef>
-5.4800

> <Gold.Chemscore.Hbond>
1.6486

> <Gold.Chemscore.Metal>
0.0000

> <Gold.Chemscore.Lipo>
69.9016

> <Gold.Chemscore.Internal_Hbond>
0.0000

> <Gold.Chemscore.DEClash>
0.0411

> <Gold.Chemscore.DEInternal>
4.1880

> <Gold.Chemscore.Rot>
1.0000

> <Gold.Chemscore.Internal.Correction>
   9.000000E+99

> <Gold.Chemscore.Hbonds>
donor molecule, donor type, donor heavy atom, donor atom, acceptor molecule, acceptor atom, score
      L1  H     8    32       P1 10175  0.95
      L1  H    11    33       P1 10175  0.31

> <Gold.Chemscore.Hbond.Weighted>
-5.5062

> <Gold.Chemscore.Metal.Weighted>
-0.0000

> <Gold.Chemscore.Lipo.Weighted>
-8.1785

> <Gold.Chemscore.Internal_Hbond.Weighted>
0.0000

> <Gold.Chemscore.DEClash.Weighted>
0.0411

> <Gold.Chemscore.DEInternal.Weighted>
4.1880

> <Gold.Chemscore.Rot.Weighted>
2.5600

> <Gold.Chemscore.Internal.Correction.Weighted>
   9.000000E+99

> <Gold.Protein.RotatedTorsions>
[ 6907 6896 6895 6894 ] final  153.16 input  -60.11 | X-H torsion
[ 7974 7965 7964 7962 ] final  -48.15 input  175.53 | X-H torsion
[ 8008 7997 7996 7995 ] final  142.62 input   59.86 | X-H torsion
[ 10167 10162 10161 10158 ] final   87.63 input  -65.29 | X-H torsion
[ 10718 10713 10712 10709 ] final  -13.43 input   66.30 | X-H torsion
[ 10763 10752 10751 10750 ] final   65.52 input  -60.55 | X-H torsion
[ 11005 11000 10999 10996 ] final  -51.30 input  -57.11 | X-H torsion

> <Gold.Protein.ActiveResidues>
 VAL166  LYS551  ARG553  GLY616  TRP617  ASP618  TYR619  PRO620  LYS621  CYS622 
 ASP623  PHE694  ASN695  SER759  ASP760  ASP761  ALA762  ILE779  LEU786  VAL792 
 PHE793  MET794  SER795  GLU796  ALA797  LYS798  CYS799  TRP800  GLU811  SER814 

> <Gold.Protein.RotatedAtoms>
  152.0766  133.4132  159.4482 H   0  0  0  0  0  0  0  0  0  0  0  0  # atno 6907 bound_to 6896
  150.6862  134.3030  159.4723 H   0  0  0  0  0  0  0  0  0  0  0  0  # atno 6908 bound_to 6896
  152.0867  134.9434  160.0623 H   0  0  0  0  0  0  0  0  0  0  0  0  # atno 6909 bound_to 6896
  145.9542  140.7543  142.9489 H   0  0  0  0  0  0  0  0  0  0  0  0  # atno 7974 bound_to 7965
  156.2946  140.2284  156.4757 H   0  0  0  0  0  0  0  0  0  0  0  0  # atno 8008 bound_to 7997
  154.7896  140.0455  157.1212 H   0  0  0  0  0  0  0  0  0  0  0  0  # atno 8009 bound_to 7997
  154.9661  140.3060  155.5012 H   0  0  0  0  0  0  0  0  0  0  0  0  # atno 8010 bound_to 7997
  139.8754  144.6470  150.8903 H   0  0  0  0  0  0  0  0  0  0  0  0  # atno 10167 bound_to 10162
  156.6304  130.4900  149.6131 H   0  0  0  0  0  0  0  0  0  0  0  0  # atno 10718 bound_to 10713
  153.0100  135.5353  154.6681 H   0  0  0  0  0  0  0  0  0  0  0  0  # atno 10763 bound_to 10752
  154.5872  135.2855  155.0674 H   0  0  0  0  0  0  0  0  0  0  0  0  # atno 10764 bound_to 10752
  154.1781  135.6521  153.5079 H   0  0  0  0  0  0  0  0  0  0  0  0  # atno 10765 bound_to 10752
  141.0863  133.6642  156.3856 H   0  0  0  0  0  0  0  0  0  0  0  0  # atno 11005 bound_to 11000
  144.6801  140.2484  143.7335 LP  0  0  0  0  0  0  0  0  0  0  0  0  # atno 17320 bound_to 7965
  145.8130  139.2011  143.1982 LP  0  0  0  0  0  0  0  0  0  0  0  0  # atno 17321 bound_to 7965
  140.7754  143.3629  151.1793 LP  0  0  0  0  0  0  0  0  0  0  0  0  # atno 17342 bound_to 10162
  139.7245  143.9170  152.2997 LP  0  0  0  0  0  0  0  0  0  0  0  0  # atno 17343 bound_to 10162
  156.2239  130.6754  151.1396 LP  0  0  0  0  0  0  0  0  0  0  0  0  # atno 17370 bound_to 10713
  157.7201  131.0686  150.6168 LP  0  0  0  0  0  0  0  0  0  0  0  0  # atno 17371 bound_to 10713
  140.5355  134.6171  157.5363 LP  0  0  0  0  0  0  0  0  0  0  0  0  # atno 17394 bound_to 11000
  139.9682  134.7337  156.0095 LP  0  0  0  0  0  0  0  0  0  0  0  0  # atno 17395 bound_to 11000

$$$$
