AV-unprocessed.smi:2046|AV-procd|sdf|8313|dock7
  -GOLD-   2272010583D 1   1.00000     0.00000
 Structure written by MMmdl.
 29 30  0  0  0  0  0  0  0  0  2 V2000
  151.2495  139.6823  159.1560 O   0  0  0  0  0  0  0  0  0  0  0  0
  152.0301  140.0062  158.2577 C   0  0  0  0  0  0  0  0  0  0  0  0
  152.5473  139.1888  157.3121 N   0  5  0  0  0  0  0  0  0  0  0  0
  151.9766  139.1201  156.0980 C   0  0  0  0  0  0  0  0  0  0  0  0
  151.4621  140.1975  155.4840 N   0  0  0  0  0  0  0  0  0  0  0  0
  150.9272  139.9109  154.2352 N   0  0  0  0  0  0  0  0  0  0  0  0
  151.0613  138.6194  153.9340 C   0  0  0  0  0  0  0  0  0  0  0  0
  151.8536  137.6369  155.1474 S   0  0  0  0  0  0  0  0  0  0  0  0
  152.4442  141.2786  158.1563 N   0  0  0  0  0  0  0  0  0  0  0  0
  152.0700  142.3861  159.0386 C   0  0  2  0  0  0  0  0  0  0  0  0
  152.3090  143.7111  158.2716 C   0  0  0  0  0  0  0  0  0  0  0  0
  152.3638  144.9993  159.1232 C   0  0  0  0  0  0  0  0  0  0  0  0
  151.2707  145.1183  160.2049 C   0  0  0  0  0  0  0  0  0  0  0  0
  151.2499  144.0191  161.2987 C   0  0  0  0  0  0  0  0  0  0  0  0
  152.4460  143.1780  161.3481 N   0  0  0  0  0  0  0  0  0  0  0  0
  152.8816  142.3854  160.3539 C   0  0  0  0  0  0  0  0  0  0  0  0
  153.9027  141.7094  160.4753 O   0  0  0  0  0  0  0  0  0  0  0  0
  150.6940  138.2436  152.9908 H   0  0  0  0  0  0  0  0  0  0  0  0
  153.0876  141.4935  157.4090 H   0  0  0  0  0  0  0  0  0  0  0  0
  151.0081  142.2905  159.2684 H   0  0  0  0  0  0  0  0  0  0  0  0
  153.2387  143.6484  157.7037 H   0  0  0  0  0  0  0  0  0  0  0  0
  151.5190  143.8172  157.5271 H   0  0  0  0  0  0  0  0  0  0  0  0
  153.3442  145.0849  159.5941 H   0  0  0  0  0  0  0  0  0  0  0  0
  152.2972  145.8590  158.4558 H   0  0  0  0  0  0  0  0  0  0  0  0
  151.3963  146.0839  160.6960 H   0  0  0  0  0  0  0  0  0  0  0  0
  150.2917  145.1635  159.7266 H   0  0  0  0  0  0  0  0  0  0  0  0
  151.1209  144.4830  162.2767 H   0  0  0  0  0  0  0  0  0  0  0  0
  150.3771  143.3781  161.1672 H   0  0  0  0  0  0  0  0  0  0  0  0
  152.9784  143.1899  162.2058 H   0  0  0  0  0  0  0  0  0  0  0  0
  1  2  2  0  0  0  0
  2  3  1  0  0  0  0
  2  9  1  0  0  0  0
  3  4  1  0  0  0  0
  4  8  1  0  0  0  0
  4  5  2  0  0  0  0
  5  6  1  0  0  0  0
  6  7  2  0  0  0  0
  7  8  1  0  0  0  0
  7 18  1  0  0  0  0
  9 10  1  0  0  0  0
  9 19  1  0  0  0  0
 10 16  1  0  0  0  0
 10 11  1  0  0  0  0
 10 20  1  0  0  0  0
 11 12  1  0  0  0  0
 11 21  1  0  0  0  0
 11 22  1  0  0  0  0
 12 13  1  0  0  0  0
 12 23  1  0  0  0  0
 12 24  1  0  0  0  0
 13 14  1  0  0  0  0
 13 25  1  0  0  0  0
 13 26  1  0  0  0  0
 14 15  1  0  0  0  0
 14 27  1  0  0  0  0
 14 28  1  0  0  0  0
 15 16  1  0  0  0  0
 15 29  1  0  0  0  0
 16 17  2  0  0  0  0
M  CHG  1   3  -1
M  END
> <s_m_source_file>
AV-unprocessed.smi

> <i_m_source_file_index>
2046

> <i_lp_mmshare_version>
43012

> <i_f3d_flags>
0

> <s_epik_input>
czFbY0hdbm5jMVtOSF1DKD1PKVtOSF1bQ0BASF0yW0NIMl1bQ0gyXVtDSDJdW0NIMl1bTkhdQzI9Tw==

> <s_epik_cmdline>
J2VwaWtfcHl0aG9uJywgJy1waCcsICc3LjAnLCAnLXRuJywgJzgnLCAnLW1hJywgJzIwMCcsICctbWV0YWxfYmluZGluZycsICctaW1hZScsICc8aW5maWxlLm1hZT4nLCAnLW9tYWUnLCAnPG91dGZpbGUubWFlPic=

> <r_lp_tautomer_probability>
1

> <r_epik_Ionization_Penalty>
4.05949

> <r_epik_Ionization_Penalty_Charging>
4.01916

> <r_epik_Ionization_Penalty_Neutral>
0.0403285

> <r_epik_State_Penalty>
4.01849

> <r_epik_Charging_Adjusted_Penalty>
8.03765

> <i_epik_Tot_Q>
-1

> <i_epik_Tot_abs_Q>
1

> <r_epik_Metal_State_Penalty>
0.626741

> <b_epik_Metal_Only>
1

> <s_lp_Force_Field>
OPLS_2005

> <r_lp_Energy>
13.487

> <b_lp_Chiralities_Consistent>
1

> <s_lp_Variant>
AV-unprocessed.smi:2046-3

> <Gold.Version>
5.8.1

> <Gold.Id.Protein>
6NUR|6NUR_protein|mol2

> <Gold.PLP.Fitness>
42.6744

> <Gold.PLP.PLP>
-33.6723

> <Gold.PLP.part.hbond>
-2.9654

> <Gold.PLP.part.metal>
0.0000

> <Gold.PLP.part.buried>
-2.8926

> <Gold.PLP.part.nonpolar>
-27.9571

> <Gold.PLP.part.repulsive>
0.2801

> <Gold.PLP.ligand.clash>
0.0000

> <Gold.PLP.ligand.torsion>
1.3073

> <Gold.PLP.Chemscore.Hbond>
2.4000

> <Gold.PLP.Chemscore.CHOScore>
1.4713

> <Gold.PLP.Chemscore.Metal>
0.0000

> <Gold.Chemscore.Hbonds>
donor molecule, donor type, donor heavy atom, donor atom, acceptor molecule, acceptor atom, score
      P1  H  7989  7998       L1     6  0.63
      P1  H  7997  8009       L1     3  1.24
      L1  C     7    18       P1  7948  0.14
      L1  C     7    18       P1  7949  0.35
      L1  C     7    18       P1  7957  0.26

> <Gold.PLP.Chemscore.Internal.Correction>
0.0028

> <Gold.Rescore>
     Score         DG    S(hbond)    S(metal)    S(lipo)     H(rot)  DE(clash)    DE(int)     intcor
     11.70     -13.56       0.61        0.00      73.67       1.00       0.39       1.47       ----

> <Gold.Chemscore.Fitness>
11.7011

> <Gold.Chemscore.DG>
-13.5613

> <Gold.Chemscore.ZeroCoef>
-5.4800

> <Gold.Chemscore.Hbond>
0.6052

> <Gold.Chemscore.Metal>
0.0000

> <Gold.Chemscore.Lipo>
73.6745

> <Gold.Chemscore.Internal_Hbond>
0.0000

> <Gold.Chemscore.DEClash>
0.3875

> <Gold.Chemscore.DEInternal>
1.4727

> <Gold.Chemscore.Rot>
1.0000

> <Gold.Chemscore.Internal.Correction>
   9.000000E+99

> <Gold.Chemscore.Hbonds>
donor molecule, donor type, donor heavy atom, donor atom, acceptor molecule, acceptor atom, score
      P1  H  7989  7998       L1     6  0.14
      P1  H  7997  8009       L1     3  0.06

> <Gold.Chemscore.Hbond.Weighted>
-2.0214

> <Gold.Chemscore.Metal.Weighted>
-0.0000

> <Gold.Chemscore.Lipo.Weighted>
-8.6199

> <Gold.Chemscore.Internal_Hbond.Weighted>
0.0000

> <Gold.Chemscore.DEClash.Weighted>
0.3875

> <Gold.Chemscore.DEInternal.Weighted>
1.4727

> <Gold.Chemscore.Rot.Weighted>
2.5600

> <Gold.Chemscore.Internal.Correction.Weighted>
   9.000000E+99

> <Gold.Protein.RotatedTorsions>
[ 6907 6896 6895 6894 ] final -164.93 input  -60.11 | X-H torsion
[ 7974 7965 7964 7962 ] final  -18.57 input  175.53 | X-H torsion
[ 8008 7997 7996 7995 ] final  177.88 input   59.86 | X-H torsion
[ 10167 10162 10161 10158 ] final -167.81 input  -65.29 | X-H torsion
[ 10718 10713 10712 10709 ] final   25.34 input   66.30 | X-H torsion
[ 10763 10752 10751 10750 ] final   33.77 input  -60.55 | X-H torsion
[ 11005 11000 10999 10996 ] final  107.90 input  -57.11 | X-H torsion

> <Gold.Protein.ActiveResidues>
 VAL166  LYS551  ARG553  GLY616  TRP617  ASP618  TYR619  PRO620  LYS621  CYS622 
 ASP623  PHE694  ASN695  SER759  ASP760  ASP761  ALA762  ILE779  LEU786  VAL792 
 PHE793  MET794  SER795  GLU796  ALA797  LYS798  CYS799  TRP800  GLU811  SER814 

> <Gold.Protein.RotatedAtoms>
  151.4196  133.3702  159.2754 H   0  0  0  0  0  0  0  0  0  0  0  0  # atno 6907 bound_to 6896
  150.9303  134.8719  159.7557 H   0  0  0  0  0  0  0  0  0  0  0  0  # atno 6908 bound_to 6896
  152.5025  134.4140  159.9510 H   0  0  0  0  0  0  0  0  0  0  0  0  # atno 6909 bound_to 6896
  146.1885  140.3940  142.8467 H   0  0  0  0  0  0  0  0  0  0  0  0  # atno 7974 bound_to 7965
  156.0608  140.1347  156.9944 H   0  0  0  0  0  0  0  0  0  0  0  0  # atno 8008 bound_to 7997
  154.4480  140.0992  156.6584 H   0  0  0  0  0  0  0  0  0  0  0  0  # atno 8009 bound_to 7997
  155.5381  140.3460  155.4443 H   0  0  0  0  0  0  0  0  0  0  0  0  # atno 8010 bound_to 7997
  139.6026  144.0980  152.1758 H   0  0  0  0  0  0  0  0  0  0  0  0  # atno 10167 bound_to 10162
  157.1920  130.6850  149.6154 H   0  0  0  0  0  0  0  0  0  0  0  0  # atno 10718 bound_to 10713
  153.0196  135.6378  154.1564 H   0  0  0  0  0  0  0  0  0  0  0  0  # atno 10763 bound_to 10752
  154.1300  135.2841  155.3189 H   0  0  0  0  0  0  0  0  0  0  0  0  # atno 10764 bound_to 10752
  154.6201  135.5527  153.7628 H   0  0  0  0  0  0  0  0  0  0  0  0  # atno 10765 bound_to 10752
  139.8835  134.9414  156.5890 H   0  0  0  0  0  0  0  0  0  0  0  0  # atno 11005 bound_to 11000
  144.8442  140.6904  143.6209 LP  0  0  0  0  0  0  0  0  0  0  0  0  # atno 17320 bound_to 7965
  145.3864  139.1626  143.4252 LP  0  0  0  0  0  0  0  0  0  0  0  0  # atno 17321 bound_to 7965
  140.0580  144.5880  150.7285 LP  0  0  0  0  0  0  0  0  0  0  0  0  # atno 17342 bound_to 10162
  140.7261  143.2637  151.4116 LP  0  0  0  0  0  0  0  0  0  0  0  0  # atno 17343 bound_to 10162
  155.9710  130.4611  150.6098 LP  0  0  0  0  0  0  0  0  0  0  0  0  # atno 17370 bound_to 10713
  157.3851  131.0787  151.1443 LP  0  0  0  0  0  0  0  0  0  0  0  0  # atno 17371 bound_to 10713
  140.7970  133.8536  155.8694 LP  0  0  0  0  0  0  0  0  0  0  0  0  # atno 17394 bound_to 11000
  140.9627  134.1635  157.4641 LP  0  0  0  0  0  0  0  0  0  0  0  0  # atno 17395 bound_to 11000

$$$$
