AV-unprocessed.smi:176|AV-procd|sdf|1436|dock2
  -GOLD-   2262019223D 1   1.00000     0.00000
 Structure written by MMmdl.
 57 61  0  0  0  0  0  0  0  0  1 V2000
  147.6313  133.8069  153.0765 O   0  0  0  0  0  0  0  0  0  0  0  0
  148.2486  132.5945  153.4569 C   0  0  0  0  0  0  0  0  0  0  0  0
  149.2550  132.7928  154.6044 C   0  0  0  0  0  0  0  0  0  0  0  0
  149.8919  131.4344  154.9655 C   0  0  0  0  0  0  0  0  0  0  0  0
  148.9229  130.4503  155.2623 O   0  0  0  0  0  0  0  0  0  0  0  0
  150.2217  133.9918  154.4693 C   0  0  0  0  0  0  0  0  0  0  0  0
  150.0159  134.3176  155.9496 C   0  0  0  0  0  0  0  0  0  0  0  0
  150.0610  135.6724  156.4159 N   0  0  0  0  0  0  0  0  0  0  0  0
  149.6012  136.1484  157.6232 C   0  0  0  0  0  0  0  0  0  0  0  0
  149.7894  137.4236  157.8269 N   0  0  0  0  0  0  0  0  0  0  0  0
  150.4595  137.8542  156.6878 C   0  0  0  0  0  0  0  0  0  0  0  0
  150.9758  139.1088  156.2566 C   0  0  0  0  0  0  0  0  0  0  0  0
  150.8378  140.2461  156.9843 N   0  0  0  0  0  0  0  0  0  0  0  0
  149.8495  141.1834  156.4505 C   0  0  0  0  0  0  0  0  0  0  0  0
  149.4768  142.2579  157.4897 C   0  0  0  0  0  0  0  0  0  0  0  0
  150.7225  142.9663  158.0631 C   0  0  1  0  0  0  0  0  0  0  0  0
  151.3179  143.7050  157.0083 O   0  0  0  0  0  0  0  0  0  0  0  0
  150.3485  143.9656  159.1803 C   0  0  0  0  0  0  0  0  0  0  0  0
  151.5896  144.5977  159.8395 C   0  0  0  0  0  0  0  0  0  0  0  0
  152.5657  143.5267  160.3523 C   0  0  0  0  0  0  0  0  0  0  0  0
  152.9579  142.5427  159.2377 C   0  0  0  0  0  0  0  0  0  0  0  0
  151.7094  141.8992  158.6042 C   0  0  2  0  0  0  0  0  0  0  0  0
  152.0549  140.8555  157.5247 C   0  0  0  0  0  0  0  0  0  0  0  0
  151.6238  139.1407  155.0610 N   0  0  0  0  0  0  0  0  0  0  0  0
  151.7486  138.0284  154.3310 C   0  0  0  0  0  0  0  0  0  0  0  0
  151.3062  136.7988  154.6012 N   0  0  0  0  0  0  0  0  0  0  0  0
  150.6600  136.7583  155.8016 C   0  0  0  0  0  0  0  0  0  0  0  0
  148.6907  133.5614  155.8211 C   0  0  0  0  0  0  0  0  0  0  0  0
  148.3028  134.4573  152.9399 H   0  0  0  0  0  0  0  0  0  0  0  0
  147.4554  131.9072  153.7521 H   0  0  0  0  0  0  0  0  0  0  0  0
  148.7262  132.1514  152.5824 H   0  0  0  0  0  0  0  0  0  0  0  0
  150.5000  131.0545  154.1442 H   0  0  0  0  0  0  0  0  0  0  0  0
  150.5646  131.5300  155.8183 H   0  0  0  0  0  0  0  0  0  0  0  0
  149.0922  129.6894  154.7281 H   0  0  0  0  0  0  0  0  0  0  0  0
  151.2471  133.7333  154.2036 H   0  0  0  0  0  0  0  0  0  0  0  0
  149.8367  134.7749  153.8132 H   0  0  0  0  0  0  0  0  0  0  0  0
  150.7215  133.7612  156.5688 H   0  0  0  0  0  0  0  0  0  0  0  0
  149.1107  135.5194  158.3520 H   0  0  0  0  0  0  0  0  0  0  0  0
  150.2617  141.6532  155.5566 H   0  0  0  0  0  0  0  0  0  0  0  0
  148.9437  140.6663  156.1355 H   0  0  0  0  0  0  0  0  0  0  0  0
  148.7951  142.9835  157.0441 H   0  0  0  0  0  0  0  0  0  0  0  0
  148.9247  141.7822  158.3015 H   0  0  0  0  0  0  0  0  0  0  0  0
  150.6296  144.0838  156.4832 H   0  0  0  0  0  0  0  0  0  0  0  0
  149.6988  144.7489  158.7877 H   0  0  0  0  0  0  0  0  0  0  0  0
  149.7697  143.4494  159.9478 H   0  0  0  0  0  0  0  0  0  0  0  0
  152.1004  145.2416  159.1226 H   0  0  0  0  0  0  0  0  0  0  0  0
  151.2822  145.2425  160.6630 H   0  0  0  0  0  0  0  0  0  0  0  0
  153.4585  144.0021  160.7595 H   0  0  0  0  0  0  0  0  0  0  0  0
  152.1048  142.9797  161.1758 H   0  0  0  0  0  0  0  0  0  0  0  0
  153.5415  143.0614  158.4764 H   0  0  0  0  0  0  0  0  0  0  0  0
  153.6076  141.7687  159.6478 H   0  0  0  0  0  0  0  0  0  0  0  0
  151.1980  141.3598  159.4039 H   0  0  0  0  0  0  0  0  0  0  0  0
  152.6898  140.0825  157.9603 H   0  0  0  0  0  0  0  0  0  0  0  0
  152.6222  141.3185  156.7159 H   0  0  0  0  0  0  0  0  0  0  0  0
  152.2743  138.1407  153.3942 H   0  0  0  0  0  0  0  0  0  0  0  0
  147.8594  134.2205  155.5634 H   0  0  0  0  0  0  0  0  0  0  0  0
  148.4407  132.9406  156.6820 H   0  0  0  0  0  0  0  0  0  0  0  0
  1  2  1  0  0  0  0
  1 29  1  0  0  0  0
  2  3  1  0  0  0  0
  2 30  1  0  0  0  0
  2 31  1  0  0  0  0
  3 28  1  0  0  0  0
  3  4  1  0  0  0  0
  3  6  1  0  0  0  0
  4  5  1  0  0  0  0
  4 32  1  0  0  0  0
  4 33  1  0  0  0  0
  5 34  1  0  0  0  0
  6  7  1  0  0  0  0
  6 35  1  0  0  0  0
  6 36  1  0  0  0  0
  7  8  1  0  0  0  0
  7 28  1  0  0  0  0
  7 37  1  0  0  0  0
  8 27  1  0  0  0  0
  8  9  1  0  0  0  0
  9 10  2  0  0  0  0
  9 38  1  0  0  0  0
 10 11  1  0  0  0  0
 11 27  2  0  0  0  0
 11 12  1  0  0  0  0
 12 13  1  0  0  0  0
 12 24  2  0  0  0  0
 13 23  1  0  0  0  0
 13 14  1  0  0  0  0
 14 15  1  0  0  0  0
 14 39  1  0  0  0  0
 14 40  1  0  0  0  0
 15 16  1  0  0  0  0
 15 41  1  0  0  0  0
 15 42  1  0  0  0  0
 16 22  1  0  0  0  0
 16 17  1  0  0  0  0
 16 18  1  0  0  0  0
 17 43  1  0  0  0  0
 18 19  1  0  0  0  0
 18 44  1  0  0  0  0
 18 45  1  0  0  0  0
 19 20  1  0  0  0  0
 19 46  1  0  0  0  0
 19 47  1  0  0  0  0
 20 21  1  0  0  0  0
 20 48  1  0  0  0  0
 20 49  1  0  0  0  0
 21 22  1  0  0  0  0
 21 50  1  0  0  0  0
 21 51  1  0  0  0  0
 22 23  1  0  0  0  0
 22 52  1  0  0  0  0
 23 53  1  0  0  0  0
 23 54  1  0  0  0  0
 24 25  1  0  0  0  0
 25 26  2  0  0  0  0
 25 55  1  0  0  0  0
 26 27  1  0  0  0  0
 28 56  1  0  0  0  0
 28 57  1  0  0  0  0
M  END
> <s_m_source_file>
AV-unprocessed.smi

> <i_m_source_file_index>
176

> <i_lp_mmshare_version>
43012

> <i_f3d_flags>
0

> <s_epik_input>
W09IXVtDSDJdQzEoW0NIMl1bT0hdKVtDSDJdW0NIXShbQ0gyXTEpbihbY0hdbjIpYyhjMjMpbltjSF1uYzNOKFtDSDJdW0NIMl00KVtDSDJdW0NAQEhdKFtDQF00NVtPSF0pW0NIMl1bQ0gyXVtDSDJdW0NIMl01

> <s_epik_cmdline>
J2VwaWtfcHl0aG9uJywgJy1waCcsICc3LjAnLCAnLXRuJywgJzgnLCAnLW1hJywgJzIwMCcsICctbWV0YWxfYmluZGluZycsICctaW1hZScsICc8aW5maWxlLm1hZT4nLCAnLW9tYWUnLCAnPG91dGZpbGUubWFlPic=

> <r_lp_tautomer_probability>
1

> <r_epik_Ionization_Penalty>
0.00642876

> <r_epik_Ionization_Penalty_Charging>
0

> <r_epik_Ionization_Penalty_Neutral>
0.00642876

> <r_epik_State_Penalty>
0.00467813

> <r_epik_Charging_Adjusted_Penalty>
0.00467813

> <i_epik_Tot_Q>
0

> <i_epik_Tot_abs_Q>
0

> <r_epik_Metal_State_Penalty>
-0

> <b_epik_Metal_Only>
0

> <s_lp_Force_Field>
OPLS_2005

> <r_lp_Energy>
52.7451

> <b_lp_Chiralities_Consistent>
1

> <s_lp_Variant>
AV-unprocessed.smi:176-4

> <Gold.Version>
5.8.1

> <Gold.Id.Protein>
6NUR|6NUR_protein|mol2

> <Gold.PLP.Fitness>
54.2897

> <Gold.PLP.PLP>
-43.6972

> <Gold.PLP.part.hbond>
-3.6830

> <Gold.PLP.part.metal>
0.0000

> <Gold.PLP.part.buried>
-8.2342

> <Gold.PLP.part.nonpolar>
-31.5234

> <Gold.PLP.part.repulsive>
0.5543

> <Gold.PLP.ligand.clash>
0.0000

> <Gold.PLP.ligand.torsion>
0.6374

> <Gold.PLP.Chemscore.Hbond>
3.6500

> <Gold.PLP.Chemscore.CHOScore>
0.0000

> <Gold.PLP.Chemscore.Metal>
0.0000

> <Gold.Chemscore.Hbonds>
donor molecule, donor type, donor heavy atom, donor atom, acceptor molecule, acceptor atom, score
      L1  H     1    29       P1  7948  0.72
      L1  H    17    43       P1  8028  1.00
      P1  H  7989  7998       L1    24  0.28
      P1  H 10752 10765       L1    26  1.00

> <Gold.PLP.Chemscore.Internal.Correction>
0.9173

> <Gold.Rescore>
     Score         DG    S(hbond)    S(metal)    S(lipo)     H(rot)  DE(clash)    DE(int)     intcor
     14.05     -16.43       2.19        0.00     112.35       3.71       0.72       1.66       ----

> <Gold.Chemscore.Fitness>
14.0460

> <Gold.Chemscore.DG>
-16.4260

> <Gold.Chemscore.ZeroCoef>
-5.4800

> <Gold.Chemscore.Hbond>
2.1858

> <Gold.Chemscore.Metal>
0.0000

> <Gold.Chemscore.Lipo>
112.3542

> <Gold.Chemscore.Internal_Hbond>
0.0000

> <Gold.Chemscore.DEClash>
0.7246

> <Gold.Chemscore.DEInternal>
1.6554

> <Gold.Chemscore.Rot>
3.7109

> <Gold.Chemscore.Internal.Correction>
   9.000000E+99

> <Gold.Chemscore.Hbonds>
donor molecule, donor type, donor heavy atom, donor atom, acceptor molecule, acceptor atom, score
      L1  H     1    29       P1  7948  0.27
      L1  H    17    43       P1  8028  0.95
      P1  H  7989  7998       L1    24  0.12
      P1  H 10752 10765       L1    26  0.41

> <Gold.Chemscore.Hbond.Weighted>
-7.3006

> <Gold.Chemscore.Metal.Weighted>
-0.0000

> <Gold.Chemscore.Lipo.Weighted>
-13.1454

> <Gold.Chemscore.Internal_Hbond.Weighted>
0.0000

> <Gold.Chemscore.DEClash.Weighted>
0.7246

> <Gold.Chemscore.DEInternal.Weighted>
1.6554

> <Gold.Chemscore.Rot.Weighted>
9.5000

> <Gold.Chemscore.Internal.Correction.Weighted>
   9.000000E+99

> <Gold.Protein.RotatedTorsions>
[ 6907 6896 6895 6894 ] final  -85.24 input  -60.11 | X-H torsion
[ 7974 7965 7964 7962 ] final  -42.78 input  175.53 | X-H torsion
[ 8008 7997 7996 7995 ] final  -43.18 input   59.86 | X-H torsion
[ 10167 10162 10161 10158 ] final  -75.42 input  -65.29 | X-H torsion
[ 10718 10713 10712 10709 ] final  164.30 input   66.30 | X-H torsion
[ 10763 10752 10751 10750 ] final  166.58 input  -60.55 | X-H torsion
[ 11005 11000 10999 10996 ] final   78.49 input  -57.11 | X-H torsion

> <Gold.Protein.ActiveResidues>
 VAL166  LYS551  ARG553  GLY616  TRP617  ASP618  TYR619  PRO620  LYS621  CYS622 
 ASP623  PHE694  ASN695  SER759  ASP760  ASP761  ALA762  ILE779  LEU786  VAL792 
 PHE793  MET794  SER795  GLU796  ALA797  LYS798  CYS799  TRP800  GLU811  SER814 

> <Gold.Protein.RotatedAtoms>
  150.6871  134.3235  159.4796 H   0  0  0  0  0  0  0  0  0  0  0  0  # atno 6907 bound_to 6896
  152.1107  134.9273  160.0576 H   0  0  0  0  0  0  0  0  0  0  0  0  # atno 6908 bound_to 6896
  152.0517  133.3987  159.4417 H   0  0  0  0  0  0  0  0  0  0  0  0  # atno 6909 bound_to 6896
  146.0083  140.6994  142.9237 H   0  0  0  0  0  0  0  0  0  0  0  0  # atno 7974 bound_to 7965
  154.3997  140.1454  156.3476 H   0  0  0  0  0  0  0  0  0  0  0  0  # atno 8008 bound_to 7997
  155.8299  140.3466  155.5544 H   0  0  0  0  0  0  0  0  0  0  0  0  # atno 8009 bound_to 7997
  155.8199  140.0896  157.1845 H   0  0  0  0  0  0  0  0  0  0  0  0  # atno 8010 bound_to 7997
  140.4944  143.2373  151.7854 H   0  0  0  0  0  0  0  0  0  0  0  0  # atno 10167 bound_to 10162
  157.0962  131.0431  151.2517 H   0  0  0  0  0  0  0  0  0  0  0  0  # atno 10718 bound_to 10713
  154.3410  135.2754  155.2422 H   0  0  0  0  0  0  0  0  0  0  0  0  # atno 10763 bound_to 10752
  154.4693  135.5887  153.6313 H   0  0  0  0  0  0  0  0  0  0  0  0  # atno 10764 bound_to 10752
  152.9857  135.6084  154.3612 H   0  0  0  0  0  0  0  0  0  0  0  0  # atno 10765 bound_to 10752
  139.9210  134.7768  156.1657 H   0  0  0  0  0  0  0  0  0  0  0  0  # atno 11005 bound_to 11000
  144.6943  140.3353  143.7209 LP  0  0  0  0  0  0  0  0  0  0  0  0  # atno 17320 bound_to 7965
  145.7382  139.1756  143.2391 LP  0  0  0  0  0  0  0  0  0  0  0  0  # atno 17321 bound_to 7965
  139.4858  144.4606  151.9545 LP  0  0  0  0  0  0  0  0  0  0  0  0  # atno 17342 bound_to 10162
  140.3693  144.2875  150.5922 LP  0  0  0  0  0  0  0  0  0  0  0  0  # atno 17343 bound_to 10162
  157.4679  130.7691  149.7296 LP  0  0  0  0  0  0  0  0  0  0  0  0  # atno 17370 bound_to 10713
  155.9885  130.3959  150.3115 LP  0  0  0  0  0  0  0  0  0  0  0  0  # atno 17371 bound_to 10713
  141.0731  133.6788  156.2181 LP  0  0  0  0  0  0  0  0  0  0  0  0  # atno 17394 bound_to 11000
  140.6474  134.5103  157.5575 LP  0  0  0  0  0  0  0  0  0  0  0  0  # atno 17395 bound_to 11000

$$$$
