#       Name:                AV-unprocessed.smi:1952
#       Creating user name   scv26
#       Creation time:       Fri Mar 27 10:04:13 2020


#       File generated by GOLD software.
#

@<TRIPOS>MOLECULE
AV-unprocessed.smi:1952
    47    48     1
SMALL
NO_CHARGES


@<TRIPOS>ATOM
      1 ****        -4.9762   4.2826   0.1375 C.3            1 S1                 0.0000
      2 ****        -4.0234   3.3473   0.8004 C.2            1 S1                 0.0000
      3 ****        -3.2303   2.3412   0.3264 C.2            1 S1                 0.0000
      4 ****        -2.5732   1.8675   1.4949 C.2            1 S1                 0.0000
      5 ****        -1.6879   0.8606   1.5484 N.pl3          1 S1                -1.0000
      6 ****        -0.3787   1.0906   1.2943 C.2            1 S1                 0.0000
      7 ****         0.1293   2.1766   1.0051 O.2            1 S1                 0.0000
      8 ****         0.3880  -0.0065   1.3803 N.am           1 S1                 0.0000
      9 ****         1.8290  -0.0759   1.1417 C.3            1 S1                 0.0000
     10 ****         2.5901   0.2194   2.4431 C.3            1 S1                 0.0000
     11 ****         2.2032  -1.4616   0.5762 C.3            1 S1                 0.0000
     12 ****         1.4842  -1.8707  -0.6322 N.3            1 S1                 0.0000
     13 ****         1.7843  -1.0255  -1.7856 C.3            1 S1                 0.0000
     14 ****         1.0325  -1.4884  -3.0458 C.3            1 S1                 0.0000
     15 ****         1.3437  -2.8512  -3.3171 O.3            1 S1                 0.0000
     16 ****         1.0180  -3.7129  -2.2316 C.3            1 S1                 0.0000
     17 ****         1.7734  -3.2595  -0.9706 C.3            1 S1                 0.0000
     18 ****        -2.9482   2.5170   2.5842 N.2            1 S1                 0.0000
     19 ****        -3.8727   3.4728   2.1466 O.3            1 S1                 0.0000
     20 ****        -5.7460   3.7304  -0.4012 H              1 S1                 0.0000
     21 ****        -4.4552   4.9209  -0.5760 H              1 S1                 0.0000
     22 ****        -5.4698   4.9248   0.8674 H              1 S1                 0.0000
     23 ****        -3.1310   2.0004  -0.6932 H              1 S1                 0.0000
     24 ****        -0.0734  -0.8731   1.6152 H              1 S1                 0.0000
     25 ****         2.1171   0.6846   0.4152 H              1 S1                 0.0000
     26 ****         3.6678   0.1809   2.2837 H              1 S1                 0.0000
     27 ****         2.3420  -0.5033   3.2210 H              1 S1                 0.0000
     28 ****         2.3499   1.2132   2.8227 H              1 S1                 0.0000
     29 ****         3.2774  -1.4937   0.3876 H              1 S1                 0.0000
     30 ****         2.0178  -2.2002   1.3575 H              1 S1                 0.0000
     31 ****         1.5076   0.0080  -1.5802 H              1 S1                 0.0000
     32 ****         2.8576  -1.0317  -1.9805 H              1 S1                 0.0000
     33 ****        -0.0446  -1.3738  -2.9147 H              1 S1                 0.0000
     34 ****         1.3174  -0.8788  -3.9032 H              1 S1                 0.0000
     35 ****        -0.0597  -3.7045  -2.0606 H              1 S1                 0.0000
     36 ****         1.2933  -4.7348  -2.4924 H              1 S1                 0.0000
     37 ****         2.8457  -3.3860  -1.1279 H              1 S1                 0.0000
     38 ****         1.5021  -3.9080  -0.1369 H              1 S1                 0.0000
     39 ****        -1.9966  -0.0627   1.7768 LP             1 S1                 0.0000
     40 ****        -0.4423   2.9946   0.9404 LP             1 S1                 0.0000
     41 ****         1.1128   2.2392   0.8353 LP             1 S1                 0.0000
     42 ****         0.5126  -1.7681  -0.4190 LP             1 S1                 0.0000
     43 ****         2.3236  -2.9253  -3.5022 LP             1 S1                 0.0000
     44 ****         0.8291  -3.1430  -4.1234 LP             1 S1                 0.0000
     45 ****        -2.6374   2.3590   3.5214 LP             1 S1                 0.0000
     46 ****        -4.7517   3.3231   2.5993 LP             1 S1                 0.0000
     47 ****        -3.5377   4.3896   2.3640 LP             1 S1                 0.0000
@<TRIPOS>BOND
    1    1    2 1     
    2    1   20 1     
    3    1   21 1     
    4    1   22 1     
    5    2   19 1     
    6    2    3 2     
    7    3    4 1     
    8    3   23 1     
    9    4    5 1     
   10    4   18 2     
   11    5    6 1     
   12    6    7 2     
   13    6    8 am    
   14    8    9 1     
   15    8   24 1     
   16    9   10 1     
   17    9   11 1     
   18    9   25 1     
   19   10   26 1     
   20   10   27 1     
   21   10   28 1     
   22   11   12 1     
   23   11   29 1     
   24   11   30 1     
   25   12   17 1     
   26   12   13 1     
   27   13   14 1     
   28   13   31 1     
   29   13   32 1     
   30   14   15 1     
   31   14   33 1     
   32   14   34 1     
   33   15   16 1     
   34   16   17 1     
   35   16   35 1     
   36   16   36 1     
   37   17   37 1     
   38   17   38 1     
   39   18   19 1     
   40    5   39 1     
   41    7   40 1     
   42    7   41 1     
   43   12   42 1     
   44   15   43 1     
   45   15   44 1     
   46   18   45 1     
   47   19   46 1     
   48   19   47 1     
@<TRIPOS>SUBSTRUCTURE
      1 S1             1
@<TRIPOS>SET
LONE_PAIRS      STATIC     ATOMS    <user>   **** ""
9 39 40 41 42 43 44 45 46 47
DONOR_HYDROGENS      STATIC     ATOMS    <user>   **** ""
1 24
ATOM$BLUE        STATIC     ATOMS    COLORGROUP SYSTEM
9 39 40 41 42 43 44 45 46 47
ATOM$RED        STATIC     ATOMS    COLORGROUP SYSTEM
1 24
