AV-unprocessed.smi:290|AV-procd|sdf|2227|dock6
  -GOLD-   2262022 83D 1   1.00000     0.00000
 Structure written by MMmdl.
 59 62  0  0  0  0  0  0  0  0  2 V2000
  152.2036  144.0554  157.9905 C   0  0  0  0  0  0  0  0  0  0  0  0
  151.6670  142.8067  158.7074 C   0  0  2  0  0  0  0  0  0  0  0  0
  152.7742  142.1377  159.3047 O   0  0  0  0  0  0  0  0  0  0  0  0
  152.4829  140.7534  159.3751 C   0  0  0  0  0  0  0  0  0  0  0  0
  151.8181  140.4949  158.0320 C   0  0  0  0  0  0  0  0  0  0  0  0
  150.9570  141.7394  157.8259 C   0  0  1  0  0  0  0  0  0  0  0  0
  149.6857  141.4813  158.3984 O   0  0  0  0  0  0  0  0  0  0  0  0
  150.7490  142.1058  156.3326 C   0  0  0  0  0  0  0  0  0  0  0  0
  150.0901  141.0578  155.5681 N   0  0  0  0  0  0  0  0  0  0  0  0
  150.6198  139.8375  155.2150 C   0  0  0  0  0  0  0  0  0  0  0  0
  149.8219  139.0610  154.5347 N   0  0  0  0  0  0  0  0  0  0  0  0
  148.6565  139.8063  154.3954 C   0  0  0  0  0  0  0  0  0  0  0  0
  147.3946  139.5697  153.7780 C   0  0  0  0  0  0  0  0  0  0  0  0
  147.0949  138.4144  153.1271 N   0  0  0  0  0  0  0  0  0  0  0  0
  146.8230  138.5078  151.6946 C   0  0  0  0  0  0  0  0  0  0  0  0
  145.7343  137.4741  151.3884 C   0  0  0  0  0  0  0  0  0  0  0  0
  145.8652  136.4851  152.5515 C   0  0  2  0  0  0  0  0  0  0  0  0
  144.6829  135.6115  152.7994 N   0  3  2  0  0  0  0  0  0  0  0  0
  144.3569  134.7697  151.6239 C   0  0  0  0  0  0  0  0  0  0  0  0
  143.4860  136.2906  153.3670 C   0  0  0  0  0  0  0  0  0  0  0  0
  142.2324  135.4080  153.2659 C   0  0  0  0  0  0  0  0  0  0  0  0
  141.9989  134.7594  154.4987 O   0  0  0  0  0  0  0  0  0  0  0  0
  146.2502  137.3860  153.7333 C   0  0  1  0  0  0  0  0  0  0  0  0
  146.9652  136.6192  154.8604 C   0  0  0  0  0  0  0  0  0  0  0  0
  146.4678  140.5615  153.8583 N   0  0  0  0  0  0  0  0  0  0  0  0
  146.7497  141.7038  154.4916 C   0  0  0  0  0  0  0  0  0  0  0  0
  147.8782  142.0590  155.1077 N   0  0  0  0  0  0  0  0  0  0  0  0
  148.8118  141.0676  155.0378 C   0  0  0  0  0  0  0  0  0  0  0  0
  146.7241  135.8434  152.3431 H   0  0  0  0  0  0  0  0  0  0  0  0
  145.3647  137.8720  154.1411 H   0  0  0  0  0  0  0  0  0  0  0  0
  151.3997  144.6238  157.5229 H   0  0  0  0  0  0  0  0  0  0  0  0
  152.9317  143.7949  157.2222 H   0  0  0  0  0  0  0  0  0  0  0  0
  152.7016  144.7184  158.6983 H   0  0  0  0  0  0  0  0  0  0  0  0
  151.0077  143.1312  159.5150 H   0  0  0  0  0  0  0  0  0  0  0  0
  153.3832  140.1571  159.5234 H   0  0  0  0  0  0  0  0  0  0  0  0
  151.7957  140.5591  160.2001 H   0  0  0  0  0  0  0  0  0  0  0  0
  152.5921  140.4421  157.2653 H   0  0  0  0  0  0  0  0  0  0  0  0
  151.2580  139.5590  158.0027 H   0  0  0  0  0  0  0  0  0  0  0  0
  149.2662  142.3075  158.5842 H   0  0  0  0  0  0  0  0  0  0  0  0
  150.1573  143.0176  156.2413 H   0  0  0  0  0  0  0  0  0  0  0  0
  151.7064  142.3094  155.8525 H   0  0  0  0  0  0  0  0  0  0  0  0
  151.6211  139.5356  155.4861 H   0  0  0  0  0  0  0  0  0  0  0  0
  146.5077  139.5083  151.3943 H   0  0  0  0  0  0  0  0  0  0  0  0
  147.7380  138.2662  151.1526 H   0  0  0  0  0  0  0  0  0  0  0  0
  144.7658  137.9737  151.3889 H   0  0  0  0  0  0  0  0  0  0  0  0
  145.8664  137.0044  150.4133 H   0  0  0  0  0  0  0  0  0  0  0  0
  144.0446  135.3829  150.7779 H   0  0  0  0  0  0  0  0  0  0  0  0
  143.5530  134.0694  151.8490 H   0  0  0  0  0  0  0  0  0  0  0  0
  145.2223  134.1817  151.3167 H   0  0  0  0  0  0  0  0  0  0  0  0
  143.6303  136.5568  154.4132 H   0  0  0  0  0  0  0  0  0  0  0  0
  143.3234  137.2339  152.8433 H   0  0  0  0  0  0  0  0  0  0  0  0
  141.3616  136.0209  153.0313 H   0  0  0  0  0  0  0  0  0  0  0  0
  142.3216  134.6659  152.4730 H   0  0  0  0  0  0  0  0  0  0  0  0
  142.4258  133.9158  154.4844 H   0  0  0  0  0  0  0  0  0  0  0  0
  146.3239  135.8356  155.2645 H   0  0  0  0  0  0  0  0  0  0  0  0
  147.2363  137.2738  155.6882 H   0  0  0  0  0  0  0  0  0  0  0  0
  147.8801  136.1474  154.5006 H   0  0  0  0  0  0  0  0  0  0  0  0
  145.9577  142.4379  154.5082 H   0  0  0  0  0  0  0  0  0  0  0  0
  144.9878  134.9689  153.5173 H   0  0  0  0  0  0  0  0  0  0  0  0
  1  2  1  0  0  0  0
  1 31  1  0  0  0  0
  1 32  1  0  0  0  0
  1 33  1  0  0  0  0
  2  6  1  0  0  0  0
  2  3  1  0  0  0  0
  2 34  1  0  0  0  0
  3  4  1  0  0  0  0
  4  5  1  0  0  0  0
  4 35  1  0  0  0  0
  4 36  1  0  0  0  0
  5  6  1  0  0  0  0
  5 37  1  0  0  0  0
  5 38  1  0  0  0  0
  6  7  1  0  0  0  0
  6  8  1  0  0  0  0
  7 39  1  0  0  0  0
  8  9  1  0  0  0  0
  8 40  1  0  0  0  0
  8 41  1  0  0  0  0
  9 28  1  0  0  0  0
  9 10  1  0  0  0  0
 10 11  2  0  0  0  0
 10 42  1  0  0  0  0
 11 12  1  0  0  0  0
 12 28  2  0  0  0  0
 12 13  1  0  0  0  0
 13 14  1  0  0  0  0
 13 25  2  0  0  0  0
 14 23  1  0  0  0  0
 14 15  1  0  0  0  0
 15 16  1  0  0  0  0
 15 43  1  0  0  0  0
 15 44  1  0  0  0  0
 16 17  1  0  0  0  0
 16 45  1  0  0  0  0
 16 46  1  0  0  0  0
 17 29  1  0  0  0  0
 17 18  1  0  0  0  0
 17 23  1  0  0  0  0
 18 19  1  0  0  0  0
 18 20  1  0  0  0  0
 18 59  1  0  0  0  0
 19 47  1  0  0  0  0
 19 48  1  0  0  0  0
 19 49  1  0  0  0  0
 20 21  1  0  0  0  0
 20 50  1  0  0  0  0
 20 51  1  0  0  0  0
 21 22  1  0  0  0  0
 21 52  1  0  0  0  0
 21 53  1  0  0  0  0
 22 54  1  0  0  0  0
 23 30  1  0  0  0  0
 23 24  1  0  0  0  0
 24 55  1  0  0  0  0
 24 56  1  0  0  0  0
 24 57  1  0  0  0  0
 25 26  1  0  0  0  0
 26 27  2  0  0  0  0
 26 58  1  0  0  0  0
 27 28  1  0  0  0  0
M  CHG  1  18   1
M  END
> <s_m_source_file>
AV-unprocessed.smi

> <i_m_source_file_index>
290

> <i_lp_mmshare_version>
43012

> <i_f3d_flags>
0

> <s_epik_input>
W0NIMl0xW0NIMl1PW0NAQEhdKFtDSDNdKVtDQEBdMShbT0hdKVtDSDJdbihbY0hdbjIpYyhjMjMpbltjSF1uYzNONFtDSDJdW0NIMl1bQ0BIXShbQ0BIXTRbQ0gzXSlOKFtDSDNdKVtDSDJdW0NIMl1bT0hd

> <s_epik_cmdline>
J2VwaWtfcHl0aG9uJywgJy1waCcsICc3LjAnLCAnLXRuJywgJzgnLCAnLW1hJywgJzIwMCcsICctbWV0YWxfYmluZGluZycsICctaW1hZScsICc8aW5maWxlLm1hZT4nLCAnLW9tYWUnLCAnPG91dGZpbGUubWFlPic=

> <r_lp_tautomer_probability>
1

> <r_epik_Ionization_Penalty>
0.0036983

> <r_epik_Ionization_Penalty_Charging>
0.0032725

> <r_epik_Ionization_Penalty_Neutral>
0.000425798

> <r_epik_State_Penalty>
-0

> <r_epik_Charging_Adjusted_Penalty>
0.0032725

> <i_epik_Tot_Q>
1

> <i_epik_Tot_abs_Q>
1

> <r_epik_Metal_State_Penalty>
-0

> <b_epik_Metal_Only>
0

> <s_lp_Force_Field>
OPLS_2005

> <r_lp_Energy>
58.7997

> <b_lp_Chiralities_Consistent>
1

> <s_lp_Variant>
AV-unprocessed.smi:290-13

> <Gold.Version>
5.8.1

> <Gold.Id.Protein>
6NUR|6NUR_protein|mol2

> <Gold.PLP.Fitness>
46.1514

> <Gold.PLP.PLP>
-41.9936

> <Gold.PLP.part.hbond>
-2.0000

> <Gold.PLP.part.metal>
0.0000

> <Gold.PLP.part.buried>
-2.1362

> <Gold.PLP.part.nonpolar>
-41.2987

> <Gold.PLP.part.repulsive>
2.3677

> <Gold.PLP.ligand.clash>
0.0000

> <Gold.PLP.ligand.torsion>
0.8429

> <Gold.PLP.Chemscore.Hbond>
1.7303

> <Gold.PLP.Chemscore.CHOScore>
0.0000

> <Gold.PLP.Chemscore.Metal>
0.0000

> <Gold.Chemscore.Hbonds>
donor molecule, donor type, donor heavy atom, donor atom, acceptor molecule, acceptor atom, score
      L1  H    22    54       P1 10957  0.63
      P1  H 11000 11005       L1    22  0.35

> <Gold.PLP.Chemscore.Internal.Correction>
0.6527

> <Gold.Rescore>
     Score         DG    S(hbond)    S(metal)    S(lipo)     H(rot)  DE(clash)    DE(int)     intcor
      7.85     -11.55       1.32        0.00      94.44       3.67       2.62       1.08       ----

> <Gold.Chemscore.Fitness>
7.8511

> <Gold.Chemscore.DG>
-11.5511

> <Gold.Chemscore.ZeroCoef>
-5.4800

> <Gold.Chemscore.Hbond>
1.3193

> <Gold.Chemscore.Metal>
0.0000

> <Gold.Chemscore.Lipo>
94.4366

> <Gold.Chemscore.Internal_Hbond>
0.0000

> <Gold.Chemscore.DEClash>
2.6177

> <Gold.Chemscore.DEInternal>
1.0823

> <Gold.Chemscore.Rot>
3.6658

> <Gold.Chemscore.Internal.Correction>
   9.000000E+99

> <Gold.Chemscore.Hbonds>
donor molecule, donor type, donor heavy atom, donor atom, acceptor molecule, acceptor atom, score
      L1  H    22    54       P1 10957  0.64
      P1  H 11000 11005       L1    22  0.01

> <Gold.Chemscore.Hbond.Weighted>
-4.4064

> <Gold.Chemscore.Metal.Weighted>
-0.0000

> <Gold.Chemscore.Lipo.Weighted>
-11.0491

> <Gold.Chemscore.Internal_Hbond.Weighted>
0.0000

> <Gold.Chemscore.DEClash.Weighted>
2.6177

> <Gold.Chemscore.DEInternal.Weighted>
1.0823

> <Gold.Chemscore.Rot.Weighted>
9.3844

> <Gold.Chemscore.Internal.Correction.Weighted>
   9.000000E+99

> <Gold.Protein.RotatedTorsions>
[ 6907 6896 6895 6894 ] final  -21.50 input  -60.11 | X-H torsion
[ 7974 7965 7964 7962 ] final  -22.27 input  175.53 | X-H torsion
[ 8008 7997 7996 7995 ] final   69.73 input   59.86 | X-H torsion
[ 10167 10162 10161 10158 ] final   79.50 input  -65.29 | X-H torsion
[ 10718 10713 10712 10709 ] final   97.85 input   66.30 | X-H torsion
[ 10763 10752 10751 10750 ] final -126.30 input  -60.55 | X-H torsion
[ 11005 11000 10999 10996 ] final    4.31 input  -57.11 | X-H torsion

> <Gold.Protein.ActiveResidues>
 VAL166  LYS551  ARG553  GLY616  TRP617  ASP618  TYR619  PRO620  LYS621  CYS622 
 ASP623  PHE694  ASN695  SER759  ASP760  ASP761  ALA762  ILE779  LEU786  VAL792 
 PHE793  MET794  SER795  GLU796  ALA797  LYS798  CYS799  TRP800  GLU811  SER814 

> <Gold.Protein.RotatedAtoms>
  151.2324  135.0559  159.8992 H   0  0  0  0  0  0  0  0  0  0  0  0  # atno 6907 bound_to 6896
  152.5403  134.0522  159.8125 H   0  0  0  0  0  0  0  0  0  0  0  0  # atno 6908 bound_to 6896
  151.0704  133.5422  159.2659 H   0  0  0  0  0  0  0  0  0  0  0  0  # atno 6909 bound_to 6896
  146.1685  140.4456  142.8542 H   0  0  0  0  0  0  0  0  0  0  0  0  # atno 7974 bound_to 7965
  155.7281  140.3492  155.5046 H   0  0  0  0  0  0  0  0  0  0  0  0  # atno 8008 bound_to 7997
  155.9208  140.1067  157.1230 H   0  0  0  0  0  0  0  0  0  0  0  0  # atno 8009 bound_to 7997
  154.4069  140.1250  156.4663 H   0  0  0  0  0  0  0  0  0  0  0  0  # atno 8010 bound_to 7997
  139.9597  144.5969  150.8083 H   0  0  0  0  0  0  0  0  0  0  0  0  # atno 10167 bound_to 10162
  157.6906  131.0622  150.4706 H   0  0  0  0  0  0  0  0  0  0  0  0  # atno 10718 bound_to 10713
  154.8744  135.4000  154.3408 H   0  0  0  0  0  0  0  0  0  0  0  0  # atno 10763 bound_to 10752
  153.4207  135.7023  153.6301 H   0  0  0  0  0  0  0  0  0  0  0  0  # atno 10764 bound_to 10752
  153.4964  135.3737  155.2488 H   0  0  0  0  0  0  0  0  0  0  0  0  # atno 10765 bound_to 10752
  140.5834  133.9992  155.8057 H   0  0  0  0  0  0  0  0  0  0  0  0  # atno 11005 bound_to 11000
  144.8128  140.6415  143.6404 LP  0  0  0  0  0  0  0  0  0  0  0  0  # atno 17320 bound_to 7965
  145.4403  139.1536  143.3974 LP  0  0  0  0  0  0  0  0  0  0  0  0  # atno 17321 bound_to 7965
  140.7557  143.3051  151.2982 LP  0  0  0  0  0  0  0  0  0  0  0  0  # atno 17342 bound_to 10162
  139.6564  144.0269  152.2662 LP  0  0  0  0  0  0  0  0  0  0  0  0  # atno 17343 bound_to 10162
  156.5044  130.4124  149.6335 LP  0  0  0  0  0  0  0  0  0  0  0  0  # atno 17370 bound_to 10713
  156.3298  130.7325  151.2253 LP  0  0  0  0  0  0  0  0  0  0  0  0  # atno 17371 bound_to 10713
  141.0982  133.9810  157.3124 LP  0  0  0  0  0  0  0  0  0  0  0  0  # atno 17394 bound_to 11000
  139.9307  135.0200  156.8390 LP  0  0  0  0  0  0  0  0  0  0  0  0  # atno 17395 bound_to 11000

$$$$
