AV-unprocessed.smi:2321|AV-procd|sdf|9284|dock5
  -GOLD-   2272012503D 1   1.00000     0.00000
 Structure written by MMmdl.
 36 37  0  0  0  0  0  0  0  0  1 V2000
  147.0462  138.2996  151.4072 O   0  0  0  0  0  0  0  0  0  0  0  0
  146.3999  138.4224  152.4454 C   0  0  0  0  0  0  0  0  0  0  0  0
  145.4697  137.5500  152.8803 N   0  0  0  0  0  0  0  0  0  0  0  0
  145.0166  136.3477  152.2740 C   0  0  0  0  0  0  0  0  0  0  0  0
  145.4748  135.8647  151.0244 C   0  0  0  0  0  0  0  0  0  0  0  0
  144.9571  134.6457  150.5423 C   0  0  0  0  0  0  0  0  0  0  0  0
  144.0484  133.9058  151.2125 N   0  0  0  0  0  0  0  0  0  0  0  0
  143.6241  134.3632  152.4095 C   0  0  0  0  0  0  0  0  0  0  0  0
  144.0785  135.5676  152.9827 C   0  0  0  0  0  0  0  0  0  0  0  0
  143.6151  135.9672  154.1918 F   0  0  0  0  0  0  0  0  0  0  0  0
  146.5648  139.4946  153.2418 N   0  0  0  0  0  0  0  0  0  0  0  0
  147.4813  140.6280  153.0740 C   0  0  1  0  0  0  0  0  0  0  0  0
  146.7926  141.9357  153.5091 C   0  0  0  0  0  0  0  0  0  0  0  0
  146.6015  142.0136  155.0332 C   0  0  0  0  0  0  0  0  0  0  0  0
  147.9325  141.8161  155.7748 C   0  0  0  0  0  0  0  0  0  0  0  0
  148.6103  140.4860  155.3840 C   0  0  2  0  0  0  0  0  0  0  0  0
  149.9381  140.2696  156.1388 C   0  0  0  0  0  0  0  0  0  0  0  0
  150.6183  139.2472  155.6195 F   0  0  0  0  0  0  0  0  0  0  0  0
  150.6894  141.3682  156.0663 F   0  0  0  0  0  0  0  0  0  0  0  0
  149.6949  140.0166  157.4248 F   0  0  0  0  0  0  0  0  0  0  0  0
  148.8006  140.4183  153.8517 C   0  0  0  0  0  0  0  0  0  0  0  0
  144.9687  137.8235  153.7129 H   0  0  0  0  0  0  0  0  0  0  0  0
  146.2126  136.3903  150.4383 H   0  0  0  0  0  0  0  0  0  0  0  0
  145.2874  134.2510  149.5929 H   0  0  0  0  0  0  0  0  0  0  0  0
  142.9017  133.7499  152.9274 H   0  0  0  0  0  0  0  0  0  0  0  0
  145.9688  139.5375  154.0560 H   0  0  0  0  0  0  0  0  0  0  0  0
  147.7130  140.7269  152.0121 H   0  0  0  0  0  0  0  0  0  0  0  0
  147.4000  142.7822  153.1859 H   0  0  0  0  0  0  0  0  0  0  0  0
  145.8313  142.0443  153.0050 H   0  0  0  0  0  0  0  0  0  0  0  0
  146.1686  142.9776  155.3016 H   0  0  0  0  0  0  0  0  0  0  0  0
  145.8867  141.2563  155.3567 H   0  0  0  0  0  0  0  0  0  0  0  0
  148.5988  142.6506  155.5530 H   0  0  0  0  0  0  0  0  0  0  0  0
  147.7528  141.8442  156.8499 H   0  0  0  0  0  0  0  0  0  0  0  0
  147.9399  139.6757  155.6748 H   0  0  0  0  0  0  0  0  0  0  0  0
  149.2563  139.4680  153.5730 H   0  0  0  0  0  0  0  0  0  0  0  0
  149.5116  141.1868  153.5464 H   0  0  0  0  0  0  0  0  0  0  0  0
  1  2  2  0  0  0  0
  2  3  1  0  0  0  0
  2 11  1  0  0  0  0
  3  4  1  0  0  0  0
  3 22  1  0  0  0  0
  4  9  1  0  0  0  0
  4  5  2  0  0  0  0
  5  6  1  0  0  0  0
  5 23  1  0  0  0  0
  6  7  2  0  0  0  0
  6 24  1  0  0  0  0
  7  8  1  0  0  0  0
  8  9  2  0  0  0  0
  8 25  1  0  0  0  0
  9 10  1  0  0  0  0
 11 12  1  0  0  0  0
 11 26  1  0  0  0  0
 12 21  1  0  0  0  0
 12 13  1  0  0  0  0
 12 27  1  0  0  0  0
 13 14  1  0  0  0  0
 13 28  1  0  0  0  0
 13 29  1  0  0  0  0
 14 15  1  0  0  0  0
 14 30  1  0  0  0  0
 14 31  1  0  0  0  0
 15 16  1  0  0  0  0
 15 32  1  0  0  0  0
 15 33  1  0  0  0  0
 16 17  1  0  0  0  0
 16 21  1  0  0  0  0
 16 34  1  0  0  0  0
 17 18  1  0  0  0  0
 17 19  1  0  0  0  0
 17 20  1  0  0  0  0
 21 35  1  0  0  0  0
 21 36  1  0  0  0  0
M  END
> <s_m_source_file>
AV-unprocessed.smi

> <i_m_source_file_index>
2321

> <i_lp_mmshare_version>
43012

> <i_f3d_flags>
0

> <s_epik_input>
RkMoRikoRilbQ0BASF0oW0NIMl0xKVtDSDJdW0NIMl1bQ0gyXVtDQEhdMVtOSF1DKD1PKVtOSF1jMltjSF1bY0hdbltjSF1jMkY=

> <s_epik_cmdline>
J2VwaWtfcHl0aG9uJywgJy1waCcsICc3LjAnLCAnLXRuJywgJzgnLCAnLW1hJywgJzIwMCcsICctbWV0YWxfYmluZGluZycsICctaW1hZScsICc8aW5maWxlLm1hZT4nLCAnLW9tYWUnLCAnPG91dGZpbGUubWFlPic=

> <r_epik_Ionization_Penalty>
0.00319438

> <r_epik_Ionization_Penalty_Charging>
0

> <r_epik_Ionization_Penalty_Neutral>
0.00319438

> <r_epik_State_Penalty>
0.00222511

> <r_epik_Charging_Adjusted_Penalty>
0.00222511

> <i_epik_Tot_Q>
0

> <i_epik_Tot_abs_Q>
0

> <r_epik_Metal_State_Penalty>
-0

> <b_epik_Metal_Only>
0

> <s_lp_Force_Field>
OPLS_2005

> <r_lp_Energy>
25.9848

> <b_lp_Chiralities_Consistent>
1

> <s_lp_Variant>
AV-unprocessed.smi:2321-4

> <Gold.Version>
5.8.1

> <Gold.Id.Protein>
6NUR|6NUR_protein|mol2

> <Gold.PLP.Fitness>
39.2963

> <Gold.PLP.PLP>
-32.1343

> <Gold.PLP.part.hbond>
-1.7283

> <Gold.PLP.part.metal>
0.0000

> <Gold.PLP.part.buried>
-2.1671

> <Gold.PLP.part.nonpolar>
-30.1573

> <Gold.PLP.part.repulsive>
0.7533

> <Gold.PLP.ligand.clash>
0.0000

> <Gold.PLP.ligand.torsion>
0.5914

> <Gold.PLP.Chemscore.Hbond>
0.7800

> <Gold.PLP.Chemscore.CHOScore>
1.9945

> <Gold.PLP.Chemscore.Metal>
0.0000

> <Gold.Chemscore.Hbonds>
donor molecule, donor type, donor heavy atom, donor atom, acceptor molecule, acceptor atom, score
      P1  H  7954  7966       L1     1  1.00
      L1  C     6    24       P1  7921  1.00
      L1  C     8    25       P1 10957  0.53

> <Gold.PLP.Chemscore.Internal.Correction>
0.0211

> <Gold.Rescore>
     Score         DG    S(hbond)    S(metal)    S(lipo)     H(rot)  DE(clash)    DE(int)     intcor
     11.22     -13.62       0.92        0.00      65.28       1.00       0.81       1.60       ----

> <Gold.Chemscore.Fitness>
11.2177

> <Gold.Chemscore.DG>
-13.6246

> <Gold.Chemscore.ZeroCoef>
-5.4800

> <Gold.Chemscore.Hbond>
0.9181

> <Gold.Chemscore.Metal>
0.0000

> <Gold.Chemscore.Lipo>
65.2825

> <Gold.Chemscore.Internal_Hbond>
0.0000

> <Gold.Chemscore.DEClash>
0.8051

> <Gold.Chemscore.DEInternal>
1.6019

> <Gold.Chemscore.Rot>
1.0000

> <Gold.Chemscore.Internal.Correction>
   9.000000E+99

> <Gold.Chemscore.Hbonds>
donor molecule, donor type, donor heavy atom, donor atom, acceptor molecule, acceptor atom, score
      P1  H  7954  7966       L1     1  0.99

> <Gold.Chemscore.Hbond.Weighted>
-3.0666

> <Gold.Chemscore.Metal.Weighted>
-0.0000

> <Gold.Chemscore.Lipo.Weighted>
-7.6380

> <Gold.Chemscore.Internal_Hbond.Weighted>
0.0000

> <Gold.Chemscore.DEClash.Weighted>
0.8051

> <Gold.Chemscore.DEInternal.Weighted>
1.6019

> <Gold.Chemscore.Rot.Weighted>
2.5600

> <Gold.Chemscore.Internal.Correction.Weighted>
   9.000000E+99

> <Gold.Protein.RotatedTorsions>
[ 6907 6896 6895 6894 ] final  -11.68 input  -60.11 | X-H torsion
[ 7974 7965 7964 7962 ] final -158.87 input  175.53 | X-H torsion
[ 8008 7997 7996 7995 ] final  172.33 input   59.86 | X-H torsion
[ 10167 10162 10161 10158 ] final  -37.79 input  -65.29 | X-H torsion
[ 10718 10713 10712 10709 ] final -109.14 input   66.30 | X-H torsion
[ 10763 10752 10751 10750 ] final  -83.36 input  -60.55 | X-H torsion
[ 11005 11000 10999 10996 ] final  -97.24 input  -57.11 | X-H torsion

> <Gold.Protein.ActiveResidues>
 VAL166  LYS551  ARG553  GLY616  TRP617  ASP618  TYR619  PRO620  LYS621  CYS622 
 ASP623  PHE694  ASN695  SER759  ASP760  ASP761  ALA762  ILE779  LEU786  VAL792 
 PHE793  MET794  SER795  GLU796  ALA797  LYS798  CYS799  TRP800  GLU811  SER814 

> <Gold.Protein.RotatedAtoms>
  151.3823  135.0942  159.9499 H   0  0  0  0  0  0  0  0  0  0  0  0  # atno 6907 bound_to 6896
  152.5104  133.9060  159.7475 H   0  0  0  0  0  0  0  0  0  0  0  0  # atno 6908 bound_to 6896
  150.9496  133.6509  159.2803 H   0  0  0  0  0  0  0  0  0  0  0  0  # atno 6909 bound_to 6896
  144.7488  140.3766  143.6064 H   0  0  0  0  0  0  0  0  0  0  0  0  # atno 7974 bound_to 7965
  156.1185  140.1489  156.9238 H   0  0  0  0  0  0  0  0  0  0  0  0  # atno 8008 bound_to 7997
  154.4818  140.0877  156.7437 H   0  0  0  0  0  0  0  0  0  0  0  0  # atno 8009 bound_to 7997
  155.4471  140.3433  155.4298 H   0  0  0  0  0  0  0  0  0  0  0  0  # atno 8010 bound_to 7997
  140.7109  143.3319  151.2550 H   0  0  0  0  0  0  0  0  0  0  0  0  # atno 10167 bound_to 10162
  156.0521  130.5748  150.8058 H   0  0  0  0  0  0  0  0  0  0  0  0  # atno 10718 bound_to 10713
  154.5868  135.5559  153.7239 H   0  0  0  0  0  0  0  0  0  0  0  0  # atno 10763 bound_to 10752
  153.0101  135.6333  154.1906 H   0  0  0  0  0  0  0  0  0  0  0  0  # atno 10764 bound_to 10752
  154.1846  135.2885  155.3021 H   0  0  0  0  0  0  0  0  0  0  0  0  # atno 10765 bound_to 10752
  141.1385  133.8156  157.0680 H   0  0  0  0  0  0  0  0  0  0  0  0  # atno 11005 bound_to 11000
  145.7022  139.1664  143.2586 LP  0  0  0  0  0  0  0  0  0  0  0  0  # atno 17320 bound_to 7965
  146.1407  140.7061  142.9368 LP  0  0  0  0  0  0  0  0  0  0  0  0  # atno 17321 bound_to 7965
  139.6803  143.9865  152.2805 LP  0  0  0  0  0  0  0  0  0  0  0  0  # atno 17342 bound_to 10162
  139.9493  144.6631  150.8188 LP  0  0  0  0  0  0  0  0  0  0  0  0  # atno 17343 bound_to 10162
  157.5457  131.0942  150.9765 LP  0  0  0  0  0  0  0  0  0  0  0  0  # atno 17370 bound_to 10713
  157.0037  130.5610  149.5314 LP  0  0  0  0  0  0  0  0  0  0  0  0  # atno 17371 bound_to 10713
  140.0529  134.9796  157.1169 LP  0  0  0  0  0  0  0  0  0  0  0  0  # atno 17394 bound_to 11000
  140.3962  134.2131  155.7164 LP  0  0  0  0  0  0  0  0  0  0  0  0  # atno 17395 bound_to 11000

$$$$
