AV-unprocessed.smi:243|AV-procd|sdf|1853|dock2
  -GOLD-   2262020473D 1   1.00000     0.00000
 Structure written by MMmdl.
 58 61  0  0  0  0  0  0  0  0  2 V2000
  145.7075  132.5418  150.7116 C   0  0  0  0  0  0  0  0  0  0  0  0
  146.0469  131.7637  151.9912 C   0  0  0  0  0  0  0  0  0  0  0  0
  147.4718  131.9071  152.3849 N   0  3  1  0  0  0  0  0  0  0  0  0
  147.8453  133.3032  152.7309 C   0  0  0  0  0  0  0  0  0  0  0  0
  149.3524  133.4368  153.0267 C   0  0  0  0  0  0  0  0  0  0  0  0
  149.9047  132.3984  154.0265 C   0  0  1  0  0  0  0  0  0  0  0  0
  149.7746  132.8051  155.4382 N   0  0  0  0  0  0  0  0  0  0  0  0
  150.5053  132.1859  156.5403 C   0  0  0  0  0  0  0  0  0  0  0  0
  149.1384  133.9752  155.7031 C   0  0  0  0  0  0  0  0  0  0  0  0
  147.8459  133.9252  156.1189 N   0  0  0  0  0  0  0  0  0  0  0  0
  147.1811  135.0508  156.3944 C   0  0  0  0  0  0  0  0  0  0  0  0
  147.6095  136.3118  156.3200 N   0  0  0  0  0  0  0  0  0  0  0  0
  148.9049  136.3712  155.8974 C   0  0  0  0  0  0  0  0  0  0  0  0
  149.7381  135.2620  155.5752 C   0  0  0  0  0  0  0  0  0  0  0  0
  150.9914  135.7161  155.1797 N   0  0  0  0  0  0  0  0  0  0  0  0
  150.9060  137.0148  155.2709 C   0  0  0  0  0  0  0  0  0  0  0  0
  149.6836  137.4952  155.6829 N   0  0  0  0  0  0  0  0  0  0  0  0
  149.3118  138.8907  155.8626 C   0  0  0  0  0  0  0  0  0  0  0  0
  149.0774  139.6449  154.5321 C   0  0  2  0  0  0  0  0  0  0  0  0
  150.2755  139.6270  153.7749 O   0  0  0  0  0  0  0  0  0  0  0  0
  148.6655  141.0974  154.7389 C   0  0  0  0  0  0  0  0  0  0  0  0
  147.8224  141.3873  153.5045 C   0  0  0  0  0  0  0  0  0  0  0  0
  147.0940  140.1840  153.3307 O   0  0  0  0  0  0  0  0  0  0  0  0
  147.9372  139.0827  153.6567 C   0  0  0  0  0  0  0  0  0  0  0  0
  149.3760  130.9786  153.7034 C   0  0  1  0  0  0  0  0  0  0  0  0
  149.8282  129.9071  154.7106 C   0  0  0  0  0  0  0  0  0  0  0  0
  147.8547  130.9558  153.4590 C   0  0  0  0  0  0  0  0  0  0  0  0
  144.6819  132.3398  150.4022 H   0  0  0  0  0  0  0  0  0  0  0  0
  146.3619  132.2522  149.8888 H   0  0  0  0  0  0  0  0  0  0  0  0
  145.7949  133.6189  150.8499 H   0  0  0  0  0  0  0  0  0  0  0  0
  145.3978  132.0705  152.8127 H   0  0  0  0  0  0  0  0  0  0  0  0
  145.8290  130.7116  151.8036 H   0  0  0  0  0  0  0  0  0  0  0  0
  147.6035  133.9677  151.9022 H   0  0  0  0  0  0  0  0  0  0  0  0
  147.2422  133.6458  153.5688 H   0  0  0  0  0  0  0  0  0  0  0  0
  149.8847  133.3074  152.0836 H   0  0  0  0  0  0  0  0  0  0  0  0
  149.5877  134.4488  153.3591 H   0  0  0  0  0  0  0  0  0  0  0  0
  150.9729  132.3445  153.8136 H   0  0  0  0  0  0  0  0  0  0  0  0
  150.0895  132.4869  157.5028 H   0  0  0  0  0  0  0  0  0  0  0  0
  151.5549  132.4773  156.5255 H   0  0  0  0  0  0  0  0  0  0  0  0
  150.4440  131.1025  156.5062 H   0  0  0  0  0  0  0  0  0  0  0  0
  146.1591  134.9230  156.7199 H   0  0  0  0  0  0  0  0  0  0  0  0
  151.7359  137.6636  155.0305 H   0  0  0  0  0  0  0  0  0  0  0  0
  148.4118  138.9278  156.4775 H   0  0  0  0  0  0  0  0  0  0  0  0
  150.0957  139.3809  156.4417 H   0  0  0  0  0  0  0  0  0  0  0  0
  150.0505  139.5399  152.8611 H   0  0  0  0  0  0  0  0  0  0  0  0
  148.0374  141.1903  155.6260 H   0  0  0  0  0  0  0  0  0  0  0  0
  149.5071  141.7815  154.8555 H   0  0  0  0  0  0  0  0  0  0  0  0
  147.1606  142.2436  153.6351 H   0  0  0  0  0  0  0  0  0  0  0  0
  148.4519  141.5656  152.6313 H   0  0  0  0  0  0  0  0  0  0  0  0
  148.3092  138.6117  152.7453 H   0  0  0  0  0  0  0  0  0  0  0  0
  147.3348  138.3423  154.1820 H   0  0  0  0  0  0  0  0  0  0  0  0
  149.8329  130.7004  152.7520 H   0  0  0  0  0  0  0  0  0  0  0  0
  149.3606  130.0444  155.6852 H   0  0  0  0  0  0  0  0  0  0  0  0
  150.9091  129.9329  154.8527 H   0  0  0  0  0  0  0  0  0  0  0  0
  149.5665  128.9077  154.3618 H   0  0  0  0  0  0  0  0  0  0  0  0
  147.2990  131.1817  154.3686 H   0  0  0  0  0  0  0  0  0  0  0  0
  147.5645  129.9468  153.1627 H   0  0  0  0  0  0  0  0  0  0  0  0
  148.0179  131.6477  151.5758 H   0  0  0  0  0  0  0  0  0  0  0  0
  1  2  1  0  0  0  0
  1 28  1  0  0  0  0
  1 29  1  0  0  0  0
  1 30  1  0  0  0  0
  2  3  1  0  0  0  0
  2 31  1  0  0  0  0
  2 32  1  0  0  0  0
  3 27  1  0  0  0  0
  3  4  1  0  0  0  0
  3 58  1  0  0  0  0
  4  5  1  0  0  0  0
  4 33  1  0  0  0  0
  4 34  1  0  0  0  0
  5  6  1  0  0  0  0
  5 35  1  0  0  0  0
  5 36  1  0  0  0  0
  6  7  1  0  0  0  0
  6 25  1  0  0  0  0
  6 37  1  0  0  0  0
  7  8  1  0  0  0  0
  7  9  1  0  0  0  0
  8 38  1  0  0  0  0
  8 39  1  0  0  0  0
  8 40  1  0  0  0  0
  9 14  1  0  0  0  0
  9 10  2  0  0  0  0
 10 11  1  0  0  0  0
 11 12  2  0  0  0  0
 11 41  1  0  0  0  0
 12 13  1  0  0  0  0
 13 17  1  0  0  0  0
 13 14  2  0  0  0  0
 14 15  1  0  0  0  0
 15 16  2  0  0  0  0
 16 17  1  0  0  0  0
 16 42  1  0  0  0  0
 17 18  1  0  0  0  0
 18 19  1  0  0  0  0
 18 43  1  0  0  0  0
 18 44  1  0  0  0  0
 19 24  1  0  0  0  0
 19 20  1  0  0  0  0
 19 21  1  0  0  0  0
 20 45  1  0  0  0  0
 21 22  1  0  0  0  0
 21 46  1  0  0  0  0
 21 47  1  0  0  0  0
 22 23  1  0  0  0  0
 22 48  1  0  0  0  0
 22 49  1  0  0  0  0
 23 24  1  0  0  0  0
 24 50  1  0  0  0  0
 24 51  1  0  0  0  0
 25 26  1  0  0  0  0
 25 27  1  0  0  0  0
 25 52  1  0  0  0  0
 26 53  1  0  0  0  0
 26 54  1  0  0  0  0
 26 55  1  0  0  0  0
 27 56  1  0  0  0  0
 27 57  1  0  0  0  0
M  CHG  1   3   1
M  END
> <s_m_source_file>
AV-unprocessed.smi

> <i_m_source_file_index>
243

> <i_lp_mmshare_version>
43012

> <i_f3d_flags>
0

> <s_epik_input>
W0NIM11bQ0gyXU4xW0NIMl1bQ0gyXVtDQEhdKFtDQEBIXShbQ0gzXSlbQ0gyXTEpTihbQ0gzXSljKG5bY0hdbjIpYyhjMjMpbltjSF1uM1tDSDJdW0NAQF00KFtPSF0pW0NIMl1bQ0gyXU9bQ0gyXTQ=

> <s_epik_cmdline>
J2VwaWtfcHl0aG9uJywgJy1waCcsICc3LjAnLCAnLXRuJywgJzgnLCAnLW1hJywgJzIwMCcsICctbWV0YWxfYmluZGluZycsICctaW1hZScsICc8aW5maWxlLm1hZT4nLCAnLW9tYWUnLCAnPG91dGZpbGUubWFlPic=

> <r_lp_tautomer_probability>
1

> <r_epik_Ionization_Penalty>
0.00253099

> <r_epik_Ionization_Penalty_Charging>
0.00137877

> <r_epik_Ionization_Penalty_Neutral>
0.00115221

> <r_epik_State_Penalty>
-0

> <r_epik_Charging_Adjusted_Penalty>
0.00137877

> <i_epik_Tot_Q>
1

> <i_epik_Tot_abs_Q>
1

> <r_epik_Metal_State_Penalty>
-0

> <b_epik_Metal_Only>
0

> <s_lp_Force_Field>
OPLS_2005

> <r_lp_Energy>
51.4738

> <b_lp_Chiralities_Consistent>
1

> <s_lp_Variant>
AV-unprocessed.smi:243-6

> <Gold.Version>
5.8.1

> <Gold.Id.Protein>
6NUR|6NUR_protein|mol2

> <Gold.PLP.Fitness>
44.3603

> <Gold.PLP.PLP>
-36.8886

> <Gold.PLP.part.hbond>
-3.9947

> <Gold.PLP.part.metal>
0.0000

> <Gold.PLP.part.buried>
-4.4208

> <Gold.PLP.part.nonpolar>
-27.3557

> <Gold.PLP.part.repulsive>
0.3279

> <Gold.PLP.ligand.clash>
0.4268

> <Gold.PLP.ligand.torsion>
1.8374

> <Gold.PLP.Chemscore.Hbond>
3.7460

> <Gold.PLP.Chemscore.CHOScore>
0.0000

> <Gold.PLP.Chemscore.Metal>
0.0000

> <Gold.Chemscore.Hbonds>
donor molecule, donor type, donor heavy atom, donor atom, acceptor molecule, acceptor atom, score
      L1  H     3    58       P1 10747  1.00
      L1  H    20    45       P1  7957  1.00
      P1  H  7989  7998       L1    20  0.66
      P1  H 10752 10764       L1    15  1.00

> <Gold.PLP.Chemscore.Internal.Correction>
0.3354

> <Gold.Rescore>
     Score         DG    S(hbond)    S(metal)    S(lipo)     H(rot)  DE(clash)    DE(int)     intcor
     15.40     -18.64       2.64        0.00      86.11       2.24       0.24       3.00       ----

> <Gold.Chemscore.Fitness>
15.3956

> <Gold.Chemscore.DG>
-18.6373

> <Gold.Chemscore.ZeroCoef>
-5.4800

> <Gold.Chemscore.Hbond>
2.6383

> <Gold.Chemscore.Metal>
0.0000

> <Gold.Chemscore.Lipo>
86.1061

> <Gold.Chemscore.Internal_Hbond>
0.0000

> <Gold.Chemscore.DEClash>
0.2415

> <Gold.Chemscore.DEInternal>
3.0002

> <Gold.Chemscore.Rot>
2.2379

> <Gold.Chemscore.Internal.Correction>
   9.000000E+99

> <Gold.Chemscore.Hbonds>
donor molecule, donor type, donor heavy atom, donor atom, acceptor molecule, acceptor atom, score
      L1  H     3    58       P1 10747  1.00
      L1  H    20    45       P1  7957  0.98
      P1  H  7989  7998       L1    20  0.07
      P1  H 10752 10764       L1    15  0.24

> <Gold.Chemscore.Hbond.Weighted>
-8.8120

> <Gold.Chemscore.Metal.Weighted>
-0.0000

> <Gold.Chemscore.Lipo.Weighted>
-10.0744

> <Gold.Chemscore.Internal_Hbond.Weighted>
0.0000

> <Gold.Chemscore.DEClash.Weighted>
0.2415

> <Gold.Chemscore.DEInternal.Weighted>
3.0002

> <Gold.Chemscore.Rot.Weighted>
5.7291

> <Gold.Chemscore.Internal.Correction.Weighted>
   9.000000E+99

> <Gold.Protein.RotatedTorsions>
[ 6907 6896 6895 6894 ] final   40.86 input  -60.11 | X-H torsion
[ 7974 7965 7964 7962 ] final   75.18 input  175.53 | X-H torsion
[ 8008 7997 7996 7995 ] final -141.12 input   59.86 | X-H torsion
[ 10167 10162 10161 10158 ] final  -30.40 input  -65.29 | X-H torsion
[ 10718 10713 10712 10709 ] final -137.73 input   66.30 | X-H torsion
[ 10763 10752 10751 10750 ] final  -54.28 input  -60.55 | X-H torsion
[ 11005 11000 10999 10996 ] final  -55.42 input  -57.11 | X-H torsion

> <Gold.Protein.ActiveResidues>
 VAL166  LYS551  ARG553  GLY616  TRP617  ASP618  TYR619  PRO620  LYS621  CYS622 
 ASP623  PHE694  ASN695  SER759  ASP760  ASP761  ALA762  ILE779  LEU786  VAL792 
 PHE793  MET794  SER795  GLU796  ALA797  LYS798  CYS799  TRP800  GLU811  SER814 

> <Gold.Protein.RotatedAtoms>
  152.1879  134.8697  160.0520 H   0  0  0  0  0  0  0  0  0  0  0  0  # atno 6907 bound_to 6896
  151.9597  133.3686  159.4039 H   0  0  0  0  0  0  0  0  0  0  0  0  # atno 6908 bound_to 6896
  150.6929  134.4177  159.5234 H   0  0  0  0  0  0  0  0  0  0  0  0  # atno 6909 bound_to 6896
  145.7188  139.2641  143.1608 H   0  0  0  0  0  0  0  0  0  0  0  0  # atno 7974 bound_to 7965
  155.4725  140.0554  157.2977 H   0  0  0  0  0  0  0  0  0  0  0  0  # atno 8008 bound_to 7997
  154.4692  140.2033  155.9991 H   0  0  0  0  0  0  0  0  0  0  0  0  # atno 8009 bound_to 7997
  156.1028  140.3216  155.7969 H   0  0  0  0  0  0  0  0  0  0  0  0  # atno 8010 bound_to 7997
  140.7250  143.3852  151.1529 H   0  0  0  0  0  0  0  0  0  0  0  0  # atno 10167 bound_to 10162
  156.2914  130.7377  151.1403 H   0  0  0  0  0  0  0  0  0  0  0  0  # atno 10718 bound_to 10713
  154.1724  135.6457  153.5013 H   0  0  0  0  0  0  0  0  0  0  0  0  # atno 10763 bound_to 10752
  153.0081  135.5386  154.6599 H   0  0  0  0  0  0  0  0  0  0  0  0  # atno 10764 bound_to 10752
  154.5942  135.2937  155.0576 H   0  0  0  0  0  0  0  0  0  0  0  0  # atno 10765 bound_to 10752
  141.1073  133.6612  156.4467 H   0  0  0  0  0  0  0  0  0  0  0  0  # atno 11005 bound_to 11000
  146.0644  140.7936  142.9718 LP  0  0  0  0  0  0  0  0  0  0  0  0  # atno 17320 bound_to 7965
  144.6922  140.3247  143.7226 LP  0  0  0  0  0  0  0  0  0  0  0  0  # atno 17321 bound_to 7965
  139.7448  143.8869  152.3060 LP  0  0  0  0  0  0  0  0  0  0  0  0  # atno 17342 bound_to 10162
  139.8703  144.7072  150.8996 LP  0  0  0  0  0  0  0  0  0  0  0  0  # atno 17343 bound_to 10162
  157.7343  131.0583  150.5530 LP  0  0  0  0  0  0  0  0  0  0  0  0  # atno 17370 bound_to 10713
  156.5647  130.4264  149.6047 LP  0  0  0  0  0  0  0  0  0  0  0  0  # atno 17371 bound_to 10713
  140.4869  134.6612  157.5194 LP  0  0  0  0  0  0  0  0  0  0  0  0  # atno 17394 bound_to 11000
  139.9949  134.6927  155.9627 LP  0  0  0  0  0  0  0  0  0  0  0  0  # atno 17395 bound_to 11000

$$$$
