AV-unprocessed.smi:1056|AV-procd|sdf|4630|dock3
  -GOLD-   22720 3133D 1   1.00000     0.00000
 Structure written by MMmdl.
 45 47  0  0  0  0  0  0  0  0  2 V2000
  152.6994  143.7110  161.8484 C   0  0  0  0  0  0  0  0  0  0  0  0
  152.2989  143.1954  160.4773 C   0  0  0  0  0  0  0  0  0  0  0  0
  152.4154  141.8145  160.2014 C   0  0  0  0  0  0  0  0  0  0  0  0
  152.0515  141.2950  158.9400 C   0  0  0  0  0  0  0  0  0  0  0  0
  152.0825  139.9970  158.4594 N   0  0  0  0  0  0  0  0  0  0  0  0
  151.6196  140.1571  157.2237 C   0  0  0  0  0  0  0  0  0  0  0  0
  151.2954  141.4080  156.8439 N   0  0  0  0  0  0  0  0  0  0  0  0
  150.7730  141.8196  155.5538 C   0  0  0  0  0  0  0  0  0  0  0  0
  149.6829  140.8639  155.0272 C   0  0  2  0  0  0  0  0  0  0  0  0
  150.2249  140.0514  154.0054 O   0  0  0  0  0  0  0  0  0  0  0  0
  148.4692  141.6113  154.4395 C   0  0  0  0  0  0  0  0  0  0  0  0
  147.6431  142.2718  155.4813 N   0  3  2  0  0  0  0  0  0  0  0  0
  147.5471  141.5032  156.7452 C   0  0  0  0  0  0  0  0  0  0  0  0
  146.8687  142.3555  157.8325 C   0  0  0  0  0  0  0  0  0  0  0  0
  145.7046  143.0893  157.3412 N   0  0  0  0  0  0  0  0  0  0  0  0
  145.3914  143.2780  156.0489 C   0  0  0  0  0  0  0  0  0  0  0  0
  144.3996  143.9184  155.7107 O   0  0  0  0  0  0  0  0  0  0  0  0
  146.3051  142.6697  154.9741 C   0  0  0  0  0  0  0  0  0  0  0  0
  151.5643  142.2021  157.9539 C   0  0  0  0  0  0  0  0  0  0  0  0
  151.4460  143.5785  158.2156 C   0  0  0  0  0  0  0  0  0  0  0  0
  151.8124  144.0805  159.4819 C   0  0  0  0  0  0  0  0  0  0  0  0
  151.6762  145.5677  159.7572 C   0  0  0  0  0  0  0  0  0  0  0  0
  153.0707  142.9066  162.4841 H   0  0  0  0  0  0  0  0  0  0  0  0
  151.8443  144.1658  162.3490 H   0  0  0  0  0  0  0  0  0  0  0  0
  153.4883  144.4583  161.7610 H   0  0  0  0  0  0  0  0  0  0  0  0
  152.7854  141.1403  160.9598 H   0  0  0  0  0  0  0  0  0  0  0  0
  151.5112  139.3166  156.5540 H   0  0  0  0  0  0  0  0  0  0  0  0
  150.3760  142.8297  155.6615 H   0  0  0  0  0  0  0  0  0  0  0  0
  151.5994  141.8861  154.8452 H   0  0  0  0  0  0  0  0  0  0  0  0
  149.3650  140.1965  155.8282 H   0  0  0  0  0  0  0  0  0  0  0  0
  149.6843  140.1341  153.2340 H   0  0  0  0  0  0  0  0  0  0  0  0
  148.8358  142.3626  153.7376 H   0  0  0  0  0  0  0  0  0  0  0  0
  147.8408  140.9336  153.8587 H   0  0  0  0  0  0  0  0  0  0  0  0
  146.9715  140.5934  156.5673 H   0  0  0  0  0  0  0  0  0  0  0  0
  148.5306  141.1913  157.0949 H   0  0  0  0  0  0  0  0  0  0  0  0
  146.5740  141.7310  158.6763 H   0  0  0  0  0  0  0  0  0  0  0  0
  147.5791  143.0880  158.2178 H   0  0  0  0  0  0  0  0  0  0  0  0
  145.0913  143.4906  158.0369 H   0  0  0  0  0  0  0  0  0  0  0  0
  146.4248  143.3910  154.1646 H   0  0  0  0  0  0  0  0  0  0  0  0
  145.8011  141.7976  154.5551 H   0  0  0  0  0  0  0  0  0  0  0  0
  151.0758  144.2428  157.4489 H   0  0  0  0  0  0  0  0  0  0  0  0
  151.2953  146.1009  158.8856 H   0  0  0  0  0  0  0  0  0  0  0  0
  152.6430  145.9992  160.0172 H   0  0  0  0  0  0  0  0  0  0  0  0
  150.9859  145.7408  160.5830 H   0  0  0  0  0  0  0  0  0  0  0  0
  148.1143  143.1356  155.7095 H   0  0  0  0  0  0  0  0  0  0  0  0
  1  2  1  0  0  0  0
  1 23  1  0  0  0  0
  1 24  1  0  0  0  0
  1 25  1  0  0  0  0
  2 21  1  0  0  0  0
  2  3  2  0  0  0  0
  3  4  1  0  0  0  0
  3 26  1  0  0  0  0
  4 19  2  0  0  0  0
  4  5  1  0  0  0  0
  5  6  2  0  0  0  0
  6  7  1  0  0  0  0
  6 27  1  0  0  0  0
  7  8  1  0  0  0  0
  7 19  1  0  0  0  0
  8  9  1  0  0  0  0
  8 28  1  0  0  0  0
  8 29  1  0  0  0  0
  9 10  1  0  0  0  0
  9 11  1  0  0  0  0
  9 30  1  0  0  0  0
 10 31  1  0  0  0  0
 11 12  1  0  0  0  0
 11 32  1  0  0  0  0
 11 33  1  0  0  0  0
 12 18  1  0  0  0  0
 12 13  1  0  0  0  0
 12 45  1  0  0  0  0
 13 14  1  0  0  0  0
 13 34  1  0  0  0  0
 13 35  1  0  0  0  0
 14 15  1  0  0  0  0
 14 36  1  0  0  0  0
 14 37  1  0  0  0  0
 15 16  1  0  0  0  0
 15 38  1  0  0  0  0
 16 17  2  0  0  0  0
 16 18  1  0  0  0  0
 18 39  1  0  0  0  0
 18 40  1  0  0  0  0
 19 20  1  0  0  0  0
 20 21  2  0  0  0  0
 20 41  1  0  0  0  0
 21 22  1  0  0  0  0
 22 42  1  0  0  0  0
 22 43  1  0  0  0  0
 22 44  1  0  0  0  0
M  CHG  1  12   1
M  END
> <s_m_source_file>
AV-unprocessed.smi

> <i_m_source_file_index>
1056

> <i_lp_mmshare_version>
43012

> <i_f3d_flags>
0

> <s_epik_input>
W0NIM11jKFtjSF0xKWMoW0NIM10pW2NIXWMoYzEyKW4oW2NIXW4yKVtDSDJdW0NASF0oW09IXSlbQ0gyXU4zW0NIMl1bQ0gyXVtOSF1DKD1PKVtDSDJdMw==

> <s_epik_cmdline>
J2VwaWtfcHl0aG9uJywgJy1waCcsICc3LjAnLCAnLXRuJywgJzgnLCAnLW1hJywgJzIwMCcsICctbWV0YWxfYmluZGluZycsICctaW1hZScsICc8aW5maWxlLm1hZT4nLCAnLW9tYWUnLCAnPG91dGZpbGUubWFlPic=

> <r_epik_Ionization_Penalty>
0.153633

> <r_epik_Ionization_Penalty_Charging>
0.0674887

> <r_epik_Ionization_Penalty_Neutral>
0.0861443

> <r_epik_State_Penalty>
0.135155

> <r_epik_Charging_Adjusted_Penalty>
0.202644

> <i_epik_Tot_Q>
1

> <i_epik_Tot_abs_Q>
1

> <r_epik_Metal_State_Penalty>
0.190685

> <b_epik_Metal_Only>
0

> <s_lp_Force_Field>
OPLS_2005

> <r_lp_Energy>
23.9975

> <b_lp_Chiralities_Consistent>
1

> <s_lp_Variant>
AV-unprocessed.smi:1056-1

> <Gold.Version>
5.8.1

> <Gold.Id.Protein>
6NUR|6NUR_protein|mol2

> <Gold.PLP.Fitness>
55.2741

> <Gold.PLP.PLP>
-45.6856

> <Gold.PLP.part.hbond>
-3.0000

> <Gold.PLP.part.metal>
0.0000

> <Gold.PLP.part.buried>
-5.2747

> <Gold.PLP.part.nonpolar>
-36.3899

> <Gold.PLP.part.repulsive>
0.1982

> <Gold.PLP.ligand.clash>
0.0000

> <Gold.PLP.ligand.torsion>
1.1000

> <Gold.PLP.Chemscore.Hbond>
3.8957

> <Gold.PLP.Chemscore.CHOScore>
0.0000

> <Gold.PLP.Chemscore.Metal>
0.0000

> <Gold.Chemscore.Hbonds>
donor molecule, donor type, donor heavy atom, donor atom, acceptor molecule, acceptor atom, score
      L1  H    10    31       P1  7957  0.82
      L1  H    12    45       P1  8028  2.00
      P1  H  7989  7998       L1    10  0.96

> <Gold.PLP.Chemscore.Internal.Correction>
0.1012

> <Gold.Rescore>
     Score         DG    S(hbond)    S(metal)    S(lipo)     H(rot)  DE(clash)    DE(int)     intcor
     16.91     -20.06       2.02        0.00     118.84       2.38       2.08       1.07       ----

> <Gold.Chemscore.Fitness>
16.9053

> <Gold.Chemscore.DG>
-20.0552

> <Gold.Chemscore.ZeroCoef>
-5.4800

> <Gold.Chemscore.Hbond>
2.0238

> <Gold.Chemscore.Metal>
0.0000

> <Gold.Chemscore.Lipo>
118.8392

> <Gold.Chemscore.Internal_Hbond>
0.0000

> <Gold.Chemscore.DEClash>
2.0842

> <Gold.Chemscore.DEInternal>
1.0656

> <Gold.Chemscore.Rot>
2.3783

> <Gold.Chemscore.Internal.Correction>
   9.000000E+99

> <Gold.Chemscore.Hbonds>
donor molecule, donor type, donor heavy atom, donor atom, acceptor molecule, acceptor atom, score
      L1  H    10    31       P1  7957  0.77
      L1  H    12    45       P1  8028  0.78
      P1  H  7989  7998       L1    10  0.12

> <Gold.Chemscore.Hbond.Weighted>
-6.7593

> <Gold.Chemscore.Metal.Weighted>
-0.0000

> <Gold.Chemscore.Lipo.Weighted>
-13.9042

> <Gold.Chemscore.Internal_Hbond.Weighted>
0.0000

> <Gold.Chemscore.DEClash.Weighted>
2.0842

> <Gold.Chemscore.DEInternal.Weighted>
1.0656

> <Gold.Chemscore.Rot.Weighted>
6.0884

> <Gold.Chemscore.Internal.Correction.Weighted>
   9.000000E+99

> <Gold.Protein.RotatedTorsions>
[ 6907 6896 6895 6894 ] final -103.05 input  -60.11 | X-H torsion
[ 7974 7965 7964 7962 ] final -160.96 input  175.53 | X-H torsion
[ 8008 7997 7996 7995 ] final  163.71 input   59.86 | X-H torsion
[ 10167 10162 10161 10158 ] final -146.17 input  -65.29 | X-H torsion
[ 10718 10713 10712 10709 ] final  -88.07 input   66.30 | X-H torsion
[ 10763 10752 10751 10750 ] final -106.72 input  -60.55 | X-H torsion
[ 11005 11000 10999 10996 ] final  -98.00 input  -57.11 | X-H torsion

> <Gold.Protein.ActiveResidues>
 VAL166  LYS551  ARG553  GLY616  TRP617  ASP618  TYR619  PRO620  LYS621  CYS622 
 ASP623  PHE694  ASN695  SER759  ASP760  ASP761  ALA762  ILE779  LEU786  VAL792 
 PHE793  MET794  SER795  GLU796  ALA797  LYS798  CYS799  TRP800  GLU811  SER814 

> <Gold.Protein.RotatedAtoms>
  150.7223  134.0488  159.3790 H   0  0  0  0  0  0  0  0  0  0  0  0  # atno 6907 bound_to 6896
  151.8464  135.0570  160.0463 H   0  0  0  0  0  0  0  0  0  0  0  0  # atno 6908 bound_to 6896
  152.2823  133.5446  159.5542 H   0  0  0  0  0  0  0  0  0  0  0  0  # atno 6909 bound_to 6896
  144.7408  140.3466  143.6124 H   0  0  0  0  0  0  0  0  0  0  0  0  # atno 7974 bound_to 7965
  156.1936  140.1716  156.8042 H   0  0  0  0  0  0  0  0  0  0  0  0  # atno 8008 bound_to 7997
  154.5502  140.0719  156.8687 H   0  0  0  0  0  0  0  0  0  0  0  0  # atno 8009 bound_to 7997
  155.3043  140.3363  155.4248 H   0  0  0  0  0  0  0  0  0  0  0  0  # atno 8010 bound_to 7997
  139.7738  143.8199  152.2629 H   0  0  0  0  0  0  0  0  0  0  0  0  # atno 10167 bound_to 10162
  155.9984  130.4822  150.4963 H   0  0  0  0  0  0  0  0  0  0  0  0  # atno 10718 bound_to 10713
  154.8030  135.4701  154.0322 H   0  0  0  0  0  0  0  0  0  0  0  0  # atno 10763 bound_to 10752
  153.1813  135.6841  153.8481 H   0  0  0  0  0  0  0  0  0  0  0  0  # atno 10764 bound_to 10752
  153.8031  135.3227  155.3370 H   0  0  0  0  0  0  0  0  0  0  0  0  # atno 10765 bound_to 10752
  141.1360  133.8213  157.0782 H   0  0  0  0  0  0  0  0  0  0  0  0  # atno 11005 bound_to 11000
  145.7319  139.1739  143.2425 LP  0  0  0  0  0  0  0  0  0  0  0  0  # atno 17320 bound_to 7965
  146.1200  140.7321  142.9462 LP  0  0  0  0  0  0  0  0  0  0  0  0  # atno 17321 bound_to 7965
  139.8241  144.7283  150.9534 LP  0  0  0  0  0  0  0  0  0  0  0  0  # atno 17342 bound_to 10162
  140.7815  143.4131  151.0961 LP  0  0  0  0  0  0  0  0  0  0  0  0  # atno 17343 bound_to 10162
  157.2953  131.0634  151.2106 LP  0  0  0  0  0  0  0  0  0  0  0  0  # atno 17370 bound_to 10713
  157.3104  130.6887  149.6213 LP  0  0  0  0  0  0  0  0  0  0  0  0  # atno 17371 bound_to 10713
  140.0468  134.9826  157.1064 LP  0  0  0  0  0  0  0  0  0  0  0  0  # atno 17394 bound_to 11000
  140.4050  134.2042  155.7163 LP  0  0  0  0  0  0  0  0  0  0  0  0  # atno 17395 bound_to 11000

$$$$
