AV-unprocessed.smi:2988|AV-procd|sdf|11389|dock3
  -GOLD-   2272016313D 1   1.00000     0.00000
 Structure written by MMmdl.
 37 38  0  0  0  0  0  0  0  0  1 V2000
  151.4809  138.5800  154.4392 C   0  0  0  0  0  0  0  0  0  0  0  0
  150.0780  139.2099  154.3891 C   0  0  2  0  0  0  0  0  0  0  0  0
  150.0950  140.6673  154.8947 C   0  0  0  0  0  0  0  0  0  0  0  0
  148.7103  141.3235  154.7743 C   0  0  0  0  0  0  0  0  0  0  0  0
  147.6359  140.5035  155.5040 C   0  0  0  0  0  0  0  0  0  0  0  0
  147.6140  139.0463  155.0090 C   0  0  0  0  0  0  0  0  0  0  0  0
  148.9963  138.3717  155.1212 C   0  0  2  0  0  0  0  0  0  0  0  0
  149.3252  138.1597  156.5318 N   0  0  0  0  0  0  0  0  0  0  0  0
  148.5991  137.4648  157.4210 C   0  0  0  0  0  0  0  0  0  0  0  0
  147.5239  136.9283  157.1519 O   0  0  0  0  0  0  0  0  0  0  0  0
  149.1786  137.3700  158.8381 C   0  0  0  0  0  0  0  0  0  0  0  0
  148.4363  136.4239  159.6830 N   0  0  0  0  0  0  0  0  0  0  0  0
  147.7733  137.0116  160.7460 N   0  0  0  0  0  0  0  0  0  0  0  0
  147.0726  136.2774  161.5399 C   0  0  0  0  0  0  0  0  0  0  0  0
  146.9552  134.8466  161.3641 C   0  0  0  0  0  0  0  0  0  0  0  0
  145.9987  133.9135  162.4603 Cl  0  0  0  0  0  0  0  0  0  0  0  0
  147.6171  134.2794  160.3245 C   0  0  0  0  0  0  0  0  0  0  0  0
  147.5276  132.5731  160.0505 Cl  0  0  0  0  0  0  0  0  0  0  0  0
  148.4267  135.0846  159.3997 C   0  0  0  0  0  0  0  0  0  0  0  0
  149.0463  134.6068  158.4481 O   0  0  0  0  0  0  0  0  0  0  0  0
  151.8914  138.5847  155.4492 H   0  0  0  0  0  0  0  0  0  0  0  0
  152.1764  139.1271  153.8024 H   0  0  0  0  0  0  0  0  0  0  0  0
  151.4602  137.5468  154.0914 H   0  0  0  0  0  0  0  0  0  0  0  0
  149.7928  139.2402  153.3363 H   0  0  0  0  0  0  0  0  0  0  0  0
  150.4259  140.6978  155.9337 H   0  0  0  0  0  0  0  0  0  0  0  0
  150.8211  141.2496  154.3264 H   0  0  0  0  0  0  0  0  0  0  0  0
  148.7426  142.3359  155.1781 H   0  0  0  0  0  0  0  0  0  0  0  0
  148.4426  141.4196  153.7211 H   0  0  0  0  0  0  0  0  0  0  0  0
  147.8247  140.5275  156.5778 H   0  0  0  0  0  0  0  0  0  0  0  0
  146.6570  140.9601  155.3555 H   0  0  0  0  0  0  0  0  0  0  0  0
  146.8688  138.4749  155.5637 H   0  0  0  0  0  0  0  0  0  0  0  0
  147.2917  139.0303  153.9671 H   0  0  0  0  0  0  0  0  0  0  0  0
  148.9218  137.4019  154.6261 H   0  0  0  0  0  0  0  0  0  0  0  0
  150.1937  138.5624  156.8527 H   0  0  0  0  0  0  0  0  0  0  0  0
  150.2325  137.0874  158.7991 H   0  0  0  0  0  0  0  0  0  0  0  0
  149.1606  138.3690  159.2773 H   0  0  0  0  0  0  0  0  0  0  0  0
  146.5301  136.6962  162.3877 H   0  0  0  0  0  0  0  0  0  0  0  0
  1  2  1  0  0  0  0
  1 21  1  0  0  0  0
  1 22  1  0  0  0  0
  1 23  1  0  0  0  0
  2  7  1  0  0  0  0
  2  3  1  0  0  0  0
  2 24  1  0  0  0  0
  3  4  1  0  0  0  0
  3 25  1  0  0  0  0
  3 26  1  0  0  0  0
  4  5  1  0  0  0  0
  4 27  1  0  0  0  0
  4 28  1  0  0  0  0
  5  6  1  0  0  0  0
  5 29  1  0  0  0  0
  5 30  1  0  0  0  0
  6  7  1  0  0  0  0
  6 31  1  0  0  0  0
  6 32  1  0  0  0  0
  7  8  1  0  0  0  0
  7 33  1  0  0  0  0
  8  9  1  0  0  0  0
  8 34  1  0  0  0  0
  9 10  2  0  0  0  0
  9 11  1  0  0  0  0
 11 12  1  0  0  0  0
 11 35  1  0  0  0  0
 11 36  1  0  0  0  0
 12 19  1  0  0  0  0
 12 13  1  0  0  0  0
 13 14  2  0  0  0  0
 14 15  1  0  0  0  0
 14 37  1  0  0  0  0
 15 16  1  0  0  0  0
 15 17  2  0  0  0  0
 17 18  1  0  0  0  0
 17 19  1  0  0  0  0
 19 20  2  0  0  0  0
M  END
> <s_m_source_file>
AV-unprocessed.smi

> <i_m_source_file_index>
2988

> <i_lp_mmshare_version>
43012

> <i_f3d_flags>
0

> <s_epik_input>
W0NIM11bQ0BASF0xW0NIMl1bQ0gyXVtDSDJdW0NIMl1bQ0BIXTFbTkhdQyg9TylbQ0gyXW4ybltjSF1jKENsKWMoQ2wpYzI9Tw==

> <s_epik_cmdline>
J2VwaWtfcHl0aG9uJywgJy1waCcsICc3LjAnLCAnLXRuJywgJzgnLCAnLW1hJywgJzIwMCcsICctbWV0YWxfYmluZGluZycsICctaW1hZScsICc8aW5maWxlLm1hZT4nLCAnLW9tYWUnLCAnPG91dGZpbGUubWFlPic=

> <r_lp_tautomer_probability>
1

> <r_epik_Ionization_Penalty>
1.90782e-08

> <r_epik_Ionization_Penalty_Charging>
3.13143e-11

> <r_epik_Ionization_Penalty_Neutral>
1.90469e-08

> <r_epik_State_Penalty>
-0

> <r_epik_Charging_Adjusted_Penalty>
3.13143e-11

> <i_epik_Tot_Q>
0

> <i_epik_Tot_abs_Q>
0

> <r_epik_Metal_State_Penalty>
-0

> <b_epik_Metal_Only>
0

> <s_lp_Force_Field>
OPLS_2005

> <r_lp_Energy>
23.4163

> <b_lp_Chiralities_Consistent>
1

> <s_lp_Variant>
AV-unprocessed.smi:2988-3

> <Gold.Version>
5.8.1

> <Gold.Id.Protein>
6NUR|6NUR_protein|mol2

> <Gold.PLP.Fitness>
38.7778

> <Gold.PLP.PLP>
-30.7679

> <Gold.PLP.part.hbond>
-3.0000

> <Gold.PLP.part.metal>
0.0000

> <Gold.PLP.part.buried>
-1.8501

> <Gold.PLP.part.nonpolar>
-25.4016

> <Gold.PLP.part.repulsive>
0.0000

> <Gold.PLP.ligand.clash>
0.0000

> <Gold.PLP.ligand.torsion>
0.1144

> <Gold.PLP.Chemscore.Hbond>
2.7440

> <Gold.PLP.Chemscore.CHOScore>
0.0000

> <Gold.PLP.Chemscore.Metal>
0.0000

> <Gold.Chemscore.Hbonds>
donor molecule, donor type, donor heavy atom, donor atom, acceptor molecule, acceptor atom, score
      P1  H  6896  6907       L1    20  0.90
      P1  H  6931  6943       L1    13  0.71
      P1  H  6934  6947       L1    13  0.74

> <Gold.PLP.Chemscore.Internal.Correction>
0.0067

> <Gold.Rescore>
     Score         DG    S(hbond)    S(metal)    S(lipo)     H(rot)  DE(clash)    DE(int)     intcor
     16.33     -16.80       1.94        0.00      74.17       1.50       0.26       0.22       ----

> <Gold.Chemscore.Fitness>
16.3266

> <Gold.Chemscore.DG>
-16.8016

> <Gold.Chemscore.ZeroCoef>
-5.4800

> <Gold.Chemscore.Hbond>
1.9394

> <Gold.Chemscore.Metal>
0.0000

> <Gold.Chemscore.Lipo>
74.1728

> <Gold.Chemscore.Internal_Hbond>
0.0000

> <Gold.Chemscore.DEClash>
0.2566

> <Gold.Chemscore.DEInternal>
0.2184

> <Gold.Chemscore.Rot>
1.4977

> <Gold.Chemscore.Internal.Correction>
   9.000000E+99

> <Gold.Chemscore.Hbonds>
donor molecule, donor type, donor heavy atom, donor atom, acceptor molecule, acceptor atom, score
      P1  H  6896  6907       L1    20  0.18
      P1  H  6931  6943       L1    13  0.40
      P1  H  6934  6947       L1    13  0.53

> <Gold.Chemscore.Hbond.Weighted>
-6.4775

> <Gold.Chemscore.Metal.Weighted>
-0.0000

> <Gold.Chemscore.Lipo.Weighted>
-8.6782

> <Gold.Chemscore.Internal_Hbond.Weighted>
0.0000

> <Gold.Chemscore.DEClash.Weighted>
0.2566

> <Gold.Chemscore.DEInternal.Weighted>
0.2184

> <Gold.Chemscore.Rot.Weighted>
3.8341

> <Gold.Chemscore.Internal.Correction.Weighted>
   9.000000E+99

> <Gold.Protein.RotatedTorsions>
[ 6907 6896 6895 6894 ] final  -96.67 input  -60.11 | X-H torsion
[ 7974 7965 7964 7962 ] final  -69.17 input  175.53 | X-H torsion
[ 8008 7997 7996 7995 ] final   45.16 input   59.86 | X-H torsion
[ 10167 10162 10161 10158 ] final    2.98 input  -65.29 | X-H torsion
[ 10718 10713 10712 10709 ] final  142.79 input   66.30 | X-H torsion
[ 10763 10752 10751 10750 ] final -160.07 input  -60.55 | X-H torsion
[ 11005 11000 10999 10996 ] final  -87.79 input  -57.11 | X-H torsion

> <Gold.Protein.ActiveResidues>
 VAL166  LYS551  ARG553  GLY616  TRP617  ASP618  TYR619  PRO620  LYS621  CYS622 
 ASP623  PHE694  ASN695  SER759  ASP760  ASP761  ALA762  ILE779  LEU786  VAL792 
 PHE793  MET794  SER795  GLU796  ALA797  LYS798  CYS799  TRP800  GLU811  SER814 

> <Gold.Protein.RotatedAtoms>
  150.6995  134.1467  159.4124 H   0  0  0  0  0  0  0  0  0  0  0  0  # atno 6907 bound_to 6896
  151.9450  135.0193  160.0547 H   0  0  0  0  0  0  0  0  0  0  0  0  # atno 6908 bound_to 6896
  152.2060  133.4841  159.5121 H   0  0  0  0  0  0  0  0  0  0  0  0  # atno 6909 bound_to 6896
  145.7072  140.9093  143.0700 H   0  0  0  0  0  0  0  0  0  0  0  0  # atno 7974 bound_to 7965
  155.3313  140.3402  155.4239 H   0  0  0  0  0  0  0  0  0  0  0  0  # atno 8008 bound_to 7997
  156.1860  140.1681  156.8220 H   0  0  0  0  0  0  0  0  0  0  0  0  # atno 8009 bound_to 7997
  154.5387  140.0729  156.8456 H   0  0  0  0  0  0  0  0  0  0  0  0  # atno 8010 bound_to 7997
  140.6608  143.7307  150.7736 H   0  0  0  0  0  0  0  0  0  0  0  0  # atno 10167 bound_to 10162
  157.3765  131.0986  151.0780 H   0  0  0  0  0  0  0  0  0  0  0  0  # atno 10718 bound_to 10713
  154.7421  135.3071  154.8709 H   0  0  0  0  0  0  0  0  0  0  0  0  # atno 10763 bound_to 10752
  153.9520  135.6763  153.4748 H   0  0  0  0  0  0  0  0  0  0  0  0  # atno 10764 bound_to 10752
  153.1020  135.4907  154.8808 H   0  0  0  0  0  0  0  0  0  0  0  0  # atno 10765 bound_to 10752
  141.1611  133.7532  156.9358 H   0  0  0  0  0  0  0  0  0  0  0  0  # atno 11005 bound_to 11000
  144.6952  139.9026  143.7459 LP  0  0  0  0  0  0  0  0  0  0  0  0  # atno 17320 bound_to 7965
  146.0745  139.3733  143.0502 LP  0  0  0  0  0  0  0  0  0  0  0  0  # atno 17321 bound_to 7965
  140.0976  143.4818  152.2443 LP  0  0  0  0  0  0  0  0  0  0  0  0  # atno 17342 bound_to 10162
  139.5842  144.7524  151.3562 LP  0  0  0  0  0  0  0  0  0  0  0  0  # atno 17343 bound_to 10162
  157.1864  130.6332  149.5689 LP  0  0  0  0  0  0  0  0  0  0  0  0  # atno 17370 bound_to 10713
  155.9766  130.4736  150.6540 LP  0  0  0  0  0  0  0  0  0  0  0  0  # atno 17371 bound_to 10713
  140.1355  134.9328  157.2396 LP  0  0  0  0  0  0  0  0  0  0  0  0  # atno 17394 bound_to 11000
  140.2900  134.3251  155.7318 LP  0  0  0  0  0  0  0  0  0  0  0  0  # atno 17395 bound_to 11000

$$$$
