#       Name:                AV-unprocessed.smi:158
#       Creating user name   scv26
#       Creation time:       Thu Mar 26 19:03:29 2020


#       File generated by GOLD software.
#

@<TRIPOS>MOLECULE
AV-unprocessed.smi:158
    40    42     1
SMALL
NO_CHARGES


@<TRIPOS>ATOM
      1 ****        -5.2197  -0.0432   0.6523 N.pl3          1 S1                 0.0000
      2 ****        -3.9559   0.3214   0.3949 C.ar           1 S1                 0.0000
      3 ****        -3.7139   1.6089   0.0543 N.ar           1 S1                 0.0000
      4 ****        -2.4657   2.0149  -0.2106 C.ar           1 S1                 0.0000
      5 ****        -2.2722   3.6751  -0.6344 Cl             1 S1                 0.0000
      6 ****        -1.3507   1.2775  -0.1851 N.ar           1 S1                 0.0000
      7 ****        -1.5919  -0.0212   0.1563 C.ar           1 S1                 0.0000
      8 ****        -2.8627  -0.5764   0.4619 C.ar           1 S1                 0.0000
      9 ****        -2.7291  -1.9242   0.7682 N.2            1 S1                 0.0000
     10 ****        -1.4470  -2.1475   0.6500 C.2            1 S1                 0.0000
     11 ****        -0.6906  -1.0581   0.2771 N.pl3          1 S1                 0.0000
     12 ****         0.7855  -0.9907   0.0689 C.3            1 S1                 0.0000
     13 ****         1.2813   0.0525   0.8443 O.3            1 S1                 0.0000
     14 ****         2.4092   0.6377   0.2034 C.3            1 S1                 0.0000
     15 ****         3.6834  -0.1196   0.6284 C.3            1 S1                 0.0000
     16 ****         4.1113   0.3276   1.8970 O.3            1 S1                 0.0000
     17 ****         2.0994   0.4888  -1.2948 C.3            1 S1                 0.0000
     18 ****         1.5060   1.6691  -1.7991 O.3            1 S1                 0.0000
     19 ****         1.1312  -0.6853  -1.3934 C.3            1 S1                 0.0000
     20 ****         1.7401  -1.7452  -1.9266 F              1 S1                 0.0000
     21 ****         1.1725  -1.9492   0.4177 H              1 S1                 0.0000
     22 ****         2.5012   1.6895   0.4804 H              1 S1                 0.0000
     23 ****         3.0041   0.3138  -1.8786 H              1 S1                 0.0000
     24 ****         0.2443  -0.4679  -1.9913 H              1 S1                 0.0000
     25 ****        -5.4254  -0.9984   0.9081 H              1 S1                 0.0000
     26 ****        -5.9635   0.6369   0.5896 H              1 S1                 0.0000
     27 ****        -1.0156  -3.1214   0.8307 H              1 S1                 0.0000
     28 ****         3.5349  -1.1995   0.6391 H              1 S1                 0.0000
     29 ****         4.4941   0.0848  -0.0713 H              1 S1                 0.0000
     30 ****         4.9002  -0.1372   2.1306 H              1 S1                 0.0000
     31 ****         2.1054   2.3879  -1.6682 H              1 S1                 0.0000
     32 ****        -4.4710   2.2600   0.0003 LP             1 S1                 0.0000
     33 ****        -0.4413   1.6377  -0.3931 LP             1 S1                 0.0000
     34 ****        -3.4470  -2.5730   1.0205 LP             1 S1                 0.0000
     35 ****         1.5543  -0.3002   1.7394 LP             1 S1                 0.0000
     36 ****         0.5700   0.7454   0.9619 LP             1 S1                 0.0000
     37 ****         3.3998   0.1458   2.5758 LP             1 S1                 0.0000
     38 ****         4.2965   1.3097   1.8631 LP             1 S1                 0.0000
     39 ****         0.6512   1.8505  -1.3130 LP             1 S1                 0.0000
     40 ****         1.3178   1.5609  -2.7753 LP             1 S1                 0.0000
@<TRIPOS>BOND
    1    1    2 1     
    2    1   25 1     
    3    1   26 1     
    4    2    8 ar    
    5    2    3 ar    
    6    3    4 ar    
    7    4    5 1     
    8    4    6 ar    
    9    6    7 ar    
   10    7   11 1     
   11    7    8 ar    
   12    8    9 1     
   13    9   10 2     
   14   10   11 1     
   15   10   27 1     
   16   11   12 1     
   17   12   21 1     
   18   12   19 1     
   19   12   13 1     
   20   13   14 1     
   21   14   22 1     
   22   14   15 1     
   23   14   17 1     
   24   15   16 1     
   25   15   28 1     
   26   15   29 1     
   27   16   30 1     
   28   17   23 1     
   29   17   18 1     
   30   17   19 1     
   31   18   31 1     
   32   19   24 1     
   33   19   20 1     
   34    3   32 1     
   35    6   33 1     
   36    9   34 1     
   37   13   35 1     
   38   13   36 1     
   39   16   37 1     
   40   16   38 1     
   41   18   39 1     
   42   18   40 1     
@<TRIPOS>SUBSTRUCTURE
      1 S1             1
@<TRIPOS>SET
LONE_PAIRS      STATIC     ATOMS    <user>   **** ""
9 32 33 34 35 36 37 38 39 40
DONOR_HYDROGENS      STATIC     ATOMS    <user>   **** ""
4 25 26 30 31
ATOM$BLUE        STATIC     ATOMS    COLORGROUP SYSTEM
9 32 33 34 35 36 37 38 39 40
ATOM$RED        STATIC     ATOMS    COLORGROUP SYSTEM
4 25 26 30 31
