AV-unprocessed.smi:2923|AV-procd|sdf|11207|dock4
  -GOLD-   2272016103D 1   1.00000     0.00000
 Structure written by MMmdl.
 47 49  0  0  0  0  0  0  0  0  2 V2000
  143.4450  132.6425  149.0645 C   0  0  0  0  0  0  0  0  0  0  0  0
  144.2351  132.7344  150.2873 N   0  0  0  0  0  0  0  0  0  0  0  0
  144.5840  131.5298  151.0289 C   0  0  0  0  0  0  0  0  0  0  0  0
  144.5741  134.0018  150.8088 C   0  0  0  0  0  0  0  0  0  0  0  0
  145.7969  134.2658  151.4723 C   0  0  0  0  0  0  0  0  0  0  0  0
  146.0609  135.5591  151.9674 C   0  0  0  0  0  0  0  0  0  0  0  0
  145.1086  136.5863  151.8008 C   0  0  0  0  0  0  0  0  0  0  0  0
  145.4312  137.8678  152.3277 N   0  0  0  0  0  0  0  0  0  0  0  0
  146.5391  138.2702  152.9746 C   0  0  0  0  0  0  0  0  0  0  0  0
  147.5064  137.5617  153.2502 O   0  0  0  0  0  0  0  0  0  0  0  0
  146.4622  139.5675  153.2998 N   0  0  0  0  0  0  0  0  0  0  0  0
  147.5056  140.3025  154.0075 C   0  0  1  0  0  0  0  0  0  0  0  0
  148.7518  140.5354  153.1396 C   0  0  2  0  0  0  0  0  0  0  0  0
  150.0586  139.8920  153.5168 C   0  0  0  0  0  0  0  0  0  0  0  0
  150.7671  140.9955  154.3071 C   0  0  0  0  0  0  0  0  0  0  0  0
  149.7163  141.8490  154.7542 O   0  0  0  0  0  0  0  0  0  0  0  0
  148.7679  141.9516  153.6950 C   0  0  2  0  0  0  0  0  0  0  0  0
  147.2790  141.8341  154.0844 C   0  0  0  0  0  0  0  0  0  0  0  0
  146.3127  142.4611  153.0693 C   0  0  0  0  0  0  0  0  0  0  0  0
  146.8987  142.3912  155.4571 C   0  0  0  0  0  0  0  0  0  0  0  0
  143.9021  136.2728  151.1294 C   0  0  0  0  0  0  0  0  0  0  0  0
  143.6905  135.0202  150.6711 N   0  3  0  0  0  0  0  0  0  0  0  0
  143.9597  133.1312  148.2367 H   0  0  0  0  0  0  0  0  0  0  0  0
  142.4738  133.1196  149.1999 H   0  0  0  0  0  0  0  0  0  0  0  0
  143.2709  131.6044  148.7814 H   0  0  0  0  0  0  0  0  0  0  0  0
  144.1294  131.5445  152.0200 H   0  0  0  0  0  0  0  0  0  0  0  0
  145.6653  131.4487  151.1416 H   0  0  0  0  0  0  0  0  0  0  0  0
  144.2358  130.6332  150.5160 H   0  0  0  0  0  0  0  0  0  0  0  0
  146.5411  133.4960  151.6113 H   0  0  0  0  0  0  0  0  0  0  0  0
  146.9944  135.7567  152.4740 H   0  0  0  0  0  0  0  0  0  0  0  0
  144.7245  138.5758  152.1932 H   0  0  0  0  0  0  0  0  0  0  0  0
  145.6332  140.0824  153.0417 H   0  0  0  0  0  0  0  0  0  0  0  0
  147.7654  139.8736  154.9781 H   0  0  0  0  0  0  0  0  0  0  0  0
  148.5302  140.5273  152.0709 H   0  0  0  0  0  0  0  0  0  0  0  0
  149.8941  139.0128  154.1405 H   0  0  0  0  0  0  0  0  0  0  0  0
  150.6407  139.5829  152.6483 H   0  0  0  0  0  0  0  0  0  0  0  0
  151.3520  140.6074  155.1412 H   0  0  0  0  0  0  0  0  0  0  0  0
  151.4338  141.5646  153.6575 H   0  0  0  0  0  0  0  0  0  0  0  0
  149.0160  142.7169  152.9579 H   0  0  0  0  0  0  0  0  0  0  0  0
  146.3957  143.5483  153.0619 H   0  0  0  0  0  0  0  0  0  0  0  0
  145.2744  142.2154  153.2947 H   0  0  0  0  0  0  0  0  0  0  0  0
  146.5146  142.1196  152.0537 H   0  0  0  0  0  0  0  0  0  0  0  0
  147.0223  143.4737  155.4976 H   0  0  0  0  0  0  0  0  0  0  0  0
  147.5161  141.9662  156.2489 H   0  0  0  0  0  0  0  0  0  0  0  0
  145.8613  142.1665  155.7068 H   0  0  0  0  0  0  0  0  0  0  0  0
  143.0922  136.9587  150.9367 H   0  0  0  0  0  0  0  0  0  0  0  0
  142.8098  134.8302  150.1930 H   0  0  0  0  0  0  0  0  0  0  0  0
  1  2  1  0  0  0  0
  1 23  1  0  0  0  0
  1 24  1  0  0  0  0
  1 25  1  0  0  0  0
  2  3  1  0  0  0  0
  2  4  1  0  0  0  0
  3 26  1  0  0  0  0
  3 27  1  0  0  0  0
  3 28  1  0  0  0  0
  4 22  1  0  0  0  0
  4  5  2  0  0  0  0
  5  6  1  0  0  0  0
  5 29  1  0  0  0  0
  6  7  2  0  0  0  0
  6 30  1  0  0  0  0
  7  8  1  0  0  0  0
  7 21  1  0  0  0  0
  8  9  1  0  0  0  0
  8 31  1  0  0  0  0
  9 10  2  0  0  0  0
  9 11  1  0  0  0  0
 11 12  1  0  0  0  0
 11 32  1  0  0  0  0
 12 18  1  0  0  0  0
 12 13  1  0  0  0  0
 12 33  1  0  0  0  0
 13 17  1  0  0  0  0
 13 14  1  0  0  0  0
 13 34  1  0  0  0  0
 14 15  1  0  0  0  0
 14 35  1  0  0  0  0
 14 36  1  0  0  0  0
 15 16  1  0  0  0  0
 15 37  1  0  0  0  0
 15 38  1  0  0  0  0
 16 17  1  0  0  0  0
 17 18  1  0  0  0  0
 17 39  1  0  0  0  0
 18 19  1  0  0  0  0
 18 20  1  0  0  0  0
 19 40  1  0  0  0  0
 19 41  1  0  0  0  0
 19 42  1  0  0  0  0
 20 43  1  0  0  0  0
 20 44  1  0  0  0  0
 20 45  1  0  0  0  0
 21 22  2  0  0  0  0
 21 46  1  0  0  0  0
 22 47  1  0  0  0  0
M  CHG  1  22   1
M  END
> <s_m_source_file>
AV-unprocessed.smi

> <i_m_source_file_index>
2923

> <i_lp_mmshare_version>
43012

> <i_f3d_flags>
0

> <s_epik_input>
W0NIM11OKFtDSDNdKWMxW2NIXVtjSF1jKFtjSF1uMSlbTkhdQyg9TylbTkhdW0NASF0yQyhbQ0gzXSkoW0NIM10pW0NAQEhdKFtDQEhdMjMpT1tDSDJdW0NIMl0z

> <s_epik_cmdline>
J2VwaWtfcHl0aG9uJywgJy1waCcsICc3LjAnLCAnLXRuJywgJzgnLCAnLW1hJywgJzIwMCcsICctbWV0YWxfYmluZGluZycsICctaW1hZScsICc8aW5maWxlLm1hZT4nLCAnLW9tYWUnLCAnPG91dGZpbGUubWFlPic=

> <r_lp_tautomer_probability>
0.999994

> <r_epik_Ionization_Penalty>
0.252205

> <r_epik_Ionization_Penalty_Charging>
0.252185

> <r_epik_Ionization_Penalty_Neutral>
1.99479e-05

> <r_epik_State_Penalty>
0.243573

> <r_epik_Charging_Adjusted_Penalty>
0.495758

> <i_epik_Tot_Q>
1

> <i_epik_Tot_abs_Q>
1

> <r_epik_Metal_State_Penalty>
0.534372

> <b_epik_Metal_Only>
0

> <s_lp_Force_Field>
OPLS_2005

> <r_lp_Energy>
44.3361

> <b_lp_Chiralities_Consistent>
1

> <s_lp_Variant>
AV-unprocessed.smi:2923-6

> <Gold.Version>
5.8.1

> <Gold.Id.Protein>
6NUR|6NUR_protein|mol2

> <Gold.PLP.Fitness>
44.7408

> <Gold.PLP.PLP>
-34.7628

> <Gold.PLP.part.hbond>
-3.1480

> <Gold.PLP.part.metal>
0.0000

> <Gold.PLP.part.buried>
0.5158

> <Gold.PLP.part.nonpolar>
-33.9027

> <Gold.PLP.part.repulsive>
1.8143

> <Gold.PLP.ligand.clash>
0.0000

> <Gold.PLP.ligand.torsion>
0.6260

> <Gold.PLP.Chemscore.Hbond>
3.6825

> <Gold.PLP.Chemscore.CHOScore>
0.0000

> <Gold.PLP.Chemscore.Metal>
0.0000

> <Gold.Chemscore.Hbonds>
donor molecule, donor type, donor heavy atom, donor atom, acceptor molecule, acceptor atom, score
      L1  H     8    31       P1 10175  0.67
      L1  H    11    32       P1 10175  0.91
      L1  H    22    47       P1 10186  2.00

> <Gold.PLP.Chemscore.Internal.Correction>
0.1824

> <Gold.Rescore>
     Score         DG    S(hbond)    S(metal)    S(lipo)     H(rot)  DE(clash)    DE(int)     intcor
     16.98     -20.17       2.16        0.00      85.81       1.00       1.53       1.66       ----

> <Gold.Chemscore.Fitness>
16.9789

> <Gold.Chemscore.DG>
-20.1650

> <Gold.Chemscore.ZeroCoef>
-5.4800

> <Gold.Chemscore.Hbond>
2.1574

> <Gold.Chemscore.Metal>
0.0000

> <Gold.Chemscore.Lipo>
85.8074

> <Gold.Chemscore.Internal_Hbond>
0.0000

> <Gold.Chemscore.DEClash>
1.5254

> <Gold.Chemscore.DEInternal>
1.6607

> <Gold.Chemscore.Rot>
1.0000

> <Gold.Chemscore.Internal.Correction>
   9.000000E+99

> <Gold.Chemscore.Hbonds>
donor molecule, donor type, donor heavy atom, donor atom, acceptor molecule, acceptor atom, score
      L1  H     8    31       P1 10175  0.66
      L1  H    11    32       P1 10175  0.86
      L1  H    22    47       P1 10186  0.34

> <Gold.Chemscore.Hbond.Weighted>
-7.2056

> <Gold.Chemscore.Metal.Weighted>
-0.0000

> <Gold.Chemscore.Lipo.Weighted>
-10.0395

> <Gold.Chemscore.Internal_Hbond.Weighted>
0.0000

> <Gold.Chemscore.DEClash.Weighted>
1.5254

> <Gold.Chemscore.DEInternal.Weighted>
1.6607

> <Gold.Chemscore.Rot.Weighted>
2.5600

> <Gold.Chemscore.Internal.Correction.Weighted>
   9.000000E+99

> <Gold.Protein.RotatedTorsions>
[ 6907 6896 6895 6894 ] final  -59.83 input  -60.11 | X-H torsion
[ 7974 7965 7964 7962 ] final -121.40 input  175.53 | X-H torsion
[ 8008 7997 7996 7995 ] final -114.23 input   59.86 | X-H torsion
[ 10167 10162 10161 10158 ] final -141.57 input  -65.29 | X-H torsion
[ 10718 10713 10712 10709 ] final  -56.11 input   66.30 | X-H torsion
[ 10763 10752 10751 10750 ] final -114.64 input  -60.55 | X-H torsion
[ 11005 11000 10999 10996 ] final   37.43 input  -57.11 | X-H torsion

> <Gold.Protein.ActiveResidues>
 VAL166  LYS551  ARG553  GLY616  TRP617  ASP618  TYR619  PRO620  LYS621  CYS622 
 ASP623  PHE694  ASN695  SER759  ASP760  ASP761  ALA762  ILE779  LEU786  VAL792 
 PHE793  MET794  SER795  GLU796  ALA797  LYS798  CYS799  TRP800  GLU811  SER814 

> <Gold.Protein.RotatedAtoms>
  150.7901  134.6917  159.6499 H   0  0  0  0  0  0  0  0  0  0  0  0  # atno 6907 bound_to 6896
  152.4004  134.6292  160.0081 H   0  0  0  0  0  0  0  0  0  0  0  0  # atno 6908 bound_to 6896
  151.6565  133.3282  159.3200 H   0  0  0  0  0  0  0  0  0  0  0  0  # atno 6909 bound_to 6896
  145.0407  140.8142  143.4268 H   0  0  0  0  0  0  0  0  0  0  0  0  # atno 7974 bound_to 7965
  155.0330  140.0393  157.2481 H   0  0  0  0  0  0  0  0  0  0  0  0  # atno 8008 bound_to 7997
  154.7280  140.2725  155.6458 H   0  0  0  0  0  0  0  0  0  0  0  0  # atno 8009 bound_to 7997
  156.2834  140.2689  156.1972 H   0  0  0  0  0  0  0  0  0  0  0  0  # atno 8010 bound_to 7997
  139.8172  143.7623  152.2665 H   0  0  0  0  0  0  0  0  0  0  0  0  # atno 10167 bound_to 10162
  156.1315  130.4159  150.0261 H   0  0  0  0  0  0  0  0  0  0  0  0  # atno 10718 bound_to 10713
  154.8448  135.4410  154.1537 H   0  0  0  0  0  0  0  0  0  0  0  0  # atno 10763 bound_to 10752
  153.2692  135.6943  153.7505 H   0  0  0  0  0  0  0  0  0  0  0  0  # atno 10764 bound_to 10752
  153.6752  135.3412  155.3139 H   0  0  0  0  0  0  0  0  0  0  0  0  # atno 10765 bound_to 10752
  140.2227  134.3622  155.7998 H   0  0  0  0  0  0  0  0  0  0  0  0  # atno 11005 bound_to 11000
  145.1651  139.2436  143.5371 LP  0  0  0  0  0  0  0  0  0  0  0  0  # atno 17320 bound_to 7965
  146.3509  140.1388  142.8595 LP  0  0  0  0  0  0  0  0  0  0  0  0  # atno 17321 bound_to 7965
  139.7790  144.7451  151.0116 LP  0  0  0  0  0  0  0  0  0  0  0  0  # atno 17342 bound_to 10162
  140.7815  143.4563  151.0341 LP  0  0  0  0  0  0  0  0  0  0  0  0  # atno 17343 bound_to 10162
  156.8172  130.9346  151.3642 LP  0  0  0  0  0  0  0  0  0  0  0  0  # atno 17370 bound_to 10713
  157.6492  130.8870  149.9599 LP  0  0  0  0  0  0  0  0  0  0  0  0  # atno 17371 bound_to 10713
  141.2222  133.7202  156.8602 LP  0  0  0  0  0  0  0  0  0  0  0  0  # atno 17394 bound_to 11000
  140.1833  134.9018  157.2974 LP  0  0  0  0  0  0  0  0  0  0  0  0  # atno 17395 bound_to 11000

$$$$
