AV-unprocessed.smi:2697|AV-procd|sdf|10416|dock2
  -GOLD-   2272014453D 1   1.00000     0.00000
 Structure written by MMmdl.
 32 33  0  0  0  0  0  0  0  0  2 V2000
  154.0920  141.2110  160.5770 C   0  0  0  0  0  0  0  0  0  0  0  0
  153.1434  142.0721  159.9041 N   0  0  0  0  0  0  0  0  0  0  0  0
  152.8256  143.3834  160.1875 C   0  0  0  0  0  0  0  0  0  0  0  0
  151.8770  143.7385  159.2734 C   0  0  0  0  0  0  0  0  0  0  0  0
  151.1668  145.0577  159.2063 C   0  0  0  0  0  0  0  0  0  0  0  0
  150.3445  145.2177  158.1661 N   0  0  0  0  0  0  0  0  0  0  0  0
  151.3112  145.9134  160.0765 O   0  0  0  0  0  0  0  0  0  0  0  0
  151.6548  142.5890  158.4584 C   0  0  0  0  0  0  0  0  0  0  0  0
  150.7103  142.3795  157.2962 C   0  0  1  0  0  0  0  0  0  0  0  0
  151.0812  141.1386  156.4604 C   0  0  0  0  0  0  0  0  0  0  0  0
  150.0922  140.9621  155.2975 C   0  0  0  0  0  0  0  0  0  0  0  0
  148.6420  140.9231  155.8090 C   0  0  0  0  0  0  0  0  0  0  0  0
  148.3333  142.1314  156.6047 N   0  3  0  0  0  0  0  0  0  0  0  0
  149.2411  142.3126  157.7588 C   0  0  0  0  0  0  0  0  0  0  0  0
  152.4304  141.5871  158.8600 N   0  0  0  0  0  0  0  0  0  0  0  0
  154.6961  141.7923  161.2743 H   0  0  0  0  0  0  0  0  0  0  0  0
  154.7506  140.7398  159.8465 H   0  0  0  0  0  0  0  0  0  0  0  0
  153.5579  140.4379  161.1299 H   0  0  0  0  0  0  0  0  0  0  0  0
  153.2830  143.9302  160.9992 H   0  0  0  0  0  0  0  0  0  0  0  0
  149.8334  146.0811  158.0540 H   0  0  0  0  0  0  0  0  0  0  0  0
  150.2380  144.4730  157.4924 H   0  0  0  0  0  0  0  0  0  0  0  0
  150.7917  143.2309  156.6221 H   0  0  0  0  0  0  0  0  0  0  0  0
  152.0970  141.2326  156.0746 H   0  0  0  0  0  0  0  0  0  0  0  0
  151.0657  140.2444  157.0851 H   0  0  0  0  0  0  0  0  0  0  0  0
  150.2093  141.7833  154.5891 H   0  0  0  0  0  0  0  0  0  0  0  0
  150.3199  140.0468  154.7502 H   0  0  0  0  0  0  0  0  0  0  0  0
  147.9473  140.8627  154.9712 H   0  0  0  0  0  0  0  0  0  0  0  0
  148.4791  140.0371  156.4239 H   0  0  0  0  0  0  0  0  0  0  0  0
  148.4141  142.9401  156.0047 H   0  0  0  0  0  0  0  0  0  0  0  0
  149.0931  141.4890  158.4588 H   0  0  0  0  0  0  0  0  0  0  0  0
  148.9661  143.2292  158.2814 H   0  0  0  0  0  0  0  0  0  0  0  0
  147.3832  142.0698  156.9420 H   0  0  0  0  0  0  0  0  0  0  0  0
  1  2  1  0  0  0  0
  1 16  1  0  0  0  0
  1 17  1  0  0  0  0
  1 18  1  0  0  0  0
  2 15  1  0  0  0  0
  2  3  1  0  0  0  0
  3  4  2  0  0  0  0
  3 19  1  0  0  0  0
  4  5  1  0  0  0  0
  4  8  1  0  0  0  0
  5  6  1  0  0  0  0
  5  7  2  0  0  0  0
  6 20  1  0  0  0  0
  6 21  1  0  0  0  0
  8  9  1  0  0  0  0
  8 15  2  0  0  0  0
  9 14  1  0  0  0  0
  9 10  1  0  0  0  0
  9 22  1  0  0  0  0
 10 11  1  0  0  0  0
 10 23  1  0  0  0  0
 10 24  1  0  0  0  0
 11 12  1  0  0  0  0
 11 25  1  0  0  0  0
 11 26  1  0  0  0  0
 12 13  1  0  0  0  0
 12 27  1  0  0  0  0
 12 28  1  0  0  0  0
 13 14  1  0  0  0  0
 13 29  1  0  0  0  0
 13 32  1  0  0  0  0
 14 30  1  0  0  0  0
 14 31  1  0  0  0  0
M  CHG  1  13   1
M  END
> <s_m_source_file>
AV-unprocessed.smi

> <i_m_source_file_index>
2697

> <i_lp_mmshare_version>
43012

> <i_f3d_flags>
0

> <s_epik_input>
W0NIM11uMVtjSF1jKEMoPU8pW05IMl0pYyhuMSlbQ0BASF0yW0NIMl1bQ0gyXVtDSDJdW05IXVtDSDJdMg==

> <s_epik_cmdline>
J2VwaWtfcHl0aG9uJywgJy1waCcsICc3LjAnLCAnLXRuJywgJzgnLCAnLW1hJywgJzIwMCcsICctbWV0YWxfYmluZGluZycsICctaW1hZScsICc8aW5maWxlLm1hZT4nLCAnLW9tYWUnLCAnPG91dGZpbGUubWFlPic=

> <r_lp_tautomer_probability>
1

> <r_epik_Ionization_Penalty>
0.000158942

> <r_epik_Ionization_Penalty_Charging>
0.000157527

> <r_epik_Ionization_Penalty_Neutral>
1.41498e-06

> <r_epik_State_Penalty>
-0

> <r_epik_Charging_Adjusted_Penalty>
0.000157527

> <i_epik_Tot_Q>
1

> <i_epik_Tot_abs_Q>
1

> <r_epik_Metal_State_Penalty>
-0

> <b_epik_Metal_Only>
0

> <s_lp_Force_Field>
OPLS_2005

> <r_lp_Energy>
9.94433

> <b_lp_Chiralities_Consistent>
1

> <s_lp_Variant>
AV-unprocessed.smi:2697-2

> <Gold.Version>
5.8.1

> <Gold.Id.Protein>
6NUR|6NUR_protein|mol2

> <Gold.PLP.Fitness>
40.7344

> <Gold.PLP.PLP>
-34.1674

> <Gold.PLP.part.hbond>
-4.7473

> <Gold.PLP.part.metal>
0.0000

> <Gold.PLP.part.buried>
-2.1052

> <Gold.PLP.part.nonpolar>
-28.0199

> <Gold.PLP.part.repulsive>
0.4463

> <Gold.PLP.ligand.clash>
0.3006

> <Gold.PLP.ligand.torsion>
0.3755

> <Gold.PLP.Chemscore.Hbond>
2.5283

> <Gold.PLP.Chemscore.CHOScore>
0.0000

> <Gold.PLP.Chemscore.Metal>
0.0000

> <Gold.Chemscore.Hbonds>
donor molecule, donor type, donor heavy atom, donor atom, acceptor molecule, acceptor atom, score
      L1  H     6    20       P1  8029  0.34
      L1  H     6    21       P1  8028  0.18
      L1  H    13    29       P1  8028  2.00

> <Gold.PLP.Chemscore.Internal.Correction>
0.0337

> <Gold.Rescore>
     Score         DG    S(hbond)    S(metal)    S(lipo)     H(rot)  DE(clash)    DE(int)     intcor
     13.59     -15.45       1.18        0.00      73.41       1.00       0.40       1.46       ----

> <Gold.Chemscore.Fitness>
13.5919

> <Gold.Chemscore.DG>
-15.4463

> <Gold.Chemscore.ZeroCoef>
-5.4800

> <Gold.Chemscore.Hbond>
1.1787

> <Gold.Chemscore.Metal>
0.0000

> <Gold.Chemscore.Lipo>
73.4145

> <Gold.Chemscore.Internal_Hbond>
0.0000

> <Gold.Chemscore.DEClash>
0.3964

> <Gold.Chemscore.DEInternal>
1.4581

> <Gold.Chemscore.Rot>
1.0000

> <Gold.Chemscore.Internal.Correction>
   9.000000E+99

> <Gold.Chemscore.Hbonds>
donor molecule, donor type, donor heavy atom, donor atom, acceptor molecule, acceptor atom, score
      L1  H     6    20       P1  8029  0.14
      L1  H     6    21       P1  8028  0.07
      L1  H    13    29       P1  8028  0.91

> <Gold.Chemscore.Hbond.Weighted>
-3.9368

> <Gold.Chemscore.Metal.Weighted>
-0.0000

> <Gold.Chemscore.Lipo.Weighted>
-8.5895

> <Gold.Chemscore.Internal_Hbond.Weighted>
0.0000

> <Gold.Chemscore.DEClash.Weighted>
0.3964

> <Gold.Chemscore.DEInternal.Weighted>
1.4581

> <Gold.Chemscore.Rot.Weighted>
2.5600

> <Gold.Chemscore.Internal.Correction.Weighted>
   9.000000E+99

> <Gold.Protein.RotatedTorsions>
[ 6907 6896 6895 6894 ] final  137.54 input  -60.11 | X-H torsion
[ 7974 7965 7964 7962 ] final  146.55 input  175.53 | X-H torsion
[ 8008 7997 7996 7995 ] final    9.50 input   59.86 | X-H torsion
[ 10167 10162 10161 10158 ] final -157.02 input  -65.29 | X-H torsion
[ 10718 10713 10712 10709 ] final -168.54 input   66.30 | X-H torsion
[ 10763 10752 10751 10750 ] final  -21.97 input  -60.55 | X-H torsion
[ 11005 11000 10999 10996 ] final -126.42 input  -57.11 | X-H torsion

> <Gold.Protein.ActiveResidues>
 VAL166  LYS551  ARG553  GLY616  TRP617  ASP618  TYR619  PRO620  LYS621  CYS622 
 ASP623  PHE694  ASN695  SER759  ASP760  ASP761  ALA762  ILE779  LEU786  VAL792 
 PHE793  MET794  SER795  GLU796  ALA797  LYS798  CYS799  TRP800  GLU811  SER814 

> <Gold.Protein.RotatedAtoms>
  152.2769  133.5434  159.5473 H   0  0  0  0  0  0  0  0  0  0  0  0  # atno 6907 bound_to 6896
  150.7180  134.0619  159.3843 H   0  0  0  0  0  0  0  0  0  0  0  0  # atno 6908 bound_to 6896
  151.8531  135.0551  160.0512 H   0  0  0  0  0  0  0  0  0  0  0  0  # atno 6909 bound_to 6896
  144.8662  139.5919  143.5908 H   0  0  0  0  0  0  0  0  0  0  0  0  # atno 7974 bound_to 7965
  154.7809  140.2818  155.6065 H   0  0  0  0  0  0  0  0  0  0  0  0  # atno 8008 bound_to 7997
  156.2949  140.2623  156.2562 H   0  0  0  0  0  0  0  0  0  0  0  0  # atno 8009 bound_to 7997
  154.9786  140.0375  157.2257 H   0  0  0  0  0  0  0  0  0  0  0  0  # atno 8010 bound_to 7997
  139.6804  143.9592  152.2333 H   0  0  0  0  0  0  0  0  0  0  0  0  # atno 10167 bound_to 10162
  156.6985  130.9187  151.3077 H   0  0  0  0  0  0  0  0  0  0  0  0  # atno 10718 bound_to 10713
  153.6446  135.6983  153.5230 H   0  0  0  0  0  0  0  0  0  0  0  0  # atno 10763 bound_to 10752
  153.2755  135.4201  155.1028 H   0  0  0  0  0  0  0  0  0  0  0  0  # atno 10764 bound_to 10752
  154.8491  135.3589  154.5990 H   0  0  0  0  0  0  0  0  0  0  0  0  # atno 10765 bound_to 10752
  140.9683  134.0841  157.3897 H   0  0  0  0  0  0  0  0  0  0  0  0  # atno 11005 bound_to 11000
  146.2897  139.7105  142.9170 LP  0  0  0  0  0  0  0  0  0  0  0  0  # atno 17320 bound_to 7965
  145.4217  141.0407  143.2960 LP  0  0  0  0  0  0  0  0  0  0  0  0  # atno 17321 bound_to 7965
  139.9380  144.6699  150.8295 LP  0  0  0  0  0  0  0  0  0  0  0  0  # atno 17342 bound_to 10162
  140.7650  143.3263  151.2508 LP  0  0  0  0  0  0  0  0  0  0  0  0  # atno 17343 bound_to 10162
  157.6982  130.9304  150.0707 LP  0  0  0  0  0  0  0  0  0  0  0  0  # atno 17370 bound_to 10713
  156.1746  130.3647  149.9118 LP  0  0  0  0  0  0  0  0  0  0  0  0  # atno 17371 bound_to 10713
  139.8903  135.0111  156.6726 LP  0  0  0  0  0  0  0  0  0  0  0  0  # atno 17394 bound_to 11000
  140.7367  133.9013  155.8249 LP  0  0  0  0  0  0  0  0  0  0  0  0  # atno 17395 bound_to 11000

$$$$
