AV-unprocessed.smi:683|AV-procd|sdf|3331|dock3
  -GOLD-   22720 0303D 1   1.00000     0.00000
 Structure written by MMmdl.
 29 30  0  0  0  0  0  0  0  0  2 V2000
  154.0804  140.7620  161.2862 N   0  0  0  0  0  0  0  0  0  0  0  0
  153.4809  141.4756  160.6005 C   0  0  0  0  0  0  0  0  0  0  0  0
  152.7279  142.3721  159.7394 C   0  0  0  0  0  0  0  0  0  0  0  0
  152.9109  143.7654  159.8404 C   0  0  0  0  0  0  0  0  0  0  0  0
  152.1804  144.6305  159.0050 C   0  0  0  0  0  0  0  0  0  0  0  0
  151.2696  144.1041  158.0696 C   0  0  0  0  0  0  0  0  0  0  0  0
  151.0757  142.7122  157.9549 C   0  0  0  0  0  0  0  0  0  0  0  0
  150.1662  142.2836  157.0117 O   0  0  0  0  0  0  0  0  0  0  0  0
  150.0606  140.8880  156.7672 C   0  0  0  0  0  0  0  0  0  0  0  0
  151.1651  140.4739  155.7846 C   0  0  0  0  0  0  0  0  0  0  0  0
  151.0729  139.0471  155.4490 N   0  0  0  0  0  0  0  0  0  0  0  0
  149.7895  138.4898  155.3218 C   0  0  0  0  0  0  0  0  0  0  0  0
  149.6011  137.1893  155.0253 C   0  0  0  0  0  0  0  0  0  0  0  0
  148.0105  136.5313  154.8760 Cl  0  0  0  0  0  0  0  0  0  0  0  0
  150.7831  136.3504  154.8371 C   0  0  0  0  0  0  0  0  0  0  0  0
  150.6472  135.1591  154.5616 O   0  0  0  0  0  0  0  0  0  0  0  0
  152.0071  136.9385  154.9799 N   0  5  0  0  0  0  0  0  0  0  0  0
  152.1784  138.2617  155.2848 C   0  0  0  0  0  0  0  0  0  0  0  0
  153.2929  138.7675  155.4188 O   0  0  0  0  0  0  0  0  0  0  0  0
  151.8146  141.8468  158.8017 C   0  0  0  0  0  0  0  0  0  0  0  0
  153.6093  144.1768  160.5553 H   0  0  0  0  0  0  0  0  0  0  0  0
  152.3191  145.6988  159.0812 H   0  0  0  0  0  0  0  0  0  0  0  0
  150.7142  144.7759  157.4315 H   0  0  0  0  0  0  0  0  0  0  0  0
  150.1680  140.3344  157.7013 H   0  0  0  0  0  0  0  0  0  0  0  0
  149.0831  140.6546  156.3420 H   0  0  0  0  0  0  0  0  0  0  0  0
  151.0924  141.0783  154.8792 H   0  0  0  0  0  0  0  0  0  0  0  0
  152.1455  140.7058  156.2043 H   0  0  0  0  0  0  0  0  0  0  0  0
  148.9733  139.1788  155.4830 H   0  0  0  0  0  0  0  0  0  0  0  0
  151.6942  140.7748  158.7456 H   0  0  0  0  0  0  0  0  0  0  0  0
  1  2  3  0  0  0  0
  2  3  1  0  0  0  0
  3 20  1  0  0  0  0
  3  4  2  0  0  0  0
  4  5  1  0  0  0  0
  4 21  1  0  0  0  0
  5  6  2  0  0  0  0
  5 22  1  0  0  0  0
  6  7  1  0  0  0  0
  6 23  1  0  0  0  0
  7  8  1  0  0  0  0
  7 20  2  0  0  0  0
  8  9  1  0  0  0  0
  9 10  1  0  0  0  0
  9 24  1  0  0  0  0
  9 25  1  0  0  0  0
 10 11  1  0  0  0  0
 10 26  1  0  0  0  0
 10 27  1  0  0  0  0
 11 18  1  0  0  0  0
 11 12  1  0  0  0  0
 12 13  2  0  0  0  0
 12 28  1  0  0  0  0
 13 14  1  0  0  0  0
 13 15  1  0  0  0  0
 15 16  2  0  0  0  0
 15 17  1  0  0  0  0
 17 18  1  0  0  0  0
 18 19  2  0  0  0  0
 20 29  1  0  0  0  0
M  CHG  1  17  -1
M  END
> <s_m_source_file>
AV-unprocessed.smi

> <i_m_source_file_index>
683

> <i_lp_mmshare_version>
43012

> <i_f3d_flags>
0

> <s_epik_input>
TiNDYzFbY0hdW2NIXVtjSF1jKFtjSF0xKU9bQ0gyXVtDSDJdbjJbY0hdYyhDbCljKD1PKVtuSF1jMj1P

> <s_epik_cmdline>
J2VwaWtfcHl0aG9uJywgJy1waCcsICc3LjAnLCAnLXRuJywgJzgnLCAnLW1hJywgJzIwMCcsICctbWV0YWxfYmluZGluZycsICctaW1hZScsICc8aW5maWxlLm1hZT4nLCAnLW9tYWUnLCAnPG91dGZpbGUubWFlPic=

> <r_epik_Ionization_Penalty>
1.49102

> <r_epik_Ionization_Penalty_Charging>
6.47896e-09

> <r_epik_Ionization_Penalty_Neutral>
1.49102

> <r_epik_State_Penalty>
1.58045

> <r_epik_Charging_Adjusted_Penalty>
1.58045

> <i_epik_Tot_Q>
-1

> <i_epik_Tot_abs_Q>
1

> <r_epik_Metal_State_Penalty>
0.00788874

> <b_epik_Metal_Only>
0

> <s_lp_Force_Field>
OPLS_2005

> <r_lp_Energy>
20.1006

> <b_lp_Chiralities_Consistent>
1

> <s_lp_Variant>
AV-unprocessed.smi:683-2

> <Gold.Version>
5.8.1

> <Gold.Id.Protein>
6NUR|6NUR_protein|mol2

> <Gold.PLP.Fitness>
47.2987

> <Gold.PLP.PLP>
-39.2492

> <Gold.PLP.part.hbond>
-2.2338

> <Gold.PLP.part.metal>
0.0000

> <Gold.PLP.part.buried>
-4.6666

> <Gold.PLP.part.nonpolar>
-33.4821

> <Gold.PLP.part.repulsive>
1.0515

> <Gold.PLP.ligand.clash>
0.0000

> <Gold.PLP.ligand.torsion>
0.4891

> <Gold.PLP.Chemscore.Hbond>
3.0000

> <Gold.PLP.Chemscore.CHOScore>
0.0000

> <Gold.PLP.Chemscore.Metal>
0.0000

> <Gold.Chemscore.Hbonds>
donor molecule, donor type, donor heavy atom, donor atom, acceptor molecule, acceptor atom, score
      P1  H  7997  8009       L1    19  1.00
      P1  H 10752 10763       L1    17  1.79

> <Gold.PLP.Chemscore.Internal.Correction>
0.0276

> <Gold.Rescore>
     Score         DG    S(hbond)    S(metal)    S(lipo)     H(rot)  DE(clash)    DE(int)     intcor
     15.76     -16.20       1.64        0.00      87.93       1.97       0.11       0.33       ----

> <Gold.Chemscore.Fitness>
15.7583

> <Gold.Chemscore.DG>
-16.1970

> <Gold.Chemscore.ZeroCoef>
-5.4800

> <Gold.Chemscore.Hbond>
1.6397

> <Gold.Chemscore.Metal>
0.0000

> <Gold.Chemscore.Lipo>
87.9308

> <Gold.Chemscore.Internal_Hbond>
0.0000

> <Gold.Chemscore.DEClash>
0.1132

> <Gold.Chemscore.DEInternal>
0.3255

> <Gold.Chemscore.Rot>
1.9717

> <Gold.Chemscore.Internal.Correction>
   9.000000E+99

> <Gold.Chemscore.Hbonds>
donor molecule, donor type, donor heavy atom, donor atom, acceptor molecule, acceptor atom, score
      P1  H  7997  8009       L1    19  0.95
      P1  H 10752 10763       L1    17  0.17

> <Gold.Chemscore.Hbond.Weighted>
-5.4766

> <Gold.Chemscore.Metal.Weighted>
-0.0000

> <Gold.Chemscore.Lipo.Weighted>
-10.2879

> <Gold.Chemscore.Internal_Hbond.Weighted>
0.0000

> <Gold.Chemscore.DEClash.Weighted>
0.1132

> <Gold.Chemscore.DEInternal.Weighted>
0.3255

> <Gold.Chemscore.Rot.Weighted>
5.0475

> <Gold.Chemscore.Internal.Correction.Weighted>
   9.000000E+99

> <Gold.Protein.RotatedTorsions>
[ 6907 6896 6895 6894 ] final  169.01 input  -60.11 | X-H torsion
[ 7974 7965 7964 7962 ] final -163.90 input  175.53 | X-H torsion
[ 8008 7997 7996 7995 ] final -143.89 input   59.86 | X-H torsion
[ 10167 10162 10161 10158 ] final  -70.26 input  -65.29 | X-H torsion
[ 10718 10713 10712 10709 ] final    8.43 input   66.30 | X-H torsion
[ 10763 10752 10751 10750 ] final   58.79 input  -60.55 | X-H torsion
[ 11005 11000 10999 10996 ] final   76.06 input  -57.11 | X-H torsion

> <Gold.Protein.ActiveResidues>
 VAL166  LYS551  ARG553  GLY616  TRP617  ASP618  TYR619  PRO620  LYS621  CYS622 
 ASP623  PHE694  ASN695  SER759  ASP760  ASP761  ALA762  ILE779  LEU786  VAL792 
 PHE793  MET794  SER795  GLU796  ALA797  LYS798  CYS799  TRP800  GLU811  SER814 

> <Gold.Protein.RotatedAtoms>
  151.8386  133.3420  159.3635 H   0  0  0  0  0  0  0  0  0  0  0  0  # atno 6907 bound_to 6896
  150.7242  134.5413  159.5758 H   0  0  0  0  0  0  0  0  0  0  0  0  # atno 6908 bound_to 6896
  152.2882  134.7752  160.0434 H   0  0  0  0  0  0  0  0  0  0  0  0  # atno 6909 bound_to 6896
  144.7312  140.3040  143.6199 H   0  0  0  0  0  0  0  0  0  0  0  0  # atno 7974 bound_to 7965
  155.5180  140.0589  157.2912 H   0  0  0  0  0  0  0  0  0  0  0  0  # atno 8008 bound_to 7997
  154.4528  140.1957  156.0415 H   0  0  0  0  0  0  0  0  0  0  0  0  # atno 8009 bound_to 7997
  156.0739  140.3256  155.7613 H   0  0  0  0  0  0  0  0  0  0  0  0  # atno 8010 bound_to 7997
  140.5366  143.2317  151.7166 H   0  0  0  0  0  0  0  0  0  0  0  0  # atno 10167 bound_to 10162
  156.9515  130.5898  149.5657 H   0  0  0  0  0  0  0  0  0  0  0  0  # atno 10718 bound_to 10713
  152.9879  135.5594  154.5609 H   0  0  0  0  0  0  0  0  0  0  0  0  # atno 10763 bound_to 10752
  154.5028  135.2798  155.1409 H   0  0  0  0  0  0  0  0  0  0  0  0  # atno 10764 bound_to 10752
  154.2832  135.6340  153.5408 H   0  0  0  0  0  0  0  0  0  0  0  0  # atno 10765 bound_to 10752
  139.9315  134.7570  156.1349 H   0  0  0  0  0  0  0  0  0  0  0  0  # atno 11005 bound_to 11000
  145.7732  139.1864  143.2200 LP  0  0  0  0  0  0  0  0  0  0  0  0  # atno 17320 bound_to 7965
  146.0894  140.7673  142.9602 LP  0  0  0  0  0  0  0  0  0  0  0  0  # atno 17321 bound_to 7965
  139.4973  144.4033  152.0158 LP  0  0  0  0  0  0  0  0  0  0  0  0  # atno 17342 bound_to 10162
  140.3139  144.3506  150.6026 LP  0  0  0  0  0  0  0  0  0  0  0  0  # atno 17343 bound_to 10162
  156.0361  130.5448  150.8656 LP  0  0  0  0  0  0  0  0  0  0  0  0  # atno 17370 bound_to 10713
  157.5719  131.0946  150.9405 LP  0  0  0  0  0  0  0  0  0  0  0  0  # atno 17371 bound_to 10713
  141.0906  133.6716  156.2532 LP  0  0  0  0  0  0  0  0  0  0  0  0  # atno 17394 bound_to 11000
  140.6189  134.5382  157.5545 LP  0  0  0  0  0  0  0  0  0  0  0  0  # atno 17395 bound_to 11000

$$$$
