AV-unprocessed.smi:218|AV-procd|sdf|1668|dock10
  -GOLD-   2262020 83D 1   1.00000     0.00000
 Structure written by MMmdl.
 54 57  0  0  0  0  0  0  0  0  1 V2000
  154.3425  141.5741  160.2685 C   0  0  0  0  0  0  0  0  0  0  0  0
  153.1541  142.3540  160.8437 C   0  0  0  0  0  0  0  0  0  0  0  0
  153.2784  142.5138  162.3686 C   0  0  0  0  0  0  0  0  0  0  0  0
  151.9748  141.6145  160.5207 O   0  0  0  0  0  0  0  0  0  0  0  0
  151.3994  141.7368  159.2705 C   0  0  0  0  0  0  0  0  0  0  0  0
  151.6031  140.6996  158.3378 C   0  0  0  0  0  0  0  0  0  0  0  0
  151.0301  140.8143  157.0551 C   0  0  0  0  0  0  0  0  0  0  0  0
  151.2177  139.7168  156.0298 C   0  0  0  0  0  0  0  0  0  0  0  0
  150.1850  138.6930  156.1077 N   0  0  0  0  0  0  0  0  0  0  0  0
  149.1562  138.7033  155.2336 C   0  0  0  0  0  0  0  0  0  0  0  0
  149.0640  139.6607  154.2748 N   0  0  0  0  0  0  0  0  0  0  0  0
  148.0457  139.6418  153.4107 C   0  0  0  0  0  0  0  0  0  0  0  0
  147.0321  138.7772  153.3365 N   0  0  0  0  0  0  0  0  0  0  0  0
  147.1089  137.8174  154.3053 C   0  0  0  0  0  0  0  0  0  0  0  0
  148.1416  137.7121  155.2796 C   0  0  0  0  0  0  0  0  0  0  0  0
  147.9180  136.6057  156.0854 N   0  0  0  0  0  0  0  0  0  0  0  0
  146.8212  136.0850  155.6067 C   0  0  0  0  0  0  0  0  0  0  0  0
  146.2408  136.7678  154.5566 N   0  0  0  0  0  0  0  0  0  0  0  0
  145.0043  136.3843  153.7820 C   0  0  2  0  0  0  0  0  0  0  0  0
  145.1115  135.0644  153.3535 O   0  0  0  0  0  0  0  0  0  0  0  0
  145.8181  135.0327  152.1230 C   0  0  1  0  0  0  0  0  0  0  0  0
  145.5650  133.6872  151.4268 C   0  0  0  0  0  0  0  0  0  0  0  0
  146.3260  133.5919  150.2418 O   0  0  0  0  0  0  0  0  0  0  0  0
  145.2740  136.2613  151.3813 C   0  0  2  0  0  0  0  0  0  0  0  0
  146.2907  136.8340  150.5826 O   0  0  0  0  0  0  0  0  0  0  0  0
  144.8672  137.2279  152.4981 C   0  0  1  0  0  0  0  0  0  0  0  0
  143.5380  137.6716  152.3191 O   0  0  0  0  0  0  0  0  0  0  0  0
  150.2711  141.9622  156.7535 C   0  0  0  0  0  0  0  0  0  0  0  0
  150.1233  142.9462  157.7502 C   0  0  0  0  0  0  0  0  0  0  0  0
  150.6713  142.8439  158.9798 N   0  0  0  0  0  0  0  0  0  0  0  0
  144.1949  136.5151  154.5014 H   0  0  0  0  0  0  0  0  0  0  0  0
  146.8815  135.1506  152.3418 H   0  0  0  0  0  0  0  0  0  0  0  0
  144.4175  135.9920  150.7610 H   0  0  0  0  0  0  0  0  0  0  0  0
  145.5140  138.1040  152.5322 H   0  0  0  0  0  0  0  0  0  0  0  0
  155.2838  142.0851  160.4725 H   0  0  0  0  0  0  0  0  0  0  0  0
  154.2516  141.4679  159.1871 H   0  0  0  0  0  0  0  0  0  0  0  0
  154.4047  140.5736  160.6973 H   0  0  0  0  0  0  0  0  0  0  0  0
  153.1507  143.3340  160.3642 H   0  0  0  0  0  0  0  0  0  0  0  0
  154.1934  143.0448  162.6321 H   0  0  0  0  0  0  0  0  0  0  0  0
  153.3024  141.5430  162.8641 H   0  0  0  0  0  0  0  0  0  0  0  0
  152.4434  143.0761  162.7856 H   0  0  0  0  0  0  0  0  0  0  0  0
  152.1890  139.8319  158.6042 H   0  0  0  0  0  0  0  0  0  0  0  0
  151.2210  140.1527  155.0299 H   0  0  0  0  0  0  0  0  0  0  0  0
  152.1972  139.2623  156.1852 H   0  0  0  0  0  0  0  0  0  0  0  0
  150.2831  138.0134  156.8482 H   0  0  0  0  0  0  0  0  0  0  0  0
  148.0417  140.4313  152.6738 H   0  0  0  0  0  0  0  0  0  0  0  0
  146.4065  135.1742  156.0136 H   0  0  0  0  0  0  0  0  0  0  0  0
  145.8555  132.8679  152.0847 H   0  0  0  0  0  0  0  0  0  0  0  0
  144.5075  133.5563  151.1966 H   0  0  0  0  0  0  0  0  0  0  0  0
  145.9350  134.1508  149.5877 H   0  0  0  0  0  0  0  0  0  0  0  0
  147.1205  136.7086  151.0168 H   0  0  0  0  0  0  0  0  0  0  0  0
  143.5257  138.6138  152.3938 H   0  0  0  0  0  0  0  0  0  0  0  0
  149.8114  142.0883  155.7842 H   0  0  0  0  0  0  0  0  0  0  0  0
  149.5491  143.8397  157.5549 H   0  0  0  0  0  0  0  0  0  0  0  0
  1  2  1  0  0  0  0
  1 35  1  0  0  0  0
  1 36  1  0  0  0  0
  1 37  1  0  0  0  0
  2  3  1  0  0  0  0
  2  4  1  0  0  0  0
  2 38  1  0  0  0  0
  3 39  1  0  0  0  0
  3 40  1  0  0  0  0
  3 41  1  0  0  0  0
  4  5  1  0  0  0  0
  5 30  1  0  0  0  0
  5  6  2  0  0  0  0
  6  7  1  0  0  0  0
  6 42  1  0  0  0  0
  7  8  1  0  0  0  0
  7 28  2  0  0  0  0
  8  9  1  0  0  0  0
  8 43  1  0  0  0  0
  8 44  1  0  0  0  0
  9 10  1  0  0  0  0
  9 45  1  0  0  0  0
 10 15  1  0  0  0  0
 10 11  2  0  0  0  0
 11 12  1  0  0  0  0
 12 13  2  0  0  0  0
 12 46  1  0  0  0  0
 13 14  1  0  0  0  0
 14 18  1  0  0  0  0
 14 15  2  0  0  0  0
 15 16  1  0  0  0  0
 16 17  2  0  0  0  0
 17 18  1  0  0  0  0
 17 47  1  0  0  0  0
 18 19  1  0  0  0  0
 19 31  1  0  0  0  0
 19 26  1  0  0  0  0
 19 20  1  0  0  0  0
 20 21  1  0  0  0  0
 21 32  1  0  0  0  0
 21 22  1  0  0  0  0
 21 24  1  0  0  0  0
 22 23  1  0  0  0  0
 22 48  1  0  0  0  0
 22 49  1  0  0  0  0
 23 50  1  0  0  0  0
 24 33  1  0  0  0  0
 24 25  1  0  0  0  0
 24 26  1  0  0  0  0
 25 51  1  0  0  0  0
 26 34  1  0  0  0  0
 26 27  1  0  0  0  0
 27 52  1  0  0  0  0
 28 29  1  0  0  0  0
 28 53  1  0  0  0  0
 29 30  2  0  0  0  0
 29 54  1  0  0  0  0
M  END
> <s_m_source_file>
AV-unprocessed.smi

> <i_m_source_file_index>
218

> <i_lp_mmshare_version>
43012

> <i_f3d_flags>
0

> <s_epik_input>
W0NIM11bQ0hdKFtDSDNdKU9jMVtjSF1jKFtjSF1bY0hdbjEpW0NIMl1bTkhdYyhuW2NIXW4yKWMoYzIzKW5bY0hdbjNbQ0BASF00T1tDQEhdKFtDSDJdW09IXSlbQ0BASF0oW09IXSlbQ0BIXTRbT0hd

> <s_epik_cmdline>
J2VwaWtfcHl0aG9uJywgJy1waCcsICc3LjAnLCAnLXRuJywgJzgnLCAnLW1hJywgJzIwMCcsICctbWV0YWxfYmluZGluZycsICctaW1hZScsICc8aW5maWxlLm1hZT4nLCAnLW9tYWUnLCAnPG91dGZpbGUubWFlPic=

> <r_lp_tautomer_probability>
1

> <r_epik_Ionization_Penalty>
0.00457014

> <r_epik_Ionization_Penalty_Charging>
0

> <r_epik_Ionization_Penalty_Neutral>
0.00457014

> <r_epik_State_Penalty>
-0

> <r_epik_Charging_Adjusted_Penalty>
0

> <i_epik_Tot_Q>
0

> <i_epik_Tot_abs_Q>
0

> <r_epik_Metal_State_Penalty>
-0

> <b_epik_Metal_Only>
0

> <s_epik_Chemistry_Notes>
This compound contains an acetal/aminal-like group ( X-CH(R)-Y where X, Y are N, S, or O) that may be acid/base labile, releasing an aldehyde.

> <s_lp_Force_Field>
OPLS_2005

> <r_lp_Energy>
35.6768

> <b_lp_Chiralities_Consistent>
1

> <s_lp_Variant>
AV-unprocessed.smi:218-7

> <Gold.Version>
5.8.1

> <Gold.Id.Protein>
6NUR|6NUR_protein|mol2

> <Gold.PLP.Fitness>
48.8027

> <Gold.PLP.PLP>
-37.8054

> <Gold.PLP.part.hbond>
-6.1165

> <Gold.PLP.part.metal>
0.0000

> <Gold.PLP.part.buried>
0.4195

> <Gold.PLP.part.nonpolar>
-32.0362

> <Gold.PLP.part.repulsive>
0.5272

> <Gold.PLP.ligand.clash>
0.0000

> <Gold.PLP.ligand.torsion>
1.1172

> <Gold.PLP.Chemscore.Hbond>
2.7540

> <Gold.PLP.Chemscore.CHOScore>
1.6170

> <Gold.PLP.Chemscore.Metal>
0.0000

> <Gold.Chemscore.Hbonds>
donor molecule, donor type, donor heavy atom, donor atom, acceptor molecule, acceptor atom, score
      L1  H    23    50       P1  7921  0.77
      L1  H    25    51       P1  7948  1.00
      L1  H    27    52       P1 10175  1.00
      L1  C    12    46       P1  7957  0.61
      L1  C    29    54       P1  8028  1.00

> <Gold.PLP.Chemscore.Internal.Correction>
0.1185

> <Gold.Rescore>
     Score         DG    S(hbond)    S(metal)    S(lipo)     H(rot)  DE(clash)    DE(int)     intcor
      6.83     -10.38       2.25        0.00      84.84       4.90       1.11       2.44       ----

> <Gold.Chemscore.Fitness>
6.8323

> <Gold.Chemscore.DG>
-10.3805

> <Gold.Chemscore.ZeroCoef>
-5.4800

> <Gold.Chemscore.Hbond>
2.2533

> <Gold.Chemscore.Metal>
0.0000

> <Gold.Chemscore.Lipo>
84.8385

> <Gold.Chemscore.Internal_Hbond>
0.0000

> <Gold.Chemscore.DEClash>
1.1113

> <Gold.Chemscore.DEInternal>
2.4369

> <Gold.Chemscore.Rot>
4.9029

> <Gold.Chemscore.Internal.Correction>
   9.000000E+99

> <Gold.Chemscore.Hbonds>
donor molecule, donor type, donor heavy atom, donor atom, acceptor molecule, acceptor atom, score
      L1  H    23    50       P1  7921  0.26
      L1  H    25    51       P1  7948  0.93
      L1  H    27    52       P1 10175  1.00

> <Gold.Chemscore.Hbond.Weighted>
-7.5259

> <Gold.Chemscore.Metal.Weighted>
-0.0000

> <Gold.Chemscore.Lipo.Weighted>
-9.9261

> <Gold.Chemscore.Internal_Hbond.Weighted>
0.0000

> <Gold.Chemscore.DEClash.Weighted>
1.1113

> <Gold.Chemscore.DEInternal.Weighted>
2.4369

> <Gold.Chemscore.Rot.Weighted>
12.5515

> <Gold.Chemscore.Internal.Correction.Weighted>
   9.000000E+99

> <Gold.Protein.RotatedTorsions>
[ 6907 6896 6895 6894 ] final  -93.59 input  -60.11 | X-H torsion
[ 7974 7965 7964 7962 ] final   88.26 input  175.53 | X-H torsion
[ 8008 7997 7996 7995 ] final  156.29 input   59.86 | X-H torsion
[ 10167 10162 10161 10158 ] final  -26.37 input  -65.29 | X-H torsion
[ 10718 10713 10712 10709 ] final  125.75 input   66.30 | X-H torsion
[ 10763 10752 10751 10750 ] final -155.75 input  -60.55 | X-H torsion
[ 11005 11000 10999 10996 ] final   82.18 input  -57.11 | X-H torsion

> <Gold.Protein.ActiveResidues>
 VAL166  LYS551  ARG553  GLY616  TRP617  ASP618  TYR619  PRO620  LYS621  CYS622 
 ASP623  PHE694  ASN695  SER759  ASP760  ASP761  ALA762  ILE779  LEU786  VAL792 
 PHE793  MET794  SER795  GLU796  ALA797  LYS798  CYS799  TRP800  GLU811  SER814 

> <Gold.Protein.RotatedAtoms>
  150.6925  134.1943  159.4296 H   0  0  0  0  0  0  0  0  0  0  0  0  # atno 6907 bound_to 6896
  151.9912  134.9975  160.0571 H   0  0  0  0  0  0  0  0  0  0  0  0  # atno 6908 bound_to 6896
  152.1665  133.4581  159.4924 H   0  0  0  0  0  0  0  0  0  0  0  0  # atno 6909 bound_to 6896
  145.5481  139.2293  143.2528 H   0  0  0  0  0  0  0  0  0  0  0  0  # atno 7974 bound_to 7965
  156.2431  140.1916  156.6932 H   0  0  0  0  0  0  0  0  0  0  0  0  # atno 8008 bound_to 7997
  154.6236  140.0605  156.9672 H   0  0  0  0  0  0  0  0  0  0  0  0  # atno 8009 bound_to 7997
  155.1822  140.3277  155.4376 H   0  0  0  0  0  0  0  0  0  0  0  0  # atno 8010 bound_to 7997
  140.7283  143.4184  151.0991 H   0  0  0  0  0  0  0  0  0  0  0  0  # atno 10167 bound_to 10162
  157.5477  131.1095  150.8755 H   0  0  0  0  0  0  0  0  0  0  0  0  # atno 10718 bound_to 10713
  154.7764  135.3161  154.8082 H   0  0  0  0  0  0  0  0  0  0  0  0  # atno 10763 bound_to 10752
  153.8805  135.6835  153.4771 H   0  0  0  0  0  0  0  0  0  0  0  0  # atno 10764 bound_to 10752
  153.1389  135.4747  154.9401 H   0  0  0  0  0  0  0  0  0  0  0  0  # atno 10765 bound_to 10752
  139.9072  134.8052  156.2140 H   0  0  0  0  0  0  0  0  0  0  0  0  # atno 11005 bound_to 11000
  146.1935  140.6303  142.9134 LP  0  0  0  0  0  0  0  0  0  0  0  0  # atno 17320 bound_to 7965
  144.7543  140.5269  143.6780 LP  0  0  0  0  0  0  0  0  0  0  0  0  # atno 17321 bound_to 7965
  139.7826  143.8333  152.3140 LP  0  0  0  0  0  0  0  0  0  0  0  0  # atno 17342 bound_to 10162
  139.8289  144.7262  150.9476 LP  0  0  0  0  0  0  0  0  0  0  0  0  # atno 17343 bound_to 10162
  156.9289  130.5342  149.5279 LP  0  0  0  0  0  0  0  0  0  0  0  0  # atno 17370 bound_to 10713
  156.0549  130.5612  150.9070 LP  0  0  0  0  0  0  0  0  0  0  0  0  # atno 17371 bound_to 10713
  141.0447  133.6919  156.1662 LP  0  0  0  0  0  0  0  0  0  0  0  0  # atno 17394 bound_to 11000
  140.6901  134.4674  157.5588 LP  0  0  0  0  0  0  0  0  0  0  0  0  # atno 17395 bound_to 11000

$$$$
