#       Name:                AV-unprocessed.smi:2608
#       Creating user name   scv26
#       Creation time:       Fri Mar 27 14:21:18 2020


#       File generated by GOLD software.
#

@<TRIPOS>MOLECULE
AV-unprocessed.smi:2608
    46    47     1
SMALL
NO_CHARGES


@<TRIPOS>ATOM
      1 ****        -1.8995  -0.2183  -4.0181 C.3            1 S1                 0.0000
      2 ****        -1.4503   0.7352  -2.9005 C.3            1 S1                 0.0000
      3 ****        -2.0379   2.1400  -3.1278 C.3            1 S1                 0.0000
      4 ****         0.0905   0.7308  -2.7714 C.3            1 S1                 0.0000
      5 ****         0.6072   1.4556  -1.5244 C.2            1 S1                 0.0000
      6 ****         0.7128   2.6817  -1.5312 O.2            1 S1                 0.0000
      7 ****         0.9211   0.6655  -0.4821 N.am           1 S1                 0.0000
      8 ****         1.4024   1.0399   0.8044 C.ar           1 S1                 0.0000
      9 ****         2.1654   2.2109   1.0314 C.ar           1 S1                 0.0000
     10 ****         2.6201   2.4907   2.3331 C.ar           1 S1                 0.0000
     11 ****         2.3050   1.5846   3.3616 C.ar           1 S1                 0.0000
     12 ****         1.5933   0.4570   3.1597 N.ar           1 S1                 0.0000
     13 ****         1.1530   0.1842   1.9077 C.ar           1 S1                 0.0000
     14 ****         0.4141  -0.9972   1.7273 N.3            1 S1                 0.0000
     15 ****         1.1772  -2.2147   1.9693 C.3            1 S1                 0.0000
     16 ****         0.3296  -3.4442   1.6003 C.3            1 S1                 0.0000
     17 ****        -0.8943  -3.4163   2.3296 O.3            1 S1                 0.0000
     18 ****        -1.6683  -2.2565   2.0345 C.3            1 S1                 0.0000
     19 ****        -0.8728  -0.9948   2.4113 C.3            1 S1                 0.0000
     20 ****        -1.5202   0.1028  -4.9887 H              1 S1                 0.0000
     21 ****        -2.9870  -0.2640  -4.0837 H              1 S1                 0.0000
     22 ****        -1.5406  -1.2323  -3.8394 H              1 S1                 0.0000
     23 ****        -1.8678   0.3516  -1.9682 H              1 S1                 0.0000
     24 ****        -1.6150   2.6063  -4.0181 H              1 S1                 0.0000
     25 ****        -1.8483   2.8006  -2.2823 H              1 S1                 0.0000
     26 ****        -3.1193   2.0954  -3.2594 H              1 S1                 0.0000
     27 ****         0.4548  -0.2977  -2.7510 H              1 S1                 0.0000
     28 ****         0.5405   1.1883  -3.6535 H              1 S1                 0.0000
     29 ****         0.7029  -0.3145  -0.5909 H              1 S1                 0.0000
     30 ****         2.4227   2.8886   0.2322 H              1 S1                 0.0000
     31 ****         3.2019   3.3772   2.5367 H              1 S1                 0.0000
     32 ****         2.6391   1.7659   4.3724 H              1 S1                 0.0000
     33 ****         2.0947  -2.2000   1.3798 H              1 S1                 0.0000
     34 ****         1.4671  -2.2669   3.0197 H              1 S1                 0.0000
     35 ****         0.1256  -3.4687   0.5284 H              1 S1                 0.0000
     36 ****         0.8684  -4.3601   1.8435 H              1 S1                 0.0000
     37 ****        -1.9370  -2.2456   0.9770 H              1 S1                 0.0000
     38 ****        -2.5996  -2.2970   2.5995 H              1 S1                 0.0000
     39 ****        -0.7172  -0.9646   3.4907 H              1 S1                 0.0000
     40 ****        -1.4353  -0.1006   2.1396 H              1 S1                 0.0000
     41 ****         0.4618   3.2007  -2.3483 LP             1 S1                 0.0000
     42 ****         1.0496   3.1591  -0.7196 LP             1 S1                 0.0000
     43 ****         1.3948  -0.1643   3.9177 LP             1 S1                 0.0000
     44 ****         0.2011  -1.0060   0.7503 LP             1 S1                 0.0000
     45 ****        -0.6869  -3.4252   3.3079 LP             1 S1                 0.0000
     46 ****        -1.4282  -4.2285   2.0947 LP             1 S1                 0.0000
@<TRIPOS>BOND
    1    1    2 1     
    2    1   20 1     
    3    1   21 1     
    4    1   22 1     
    5    2    3 1     
    6    2    4 1     
    7    2   23 1     
    8    3   24 1     
    9    3   25 1     
   10    3   26 1     
   11    4    5 1     
   12    4   27 1     
   13    4   28 1     
   14    5    6 2     
   15    5    7 am    
   16    7    8 1     
   17    7   29 1     
   18    8   13 ar    
   19    8    9 ar    
   20    9   10 ar    
   21    9   30 1     
   22   10   11 ar    
   23   10   31 1     
   24   11   12 ar    
   25   11   32 1     
   26   12   13 ar    
   27   13   14 1     
   28   14   19 1     
   29   14   15 1     
   30   15   16 1     
   31   15   33 1     
   32   15   34 1     
   33   16   17 1     
   34   16   35 1     
   35   16   36 1     
   36   17   18 1     
   37   18   19 1     
   38   18   37 1     
   39   18   38 1     
   40   19   39 1     
   41   19   40 1     
   42    6   41 1     
   43    6   42 1     
   44   12   43 1     
   45   14   44 1     
   46   17   45 1     
   47   17   46 1     
@<TRIPOS>SUBSTRUCTURE
      1 S1             1
@<TRIPOS>SET
LONE_PAIRS      STATIC     ATOMS    <user>   **** ""
6 41 42 43 44 45 46
DONOR_HYDROGENS      STATIC     ATOMS    <user>   **** ""
1 29
ATOM$BLUE        STATIC     ATOMS    COLORGROUP SYSTEM
6 41 42 43 44 45 46
ATOM$RED        STATIC     ATOMS    COLORGROUP SYSTEM
1 29
