#       Name:                AV-unprocessed.smi:1813
#       Creating user name   scv26
#       Creation time:       Fri Mar 27 09:00:52 2020


#       File generated by GOLD software.
#

@<TRIPOS>MOLECULE
AV-unprocessed.smi:1813
    45    46     1
SMALL
NO_CHARGES


@<TRIPOS>ATOM
      1 ****        -5.7701   3.5777   0.7102 C.3            1 S1                 0.0000
      2 ****        -5.1044   2.2848   0.6593 N.am           1 S1                 0.0000
      3 ****        -3.8000   2.0989   0.9038 C.2            1 S1                 0.0000
      4 ****        -3.0331   3.0141   1.2054 O.2            1 S1                 0.0000
      5 ****        -3.2925   0.6563   0.8099 C.3            1 S1                 0.0000
      6 ****        -1.8261   0.5682   0.5897 N.4            1 S1                 1.0000
      7 ****        -1.4263   0.8717  -0.8104 C.3            1 S1                 0.0000
      8 ****         0.1037   0.9074  -0.9531 C.3            1 S1                 0.0000
      9 ****         0.7343  -0.4142  -0.4873 C.3            1 S1                 0.0000
     10 ****         2.1891  -0.3173  -0.5535 N.am           1 S1                 0.0000
     11 ****         3.0440  -1.3483  -0.6133 C.2            1 S1                 0.0000
     12 ****         2.6144  -2.5042  -0.6157 O.2            1 S1                 0.0000
     13 ****         4.3422  -0.9743  -0.6619 N.pl3          1 S1                -1.0000
     14 ****         5.3074  -1.9064  -0.7182 C.2            1 S1                 0.0000
     15 ****         5.9205  -2.2537  -1.8554 N.2            1 S1                 0.0000
     16 ****         6.8944  -3.2388  -1.6824 C.2            1 S1                 0.0000
     17 ****         7.0326  -3.6444  -0.3816 C.2            1 S1                 0.0000
     18 ****         5.9373  -2.7956   0.6715 S.3            1 S1                 0.0000
     19 ****         0.2707  -0.7303   0.9466 C.3            1 S1                 0.0000
     20 ****        -1.2627  -0.7270   1.0477 C.3            1 S1                 0.0000
     21 ****        -6.8285   3.4603   0.4771 H              1 S1                 0.0000
     22 ****        -5.3363   4.2675  -0.0149 H              1 S1                 0.0000
     23 ****        -5.6876   4.0190   1.7043 H              1 S1                 0.0000
     24 ****        -5.6727   1.4832   0.4262 H              1 S1                 0.0000
     25 ****        -3.5511   0.1748   1.7538 H              1 S1                 0.0000
     26 ****        -3.8217   0.1123   0.0255 H              1 S1                 0.0000
     27 ****        -1.8473   0.1212  -1.4813 H              1 S1                 0.0000
     28 ****        -1.8348   1.8341  -1.1192 H              1 S1                 0.0000
     29 ****         0.3728   1.1037  -1.9918 H              1 S1                 0.0000
     30 ****         0.5027   1.7375  -0.3680 H              1 S1                 0.0000
     31 ****         0.3981  -1.2083  -1.1569 H              1 S1                 0.0000
     32 ****         2.5875   0.6104  -0.5553 H              1 S1                 0.0000
     33 ****         7.4437  -3.5920  -2.5422 H              1 S1                 0.0000
     34 ****         7.7077  -4.3845   0.0201 H              1 S1                 0.0000
     35 ****         0.6551  -1.7003   1.2636 H              1 S1                 0.0000
     36 ****         0.6818   0.0053   1.6398 H              1 S1                 0.0000
     37 ****        -1.5514  -0.9103   2.0832 H              1 S1                 0.0000
     38 ****        -1.6819  -1.5393   0.4517 H              1 S1                 0.0000
     39 ****        -1.4108   1.2798   1.1747 H              1 S1                 0.0000
     40 ****        -3.3763   3.9506   1.2778 LP             1 S1                 0.0000
     41 ****        -2.0673   2.8208   1.3778 LP             1 S1                 0.0000
     42 ****         1.6294  -2.6716  -0.5731 LP             1 S1                 0.0000
     43 ****         3.2510  -3.2741  -0.6603 LP             1 S1                 0.0000
     44 ****         4.5837  -0.0039  -0.6560 LP             1 S1                 0.0000
     45 ****         5.7024  -1.8473  -2.7428 LP             1 S1                 0.0000
@<TRIPOS>BOND
    1    1    2 1     
    2    1   21 1     
    3    1   22 1     
    4    1   23 1     
    5    2    3 am    
    6    2   24 1     
    7    3    4 2     
    8    3    5 1     
    9    5    6 1     
   10    5   25 1     
   11    5   26 1     
   12    6   20 1     
   13    6    7 1     
   14    6   39 1     
   15    7    8 1     
   16    7   27 1     
   17    7   28 1     
   18    8    9 1     
   19    8   29 1     
   20    8   30 1     
   21    9   10 1     
   22    9   19 1     
   23    9   31 1     
   24   10   11 am    
   25   10   32 1     
   26   11   12 2     
   27   11   13 1     
   28   13   14 1     
   29   14   18 1     
   30   14   15 2     
   31   15   16 1     
   32   16   17 2     
   33   16   33 1     
   34   17   18 1     
   35   17   34 1     
   36   19   20 1     
   37   19   35 1     
   38   19   36 1     
   39   20   37 1     
   40   20   38 1     
   41    4   40 1     
   42    4   41 1     
   43   12   42 1     
   44   12   43 1     
   45   13   44 1     
   46   15   45 1     
@<TRIPOS>SUBSTRUCTURE
      1 S1             1
@<TRIPOS>SET
LONE_PAIRS      STATIC     ATOMS    <user>   **** ""
6 40 41 42 43 44 45
DONOR_HYDROGENS      STATIC     ATOMS    <user>   **** ""
3 24 39 32
ATOM$BLUE        STATIC     ATOMS    COLORGROUP SYSTEM
6 40 41 42 43 44 45
ATOM$RED        STATIC     ATOMS    COLORGROUP SYSTEM
3 24 39 32
