AV-unprocessed.smi:1458|AV-procd|sdf|5921|dock3
  -GOLD-   22720 6 03D 1   1.00000     0.00000
 Structure written by MMmdl.
 46 47  0  0  0  0  0  0  0  0  1 V2000
  142.7235  137.0818  152.8778 C   0  0  0  0  0  0  0  0  0  0  0  0
  143.8890  137.1768  152.0788 O   0  0  0  0  0  0  0  0  0  0  0  0
  144.9879  137.7299  152.7850 C   0  0  0  0  0  0  0  0  0  0  0  0
  146.0678  138.1591  151.7820 C   0  0  0  0  0  0  0  0  0  0  0  0
  147.3901  138.1882  152.3975 N   0  0  0  0  0  0  0  0  0  0  0  0
  147.7868  139.0647  153.3305 C   0  0  0  0  0  0  0  0  0  0  0  0
  147.0665  139.9600  153.7717 O   0  0  0  0  0  0  0  0  0  0  0  0
  149.0474  138.8159  153.7237 N   0  0  0  0  0  0  0  0  0  0  0  0
  149.8485  139.5444  154.6438 C   0  0  0  0  0  0  0  0  0  0  0  0
  151.1730  139.1978  154.9976 C   0  0  0  0  0  0  0  0  0  0  0  0
  151.8526  139.9834  155.9484 C   0  0  0  0  0  0  0  0  0  0  0  0
  151.1938  141.0915  156.5318 C   0  0  0  0  0  0  0  0  0  0  0  0
  151.8532  141.8835  157.4972 N   0  0  0  0  0  0  0  0  0  0  0  0
  152.2763  141.1762  158.7032 C   0  0  0  0  0  0  0  0  0  0  0  0
  153.2299  142.0523  159.5376 C   0  0  2  0  0  0  0  0  0  0  0  0
  153.5970  141.3928  160.8710 C   0  0  0  0  0  0  0  0  0  0  0  0
  152.6001  143.3000  159.8152 O   0  0  0  0  0  0  0  0  0  0  0  0
  152.2969  144.0310  158.6304 C   0  0  2  0  0  0  0  0  0  0  0  0
  151.7128  145.3872  159.0389 C   0  0  0  0  0  0  0  0  0  0  0  0
  151.3139  143.2142  157.7711 C   0  0  0  0  0  0  0  0  0  0  0  0
  149.9238  141.4196  156.1890 N   0  0  0  0  0  0  0  0  0  0  0  0
  149.2754  140.6634  155.2792 C   0  0  0  0  0  0  0  0  0  0  0  0
  141.9107  136.6548  152.2905 H   0  0  0  0  0  0  0  0  0  0  0  0
  142.4046  138.0639  153.2298 H   0  0  0  0  0  0  0  0  0  0  0  0
  142.8898  136.4366  153.7416 H   0  0  0  0  0  0  0  0  0  0  0  0
  144.6554  138.5972  153.3573 H   0  0  0  0  0  0  0  0  0  0  0  0
  145.3904  137.0064  153.4961 H   0  0  0  0  0  0  0  0  0  0  0  0
  146.0906  137.4672  150.9397 H   0  0  0  0  0  0  0  0  0  0  0  0
  145.8276  139.1400  151.3686 H   0  0  0  0  0  0  0  0  0  0  0  0
  148.0445  137.4795  152.0999 H   0  0  0  0  0  0  0  0  0  0  0  0
  149.4747  137.9846  153.3422 H   0  0  0  0  0  0  0  0  0  0  0  0
  151.6751  138.3421  154.5742 H   0  0  0  0  0  0  0  0  0  0  0  0
  152.8686  139.7307  156.2121 H   0  0  0  0  0  0  0  0  0  0  0  0
  151.3907  140.9231  159.2876 H   0  0  0  0  0  0  0  0  0  0  0  0
  152.7759  140.2383  158.4642 H   0  0  0  0  0  0  0  0  0  0  0  0
  154.1483  142.2328  158.9760 H   0  0  0  0  0  0  0  0  0  0  0  0
  154.0953  140.4363  160.7115 H   0  0  0  0  0  0  0  0  0  0  0  0
  152.7101  141.2112  161.4787 H   0  0  0  0  0  0  0  0  0  0  0  0
  154.2715  142.0271  161.4465 H   0  0  0  0  0  0  0  0  0  0  0  0
  153.2180  144.2043  158.0709 H   0  0  0  0  0  0  0  0  0  0  0  0
  151.4760  145.9919  158.1631 H   0  0  0  0  0  0  0  0  0  0  0  0
  152.4204  145.9488  159.6491 H   0  0  0  0  0  0  0  0  0  0  0  0
  150.7975  145.2638  159.6186 H   0  0  0  0  0  0  0  0  0  0  0  0
  151.1277  143.7421  156.8348 H   0  0  0  0  0  0  0  0  0  0  0  0
  150.3573  143.1152  158.2866 H   0  0  0  0  0  0  0  0  0  0  0  0
  148.2632  140.9650  155.0513 H   0  0  0  0  0  0  0  0  0  0  0  0
  1  2  1  0  0  0  0
  1 23  1  0  0  0  0
  1 24  1  0  0  0  0
  1 25  1  0  0  0  0
  2  3  1  0  0  0  0
  3  4  1  0  0  0  0
  3 26  1  0  0  0  0
  3 27  1  0  0  0  0
  4  5  1  0  0  0  0
  4 28  1  0  0  0  0
  4 29  1  0  0  0  0
  5  6  1  0  0  0  0
  5 30  1  0  0  0  0
  6  7  2  0  0  0  0
  6  8  1  0  0  0  0
  8  9  1  0  0  0  0
  8 31  1  0  0  0  0
  9 22  1  0  0  0  0
  9 10  2  0  0  0  0
 10 11  1  0  0  0  0
 10 32  1  0  0  0  0
 11 12  2  0  0  0  0
 11 33  1  0  0  0  0
 12 13  1  0  0  0  0
 12 21  1  0  0  0  0
 13 20  1  0  0  0  0
 13 14  1  0  0  0  0
 14 15  1  0  0  0  0
 14 34  1  0  0  0  0
 14 35  1  0  0  0  0
 15 16  1  0  0  0  0
 15 17  1  0  0  0  0
 15 36  1  0  0  0  0
 16 37  1  0  0  0  0
 16 38  1  0  0  0  0
 16 39  1  0  0  0  0
 17 18  1  0  0  0  0
 18 19  1  0  0  0  0
 18 20  1  0  0  0  0
 18 40  1  0  0  0  0
 19 41  1  0  0  0  0
 19 42  1  0  0  0  0
 19 43  1  0  0  0  0
 20 44  1  0  0  0  0
 20 45  1  0  0  0  0
 21 22  2  0  0  0  0
 22 46  1  0  0  0  0
M  END
> <s_m_source_file>
AV-unprocessed.smi

> <i_m_source_file_index>
1458

> <i_lp_mmshare_version>
43012

> <i_f3d_flags>
0

> <s_epik_input>
W0NIM11PW0NIMl1bQ0gyXVtOSF1DKD1PKVtOSF1jMVtjSF1bY0hdYyhuW2NIXTEpTjJbQ0gyXVtDQEBIXShbQ0gzXSlPW0NAQEhdKFtDSDNdKVtDSDJdMg==

> <s_epik_cmdline>
J2VwaWtfcHl0aG9uJywgJy1waCcsICc3LjAnLCAnLXRuJywgJzgnLCAnLW1hJywgJzIwMCcsICctbWV0YWxfYmluZGluZycsICctaW1hZScsICc8aW5maWxlLm1hZT4nLCAnLW9tYWUnLCAnPG91dGZpbGUubWFlPic=

> <r_lp_tautomer_probability>
1

> <r_epik_Ionization_Penalty>
0.00266072

> <r_epik_Ionization_Penalty_Charging>
0

> <r_epik_Ionization_Penalty_Neutral>
0.00266072

> <r_epik_State_Penalty>
0.00182795

> <r_epik_Charging_Adjusted_Penalty>
0.00182795

> <i_epik_Tot_Q>
0

> <i_epik_Tot_abs_Q>
0

> <r_epik_Metal_State_Penalty>
-0

> <b_epik_Metal_Only>
0

> <s_lp_Force_Field>
OPLS_2005

> <r_lp_Energy>
18.5375

> <b_lp_Chiralities_Consistent>
1

> <s_lp_Variant>
AV-unprocessed.smi:1458-1

> <Gold.Version>
5.8.1

> <Gold.Id.Protein>
6NUR|6NUR_protein|mol2

> <Gold.PLP.Fitness>
46.0757

> <Gold.PLP.PLP>
-43.0154

> <Gold.PLP.part.hbond>
-2.9570

> <Gold.PLP.part.metal>
0.0000

> <Gold.PLP.part.buried>
-2.8644

> <Gold.PLP.part.nonpolar>
-38.6822

> <Gold.PLP.part.repulsive>
1.4229

> <Gold.PLP.ligand.clash>
0.0000

> <Gold.PLP.ligand.torsion>
0.4790

> <Gold.PLP.Chemscore.Hbond>
1.2340

> <Gold.PLP.Chemscore.CHOScore>
0.0000

> <Gold.PLP.Chemscore.Metal>
0.0000

> <Gold.Chemscore.Hbonds>
donor molecule, donor type, donor heavy atom, donor atom, acceptor molecule, acceptor atom, score
      L1  H     5    30       P1  7948  1.00
      L1  H     8    31       P1  7948  0.22

> <Gold.PLP.Chemscore.Internal.Correction>
0.3163

> <Gold.Rescore>
     Score         DG    S(hbond)    S(metal)    S(lipo)     H(rot)  DE(clash)    DE(int)     intcor
     16.98     -19.47       1.86        0.00     101.96       1.62       0.57       1.92       ----

> <Gold.Chemscore.Fitness>
16.9805

> <Gold.Chemscore.DG>
-19.4654

> <Gold.Chemscore.ZeroCoef>
-5.4800

> <Gold.Chemscore.Hbond>
1.8577

> <Gold.Chemscore.Metal>
0.0000

> <Gold.Chemscore.Lipo>
101.9598

> <Gold.Chemscore.Internal_Hbond>
0.0000

> <Gold.Chemscore.DEClash>
0.5662

> <Gold.Chemscore.DEInternal>
1.9187

> <Gold.Chemscore.Rot>
1.6206

> <Gold.Chemscore.Internal.Correction>
   9.000000E+99

> <Gold.Chemscore.Hbonds>
donor molecule, donor type, donor heavy atom, donor atom, acceptor molecule, acceptor atom, score
      L1  H     5    30       P1  7948  0.94
      L1  H     8    31       P1  7948  0.22

> <Gold.Chemscore.Hbond.Weighted>
-6.2047

> <Gold.Chemscore.Metal.Weighted>
-0.0000

> <Gold.Chemscore.Lipo.Weighted>
-11.9293

> <Gold.Chemscore.Internal_Hbond.Weighted>
0.0000

> <Gold.Chemscore.DEClash.Weighted>
0.5662

> <Gold.Chemscore.DEInternal.Weighted>
1.9187

> <Gold.Chemscore.Rot.Weighted>
4.1486

> <Gold.Chemscore.Internal.Correction.Weighted>
   9.000000E+99

> <Gold.Protein.RotatedTorsions>
[ 6907 6896 6895 6894 ] final   22.21 input  -60.11 | X-H torsion
[ 7974 7965 7964 7962 ] final -119.26 input  175.53 | X-H torsion
[ 8008 7997 7996 7995 ] final   14.56 input   59.86 | X-H torsion
[ 10167 10162 10161 10158 ] final  129.06 input  -65.29 | X-H torsion
[ 10718 10713 10712 10709 ] final  149.78 input   66.30 | X-H torsion
[ 10763 10752 10751 10750 ] final  153.28 input  -60.55 | X-H torsion
[ 11005 11000 10999 10996 ] final -127.29 input  -57.11 | X-H torsion

> <Gold.Protein.ActiveResidues>
 VAL166  LYS551  ARG553  GLY616  TRP617  ASP618  TYR619  PRO620  LYS621  CYS622 
 ASP623  PHE694  ASN695  SER759  ASP760  ASP761  ALA762  ILE779  LEU786  VAL792 
 PHE793  MET794  SER795  GLU796  ALA797  LYS798  CYS799  TRP800  GLU811  SER814 

> <Gold.Protein.RotatedAtoms>
  151.9236  135.0287  160.0523 H   0  0  0  0  0  0  0  0  0  0  0  0  # atno 6907 bound_to 6896
  152.2179  133.4956  159.5154 H   0  0  0  0  0  0  0  0  0  0  0  0  # atno 6908 bound_to 6896
  150.6992  134.1298  159.4108 H   0  0  0  0  0  0  0  0  0  0  0  0  # atno 6909 bound_to 6896
  145.0645  140.8314  143.4132 H   0  0  0  0  0  0  0  0  0  0  0  0  # atno 7974 bound_to 7965
  154.8502  140.2928  155.5603 H   0  0  0  0  0  0  0  0  0  0  0  0  # atno 8008 bound_to 7997
  156.3016  140.2497  156.3391 H   0  0  0  0  0  0  0  0  0  0  0  0  # atno 8009 bound_to 7997
  154.9030  140.0391  157.1893 H   0  0  0  0  0  0  0  0  0  0  0  0  # atno 8010 bound_to 7997
  139.5496  144.6802  151.4365 H   0  0  0  0  0  0  0  0  0  0  0  0  # atno 10167 bound_to 10162
  157.2918  131.0854  151.1456 H   0  0  0  0  0  0  0  0  0  0  0  0  # atno 10718 bound_to 10713
  154.1337  135.2825  155.3178 H   0  0  0  0  0  0  0  0  0  0  0  0  # atno 10763 bound_to 10752
  154.6337  135.5426  153.7713 H   0  0  0  0  0  0  0  0  0  0  0  0  # atno 10764 bound_to 10752
  153.0273  135.6469  154.1486 H   0  0  0  0  0  0  0  0  0  0  0  0  # atno 10765 bound_to 10752
  140.9611  134.0934  157.3967 H   0  0  0  0  0  0  0  0  0  0  0  0  # atno 11005 bound_to 11000
  145.1368  139.2597  143.5511 LP  0  0  0  0  0  0  0  0  0  0  0  0  # atno 17320 bound_to 7965
  146.3526  140.1034  142.8607 LP  0  0  0  0  0  0  0  0  0  0  0  0  # atno 17321 bound_to 7965
  140.6755  143.8200  150.7053 LP  0  0  0  0  0  0  0  0  0  0  0  0  # atno 17342 bound_to 10162
  140.1637  143.4253  152.2049 LP  0  0  0  0  0  0  0  0  0  0  0  0  # atno 17343 bound_to 10162
  157.2850  130.6768  149.6085 LP  0  0  0  0  0  0  0  0  0  0  0  0  # atno 17370 bound_to 10713
  155.9667  130.4438  150.5437 LP  0  0  0  0  0  0  0  0  0  0  0  0  # atno 17371 bound_to 10713
  139.8878  135.0093  156.6585 LP  0  0  0  0  0  0  0  0  0  0  0  0  # atno 17394 bound_to 11000
  140.7465  133.8933  155.8316 LP  0  0  0  0  0  0  0  0  0  0  0  0  # atno 17395 bound_to 11000

$$$$
