#       Name:                AV-unprocessed.smi:1684
#       Creating user name   scv26
#       Creation time:       Fri Mar 27 07:51:19 2020


#       File generated by GOLD software.
#

@<TRIPOS>MOLECULE
AV-unprocessed.smi:1684
    48    49     1
SMALL
NO_CHARGES


@<TRIPOS>ATOM
      1 ****        -4.0841  -0.4994   1.1226 C.3            1 S1                 0.0000
      2 ****        -3.7351   0.9762   1.2295 C.ar           1 S1                 0.0000
      3 ****        -4.7740   1.9308   1.2560 C.ar           1 S1                 0.0000
      4 ****        -4.4499   3.2948   1.3532 C.ar           1 S1                 0.0000
      5 ****        -3.0914   3.6486   1.4191 C.ar           1 S1                 0.0000
      6 ****        -2.0924   2.7431   1.3950 N.ar           1 S1                 0.0000
      7 ****        -2.3879   1.4221   1.3022 C.ar           1 S1                 0.0000
      8 ****        -1.3866   0.4107   1.2778 N.am           1 S1                 0.0000
      9 ****        -0.0499   0.5550   1.2935 C.2            1 S1                 0.0000
     10 ****         0.5500   1.6303   1.3127 O.2            1 S1                 0.0000
     11 ****         0.5625  -0.6385   1.2753 N.am           1 S1                 0.0000
     12 ****         2.0074  -0.8592   1.2344 C.3            1 S1                 0.0000
     13 ****         2.4411  -1.6190   2.4953 C.3            1 S1                 0.0000
     14 ****         2.3877  -1.6307  -0.0468 C.3            1 S1                 0.0000
     15 ****         1.9610  -1.0176  -1.3060 N.3            1 S1                 0.0000
     16 ****         2.6349   0.2509  -1.5760 C.3            1 S1                 0.0000
     17 ****         2.1828   0.8659  -2.9119 C.3            1 S1                 0.0000
     18 ****         2.4047  -0.0638  -3.9674 O.3            1 S1                 0.0000
     19 ****         1.7261  -1.2986  -3.7627 C.3            1 S1                 0.0000
     20 ****         2.1792  -1.9205  -2.4305 C.3            1 S1                 0.0000
     21 ****        -5.1630  -0.6501   1.0772 H              1 S1                 0.0000
     22 ****        -3.7054  -1.0451   1.9873 H              1 S1                 0.0000
     23 ****        -3.6473  -0.9300   0.2212 H              1 S1                 0.0000
     24 ****        -5.8084   1.6242   1.2026 H              1 S1                 0.0000
     25 ****        -5.2218   4.0498   1.3762 H              1 S1                 0.0000
     26 ****        -2.7982   4.6853   1.4939 H              1 S1                 0.0000
     27 ****        -1.7320  -0.5367   1.2433 H              1 S1                 0.0000
     28 ****        -0.0172  -1.4645   1.2572 H              1 S1                 0.0000
     29 ****         2.5398   0.0923   1.2429 H              1 S1                 0.0000
     30 ****         3.5197  -1.7776   2.5046 H              1 S1                 0.0000
     31 ****         1.9607  -2.5959   2.5579 H              1 S1                 0.0000
     32 ****         2.1833  -1.0621   3.3969 H              1 S1                 0.0000
     33 ****         3.4674  -1.7875  -0.0666 H              1 S1                 0.0000
     34 ****         1.9464  -2.6261   0.0227 H              1 S1                 0.0000
     35 ****         2.4315   0.9664  -0.7803 H              1 S1                 0.0000
     36 ****         3.7153   0.1003  -1.5945 H              1 S1                 0.0000
     37 ****         1.1270   1.1381  -2.8727 H              1 S1                 0.0000
     38 ****         2.7418   1.7792  -3.1173 H              1 S1                 0.0000
     39 ****         0.6474  -1.1342  -3.7656 H              1 S1                 0.0000
     40 ****         1.9509  -1.9712  -4.5906 H              1 S1                 0.0000
     41 ****         3.2366  -2.1819  -2.4959 H              1 S1                 0.0000
     42 ****         1.6376  -2.8530  -2.2672 H              1 S1                 0.0000
     43 ****        -1.1398   3.0433   1.4452 LP             1 S1                 0.0000
     44 ****         0.0373   2.4888   1.3177 LP             1 S1                 0.0000
     45 ****         1.5499   1.6449   1.3234 LP             1 S1                 0.0000
     46 ****         0.9836  -0.8335  -1.2023 LP             1 S1                 0.0000
     47 ****         3.3860  -0.2450  -4.0333 LP             1 S1                 0.0000
     48 ****         2.0822   0.3406  -4.8232 LP             1 S1                 0.0000
@<TRIPOS>BOND
    1    1    2 1     
    2    1   21 1     
    3    1   22 1     
    4    1   23 1     
    5    2    7 ar    
    6    2    3 ar    
    7    3    4 ar    
    8    3   24 1     
    9    4    5 ar    
   10    4   25 1     
   11    5    6 ar    
   12    5   26 1     
   13    6    7 ar    
   14    7    8 1     
   15    8    9 am    
   16    8   27 1     
   17    9   10 2     
   18    9   11 am    
   19   11   12 1     
   20   11   28 1     
   21   12   13 1     
   22   12   14 1     
   23   12   29 1     
   24   13   30 1     
   25   13   31 1     
   26   13   32 1     
   27   14   15 1     
   28   14   33 1     
   29   14   34 1     
   30   15   20 1     
   31   15   16 1     
   32   16   17 1     
   33   16   35 1     
   34   16   36 1     
   35   17   18 1     
   36   17   37 1     
   37   17   38 1     
   38   18   19 1     
   39   19   20 1     
   40   19   39 1     
   41   19   40 1     
   42   20   41 1     
   43   20   42 1     
   44    6   43 1     
   45   10   44 1     
   46   10   45 1     
   47   15   46 1     
   48   18   47 1     
   49   18   48 1     
@<TRIPOS>SUBSTRUCTURE
      1 S1             1
@<TRIPOS>SET
LONE_PAIRS      STATIC     ATOMS    <user>   **** ""
6 43 44 45 46 47 48
DONOR_HYDROGENS      STATIC     ATOMS    <user>   **** ""
2 27 28
ATOM$BLUE        STATIC     ATOMS    COLORGROUP SYSTEM
6 43 44 45 46 47 48
ATOM$RED        STATIC     ATOMS    COLORGROUP SYSTEM
2 27 28
