AV-unprocessed.smi:442|AV-procd|sdf|2584|dock3
  -GOLD-   2262022573D 1   1.00000     0.00000
 Structure written by MMmdl.
 37 37  0  0  0  0  0  0  0  0  3 V2000
  153.1400  142.6497  162.7827 C   0  0  0  0  0  0  0  0  0  0  0  0
  152.4748  142.7179  161.4006 C   0  0  0  0  0  0  0  0  0  0  0  0
  153.3003  142.0658  160.2734 C   0  0  1  0  0  0  0  0  0  0  0  0
  153.3286  140.5371  160.4083 C   0  0  0  0  0  0  0  0  0  0  0  0
  152.7538  142.4119  158.9636 N   0  0  0  0  0  0  0  0  0  0  0  0
  151.5991  141.9671  158.4369 C   0  0  0  0  0  0  0  0  0  0  0  0
  150.8599  141.1742  159.0186 O   0  0  0  0  0  0  0  0  0  0  0  0
  151.1968  142.4718  157.0399 C   0  0  0  0  0  0  0  0  0  0  0  0
  150.7391  141.4228  156.1069 N   0  0  0  0  0  0  0  0  0  0  0  0
  149.5417  141.6812  155.4161 C   0  0  0  0  0  0  0  0  0  0  0  0
  149.0127  140.8047  154.5447 C   0  0  0  0  0  0  0  0  0  0  0  0
  147.7723  141.0893  153.8550 N   0  3  0  0  0  0  0  0  0  0  0  0
  147.2848  140.2227  153.1366 O   0  0  0  0  0  0  0  0  0  0  0  0
  147.2437  142.1863  154.0085 O   0  5  0  0  0  0  0  0  0  0  0  0
  149.7191  139.5598  154.3239 C   0  0  0  0  0  0  0  0  0  0  0  0
  150.8730  139.2855  154.9846 C   0  0  0  0  0  0  0  0  0  0  0  0
  151.6257  138.0253  154.7932 C   0  0  0  0  0  0  0  0  0  0  0  0
  151.0906  137.1949  153.8897 N   0  0  0  0  0  0  0  0  0  0  0  0
  152.6594  137.6863  155.3691 O   0  0  0  0  0  0  0  0  0  0  0  0
  151.4458  140.2592  155.9537 C   0  0  0  0  0  0  0  0  0  0  0  0
  152.4774  140.0797  156.6061 O   0  0  0  0  0  0  0  0  0  0  0  0
  152.4863  143.0702  163.5468 H   0  0  0  0  0  0  0  0  0  0  0  0
  154.0747  143.2098  162.8071 H   0  0  0  0  0  0  0  0  0  0  0  0
  153.3585  141.6191  163.0632 H   0  0  0  0  0  0  0  0  0  0  0  0
  151.5045  142.2238  161.4621 H   0  0  0  0  0  0  0  0  0  0  0  0
  152.2676  143.7595  161.1520 H   0  0  0  0  0  0  0  0  0  0  0  0
  154.3304  142.4169  160.3545 H   0  0  0  0  0  0  0  0  0  0  0  0
  153.7523  140.2349  161.3663 H   0  0  0  0  0  0  0  0  0  0  0  0
  153.9363  140.0856  159.6234 H   0  0  0  0  0  0  0  0  0  0  0  0
  152.3262  140.1128  160.3387 H   0  0  0  0  0  0  0  0  0  0  0  0
  153.2970  143.0589  158.4111 H   0  0  0  0  0  0  0  0  0  0  0  0
  150.4171  143.2239  157.1689 H   0  0  0  0  0  0  0  0  0  0  0  0
  152.0385  143.0217  156.6156 H   0  0  0  0  0  0  0  0  0  0  0  0
  149.0847  142.6313  155.6534 H   0  0  0  0  0  0  0  0  0  0  0  0
  149.2988  138.8580  153.6194 H   0  0  0  0  0  0  0  0  0  0  0  0
  151.5319  136.3094  153.6893 H   0  0  0  0  0  0  0  0  0  0  0  0
  150.2424  137.4600  153.4099 H   0  0  0  0  0  0  0  0  0  0  0  0
  1  2  1  0  0  0  0
  1 22  1  0  0  0  0
  1 23  1  0  0  0  0
  1 24  1  0  0  0  0
  2  3  1  0  0  0  0
  2 25  1  0  0  0  0
  2 26  1  0  0  0  0
  3  4  1  0  0  0  0
  3  5  1  0  0  0  0
  3 27  1  0  0  0  0
  4 28  1  0  0  0  0
  4 29  1  0  0  0  0
  4 30  1  0  0  0  0
  5  6  1  0  0  0  0
  5 31  1  0  0  0  0
  6  7  2  0  0  0  0
  6  8  1  0  0  0  0
  8  9  1  0  0  0  0
  8 32  1  0  0  0  0
  8 33  1  0  0  0  0
  9 20  1  0  0  0  0
  9 10  1  0  0  0  0
 10 11  2  0  0  0  0
 10 34  1  0  0  0  0
 11 12  1  0  0  0  0
 11 15  1  0  0  0  0
 12 13  2  0  0  0  0
 12 14  1  0  0  0  0
 15 16  2  0  0  0  0
 15 35  1  0  0  0  0
 16 17  1  0  0  0  0
 16 20  1  0  0  0  0
 17 18  1  0  0  0  0
 17 19  2  0  0  0  0
 18 36  1  0  0  0  0
 18 37  1  0  0  0  0
 20 21  2  0  0  0  0
M  CHG  1  12   1
M  CHG  1  14  -1
M  END
> <s_m_source_file>
AV-unprocessed.smi

> <i_m_source_file_index>
442

> <i_lp_mmshare_version>
43012

> <i_f3d_flags>
0

> <s_epik_input>
W0NIM11bQ0gyXVtDQEhdKFtDSDNdKVtOSF1DKD1PKVtDSDJdbjFbY0hdYyhbTitdKD1PKVtPLV0pW2NIXWMoYzE9TylDKD1PKVtOSDJd

> <s_epik_cmdline>
J2VwaWtfcHl0aG9uJywgJy1waCcsICc3LjAnLCAnLXRuJywgJzgnLCAnLW1hJywgJzIwMCcsICctbWV0YWxfYmluZGluZycsICctaW1hZScsICc8aW5maWxlLm1hZT4nLCAnLW9tYWUnLCAnPG91dGZpbGUubWFlPic=

> <r_lp_tautomer_probability>
1

> <r_epik_Ionization_Penalty>
2.86914e-06

> <r_epik_Ionization_Penalty_Charging>
2.2828e-12

> <r_epik_Ionization_Penalty_Neutral>
2.86914e-06

> <r_epik_State_Penalty>
-0

> <r_epik_Charging_Adjusted_Penalty>
2.2828e-12

> <i_epik_Tot_Q>
0

> <i_epik_Tot_abs_Q>
2

> <r_epik_Metal_State_Penalty>
-0

> <b_epik_Metal_Only>
0

> <s_lp_Force_Field>
OPLS_2005

> <r_lp_Energy>
22.4314

> <b_lp_Chiralities_Consistent>
1

> <s_lp_Variant>
AV-unprocessed.smi:442-2

> <Gold.Version>
5.8.1

> <Gold.Id.Protein>
6NUR|6NUR_protein|mol2

> <Gold.PLP.Fitness>
53.8211

> <Gold.PLP.PLP>
-47.0688

> <Gold.PLP.part.hbond>
-4.1034

> <Gold.PLP.part.metal>
0.0000

> <Gold.PLP.part.buried>
-4.2351

> <Gold.PLP.part.nonpolar>
-39.2658

> <Gold.PLP.part.repulsive>
0.5602

> <Gold.PLP.ligand.clash>
0.0000

> <Gold.PLP.ligand.torsion>
0.4571

> <Gold.PLP.Chemscore.Hbond>
1.5412

> <Gold.PLP.Chemscore.CHOScore>
1.0000

> <Gold.PLP.Chemscore.Metal>
0.0000

> <Gold.Chemscore.Hbonds>
donor molecule, donor type, donor heavy atom, donor atom, acceptor molecule, acceptor atom, score
      L1  H    18    36       P1  7949  0.04
      L1  H    18    37       P1  7948  0.15
      P1  H  7997  8010       L1    21  1.00
      P1  H 10752 10763       L1    19  0.27
      L1  C    10    34       P1  8028  1.00

> <Gold.PLP.Chemscore.Internal.Correction>
0.0429

> <Gold.Rescore>
     Score         DG    S(hbond)    S(metal)    S(lipo)     H(rot)  DE(clash)    DE(int)     intcor
     10.64     -15.12       1.86        0.00      73.68       2.03       0.25       4.22       ----

> <Gold.Chemscore.Fitness>
10.6438

> <Gold.Chemscore.DG>
-15.1193

> <Gold.Chemscore.ZeroCoef>
-5.4800

> <Gold.Chemscore.Hbond>
1.8639

> <Gold.Chemscore.Metal>
0.0000

> <Gold.Chemscore.Lipo>
73.6831

> <Gold.Chemscore.Internal_Hbond>
0.0000

> <Gold.Chemscore.DEClash>
0.2506

> <Gold.Chemscore.DEInternal>
4.2249

> <Gold.Chemscore.Rot>
2.0340

> <Gold.Chemscore.Internal.Correction>
   9.000000E+99

> <Gold.Chemscore.Hbonds>
donor molecule, donor type, donor heavy atom, donor atom, acceptor molecule, acceptor atom, score
      L1  H    18    36       P1  7949  0.05
      L1  H    18    37       P1  7948  0.03
      P1  H  7997  8010       L1    21  0.99
      P1  H 10752 10763       L1    19  0.12

> <Gold.Chemscore.Hbond.Weighted>
-6.2255

> <Gold.Chemscore.Metal.Weighted>
-0.0000

> <Gold.Chemscore.Lipo.Weighted>
-8.6209

> <Gold.Chemscore.Internal_Hbond.Weighted>
0.0000

> <Gold.Chemscore.DEClash.Weighted>
0.2506

> <Gold.Chemscore.DEInternal.Weighted>
4.2249

> <Gold.Chemscore.Rot.Weighted>
5.2071

> <Gold.Chemscore.Internal.Correction.Weighted>
   9.000000E+99

> <Gold.Protein.RotatedTorsions>
[ 6907 6896 6895 6894 ] final  116.97 input  -60.11 | X-H torsion
[ 7974 7965 7964 7962 ] final   70.15 input  175.53 | X-H torsion
[ 8008 7997 7996 7995 ] final   71.46 input   59.86 | X-H torsion
[ 10167 10162 10161 10158 ] final -126.73 input  -65.29 | X-H torsion
[ 10718 10713 10712 10709 ] final -170.67 input   66.30 | X-H torsion
[ 10763 10752 10751 10750 ] final   65.75 input  -60.55 | X-H torsion
[ 11005 11000 10999 10996 ] final  134.93 input  -57.11 | X-H torsion

> <Gold.Protein.ActiveResidues>
 VAL166  LYS551  ARG553  GLY616  TRP617  ASP618  TYR619  PRO620  LYS621  CYS622 
 ASP623  PHE694  ASN695  SER759  ASP760  ASP761  ALA762  ILE779  LEU786  VAL792 
 PHE793  MET794  SER795  GLU796  ALA797  LYS798  CYS799  TRP800  GLU811  SER814 

> <Gold.Protein.RotatedAtoms>
  152.4643  133.7889  159.6890 H   0  0  0  0  0  0  0  0  0  0  0  0  # atno 6907 bound_to 6896
  150.8600  133.7647  159.3002 H   0  0  0  0  0  0  0  0  0  0  0  0  # atno 6908 bound_to 6896
  151.5216  135.1070  159.9932 H   0  0  0  0  0  0  0  0  0  0  0  0  # atno 6909 bound_to 6896
  145.7817  139.2891  143.1261 H   0  0  0  0  0  0  0  0  0  0  0  0  # atno 7974 bound_to 7965
  155.7542  140.3488  155.5165 H   0  0  0  0  0  0  0  0  0  0  0  0  # atno 8008 bound_to 7997
  155.8976  140.1028  157.1394 H   0  0  0  0  0  0  0  0  0  0  0  0  # atno 8009 bound_to 7997
  154.4040  140.1292  156.4382 H   0  0  0  0  0  0  0  0  0  0  0  0  # atno 8010 bound_to 7997
  139.9684  143.5873  152.2421 H   0  0  0  0  0  0  0  0  0  0  0  0  # atno 10167 bound_to 10162
  156.7296  130.9301  151.3103 H   0  0  0  0  0  0  0  0  0  0  0  0  # atno 10718 bound_to 10713
  153.0110  135.5345  154.6716 H   0  0  0  0  0  0  0  0  0  0  0  0  # atno 10763 bound_to 10752
  154.5899  135.2858  155.0648 H   0  0  0  0  0  0  0  0  0  0  0  0  # atno 10764 bound_to 10752
  154.1745  135.6526  153.5070 H   0  0  0  0  0  0  0  0  0  0  0  0  # atno 10765 bound_to 10752
  139.9946  134.9502  156.9936 H   0  0  0  0  0  0  0  0  0  0  0  0  # atno 11005 bound_to 11000
  146.0067  140.8472  142.9991 LP  0  0  0  0  0  0  0  0  0  0  0  0  # atno 17320 bound_to 7965
  144.6795  140.2430  143.7341 LP  0  0  0  0  0  0  0  0  0  0  0  0  # atno 17321 bound_to 7965
  139.6500  144.7660  151.2167 LP  0  0  0  0  0  0  0  0  0  0  0  0  # atno 17342 bound_to 10162
  140.7530  143.6176  150.8544 LP  0  0  0  0  0  0  0  0  0  0  0  0  # atno 17343 bound_to 10162
  157.6864  130.9190  150.0398 LP  0  0  0  0  0  0  0  0  0  0  0  0  # atno 17370 bound_to 10713
  156.1538  130.3643  149.9399 LP  0  0  0  0  0  0  0  0  0  0  0  0  # atno 17371 bound_to 10713
  140.4842  134.1259  155.7222 LP  0  0  0  0  0  0  0  0  0  0  0  0  # atno 17394 bound_to 11000
  141.1594  133.8821  157.1889 LP  0  0  0  0  0  0  0  0  0  0  0  0  # atno 17395 bound_to 11000

$$$$
