AV-unprocessed.smi:1809|AV-procd|sdf|7312|dock8
  -GOLD-   22720 8573D 1   1.00000     0.00000
 Structure written by MMmdl.
 40 42  0  0  0  0  0  0  0  0  2 V2000
  151.2583  137.7585  158.6969 C   0  0  0  0  0  0  0  0  0  0  0  0
  150.9562  137.1179  157.3852 C   0  0  0  0  0  0  0  0  0  0  0  0
  151.7803  137.1956  156.3326 N   0  0  0  0  0  0  0  0  0  0  0  0
  151.2857  136.5234  155.2228 N   0  0  0  0  0  0  0  0  0  0  0  0
  150.1012  135.9571  155.4693 C   0  0  0  0  0  0  0  0  0  0  0  0
  149.4737  135.2403  154.4198 N   0  0  0  0  0  0  0  0  0  0  0  0
  149.0204  133.9765  154.4381 C   0  0  0  0  0  0  0  0  0  0  0  0
  149.1135  133.1981  155.3870 O   0  0  0  0  0  0  0  0  0  0  0  0
  148.4431  133.6504  153.2730 N   0  0  0  0  0  0  0  0  0  0  0  0
  147.8270  132.3615  152.9778 C   0  0  0  0  0  0  0  0  0  0  0  0
  146.3251  132.4965  152.6716 C   0  0  1  0  0  0  0  0  0  0  0  0
  145.6906  133.6620  153.4469 C   0  0  0  0  0  0  0  0  0  0  0  0
  144.2523  133.8214  153.1142 N   0  3  1  0  0  0  0  0  0  0  0  0
  143.7021  135.1024  153.6139 C   0  0  0  0  0  0  0  0  0  0  0  0
  143.6632  136.0677  152.4144 C   0  0  0  0  0  0  0  0  0  0  0  0
  144.1914  135.2649  151.2212 C   0  0  0  0  0  0  0  0  0  0  0  0
  143.9891  133.8151  151.6582 C   0  0  1  0  0  0  0  0  0  0  0  0
  144.8077  132.7563  150.8910 C   0  0  0  0  0  0  0  0  0  0  0  0
  146.1721  132.7728  151.2853 O   0  0  0  0  0  0  0  0  0  0  0  0
  149.4819  136.2005  157.1028 S   0  0  0  0  0  0  0  0  0  0  0  0
  152.2657  138.1765  158.6985 H   0  0  0  0  0  0  0  0  0  0  0  0
  151.1855  137.0221  159.4973 H   0  0  0  0  0  0  0  0  0  0  0  0
  150.5469  138.5611  158.8920 H   0  0  0  0  0  0  0  0  0  0  0  0
  149.3381  135.7576  153.5637 H   0  0  0  0  0  0  0  0  0  0  0  0
  148.4146  134.3470  152.5425 H   0  0  0  0  0  0  0  0  0  0  0  0
  148.3440  131.8955  152.1372 H   0  0  0  0  0  0  0  0  0  0  0  0
  147.9780  131.7043  153.8347 H   0  0  0  0  0  0  0  0  0  0  0  0
  145.8165  131.5651  152.9284 H   0  0  0  0  0  0  0  0  0  0  0  0
  145.7892  133.5000  154.5208 H   0  0  0  0  0  0  0  0  0  0  0  0
  146.2275  134.5839  153.2152 H   0  0  0  0  0  0  0  0  0  0  0  0
  142.6890  134.9258  153.9770 H   0  0  0  0  0  0  0  0  0  0  0  0
  144.2774  135.5040  154.4496 H   0  0  0  0  0  0  0  0  0  0  0  0
  142.6387  136.3939  152.2316 H   0  0  0  0  0  0  0  0  0  0  0  0
  144.2654  136.9599  152.5888 H   0  0  0  0  0  0  0  0  0  0  0  0
  143.6736  135.5014  150.2912 H   0  0  0  0  0  0  0  0  0  0  0  0
  145.2525  135.4717  151.0747 H   0  0  0  0  0  0  0  0  0  0  0  0
  142.9307  133.5827  151.5263 H   0  0  0  0  0  0  0  0  0  0  0  0
  144.3959  131.7610  151.0654 H   0  0  0  0  0  0  0  0  0  0  0  0
  144.7424  132.9338  149.8173 H   0  0  0  0  0  0  0  0  0  0  0  0
  143.7561  133.0510  153.5395 H   0  0  0  0  0  0  0  0  0  0  0  0
  1  2  1  0  0  0  0
  1 21  1  0  0  0  0
  1 22  1  0  0  0  0
  1 23  1  0  0  0  0
  2 20  1  0  0  0  0
  2  3  2  0  0  0  0
  3  4  1  0  0  0  0
  4  5  2  0  0  0  0
  5  6  1  0  0  0  0
  5 20  1  0  0  0  0
  6  7  1  0  0  0  0
  6 24  1  0  0  0  0
  7  8  2  0  0  0  0
  7  9  1  0  0  0  0
  9 10  1  0  0  0  0
  9 25  1  0  0  0  0
 10 11  1  0  0  0  0
 10 26  1  0  0  0  0
 10 27  1  0  0  0  0
 11 19  1  0  0  0  0
 11 12  1  0  0  0  0
 11 28  1  0  0  0  0
 12 13  1  0  0  0  0
 12 29  1  0  0  0  0
 12 30  1  0  0  0  0
 13 17  1  0  0  0  0
 13 14  1  0  0  0  0
 13 40  1  0  0  0  0
 14 15  1  0  0  0  0
 14 31  1  0  0  0  0
 14 32  1  0  0  0  0
 15 16  1  0  0  0  0
 15 33  1  0  0  0  0
 15 34  1  0  0  0  0
 16 17  1  0  0  0  0
 16 35  1  0  0  0  0
 16 36  1  0  0  0  0
 17 18  1  0  0  0  0
 17 37  1  0  0  0  0
 18 19  1  0  0  0  0
 18 38  1  0  0  0  0
 18 39  1  0  0  0  0
M  CHG  1  13   1
M  END
> <s_m_source_file>
AV-unprocessed.smi

> <i_m_source_file_index>
1809

> <i_lp_mmshare_version>
43012

> <i_f3d_flags>
0

> <s_epik_input>
W0NIM11jMW5uYyhzMSlbTkhdQyg9TylbTkhdW0NIMl1bQ0BIXShbQ0gyXTIpT1tDSDJdW0NAQEhdKE4yMylbQ0gyXVtDSDJdW0NIMl0z

> <s_epik_cmdline>
J2VwaWtfcHl0aG9uJywgJy1waCcsICc3LjAnLCAnLXRuJywgJzgnLCAnLW1hJywgJzIwMCcsICctbWV0YWxfYmluZGluZycsICctaW1hZScsICc8aW5maWxlLm1hZT4nLCAnLW9tYWUnLCAnPG91dGZpbGUubWFlPic=

> <r_lp_tautomer_probability>
1

> <r_epik_Ionization_Penalty>
0.112474

> <r_epik_Ionization_Penalty_Charging>
0.108916

> <r_epik_Ionization_Penalty_Neutral>
0.00355844

> <r_epik_State_Penalty>
0.0565397

> <r_epik_Charging_Adjusted_Penalty>
0.165456

> <i_epik_Tot_Q>
1

> <i_epik_Tot_abs_Q>
1

> <r_epik_Metal_State_Penalty>
0.422831

> <b_epik_Metal_Only>
0

> <s_lp_Force_Field>
OPLS_2005

> <r_lp_Energy>
33.5148

> <b_lp_Chiralities_Consistent>
1

> <s_lp_Variant>
AV-unprocessed.smi:1809-4

> <Gold.Version>
5.8.1

> <Gold.Id.Protein>
6NUR|6NUR_protein|mol2

> <Gold.PLP.Fitness>
39.6706

> <Gold.PLP.PLP>
-26.7859

> <Gold.PLP.part.hbond>
-4.0000

> <Gold.PLP.part.metal>
0.0000

> <Gold.PLP.part.buried>
-5.6215

> <Gold.PLP.part.nonpolar>
-17.3159

> <Gold.PLP.part.repulsive>
0.3074

> <Gold.PLP.ligand.clash>
0.0000

> <Gold.PLP.ligand.torsion>
0.8236

> <Gold.PLP.Chemscore.Hbond>
4.8432

> <Gold.PLP.Chemscore.CHOScore>
0.0000

> <Gold.PLP.Chemscore.Metal>
0.0000

> <Gold.Chemscore.Hbonds>
donor molecule, donor type, donor heavy atom, donor atom, acceptor molecule, acceptor atom, score
      L1  H     6    24       P1  7948  1.00
      L1  H     9    25       P1  7948  0.69
      L1  H    13    40       P1 10957  1.69
      P1  H 10752 10763       L1     4  1.00

> <Gold.PLP.Chemscore.Internal.Correction>
0.0023

> <Gold.Rescore>
     Score         DG    S(hbond)    S(metal)    S(lipo)     H(rot)  DE(clash)    DE(int)     intcor
     15.44     -16.44       2.90        0.00      40.23       1.34       0.00       1.00       ----

> <Gold.Chemscore.Fitness>
15.4407

> <Gold.Chemscore.DG>
-16.4428

> <Gold.Chemscore.ZeroCoef>
-5.4800

> <Gold.Chemscore.Hbond>
2.8993

> <Gold.Chemscore.Metal>
0.0000

> <Gold.Chemscore.Lipo>
40.2329

> <Gold.Chemscore.Internal_Hbond>
0.0000

> <Gold.Chemscore.DEClash>
0.0000

> <Gold.Chemscore.DEInternal>
1.0021

> <Gold.Chemscore.Rot>
1.3391

> <Gold.Chemscore.Internal.Correction>
   9.000000E+99

> <Gold.Chemscore.Hbonds>
donor molecule, donor type, donor heavy atom, donor atom, acceptor molecule, acceptor atom, score
      L1  H     6    24       P1  7948  0.50
      L1  H     9    25       P1  7948  0.07
      L1  H    13    40       P1 10957  0.74
      P1  H 10752 10763       L1     4  0.38

> <Gold.Chemscore.Hbond.Weighted>
-9.6836

> <Gold.Chemscore.Metal.Weighted>
-0.0000

> <Gold.Chemscore.Lipo.Weighted>
-4.7073

> <Gold.Chemscore.Internal_Hbond.Weighted>
0.0000

> <Gold.Chemscore.DEClash.Weighted>
0.0000

> <Gold.Chemscore.DEInternal.Weighted>
1.0021

> <Gold.Chemscore.Rot.Weighted>
3.4281

> <Gold.Chemscore.Internal.Correction.Weighted>
   9.000000E+99

> <Gold.Protein.RotatedTorsions>
[ 6907 6896 6895 6894 ] final -161.89 input  -60.11 | X-H torsion
[ 7974 7965 7964 7962 ] final   34.85 input  175.53 | X-H torsion
[ 8008 7997 7996 7995 ] final -177.77 input   59.86 | X-H torsion
[ 10167 10162 10161 10158 ] final -145.76 input  -65.29 | X-H torsion
[ 10718 10713 10712 10709 ] final  -17.97 input   66.30 | X-H torsion
[ 10763 10752 10751 10750 ] final   52.90 input  -60.55 | X-H torsion
[ 11005 11000 10999 10996 ] final -152.51 input  -57.11 | X-H torsion

> <Gold.Protein.ActiveResidues>
 VAL166  LYS551  ARG553  GLY616  TRP617  ASP618  TYR619  PRO620  LYS621  CYS622 
 ASP623  PHE694  ASN695  SER759  ASP760  ASP761  ALA762  ILE779  LEU786  VAL792 
 PHE793  MET794  SER795  GLU796  ALA797  LYS798  CYS799  TRP800  GLU811  SER814 

> <Gold.Protein.RotatedAtoms>
  151.3718  133.3852  159.2700 H   0  0  0  0  0  0  0  0  0  0  0  0  # atno 6907 bound_to 6896
  150.9645  134.9029  159.7761 H   0  0  0  0  0  0  0  0  0  0  0  0  # atno 6908 bound_to 6896
  152.5162  134.3678  159.9359 H   0  0  0  0  0  0  0  0  0  0  0  0  # atno 6909 bound_to 6896
  146.1324  139.6216  142.9218 H   0  0  0  0  0  0  0  0  0  0  0  0  # atno 7974 bound_to 7965
  156.0109  140.1240  157.0455 H   0  0  0  0  0  0  0  0  0  0  0  0  # atno 8008 bound_to 7997
  154.4275  140.1088  156.5897 H   0  0  0  0  0  0  0  0  0  0  0  0  # atno 8009 bound_to 7997
  155.6081  140.3471  155.4616 H   0  0  0  0  0  0  0  0  0  0  0  0  # atno 8010 bound_to 7997
  139.7776  143.8147  152.2634 H   0  0  0  0  0  0  0  0  0  0  0  0  # atno 10167 bound_to 10162
  156.5661  130.4737  149.6384 H   0  0  0  0  0  0  0  0  0  0  0  0  # atno 10718 bound_to 10713
  152.9791  135.5797  154.4654 H   0  0  0  0  0  0  0  0  0  0  0  0  # atno 10763 bound_to 10752
  154.4224  135.2772  155.1968 H   0  0  0  0  0  0  0  0  0  0  0  0  # atno 10764 bound_to 10752
  154.3712  135.6167  153.5795 H   0  0  0  0  0  0  0  0  0  0  0  0  # atno 10765 bound_to 10752
  140.7181  134.3758  157.5188 H   0  0  0  0  0  0  0  0  0  0  0  0  # atno 11005 bound_to 11000
  145.5231  141.0431  143.2424 LP  0  0  0  0  0  0  0  0  0  0  0  0  # atno 17320 bound_to 7965
  144.7704  139.6748  143.7197 LP  0  0  0  0  0  0  0  0  0  0  0  0  # atno 17321 bound_to 7965
  139.8200  144.7299  150.9584 LP  0  0  0  0  0  0  0  0  0  0  0  0  # atno 17342 bound_to 10162
  140.7817  143.4168  151.0905 LP  0  0  0  0  0  0  0  0  0  0  0  0  # atno 17343 bound_to 10162
  156.2756  130.7042  151.1851 LP  0  0  0  0  0  0  0  0  0  0  0  0  # atno 17370 bound_to 10713
  157.7358  131.0568  150.5448 LP  0  0  0  0  0  0  0  0  0  0  0  0  # atno 17371 bound_to 10713
  139.8855  134.8936  156.2640 LP  0  0  0  0  0  0  0  0  0  0  0  0  # atno 17394 bound_to 11000
  141.0027  133.7142  156.0986 LP  0  0  0  0  0  0  0  0  0  0  0  0  # atno 17395 bound_to 11000

$$$$
