#       Name:                AV-unprocessed.smi:249
#       Creating user name   scv26
#       Creation time:       Thu Mar 26 21:04:11 2020


#       File generated by GOLD software.
#

@<TRIPOS>MOLECULE
AV-unprocessed.smi:249
    72    75     1
SMALL
NO_CHARGES


@<TRIPOS>ATOM
      1 ****        -4.9435  -0.4108   5.8246 C.3            1 S1                 0.0000
      2 ****        -3.5747  -0.6500   5.1660 C.3            1 S1                 0.0000
      3 ****        -3.6215  -0.6589   3.6747 N.4            1 S1                 1.0000
      4 ****        -4.0583   0.6579   3.1264 C.3            1 S1                 0.0000
      5 ****        -4.1869   0.6380   1.5952 C.3            1 S1                 0.0000
      6 ****        -2.8592   0.2490   0.9243 C.3            1 S1                 0.0000
      7 ****        -1.8205   1.2770   1.1026 N.3            1 S1                 0.0000
      8 ****        -2.1239   2.6236   0.6280 C.3            1 S1                 0.0000
      9 ****        -0.5738   0.9157   0.7256 C.ar           1 S1                 0.0000
     10 ****         0.3891   0.9179   1.6797 N.ar           1 S1                 0.0000
     11 ****         1.6382   0.5604   1.3656 C.ar           1 S1                 0.0000
     12 ****         2.1250   0.1768   0.1831 N.ar           1 S1                 0.0000
     13 ****         1.1571   0.1824  -0.7783 C.ar           1 S1                 0.0000
     14 ****        -0.2083   0.5372  -0.5962 C.ar           1 S1                 0.0000
     15 ****        -0.8942   0.4272  -1.7995 N.2            1 S1                 0.0000
     16 ****         0.0164   0.0331  -2.6479 C.2            1 S1                 0.0000
     17 ****         1.2759  -0.1370  -2.1193 N.pl3          1 S1                 0.0000
     18 ****         2.4650  -0.5624  -2.8348 C.3            1 S1                 0.0000
     19 ****         3.1152   0.5637  -3.6857 C.3            1 S1                 0.0000
     20 ****         3.4395   1.8415  -2.8727 C.3            1 S1                 0.0000
     21 ****         2.2914   2.6338  -2.6469 O.3            1 S1                 0.0000
     22 ****         4.3740   0.0969  -4.4646 C.3            1 S1                 0.0000
     23 ****         5.5822  -0.3283  -3.6316 C.3            1 S1                 0.0000
     24 ****         6.2166  -1.4598  -4.4474 C.3            1 S1                 0.0000
     25 ****         5.5284  -1.4620  -5.6912 O.3            1 S1                 0.0000
     26 ****         4.1902  -1.0740  -5.4317 C.3            1 S1                 0.0000
     27 ****        -2.4720  -1.1328   1.4947 C.3            1 S1                 0.0000
     28 ****        -2.3506  -1.1348   3.0365 C.3            1 S1                 0.0000
     29 ****        -1.9350  -2.5485   3.4936 C.3            1 S1                 0.0000
     30 ****        -4.8819  -0.5824   6.8993 H              1 S1                 0.0000
     31 ****        -5.6994  -1.0887   5.4271 H              1 S1                 0.0000
     32 ****        -5.2953   0.6117   5.6904 H              1 S1                 0.0000
     33 ****        -2.8530   0.0920   5.5105 H              1 S1                 0.0000
     34 ****        -3.2315  -1.6126   5.5380 H              1 S1                 0.0000
     35 ****        -5.0304   0.9352   3.5306 H              1 S1                 0.0000
     36 ****        -3.3569   1.4338   3.4374 H              1 S1                 0.0000
     37 ****        -4.9574  -0.0805   1.3121 H              1 S1                 0.0000
     38 ****        -4.5441   1.6024   1.2339 H              1 S1                 0.0000
     39 ****        -3.0393   0.1447  -0.1461 H              1 S1                 0.0000
     40 ****        -1.2263   3.2382   0.5376 H              1 S1                 0.0000
     41 ****        -2.7912   3.1280   1.3267 H              1 S1                 0.0000
     42 ****        -2.6107   2.5892  -0.3474 H              1 S1                 0.0000
     43 ****         2.3497   0.5844   2.1778 H              1 S1                 0.0000
     44 ****        -0.2048  -0.1410  -3.6908 H              1 S1                 0.0000
     45 ****         3.1716  -0.9590  -2.1069 H              1 S1                 0.0000
     46 ****         2.1720  -1.4016  -3.4639 H              1 S1                 0.0000
     47 ****         2.3885   0.8475  -4.4489 H              1 S1                 0.0000
     48 ****         3.9038   1.5874  -1.9192 H              1 S1                 0.0000
     49 ****         4.1509   2.4687  -3.4108 H              1 S1                 0.0000
     50 ****         2.5461   3.3967  -2.1504 H              1 S1                 0.0000
     51 ****         4.7021   0.9347  -5.0826 H              1 S1                 0.0000
     52 ****         6.2725   0.5061  -3.5013 H              1 S1                 0.0000
     53 ****         5.3142  -0.6868  -2.6385 H              1 S1                 0.0000
     54 ****         7.2880  -1.3209  -4.5935 H              1 S1                 0.0000
     55 ****         6.0633  -2.4195  -3.9519 H              1 S1                 0.0000
     56 ****         3.6641  -1.9167  -4.9837 H              1 S1                 0.0000
     57 ****         3.6703  -0.7878  -6.3464 H              1 S1                 0.0000
     58 ****        -3.2323  -1.8577   1.1993 H              1 S1                 0.0000
     59 ****        -1.5486  -1.4939   1.0408 H              1 S1                 0.0000
     60 ****        -1.5548  -0.4456   3.3223 H              1 S1                 0.0000
     61 ****        -1.1016  -2.9207   2.8967 H              1 S1                 0.0000
     62 ****        -2.7554  -3.2592   3.3890 H              1 S1                 0.0000
     63 ****        -1.5930  -2.5683   4.5277 H              1 S1                 0.0000
     64 ****        -4.3324  -1.3276   3.4147 H              1 S1                 0.0000
     65 ****        -1.8328   1.3362   2.1007 LP             1 S1                 0.0000
     66 ****         0.1654   1.1864   2.6166 LP             1 S1                 0.0000
     67 ****         3.0776  -0.0817   0.0225 LP             1 S1                 0.0000
     68 ****        -1.8619   0.6081  -1.9752 LP             1 S1                 0.0000
     69 ****         1.6142   2.1074  -2.1328 LP             1 S1                 0.0000
     70 ****         1.8993   2.9165  -3.5223 LP             1 S1                 0.0000
     71 ****         5.5478  -2.3782  -6.0917 LP             1 S1                 0.0000
     72 ****         5.9569  -0.8139  -6.3208 LP             1 S1                 0.0000
@<TRIPOS>BOND
    1    1    2 1     
    2    1   30 1     
    3    1   31 1     
    4    1   32 1     
    5    2    3 1     
    6    2   33 1     
    7    2   34 1     
    8    3   28 1     
    9    3    4 1     
   10    3   64 1     
   11    4    5 1     
   12    4   35 1     
   13    4   36 1     
   14    5    6 1     
   15    5   37 1     
   16    5   38 1     
   17    6    7 1     
   18    6   27 1     
   19    6   39 1     
   20    7    8 1     
   21    7    9 1     
   22    8   40 1     
   23    8   41 1     
   24    8   42 1     
   25    9   14 ar    
   26    9   10 ar    
   27   10   11 ar    
   28   11   12 ar    
   29   11   43 1     
   30   12   13 ar    
   31   13   17 1     
   32   13   14 ar    
   33   14   15 1     
   34   15   16 2     
   35   16   17 1     
   36   16   44 1     
   37   17   18 1     
   38   18   19 1     
   39   18   45 1     
   40   18   46 1     
   41   19   20 1     
   42   19   22 1     
   43   19   47 1     
   44   20   21 1     
   45   20   48 1     
   46   20   49 1     
   47   21   50 1     
   48   22   26 1     
   49   22   23 1     
   50   22   51 1     
   51   23   24 1     
   52   23   52 1     
   53   23   53 1     
   54   24   25 1     
   55   24   54 1     
   56   24   55 1     
   57   25   26 1     
   58   26   56 1     
   59   26   57 1     
   60   27   28 1     
   61   27   58 1     
   62   27   59 1     
   63   28   29 1     
   64   28   60 1     
   65   29   61 1     
   66   29   62 1     
   67   29   63 1     
   68    7   65 1     
   69   10   66 1     
   70   12   67 1     
   71   15   68 1     
   72   21   69 1     
   73   21   70 1     
   74   25   71 1     
   75   25   72 1     
@<TRIPOS>SUBSTRUCTURE
      1 S1             1
@<TRIPOS>SET
LONE_PAIRS      STATIC     ATOMS    <user>   **** ""
8 65 66 67 68 69 70 71 72
DONOR_HYDROGENS      STATIC     ATOMS    <user>   **** ""
2 64 50
ATOM$BLUE        STATIC     ATOMS    COLORGROUP SYSTEM
8 65 66 67 68 69 70 71 72
ATOM$RED        STATIC     ATOMS    COLORGROUP SYSTEM
2 64 50
