AV-unprocessed.smi:1692|AV-procd|sdf|6781|dock5
  -GOLD-   22720 7543D 1   1.00000     0.00000
 Structure written by MMmdl.
 46 47  0  0  0  0  0  0  0  0  2 V2000
  144.8520  135.1490  151.0555 C   0  0  0  0  0  0  0  0  0  0  0  0
  145.8034  135.7462  152.0981 C   0  0  1  0  0  0  0  0  0  0  0  0
  145.9117  137.2761  151.9720 C   0  0  0  0  0  0  0  0  0  0  0  0
  146.7714  137.8259  153.0460 N   0  3  1  0  0  0  0  0  0  0  0  0
  146.9902  139.2869  152.9025 C   0  0  0  0  0  0  0  0  0  0  0  0
  147.9225  139.8562  153.9902 C   0  0  0  0  0  0  0  0  0  0  0  0
  148.4578  141.2668  153.6815 C   0  0  0  0  0  0  0  0  0  0  0  0
  148.8854  141.9821  154.8810 N   0  0  0  0  0  0  0  0  0  0  0  0
  149.9323  141.6504  155.6512 C   0  0  0  0  0  0  0  0  0  0  0  0
  150.6419  140.6661  155.4415 O   0  0  0  0  0  0  0  0  0  0  0  0
  150.0890  142.5214  156.6635 N   0  0  0  0  0  0  0  0  0  0  0  0
  151.0603  142.4960  157.6999 C   0  0  0  0  0  0  0  0  0  0  0  0
  151.4582  143.7649  158.1787 C   0  0  0  0  0  0  0  0  0  0  0  0
  152.4183  143.8481  159.2057 C   0  0  0  0  0  0  0  0  0  0  0  0
  152.9545  142.6586  159.7300 C   0  0  0  0  0  0  0  0  0  0  0  0
  152.5022  141.4366  159.1990 C   0  0  0  0  0  0  0  0  0  0  0  0
  151.5823  141.3546  158.2144 N   0  0  0  0  0  0  0  0  0  0  0  0
  146.2437  137.4321  154.3757 C   0  0  0  0  0  0  0  0  0  0  0  0
  146.0834  135.9024  154.4804 C   0  0  2  0  0  0  0  0  0  0  0  0
  147.4194  135.1521  154.6266 C   0  0  0  0  0  0  0  0  0  0  0  0
  145.3041  135.4112  153.3900 O   0  0  0  0  0  0  0  0  0  0  0  0
  145.1929  135.3649  150.0427 H   0  0  0  0  0  0  0  0  0  0  0  0
  143.8444  135.5517  151.1631 H   0  0  0  0  0  0  0  0  0  0  0  0
  144.7900  134.0656  151.1608 H   0  0  0  0  0  0  0  0  0  0  0  0
  146.7857  135.2960  151.9540 H   0  0  0  0  0  0  0  0  0  0  0  0
  146.3290  137.5313  150.9968 H   0  0  0  0  0  0  0  0  0  0  0  0
  144.9228  137.7347  152.0268 H   0  0  0  0  0  0  0  0  0  0  0  0
  147.4463  139.4703  151.9298 H   0  0  0  0  0  0  0  0  0  0  0  0
  146.0328  139.8100  152.8979 H   0  0  0  0  0  0  0  0  0  0  0  0
  147.3918  139.9063  154.9402 H   0  0  0  0  0  0  0  0  0  0  0  0
  148.7605  139.1759  154.1483 H   0  0  0  0  0  0  0  0  0  0  0  0
  149.2628  141.2170  152.9461 H   0  0  0  0  0  0  0  0  0  0  0  0
  147.6661  141.8562  153.2185 H   0  0  0  0  0  0  0  0  0  0  0  0
  148.3565  142.8055  155.1295 H   0  0  0  0  0  0  0  0  0  0  0  0
  149.4387  143.2922  156.6984 H   0  0  0  0  0  0  0  0  0  0  0  0
  151.0359  144.6691  157.7647 H   0  0  0  0  0  0  0  0  0  0  0  0
  152.7370  144.8081  159.5836 H   0  0  0  0  0  0  0  0  0  0  0  0
  153.6925  142.6817  160.5183 H   0  0  0  0  0  0  0  0  0  0  0  0
  152.8886  140.5003  159.5739 H   0  0  0  0  0  0  0  0  0  0  0  0
  146.8944  137.7851  155.1750 H   0  0  0  0  0  0  0  0  0  0  0  0
  145.2747  137.9103  154.5276 H   0  0  0  0  0  0  0  0  0  0  0  0
  145.5060  135.6915  155.3809 H   0  0  0  0  0  0  0  0  0  0  0  0
  147.9313  135.4511  155.5416 H   0  0  0  0  0  0  0  0  0  0  0  0
  148.0989  135.3485  153.7979 H   0  0  0  0  0  0  0  0  0  0  0  0
  147.2563  134.0753  154.6780 H   0  0  0  0  0  0  0  0  0  0  0  0
  147.6743  137.3860  152.9393 H   0  0  0  0  0  0  0  0  0  0  0  0
  1  2  1  0  0  0  0
  1 22  1  0  0  0  0
  1 23  1  0  0  0  0
  1 24  1  0  0  0  0
  2 21  1  0  0  0  0
  2  3  1  0  0  0  0
  2 25  1  0  0  0  0
  3  4  1  0  0  0  0
  3 26  1  0  0  0  0
  3 27  1  0  0  0  0
  4  5  1  0  0  0  0
  4 18  1  0  0  0  0
  4 46  1  0  0  0  0
  5  6  1  0  0  0  0
  5 28  1  0  0  0  0
  5 29  1  0  0  0  0
  6  7  1  0  0  0  0
  6 30  1  0  0  0  0
  6 31  1  0  0  0  0
  7  8  1  0  0  0  0
  7 32  1  0  0  0  0
  7 33  1  0  0  0  0
  8  9  1  0  0  0  0
  8 34  1  0  0  0  0
  9 10  2  0  0  0  0
  9 11  1  0  0  0  0
 11 12  1  0  0  0  0
 11 35  1  0  0  0  0
 12 17  1  0  0  0  0
 12 13  2  0  0  0  0
 13 14  1  0  0  0  0
 13 36  1  0  0  0  0
 14 15  2  0  0  0  0
 14 37  1  0  0  0  0
 15 16  1  0  0  0  0
 15 38  1  0  0  0  0
 16 17  2  0  0  0  0
 16 39  1  0  0  0  0
 18 19  1  0  0  0  0
 18 40  1  0  0  0  0
 18 41  1  0  0  0  0
 19 20  1  0  0  0  0
 19 21  1  0  0  0  0
 19 42  1  0  0  0  0
 20 43  1  0  0  0  0
 20 44  1  0  0  0  0
 20 45  1  0  0  0  0
M  CHG  1   4   1
M  END
> <s_m_source_file>
AV-unprocessed.smi

> <i_m_source_file_index>
1692

> <i_lp_mmshare_version>
43012

> <i_f3d_flags>
0

> <s_epik_input>
W0NIM11bQ0BASF0xW0NIMl1OKFtDSDJdW0NASF0oTzEpW0NIM10pW0NIMl1bQ0gyXVtDSDJdW05IXUMoPU8pW05IXWMyW2NIXVtjSF1bY0hdW2NIXW4y

> <s_epik_cmdline>
J2VwaWtfcHl0aG9uJywgJy1waCcsICc3LjAnLCAnLXRuJywgJzgnLCAnLW1hJywgJzIwMCcsICctbWV0YWxfYmluZGluZycsICctaW1hZScsICc8aW5maWxlLm1hZT4nLCAnLW9tYWUnLCAnPG91dGZpbGUubWFlPic=

> <r_epik_Ionization_Penalty>
0.270538

> <r_epik_Ionization_Penalty_Charging>
0.270496

> <r_epik_Ionization_Penalty_Neutral>
4.22978e-05

> <r_epik_State_Penalty>
0.262618

> <r_epik_Charging_Adjusted_Penalty>
0.533114

> <i_epik_Tot_Q>
1

> <i_epik_Tot_abs_Q>
1

> <r_epik_Metal_State_Penalty>
0.262618

> <b_epik_Metal_Only>
0

> <s_lp_Force_Field>
OPLS_2005

> <r_lp_Energy>
21.4343

> <b_lp_Chiralities_Consistent>
1

> <s_lp_Variant>
AV-unprocessed.smi:1692-4

> <Gold.Version>
5.8.1

> <Gold.Id.Protein>
6NUR|6NUR_protein|mol2

> <Gold.PLP.Fitness>
49.5404

> <Gold.PLP.PLP>
-36.1683

> <Gold.PLP.part.hbond>
-4.0000

> <Gold.PLP.part.metal>
0.0000

> <Gold.PLP.part.buried>
0.6029

> <Gold.PLP.part.nonpolar>
-32.1814

> <Gold.PLP.part.repulsive>
0.4277

> <Gold.PLP.ligand.clash>
0.0000

> <Gold.PLP.ligand.torsion>
0.4006

> <Gold.PLP.Chemscore.Hbond>
4.7119

> <Gold.PLP.Chemscore.CHOScore>
0.0000

> <Gold.PLP.Chemscore.Metal>
0.0000

> <Gold.Chemscore.Hbonds>
donor molecule, donor type, donor heavy atom, donor atom, acceptor molecule, acceptor atom, score
      L1  H     4    46       P1  7948  1.98
      L1  H     8    34       P1  8028  0.68
      L1  H    11    35       P1  8028  0.80
      P1  H  7989  7998       L1    10  0.55

> <Gold.PLP.Chemscore.Internal.Correction>
0.0377

> <Gold.Rescore>
     Score         DG    S(hbond)    S(metal)    S(lipo)     H(rot)  DE(clash)    DE(int)     intcor
     19.76     -22.44       3.28        0.00      90.34       1.78       1.24       1.44       ----

> <Gold.Chemscore.Fitness>
19.7561

> <Gold.Chemscore.DG>
-22.4400

> <Gold.Chemscore.ZeroCoef>
-5.4800

> <Gold.Chemscore.Hbond>
3.2786

> <Gold.Chemscore.Metal>
0.0000

> <Gold.Chemscore.Lipo>
90.3410

> <Gold.Chemscore.Internal_Hbond>
0.0000

> <Gold.Chemscore.DEClash>
1.2416

> <Gold.Chemscore.DEInternal>
1.4423

> <Gold.Chemscore.Rot>
1.7814

> <Gold.Chemscore.Internal.Correction>
   9.000000E+99

> <Gold.Chemscore.Hbonds>
donor molecule, donor type, donor heavy atom, donor atom, acceptor molecule, acceptor atom, score
      L1  H     4    46       P1  7948  0.88
      L1  H     8    34       P1  8028  0.63
      L1  H    11    35       P1  8028  0.79
      P1  H  7989  7998       L1    10  0.39

> <Gold.Chemscore.Hbond.Weighted>
-10.9504

> <Gold.Chemscore.Metal.Weighted>
-0.0000

> <Gold.Chemscore.Lipo.Weighted>
-10.5699

> <Gold.Chemscore.Internal_Hbond.Weighted>
0.0000

> <Gold.Chemscore.DEClash.Weighted>
1.2416

> <Gold.Chemscore.DEInternal.Weighted>
1.4423

> <Gold.Chemscore.Rot.Weighted>
4.5603

> <Gold.Chemscore.Internal.Correction.Weighted>
   9.000000E+99

> <Gold.Protein.RotatedTorsions>
[ 6907 6896 6895 6894 ] final -157.33 input  -60.11 | X-H torsion
[ 7974 7965 7964 7962 ] final   48.73 input  175.53 | X-H torsion
[ 8008 7997 7996 7995 ] final -174.47 input   59.86 | X-H torsion
[ 10167 10162 10161 10158 ] final   16.97 input  -65.29 | X-H torsion
[ 10718 10713 10712 10709 ] final  -15.76 input   66.30 | X-H torsion
[ 10763 10752 10751 10750 ] final  107.17 input  -60.55 | X-H torsion
[ 11005 11000 10999 10996 ] final  -12.09 input  -57.11 | X-H torsion

> <Gold.Protein.ActiveResidues>
 VAL166  LYS551  ARG553  GLY616  TRP617  ASP618  TYR619  PRO620  LYS621  CYS622 
 ASP623  PHE694  ASN695  SER759  ASP760  ASP761  ALA762  ILE779  LEU786  VAL792 
 PHE793  MET794  SER795  GLU796  ALA797  LYS798  CYS799  TRP800  GLU811  SER814 

> <Gold.Protein.RotatedAtoms>
  151.3012  133.4121  159.2639 H   0  0  0  0  0  0  0  0  0  0  0  0  # atno 6907 bound_to 6896
  151.0193  134.9457  159.8061 H   0  0  0  0  0  0  0  0  0  0  0  0  # atno 6908 bound_to 6896
  152.5320  134.2976  159.9119 H   0  0  0  0  0  0  0  0  0  0  0  0  # atno 6909 bound_to 6896
  146.0177  139.4615  142.9917 H   0  0  0  0  0  0  0  0  0  0  0  0  # atno 7974 bound_to 7965
  155.9705  140.1162  157.0816 H   0  0  0  0  0  0  0  0  0  0  0  0  # atno 8008 bound_to 7997
  154.4155  140.1164  156.5367 H   0  0  0  0  0  0  0  0  0  0  0  0  # atno 8009 bound_to 7997
  155.6603  140.3473  155.4782 H   0  0  0  0  0  0  0  0  0  0  0  0  # atno 8010 bound_to 7997
  140.5759  143.9073  150.6750 H   0  0  0  0  0  0  0  0  0  0  0  0  # atno 10167 bound_to 10162
  156.5972  130.4814  149.6255 H   0  0  0  0  0  0  0  0  0  0  0  0  # atno 10718 bound_to 10713
  153.4031  135.3853  155.2001 H   0  0  0  0  0  0  0  0  0  0  0  0  # atno 10763 bound_to 10752
  154.8731  135.3776  154.4594 H   0  0  0  0  0  0  0  0  0  0  0  0  # atno 10764 bound_to 10752
  153.5094  135.7087  153.5851 H   0  0  0  0  0  0  0  0  0  0  0  0  # atno 10765 bound_to 10752
  140.7621  133.8506  155.9134 H   0  0  0  0  0  0  0  0  0  0  0  0  # atno 11005 bound_to 11000
  145.7243  141.0064  143.1386 LP  0  0  0  0  0  0  0  0  0  0  0  0  # atno 17320 bound_to 7965
  144.6977  139.8908  143.7453 LP  0  0  0  0  0  0  0  0  0  0  0  0  # atno 17321 bound_to 7965
  140.2560  143.3558  152.1364 LP  0  0  0  0  0  0  0  0  0  0  0  0  # atno 17342 bound_to 10162
  139.5142  144.6945  151.5668 LP  0  0  0  0  0  0  0  0  0  0  0  0  # atno 17343 bound_to 10162
  156.2500  130.6901  151.1636 LP  0  0  0  0  0  0  0  0  0  0  0  0  # atno 17370 bound_to 10713
  157.7289  131.0628  150.5800 LP  0  0  0  0  0  0  0  0  0  0  0  0  # atno 17371 bound_to 10713
  140.9653  134.1602  157.4621 LP  0  0  0  0  0  0  0  0  0  0  0  0  # atno 17394 bound_to 11000
  139.8769  134.9959  156.5769 LP  0  0  0  0  0  0  0  0  0  0  0  0  # atno 17395 bound_to 11000

$$$$
