#       Name:                AV-unprocessed.smi:2867
#       Creating user name   scv26
#       Creation time:       Fri Mar 27 15:48:57 2020


#       File generated by GOLD software.
#

@<TRIPOS>MOLECULE
AV-unprocessed.smi:2867
    43    45     1
SMALL
NO_CHARGES


@<TRIPOS>ATOM
      1 ****        -2.6962   2.9665  -0.5554 C.3            1 S1                 0.0000
      2 ****        -2.2108   1.7565  -0.0026 O.3            1 S1                 0.0000
      3 ****        -2.5575   0.6215  -0.7803 C.3            1 S1                 0.0000
      4 ****        -1.9807  -0.6410  -0.1253 C.3            1 S1                 0.0000
      5 ****        -0.5186  -0.5653   0.0248 N.pl3          1 S1                 0.0000
      6 ****         0.2599  -0.0790   1.0331 C.2            1 S1                 0.0000
      7 ****        -0.2048   0.5128   2.2966 C.ar           1 S1                 0.0000
      8 ****         0.2037   1.8137   2.6636 C.ar           1 S1                 0.0000
      9 ****        -0.2375   2.3936   3.8688 C.ar           1 S1                 0.0000
     10 ****        -1.0906   1.6731   4.7250 C.ar           1 S1                 0.0000
     11 ****        -1.4991   0.3732   4.3736 C.ar           1 S1                 0.0000
     12 ****        -2.3178  -0.3251   5.1954 F              1 S1                 0.0000
     13 ****        -1.0555  -0.2024   3.1675 C.ar           1 S1                 0.0000
     14 ****         1.5646  -0.1884   0.6668 N.pl3          1 S1                 1.0000
     15 ****         1.6308  -0.7640  -0.6031 C.ar           1 S1                 0.0000
     16 ****         2.7269  -1.0789  -1.3981 C.ar           1 S1                 0.0000
     17 ****         2.4453  -1.6488  -2.6573 C.ar           1 S1                 0.0000
     18 ****         3.8086  -2.0738  -3.7366 S.o2           1 S1                 0.0000
     19 ****         4.0357  -3.5725  -3.1869 N.pl3          1 S1                -1.0000
     20 ****         3.2829  -2.0401  -5.1100 O.2            1 S1                 0.0000
     21 ****         4.9122  -1.1647  -3.3903 O.2            1 S1                 0.0000
     22 ****         1.1224  -1.8864  -3.0875 C.ar           1 S1                 0.0000
     23 ****         0.0196  -1.5630  -2.2698 C.ar           1 S1                 0.0000
     24 ****         0.3016  -1.0027  -1.0235 C.ar           1 S1                 0.0000
     25 ****        -2.4027   3.8016   0.0806 H              1 S1                 0.0000
     26 ****        -3.7848   2.9610  -0.6234 H              1 S1                 0.0000
     27 ****        -2.2829   3.1385  -1.5501 H              1 S1                 0.0000
     28 ****        -3.6426   0.5365  -0.8551 H              1 S1                 0.0000
     29 ****        -2.1665   0.7282  -1.7936 H              1 S1                 0.0000
     30 ****        -2.4193  -0.7799   0.8613 H              1 S1                 0.0000
     31 ****        -2.2378  -1.5321  -0.6980 H              1 S1                 0.0000
     32 ****         0.8549   2.3775   2.0114 H              1 S1                 0.0000
     33 ****         0.0780   3.3914   4.1358 H              1 S1                 0.0000
     34 ****        -1.4298   2.1159   5.6500 H              1 S1                 0.0000
     35 ****        -1.3698  -1.2040   2.9128 H              1 S1                 0.0000
     36 ****         3.7424  -0.9004  -1.0768 H              1 S1                 0.0000
     37 ****         4.8132  -3.9851  -3.7158 H              1 S1                 0.0000
     38 ****         0.9477  -2.3265  -4.0584 H              1 S1                 0.0000
     39 ****        -0.9891  -1.7466  -2.6080 H              1 S1                 0.0000
     40 ****         2.3448   0.1085   1.2385 H              1 S1                 0.0000
     41 ****        -2.5958   1.6462   0.9137 LP             1 S1                 0.0000
     42 ****        -1.2141   1.8100   0.0588 LP             1 S1                 0.0000
     43 ****         3.5131  -4.0199  -2.4611 LP             1 S1                 0.0000
@<TRIPOS>BOND
    1    1    2 1     
    2    1   25 1     
    3    1   26 1     
    4    1   27 1     
    5    2    3 1     
    6    3    4 1     
    7    3   28 1     
    8    3   29 1     
    9    4    5 1     
   10    4   30 1     
   11    4   31 1     
   12    5   24 1     
   13    5    6 1     
   14    6    7 1     
   15    6   14 2     
   16    7   13 ar    
   17    7    8 ar    
   18    8    9 ar    
   19    8   32 1     
   20    9   10 ar    
   21    9   33 1     
   22   10   11 ar    
   23   10   34 1     
   24   11   12 1     
   25   11   13 ar    
   26   13   35 1     
   27   14   15 1     
   28   14   40 1     
   29   15   24 ar    
   30   15   16 ar    
   31   16   17 ar    
   32   16   36 1     
   33   17   18 1     
   34   17   22 ar    
   35   18   19 1     
   36   18   20 2     
   37   18   21 2     
   38   19   37 1     
   39   22   23 ar    
   40   22   38 1     
   41   23   24 ar    
   42   23   39 1     
   43    2   41 1     
   44    2   42 1     
   45   19   43 1     
@<TRIPOS>SUBSTRUCTURE
      1 S1             1
@<TRIPOS>SET
LONE_PAIRS      STATIC     ATOMS    <user>   **** ""
5 41 42 43 20 21
DONOR_HYDROGENS      STATIC     ATOMS    <user>   **** ""
2 40 37
ATOM$BLUE        STATIC     ATOMS    COLORGROUP SYSTEM
5 41 42 43 20 21
ATOM$RED        STATIC     ATOMS    COLORGROUP SYSTEM
2 40 37
