AV-unprocessed.smi:3249|AV-procd|sdf|12420|dock9
  -GOLD-   2272018303D 1   1.00000     0.00000
 Structure written by MMmdl.
 44 45  0  0  0  0  0  0  0  0  2 V2000
  148.6229  136.2561  156.5046 C   0  0  0  0  0  0  0  0  0  0  0  0
  149.0078  137.6341  156.0491 C   0  0  0  0  0  0  0  0  0  0  0  0
  150.3016  138.2282  156.0567 C   0  0  0  0  0  0  0  0  0  0  0  0
  150.3014  139.4648  155.5873 N   0  0  0  0  0  0  0  0  0  0  0  0
  149.0117  139.7052  155.2615 N   0  0  0  0  0  0  0  0  0  0  0  0
  148.6234  140.9960  154.7072 C   0  0  1  0  0  0  0  0  0  0  0  0
  147.7046  140.7881  153.4882 C   0  0  0  0  0  0  0  0  0  0  0  0
  148.0009  141.9300  155.7803 C   0  0  1  0  0  0  0  0  0  0  0  0
  147.0601  141.1927  156.7506 C   0  0  0  0  0  0  0  0  0  0  0  0
  149.0649  142.5979  156.5631 N   0  3  0  0  0  0  0  0  0  0  0  0
  149.9377  141.6850  157.3305 C   0  0  0  0  0  0  0  0  0  0  0  0
  150.7757  142.4450  158.3696 C   0  0  2  0  0  0  0  0  0  0  0  0
  151.7965  143.4070  157.7265 C   0  0  0  0  0  0  0  0  0  0  0  0
  152.6713  144.0626  158.8014 C   0  0  0  0  0  0  0  0  0  0  0  0
  153.2985  142.9820  159.6881 C   0  0  0  0  0  0  0  0  0  0  0  0
  152.2127  142.0376  160.2277 C   0  0  0  0  0  0  0  0  0  0  0  0
  151.4763  141.4758  159.1452 O   0  0  0  0  0  0  0  0  0  0  0  0
  148.2100  138.6162  155.5343 C   0  0  0  0  0  0  0  0  0  0  0  0
  149.4969  135.6423  156.7240 H   0  0  0  0  0  0  0  0  0  0  0  0
  148.0429  135.7287  155.7471 H   0  0  0  0  0  0  0  0  0  0  0  0
  148.0172  136.2873  157.4102 H   0  0  0  0  0  0  0  0  0  0  0  0
  151.2359  137.7994  156.3886 H   0  0  0  0  0  0  0  0  0  0  0  0
  149.5403  141.4661  154.3479 H   0  0  0  0  0  0  0  0  0  0  0  0
  147.5147  141.7250  152.9647 H   0  0  0  0  0  0  0  0  0  0  0  0
  146.7409  140.3694  153.7797 H   0  0  0  0  0  0  0  0  0  0  0  0
  148.1584  140.1053  152.7692 H   0  0  0  0  0  0  0  0  0  0  0  0
  147.4031  142.6895  155.2726 H   0  0  0  0  0  0  0  0  0  0  0  0
  146.1980  140.7673  156.2367 H   0  0  0  0  0  0  0  0  0  0  0  0
  146.6732  141.8721  157.5108 H   0  0  0  0  0  0  0  0  0  0  0  0
  147.5765  140.3802  157.2627 H   0  0  0  0  0  0  0  0  0  0  0  0
  149.6449  143.1225  155.9237 H   0  0  0  0  0  0  0  0  0  0  0  0
  149.3106  140.9517  157.8393 H   0  0  0  0  0  0  0  0  0  0  0  0
  150.5852  141.1316  156.6490 H   0  0  0  0  0  0  0  0  0  0  0  0
  150.1043  142.9988  159.0288 H   0  0  0  0  0  0  0  0  0  0  0  0
  152.4298  142.8594  157.0274 H   0  0  0  0  0  0  0  0  0  0  0  0
  151.2856  144.1771  157.1482 H   0  0  0  0  0  0  0  0  0  0  0  0
  153.4475  144.6745  158.3408 H   0  0  0  0  0  0  0  0  0  0  0  0
  152.0643  144.7320  159.4120 H   0  0  0  0  0  0  0  0  0  0  0  0
  154.0250  142.4092  159.1103 H   0  0  0  0  0  0  0  0  0  0  0  0
  153.8453  143.4404  160.5125 H   0  0  0  0  0  0  0  0  0  0  0  0
  152.6695  141.2296  160.7993 H   0  0  0  0  0  0  0  0  0  0  0  0
  151.5393  142.5648  160.9052 H   0  0  0  0  0  0  0  0  0  0  0  0
  147.1473  138.6284  155.3410 H   0  0  0  0  0  0  0  0  0  0  0  0
  148.6289  143.2451  157.2043 H   0  0  0  0  0  0  0  0  0  0  0  0
  1  2  1  0  0  0  0
  1 19  1  0  0  0  0
  1 20  1  0  0  0  0
  1 21  1  0  0  0  0
  2 18  2  0  0  0  0
  2  3  1  0  0  0  0
  3  4  2  0  0  0  0
  3 22  1  0  0  0  0
  4  5  1  0  0  0  0
  5  6  1  0  0  0  0
  5 18  1  0  0  0  0
  6  7  1  0  0  0  0
  6  8  1  0  0  0  0
  6 23  1  0  0  0  0
  7 24  1  0  0  0  0
  7 25  1  0  0  0  0
  7 26  1  0  0  0  0
  8  9  1  0  0  0  0
  8 10  1  0  0  0  0
  8 27  1  0  0  0  0
  9 28  1  0  0  0  0
  9 29  1  0  0  0  0
  9 30  1  0  0  0  0
 10 11  1  0  0  0  0
 10 31  1  0  0  0  0
 10 44  1  0  0  0  0
 11 12  1  0  0  0  0
 11 32  1  0  0  0  0
 11 33  1  0  0  0  0
 12 17  1  0  0  0  0
 12 13  1  0  0  0  0
 12 34  1  0  0  0  0
 13 14  1  0  0  0  0
 13 35  1  0  0  0  0
 13 36  1  0  0  0  0
 14 15  1  0  0  0  0
 14 37  1  0  0  0  0
 14 38  1  0  0  0  0
 15 16  1  0  0  0  0
 15 39  1  0  0  0  0
 15 40  1  0  0  0  0
 16 17  1  0  0  0  0
 16 41  1  0  0  0  0
 16 42  1  0  0  0  0
 18 43  1  0  0  0  0
M  CHG  1  10   1
M  END
> <s_m_source_file>
AV-unprocessed.smi

> <i_m_source_file_index>
3249

> <i_lp_mmshare_version>
43012

> <i_f3d_flags>
0

> <s_epik_input>
W0NIM11jMVtjSF1ubihbY0hdMSlbQ0BIXShbQ0gzXSlbQ0BIXShbQ0gzXSlbTkhdW0NIMl1bQ0BASF0yW0NIMl1bQ0gyXVtDSDJdW0NIMl1PMg==

> <s_epik_cmdline>
J2VwaWtfcHl0aG9uJywgJy1waCcsICc3LjAnLCAnLXRuJywgJzgnLCAnLW1hJywgJzIwMCcsICctbWV0YWxfYmluZGluZycsICctaW1hZScsICc8aW5maWxlLm1hZT4nLCAnLW9tYWUnLCAnPG91dGZpbGUubWFlPic=

> <r_lp_tautomer_probability>
1

> <r_epik_Ionization_Penalty>
0.00659207

> <r_epik_Ionization_Penalty_Charging>
0.00656881

> <r_epik_Ionization_Penalty_Neutral>
2.32662e-05

> <r_epik_State_Penalty>
0.0048654

> <r_epik_Charging_Adjusted_Penalty>
0.0114342

> <i_epik_Tot_Q>
1

> <i_epik_Tot_abs_Q>
1

> <r_epik_Metal_State_Penalty>
-0

> <b_epik_Metal_Only>
0

> <s_lp_Force_Field>
OPLS_2005

> <r_lp_Energy>
19.2424

> <b_lp_Chiralities_Consistent>
1

> <s_lp_Variant>
AV-unprocessed.smi:3249-4

> <Gold.Version>
5.8.1

> <Gold.Id.Protein>
6NUR|6NUR_protein|mol2

> <Gold.PLP.Fitness>
47.6800

> <Gold.PLP.PLP>
-40.6048

> <Gold.PLP.part.hbond>
-1.9462

> <Gold.PLP.part.metal>
0.0000

> <Gold.PLP.part.buried>
-3.9327

> <Gold.PLP.part.nonpolar>
-34.7800

> <Gold.PLP.part.repulsive>
0.0858

> <Gold.PLP.ligand.clash>
0.0000

> <Gold.PLP.ligand.torsion>
1.0012

> <Gold.PLP.Chemscore.Hbond>
2.9913

> <Gold.PLP.Chemscore.CHOScore>
0.0000

> <Gold.PLP.Chemscore.Metal>
0.0000

> <Gold.Chemscore.Hbonds>
donor molecule, donor type, donor heavy atom, donor atom, acceptor molecule, acceptor atom, score
      L1  H    10    31       P1  8028  0.35

> <Gold.PLP.Chemscore.Internal.Correction>
0.1040

> <Gold.Rescore>
     Score         DG    S(hbond)    S(metal)    S(lipo)     H(rot)  DE(clash)    DE(int)     intcor
     16.73     -18.60       1.41        0.00     105.35       1.53       0.06       1.81       ----

> <Gold.Chemscore.Fitness>
16.7310

> <Gold.Chemscore.DG>
-18.5979

> <Gold.Chemscore.ZeroCoef>
-5.4800

> <Gold.Chemscore.Hbond>
1.4125

> <Gold.Chemscore.Metal>
0.0000

> <Gold.Chemscore.Lipo>
105.3453

> <Gold.Chemscore.Internal_Hbond>
0.0000

> <Gold.Chemscore.DEClash>
0.0581

> <Gold.Chemscore.DEInternal>
1.8088

> <Gold.Chemscore.Rot>
1.5333

> <Gold.Chemscore.Internal.Correction>
   9.000000E+99

> <Gold.Chemscore.Hbonds>
donor molecule, donor type, donor heavy atom, donor atom, acceptor molecule, acceptor atom, score
      L1  H    10    31       P1  8028  0.19

> <Gold.Chemscore.Hbond.Weighted>
-4.7177

> <Gold.Chemscore.Metal.Weighted>
-0.0000

> <Gold.Chemscore.Lipo.Weighted>
-12.3254

> <Gold.Chemscore.Internal_Hbond.Weighted>
0.0000

> <Gold.Chemscore.DEClash.Weighted>
0.0581

> <Gold.Chemscore.DEInternal.Weighted>
1.8088

> <Gold.Chemscore.Rot.Weighted>
3.9252

> <Gold.Chemscore.Internal.Correction.Weighted>
   9.000000E+99

> <Gold.Protein.RotatedTorsions>
[ 6907 6896 6895 6894 ] final  -83.99 input  -60.11 | X-H torsion
[ 7974 7965 7964 7962 ] final  101.22 input  175.53 | X-H torsion
[ 8008 7997 7996 7995 ] final  103.23 input   59.86 | X-H torsion
[ 10167 10162 10161 10158 ] final  134.80 input  -65.29 | X-H torsion
[ 10718 10713 10712 10709 ] final  -11.46 input   66.30 | X-H torsion
[ 10763 10752 10751 10750 ] final  -30.23 input  -60.55 | X-H torsion
[ 11005 11000 10999 10996 ] final  122.03 input  -57.11 | X-H torsion

> <Gold.Protein.ActiveResidues>
 VAL166  LYS551  ARG553  GLY616  TRP617  ASP618  TYR619  PRO620  LYS621  CYS622 
 ASP623  PHE694  ASN695  SER759  ASP760  ASP761  ALA762  ILE779  LEU786  VAL792 
 PHE793  MET794  SER795  GLU796  ALA797  LYS798  CYS799  TRP800  GLU811  SER814 

> <Gold.Protein.RotatedAtoms>
  150.6880  134.3426  159.4874 H   0  0  0  0  0  0  0  0  0  0  0  0  # atno 6907 bound_to 6896
  152.1278  134.9155  160.0569 H   0  0  0  0  0  0  0  0  0  0  0  0  # atno 6908 bound_to 6896
  152.0337  133.3913  159.4344 H   0  0  0  0  0  0  0  0  0  0  0  0  # atno 6909 bound_to 6896
  145.3752  139.2390  143.3433 H   0  0  0  0  0  0  0  0  0  0  0  0  # atno 7974 bound_to 7965
  156.1465  140.3168  155.8579 H   0  0  0  0  0  0  0  0  0  0  0  0  # atno 8008 bound_to 7997
  155.4054  140.0502  157.3051 H   0  0  0  0  0  0  0  0  0  0  0  0  # atno 8009 bound_to 7997
  154.5021  140.2133  155.9338 H   0  0  0  0  0  0  0  0  0  0  0  0  # atno 8010 bound_to 7997
  139.5242  144.6549  151.5192 H   0  0  0  0  0  0  0  0  0  0  0  0  # atno 10167 bound_to 10162
  156.6587  130.4975  149.6038 H   0  0  0  0  0  0  0  0  0  0  0  0  # atno 10718 bound_to 10713
  153.7775  135.6907  153.4894 H   0  0  0  0  0  0  0  0  0  0  0  0  # atno 10763 bound_to 10752
  153.1833  135.4498  155.0055 H   0  0  0  0  0  0  0  0  0  0  0  0  # atno 10764 bound_to 10752
  154.8094  135.3371  154.7280 H   0  0  0  0  0  0  0  0  0  0  0  0  # atno 10765 bound_to 10752
  139.9251  134.9640  156.8048 H   0  0  0  0  0  0  0  0  0  0  0  0  # atno 11005 bound_to 11000
  146.2867  140.4410  142.8755 LP  0  0  0  0  0  0  0  0  0  0  0  0  # atno 17320 bound_to 7965
  144.8547  140.7053  143.6145 LP  0  0  0  0  0  0  0  0  0  0  0  0  # atno 17321 bound_to 7965
  140.6370  143.8964  150.6657 LP  0  0  0  0  0  0  0  0  0  0  0  0  # atno 17342 bound_to 10162
  140.2286  143.3753  152.1584 LP  0  0  0  0  0  0  0  0  0  0  0  0  # atno 17343 bound_to 10162
  156.2028  130.6630  151.1186 LP  0  0  0  0  0  0  0  0  0  0  0  0  # atno 17370 bound_to 10713
  157.7117  131.0731  150.6477 LP  0  0  0  0  0  0  0  0  0  0  0  0  # atno 17371 bound_to 10713
  140.6360  133.9862  155.7684 LP  0  0  0  0  0  0  0  0  0  0  0  0  # atno 17394 bound_to 11000
  141.0802  134.0074  157.3397 LP  0  0  0  0  0  0  0  0  0  0  0  0  # atno 17395 bound_to 11000

$$$$
