AV-unprocessed.smi:1034|AV-procd|sdf|4514|dock6
  -GOLD-   22720 2523D 1   1.00000     0.00000
 Structure written by MMmdl.
 39 40  0  0  0  0  0  0  0  0  1 V2000
  148.2422  132.7485  154.7272 O   0  0  0  0  0  0  0  0  0  0  0  0
  148.3712  133.6602  153.9097 C   0  0  0  0  0  0  0  0  0  0  0  0
  149.1786  134.7134  154.1000 N   0  0  0  0  0  0  0  0  0  0  0  0
  150.0199  134.9234  155.2722 C   0  0  0  0  0  0  0  0  0  0  0  0
  149.7841  136.3079  155.8981 C   0  0  0  0  0  0  0  0  0  0  0  0
  151.0538  136.7053  157.1812 S   0  0  0  0  0  0  0  0  0  0  0  0
  150.3614  136.9181  158.4614 O   0  0  0  0  0  0  0  0  0  0  0  0
  152.1414  135.7181  157.0943 O   0  0  0  0  0  0  0  0  0  0  0  0
  151.7027  138.2424  156.6767 N   0  0  0  0  0  0  0  0  0  0  0  0
  151.4586  139.4639  157.4732 C   0  0  0  0  0  0  0  0  0  0  0  0
  150.3292  140.3360  156.9012 C   0  0  0  0  0  0  0  0  0  0  0  0
  150.6929  140.8707  155.2101 S   0  0  0  0  0  0  0  0  0  0  0  0
  150.9726  139.2317  154.4960 C   0  0  0  0  0  0  0  0  0  0  0  0
  152.0616  138.4615  155.2619 C   0  0  0  0  0  0  0  0  0  0  0  0
  147.7383  133.7415  152.7260 N   0  0  0  0  0  0  0  0  0  0  0  0
  146.8193  132.8206  152.1563 C   0  0  0  0  0  0  0  0  0  0  0  0
  146.3131  133.1882  150.8890 C   0  0  0  0  0  0  0  0  0  0  0  0
  145.3976  132.3403  150.2363 C   0  0  0  0  0  0  0  0  0  0  0  0
  145.0095  131.1460  150.8691 C   0  0  0  0  0  0  0  0  0  0  0  0
  145.5589  130.8559  152.1316 C   0  0  0  0  0  0  0  0  0  0  0  0
  146.4376  131.6664  152.7585 N   0  0  0  0  0  0  0  0  0  0  0  0
  149.2234  135.4158  153.3762 H   0  0  0  0  0  0  0  0  0  0  0  0
  149.8447  134.1361  156.0074 H   0  0  0  0  0  0  0  0  0  0  0  0
  151.0581  134.8243  154.9572 H   0  0  0  0  0  0  0  0  0  0  0  0
  149.7717  137.0954  155.1494 H   0  0  0  0  0  0  0  0  0  0  0  0
  148.8113  136.3224  156.3901 H   0  0  0  0  0  0  0  0  0  0  0  0
  151.2366  139.2017  158.5067 H   0  0  0  0  0  0  0  0  0  0  0  0
  152.3819  140.0437  157.5048 H   0  0  0  0  0  0  0  0  0  0  0  0
  149.3777  139.8082  156.9180 H   0  0  0  0  0  0  0  0  0  0  0  0
  150.1996  141.2245  157.5193 H   0  0  0  0  0  0  0  0  0  0  0  0
  150.0316  138.6843  154.4937 H   0  0  0  0  0  0  0  0  0  0  0  0
  151.2665  139.3550  153.4537 H   0  0  0  0  0  0  0  0  0  0  0  0
  153.0003  139.0151  155.2214 H   0  0  0  0  0  0  0  0  0  0  0  0
  152.2519  137.5047  154.7760 H   0  0  0  0  0  0  0  0  0  0  0  0
  147.9455  134.5522  152.1618 H   0  0  0  0  0  0  0  0  0  0  0  0
  146.6222  134.1090  150.4159 H   0  0  0  0  0  0  0  0  0  0  0  0
  145.0012  132.6021  149.2665 H   0  0  0  0  0  0  0  0  0  0  0  0
  144.3099  130.4701  150.4001 H   0  0  0  0  0  0  0  0  0  0  0  0
  145.2869  129.9492  152.6514 H   0  0  0  0  0  0  0  0  0  0  0  0
  1  2  2  0  0  0  0
  2  3  1  0  0  0  0
  2 15  1  0  0  0  0
  3  4  1  0  0  0  0
  3 22  1  0  0  0  0
  4  5  1  0  0  0  0
  4 23  1  0  0  0  0
  4 24  1  0  0  0  0
  5  6  1  0  0  0  0
  5 25  1  0  0  0  0
  5 26  1  0  0  0  0
  6  7  2  0  0  0  0
  6  8  2  0  0  0  0
  6  9  1  0  0  0  0
  9 14  1  0  0  0  0
  9 10  1  0  0  0  0
 10 11  1  0  0  0  0
 10 27  1  0  0  0  0
 10 28  1  0  0  0  0
 11 12  1  0  0  0  0
 11 29  1  0  0  0  0
 11 30  1  0  0  0  0
 12 13  1  0  0  0  0
 13 14  1  0  0  0  0
 13 31  1  0  0  0  0
 13 32  1  0  0  0  0
 14 33  1  0  0  0  0
 14 34  1  0  0  0  0
 15 16  1  0  0  0  0
 15 35  1  0  0  0  0
 16 21  1  0  0  0  0
 16 17  2  0  0  0  0
 17 18  1  0  0  0  0
 17 36  1  0  0  0  0
 18 19  2  0  0  0  0
 18 37  1  0  0  0  0
 19 20  1  0  0  0  0
 19 38  1  0  0  0  0
 20 21  2  0  0  0  0
 20 39  1  0  0  0  0
M  END
> <s_m_source_file>
AV-unprocessed.smi

> <i_m_source_file_index>
1034

> <i_lp_mmshare_version>
43012

> <i_f3d_flags>
0

> <s_epik_input>
bjFbY0hdW2NIXVtjSF1bY0hdYzFbTkhdQyg9TylbTkhdW0NIMl1bQ0gyXVMoPU8pKD1PKU4yW0NIMl1bQ0gyXVNbQ0gyXVtDSDJdMg==

> <s_epik_cmdline>
J2VwaWtfcHl0aG9uJywgJy1waCcsICc3LjAnLCAnLXRuJywgJzgnLCAnLW1hJywgJzIwMCcsICctbWV0YWxfYmluZGluZycsICctaW1hZScsICc8aW5maWxlLm1hZT4nLCAnLW9tYWUnLCAnPG91dGZpbGUubWFlPic=

> <r_lp_tautomer_probability>
1

> <r_epik_Ionization_Penalty>
3.90463e-05

> <r_epik_Ionization_Penalty_Charging>
0

> <r_epik_Ionization_Penalty_Neutral>
3.90463e-05

> <r_epik_State_Penalty>
-0

> <r_epik_Charging_Adjusted_Penalty>
0

> <i_epik_Tot_Q>
0

> <i_epik_Tot_abs_Q>
0

> <r_epik_Metal_State_Penalty>
-0

> <b_epik_Metal_Only>
0

> <s_lp_Force_Field>
OPLS_2005

> <r_lp_Energy>
-0.604615

> <b_lp_Chiralities_Consistent>
1

> <s_lp_Variant>
AV-unprocessed.smi:1034-1

> <Gold.Version>
5.8.1

> <Gold.Id.Protein>
6NUR|6NUR_protein|mol2

> <Gold.PLP.Fitness>
46.4119

> <Gold.PLP.PLP>
-35.4330

> <Gold.PLP.part.hbond>
-4.0000

> <Gold.PLP.part.metal>
0.0000

> <Gold.PLP.part.buried>
-3.7921

> <Gold.PLP.part.nonpolar>
-27.1853

> <Gold.PLP.part.repulsive>
0.1953

> <Gold.PLP.ligand.clash>
0.0000

> <Gold.PLP.ligand.torsion>
1.2215

> <Gold.PLP.Chemscore.Hbond>
3.7660

> <Gold.PLP.Chemscore.CHOScore>
0.0000

> <Gold.PLP.Chemscore.Metal>
0.0000

> <Gold.Chemscore.Hbonds>
donor molecule, donor type, donor heavy atom, donor atom, acceptor molecule, acceptor atom, score
      L1  H     3    22       P1  7948  1.00
      L1  H    15    35       P1  7948  1.00
      P1  H 10752 10764       L1     8  0.50

> <Gold.PLP.Chemscore.Internal.Correction>
2.1237

> <Gold.Rescore>
     Score         DG    S(hbond)    S(metal)    S(lipo)     H(rot)  DE(clash)    DE(int)     intcor
     17.79     -20.69       3.44        0.00      67.65       1.63       0.07       2.83       ----

> <Gold.Chemscore.Fitness>
17.7903

> <Gold.Chemscore.DG>
-20.6949

> <Gold.Chemscore.ZeroCoef>
-5.4800

> <Gold.Chemscore.Hbond>
3.4359

> <Gold.Chemscore.Metal>
0.0000

> <Gold.Chemscore.Lipo>
67.6500

> <Gold.Chemscore.Internal_Hbond>
0.0000

> <Gold.Chemscore.DEClash>
0.0746

> <Gold.Chemscore.DEInternal>
2.8301

> <Gold.Chemscore.Rot>
1.6313

> <Gold.Chemscore.Internal.Correction>
   9.000000E+99

> <Gold.Chemscore.Hbonds>
donor molecule, donor type, donor heavy atom, donor atom, acceptor molecule, acceptor atom, score
      L1  H     3    22       P1  7948  0.30
      L1  H    15    35       P1  7948  0.28
      P1  H  6896  6909       L1     7  0.02
      P1  H 10752 10764       L1     8  0.49

> <Gold.Chemscore.Hbond.Weighted>
-11.4760

> <Gold.Chemscore.Metal.Weighted>
-0.0000

> <Gold.Chemscore.Lipo.Weighted>
-7.9151

> <Gold.Chemscore.Internal_Hbond.Weighted>
0.0000

> <Gold.Chemscore.DEClash.Weighted>
0.0746

> <Gold.Chemscore.DEInternal.Weighted>
2.8301

> <Gold.Chemscore.Rot.Weighted>
4.1761

> <Gold.Chemscore.Internal.Correction.Weighted>
   9.000000E+99

> <Gold.Protein.RotatedTorsions>
[ 6907 6896 6895 6894 ] final   71.26 input  -60.11 | X-H torsion
[ 7974 7965 7964 7962 ] final  108.18 input  175.53 | X-H torsion
[ 8008 7997 7996 7995 ] final  -21.99 input   59.86 | X-H torsion
[ 10167 10162 10161 10158 ] final  -59.53 input  -65.29 | X-H torsion
[ 10718 10713 10712 10709 ] final   27.03 input   66.30 | X-H torsion
[ 10763 10752 10751 10750 ] final  -16.44 input  -60.55 | X-H torsion
[ 11005 11000 10999 10996 ] final -156.14 input  -57.11 | X-H torsion

> <Gold.Protein.ActiveResidues>
 VAL166  LYS551  ARG553  GLY616  TRP617  ASP618  TYR619  PRO620  LYS621  CYS622 
 ASP623  PHE694  ASN695  SER759  ASP760  ASP761  ALA762  ILE779  LEU786  VAL792 
 PHE793  MET794  SER795  GLU796  ALA797  LYS798  CYS799  TRP800  GLU811  SER814 

> <Gold.Protein.RotatedAtoms>
  152.4799  134.4746  159.9646 H   0  0  0  0  0  0  0  0  0  0  0  0  # atno 6907 bound_to 6896
  151.4754  133.3553  159.2838 H   0  0  0  0  0  0  0  0  0  0  0  0  # atno 6908 bound_to 6896
  150.8864  134.8289  159.7323 H   0  0  0  0  0  0  0  0  0  0  0  0  # atno 6909 bound_to 6896
  145.2840  139.2623  143.3900 H   0  0  0  0  0  0  0  0  0  0  0  0  # atno 7974 bound_to 7965
  154.4671  140.2020  156.0090 H   0  0  0  0  0  0  0  0  0  0  0  0  # atno 8008 bound_to 7997
  156.0946  140.3253  155.7832 H   0  0  0  0  0  0  0  0  0  0  0  0  # atno 8009 bound_to 7997
  155.4899  140.0545  157.2946 H   0  0  0  0  0  0  0  0  0  0  0  0  # atno 8010 bound_to 7997
  140.6129  143.2393  151.5666 H   0  0  0  0  0  0  0  0  0  0  0  0  # atno 10167 bound_to 10162
  157.2147  130.6950  149.6244 H   0  0  0  0  0  0  0  0  0  0  0  0  # atno 10718 bound_to 10713
  153.5587  135.7010  153.5557 H   0  0  0  0  0  0  0  0  0  0  0  0  # atno 10763 bound_to 10752
  153.3449  135.4011  155.1601 H   0  0  0  0  0  0  0  0  0  0  0  0  # atno 10764 bound_to 10752
  154.8651  135.3751  154.5102 H   0  0  0  0  0  0  0  0  0  0  0  0  # atno 10765 bound_to 10752
  140.6788  134.4167  157.5228 H   0  0  0  0  0  0  0  0  0  0  0  0  # atno 11005 bound_to 11000
  146.3207  140.3315  142.8641 LP  0  0  0  0  0  0  0  0  0  0  0  0  # atno 17320 bound_to 7965
  144.9229  140.7888  143.5737 LP  0  0  0  0  0  0  0  0  0  0  0  0  # atno 17321 bound_to 7965
  139.5375  144.2739  152.1283 LP  0  0  0  0  0  0  0  0  0  0  0  0  # atno 17342 bound_to 10162
  140.1942  144.4722  150.6463 LP  0  0  0  0  0  0  0  0  0  0  0  0  # atno 17343 bound_to 10162
  155.9687  130.4539  150.5831 LP  0  0  0  0  0  0  0  0  0  0  0  0  # atno 17370 bound_to 10713
  157.3637  131.0754  151.1616 LP  0  0  0  0  0  0  0  0  0  0  0  0  # atno 17371 bound_to 10713
  139.8958  134.8674  156.2114 LP  0  0  0  0  0  0  0  0  0  0  0  0  # atno 17394 bound_to 11000
  141.0334  133.6976  156.1470 LP  0  0  0  0  0  0  0  0  0  0  0  0  # atno 17395 bound_to 11000

$$$$
