AV-unprocessed.smi:3158|AV-procd|sdf|12043|dock10
  -GOLD-   2272017463D 1   1.00000     0.00000
 Structure written by MMmdl.
 40 40  0  0  0  0  0  0  0  0  2 V2000
  150.0669  135.4725  155.0821 C   0  0  0  0  0  0  0  0  0  0  0  0
  151.0572  136.5821  155.4659 C   0  0  0  0  0  0  0  0  0  0  0  0
  151.2896  137.6366  154.3638 C   0  0  2  0  0  0  0  0  0  0  0  0
  152.1192  138.8187  154.8837 C   0  0  0  0  0  0  0  0  0  0  0  0
  150.0210  138.1411  153.8398 N   0  0  0  0  0  0  0  0  0  0  0  0
  149.2560  139.0846  154.4114 C   0  0  0  0  0  0  0  0  0  0  0  0
  149.5464  139.6466  155.4684 O   0  0  0  0  0  0  0  0  0  0  0  0
  147.9603  139.4551  153.6777 C   0  0  1  0  0  0  0  0  0  0  0  0
  147.8918  140.9752  153.4681 C   0  0  0  0  0  0  0  0  0  0  0  0
  147.8845  138.7629  152.3730 N   0  3  0  0  0  0  0  0  0  0  0  0
  146.5221  138.6454  151.8080 C   0  0  0  0  0  0  0  0  0  0  0  0
  145.6254  137.7681  152.6964 C   0  0  0  0  0  0  0  0  0  0  0  0
  145.5248  136.4065  152.1988 N   0  0  0  0  0  0  0  0  0  0  0  0
  145.0452  135.9709  150.9812 C   0  0  0  0  0  0  0  0  0  0  0  0
  145.1498  134.6094  150.9668 C   0  0  0  0  0  0  0  0  0  0  0  0
  145.7009  134.2983  152.2413 C   0  0  0  0  0  0  0  0  0  0  0  0
  145.9161  135.3751  152.9790 N   0  0  0  0  0  0  0  0  0  0  0  0
  150.0160  134.7133  155.8628 H   0  0  0  0  0  0  0  0  0  0  0  0
  150.3663  134.9785  154.1573 H   0  0  0  0  0  0  0  0  0  0  0  0
  149.0597  135.8643  154.9430 H   0  0  0  0  0  0  0  0  0  0  0  0
  150.7137  137.0697  156.3791 H   0  0  0  0  0  0  0  0  0  0  0  0
  152.0118  136.1167  155.7149 H   0  0  0  0  0  0  0  0  0  0  0  0
  151.8633  137.1709  153.5604 H   0  0  0  0  0  0  0  0  0  0  0  0
  153.0919  138.4857  155.2468 H   0  0  0  0  0  0  0  0  0  0  0  0
  151.6150  139.3287  155.7052 H   0  0  0  0  0  0  0  0  0  0  0  0
  152.2975  139.5510  154.0955 H   0  0  0  0  0  0  0  0  0  0  0  0
  149.7008  137.7356  152.9721 H   0  0  0  0  0  0  0  0  0  0  0  0
  147.1001  139.1551  154.2792 H   0  0  0  0  0  0  0  0  0  0  0  0
  147.9381  141.5088  154.4183 H   0  0  0  0  0  0  0  0  0  0  0  0
  146.9595  141.2608  152.9802 H   0  0  0  0  0  0  0  0  0  0  0  0
  148.7134  141.3331  152.8457 H   0  0  0  0  0  0  0  0  0  0  0  0
  148.4596  139.2551  151.7049 H   0  0  0  0  0  0  0  0  0  0  0  0
  146.0688  139.6307  151.6925 H   0  0  0  0  0  0  0  0  0  0  0  0
  146.5952  138.2205  150.8067 H   0  0  0  0  0  0  0  0  0  0  0  0
  146.0249  137.7307  153.7105 H   0  0  0  0  0  0  0  0  0  0  0  0
  144.6238  138.1943  152.7674 H   0  0  0  0  0  0  0  0  0  0  0  0
  144.6778  136.6570  150.2318 H   0  0  0  0  0  0  0  0  0  0  0  0
  144.8719  133.9371  150.1685 H   0  0  0  0  0  0  0  0  0  0  0  0
  145.9467  133.3293  152.6508 H   0  0  0  0  0  0  0  0  0  0  0  0
  148.2617  137.8344  152.5032 H   0  0  0  0  0  0  0  0  0  0  0  0
  1  2  1  0  0  0  0
  1 18  1  0  0  0  0
  1 19  1  0  0  0  0
  1 20  1  0  0  0  0
  2  3  1  0  0  0  0
  2 21  1  0  0  0  0
  2 22  1  0  0  0  0
  3  4  1  0  0  0  0
  3  5  1  0  0  0  0
  3 23  1  0  0  0  0
  4 24  1  0  0  0  0
  4 25  1  0  0  0  0
  4 26  1  0  0  0  0
  5  6  1  0  0  0  0
  5 27  1  0  0  0  0
  6  7  2  0  0  0  0
  6  8  1  0  0  0  0
  8  9  1  0  0  0  0
  8 10  1  0  0  0  0
  8 28  1  0  0  0  0
  9 29  1  0  0  0  0
  9 30  1  0  0  0  0
  9 31  1  0  0  0  0
 10 11  1  0  0  0  0
 10 32  1  0  0  0  0
 10 40  1  0  0  0  0
 11 12  1  0  0  0  0
 11 33  1  0  0  0  0
 11 34  1  0  0  0  0
 12 13  1  0  0  0  0
 12 35  1  0  0  0  0
 12 36  1  0  0  0  0
 13 17  1  0  0  0  0
 13 14  1  0  0  0  0
 14 15  2  0  0  0  0
 14 37  1  0  0  0  0
 15 16  1  0  0  0  0
 15 38  1  0  0  0  0
 16 17  2  0  0  0  0
 16 39  1  0  0  0  0
M  CHG  1  10   1
M  END
> <s_m_source_file>
AV-unprocessed.smi

> <i_m_source_file_index>
3158

> <i_lp_mmshare_version>
43012

> <i_f3d_flags>
0

> <s_epik_input>
W0NIM11bQ0gyXVtDQEhdKFtDSDNdKVtOSF1DKD1PKVtDQEhdKFtDSDNdKVtOSF1bQ0gyXVtDSDJdbjFbY0hdW2NIXVtjSF1uMQ==

> <s_epik_cmdline>
J2VwaWtfcHl0aG9uJywgJy1waCcsICc3LjAnLCAnLXRuJywgJzgnLCAnLW1hJywgJzIwMCcsICctbWV0YWxfYmluZGluZycsICctaW1hZScsICc8aW5maWxlLm1hZT4nLCAnLW9tYWUnLCAnPG91dGZpbGUubWFlPic=

> <r_lp_tautomer_probability>
1

> <r_epik_Ionization_Penalty>
0.20724

> <r_epik_Ionization_Penalty_Charging>
0.207237

> <r_epik_Ionization_Penalty_Neutral>
3.33806e-06

> <r_epik_State_Penalty>
0.197234

> <r_epik_Charging_Adjusted_Penalty>
0.404471

> <i_epik_Tot_Q>
1

> <i_epik_Tot_abs_Q>
1

> <r_epik_Metal_State_Penalty>
0.197524

> <b_epik_Metal_Only>
0

> <s_lp_Force_Field>
OPLS_2005

> <r_lp_Energy>
5.46656

> <b_lp_Chiralities_Consistent>
1

> <s_lp_Variant>
AV-unprocessed.smi:3158-3

> <Gold.Version>
5.8.1

> <Gold.Id.Protein>
6NUR|6NUR_protein|mol2

> <Gold.PLP.Fitness>
48.2012

> <Gold.PLP.PLP>
-34.8357

> <Gold.PLP.part.hbond>
-3.1864

> <Gold.PLP.part.metal>
0.0000

> <Gold.PLP.part.buried>
-3.2963

> <Gold.PLP.part.nonpolar>
-30.0027

> <Gold.PLP.part.repulsive>
0.2618

> <Gold.PLP.ligand.clash>
0.0000

> <Gold.PLP.ligand.torsion>
0.8635

> <Gold.PLP.Chemscore.Hbond>
4.0000

> <Gold.PLP.Chemscore.CHOScore>
1.0000

> <Gold.PLP.Chemscore.Metal>
0.0000

> <Gold.Chemscore.Hbonds>
donor molecule, donor type, donor heavy atom, donor atom, acceptor molecule, acceptor atom, score
      L1  H     5    27       P1  7948  1.00
      L1  H    10    32       P1  7957  0.83
      L1  H    10    40       P1  7948  2.00
      L1  C    14    37       P1 10171  1.00

> <Gold.PLP.Chemscore.Internal.Correction>
0.0925

> <Gold.Rescore>
     Score         DG    S(hbond)    S(metal)    S(lipo)     H(rot)  DE(clash)    DE(int)     intcor
     14.50     -17.05       2.79        0.00      67.74       2.21       0.25       2.30       ----

> <Gold.Chemscore.Fitness>
14.5021

> <Gold.Chemscore.DG>
-17.0482

> <Gold.Chemscore.ZeroCoef>
-5.4800

> <Gold.Chemscore.Hbond>
2.7869

> <Gold.Chemscore.Metal>
0.0000

> <Gold.Chemscore.Lipo>
67.7426

> <Gold.Chemscore.Internal_Hbond>
0.0000

> <Gold.Chemscore.DEClash>
0.2459

> <Gold.Chemscore.DEInternal>
2.3002

> <Gold.Chemscore.Rot>
2.2132

> <Gold.Chemscore.Internal.Correction>
   9.000000E+99

> <Gold.Chemscore.Hbonds>
donor molecule, donor type, donor heavy atom, donor atom, acceptor molecule, acceptor atom, score
      L1  H     5    27       P1  7948  0.58
      L1  H    10    32       P1  7957  0.79
      L1  H    10    40       P1  7948  0.95

> <Gold.Chemscore.Hbond.Weighted>
-9.3082

> <Gold.Chemscore.Metal.Weighted>
-0.0000

> <Gold.Chemscore.Lipo.Weighted>
-7.9259

> <Gold.Chemscore.Internal_Hbond.Weighted>
0.0000

> <Gold.Chemscore.DEClash.Weighted>
0.2459

> <Gold.Chemscore.DEInternal.Weighted>
2.3002

> <Gold.Chemscore.Rot.Weighted>
5.6658

> <Gold.Chemscore.Internal.Correction.Weighted>
   9.000000E+99

> <Gold.Protein.RotatedTorsions>
[ 6907 6896 6895 6894 ] final -141.27 input  -60.11 | X-H torsion
[ 7974 7965 7964 7962 ] final -138.84 input  175.53 | X-H torsion
[ 8008 7997 7996 7995 ] final   12.33 input   59.86 | X-H torsion
[ 10167 10162 10161 10158 ] final  159.67 input  -65.29 | X-H torsion
[ 10718 10713 10712 10709 ] final    7.54 input   66.30 | X-H torsion
[ 10763 10752 10751 10750 ] final   62.74 input  -60.55 | X-H torsion
[ 11005 11000 10999 10996 ] final -167.70 input  -57.11 | X-H torsion

> <Gold.Protein.ActiveResidues>
 VAL166  LYS551  ARG553  GLY616  TRP617  ASP618  TYR619  PRO620  LYS621  CYS622 
 ASP623  PHE694  ASN695  SER759  ASP760  ASP761  ALA762  ILE779  LEU786  VAL792 
 PHE793  MET794  SER795  GLU796  ALA797  LYS798  CYS799  TRP800  GLU811  SER814 

> <Gold.Protein.RotatedAtoms>
  151.0716  133.5461  159.2626 H   0  0  0  0  0  0  0  0  0  0  0  0  # atno 6907 bound_to 6896
  151.2398  135.0584  159.9030 H   0  0  0  0  0  0  0  0  0  0  0  0  # atno 6908 bound_to 6896
  152.5412  134.0493  159.8156 H   0  0  0  0  0  0  0  0  0  0  0  0  # atno 6909 bound_to 6896
  144.8726  140.6389  143.5257 H   0  0  0  0  0  0  0  0  0  0  0  0  # atno 7974 bound_to 7965
  154.8191  140.2881  155.5799 H   0  0  0  0  0  0  0  0  0  0  0  0  # atno 8008 bound_to 7997
  156.2996  140.2553  156.3025 H   0  0  0  0  0  0  0  0  0  0  0  0  # atno 8009 bound_to 7997
  154.9359  140.0382  157.2061 H   0  0  0  0  0  0  0  0  0  0  0  0  # atno 8010 bound_to 7997
  139.4834  144.4708  151.8579 H   0  0  0  0  0  0  0  0  0  0  0  0  # atno 10167 bound_to 10162
  156.9385  130.5852  149.5651 H   0  0  0  0  0  0  0  0  0  0  0  0  # atno 10718 bound_to 10713
  152.9993  135.5454  154.6241 H   0  0  0  0  0  0  0  0  0  0  0  0  # atno 10763 bound_to 10752
  154.5533  135.2828  155.0990 H   0  0  0  0  0  0  0  0  0  0  0  0  # atno 10764 bound_to 10752
  154.2221  135.6449  153.5200 H   0  0  0  0  0  0  0  0  0  0  0  0  # atno 10765 bound_to 10752
  140.5503  134.5435  157.5121 H   0  0  0  0  0  0  0  0  0  0  0  0  # atno 11005 bound_to 11000
  145.4103  139.1581  143.4130 LP  0  0  0  0  0  0  0  0  0  0  0  0  # atno 17320 bound_to 7965
  146.2940  140.4206  142.8728 LP  0  0  0  0  0  0  0  0  0  0  0  0  # atno 17321 bound_to 7965
  140.4177  144.2285  150.5887 LP  0  0  0  0  0  0  0  0  0  0  0  0  # atno 17342 bound_to 10162
  140.4905  143.2349  151.8826 LP  0  0  0  0  0  0  0  0  0  0  0  0  # atno 17343 bound_to 10162
  156.0415  130.5497  150.8782 LP  0  0  0  0  0  0  0  0  0  0  0  0  # atno 17370 bound_to 10713
  157.5801  131.0946  150.9285 LP  0  0  0  0  0  0  0  0  0  0  0  0  # atno 17371 bound_to 10713
  139.9459  134.7703  156.0564 LP  0  0  0  0  0  0  0  0  0  0  0  0  # atno 17394 bound_to 11000
  141.1176  133.6623  156.3132 LP  0  0  0  0  0  0  0  0  0  0  0  0  # atno 17395 bound_to 11000

$$$$
