AV-unprocessed.smi:2761|AV-procd|sdf|10635|dock1
  -GOLD-   2272015 83D 1   1.00000     0.00000
 Structure written by MMmdl.
 26 27  0  0  0  0  0  0  0  0  2 V2000
  154.7017  139.2869  158.8967 O   0  0  0  0  0  0  0  0  0  0  0  0
  153.6802  139.9264  159.1573 C   0  0  0  0  0  0  0  0  0  0  0  0
  152.4447  139.6398  158.6932 N   0  0  0  0  0  0  0  0  0  0  0  0
  152.0605  138.6051  157.8346 C   0  0  0  0  0  0  0  0  0  0  0  0
  150.6698  138.6847  157.4678 C   0  0  0  0  0  0  0  0  0  0  0  0
  150.1882  137.7341  156.6366 C   0  0  0  0  0  0  0  0  0  0  0  0
  151.0480  136.6628  156.1267 C   0  0  0  0  0  0  0  0  0  0  0  0
  150.5675  135.8200  155.3723 O   0  0  0  0  0  0  0  0  0  0  0  0
  152.3618  136.6501  156.5186 N   0  5  0  0  0  0  0  0  0  0  0  0
  152.8632  137.6766  157.4105 N   0  0  0  0  0  0  0  0  0  0  0  0
  153.7561  141.1399  160.0957 C   0  0  1  0  0  0  0  0  0  0  0  0
  152.4940  142.0327  160.0420 C   0  0  0  0  0  0  0  0  0  0  0  0
  152.6354  143.1027  160.9677 O   0  0  0  0  0  0  0  0  0  0  0  0
  152.7975  142.6208  162.2943 C   0  0  0  0  0  0  0  0  0  0  0  0
  154.0583  141.7437  162.3552 C   0  0  0  0  0  0  0  0  0  0  0  0
  153.9218  140.6717  161.4322 O   0  0  0  0  0  0  0  0  0  0  0  0
  151.7134  140.2592  159.0093 H   0  0  0  0  0  0  0  0  0  0  0  0
  150.0058  139.4589  157.8236 H   0  0  0  0  0  0  0  0  0  0  0  0
  149.1496  137.7634  156.3419 H   0  0  0  0  0  0  0  0  0  0  0  0
  154.6317  141.7247  159.8080 H   0  0  0  0  0  0  0  0  0  0  0  0
  152.3639  142.4571  159.0460 H   0  0  0  0  0  0  0  0  0  0  0  0
  151.5926  141.4605  160.2694 H   0  0  0  0  0  0  0  0  0  0  0  0
  152.8921  143.4686  162.9728 H   0  0  0  0  0  0  0  0  0  0  0  0
  151.9153  142.0576  162.6027 H   0  0  0  0  0  0  0  0  0  0  0  0
  154.9508  142.3277  162.1263 H   0  0  0  0  0  0  0  0  0  0  0  0
  154.1884  141.3360  163.3578 H   0  0  0  0  0  0  0  0  0  0  0  0
  1  2  2  0  0  0  0
  2  3  1  0  0  0  0
  2 11  1  0  0  0  0
  3 17  1  0  0  0  0
  3  4  1  0  0  0  0
  4  5  1  0  0  0  0
  4 10  2  0  0  0  0
  5  6  2  0  0  0  0
  5 18  1  0  0  0  0
  6  7  1  0  0  0  0
  6 19  1  0  0  0  0
  7  8  2  0  0  0  0
  7  9  1  0  0  0  0
  9 10  1  0  0  0  0
 11 16  1  0  0  0  0
 11 12  1  0  0  0  0
 11 20  1  0  0  0  0
 12 13  1  0  0  0  0
 12 21  1  0  0  0  0
 12 22  1  0  0  0  0
 13 14  1  0  0  0  0
 14 15  1  0  0  0  0
 14 23  1  0  0  0  0
 14 24  1  0  0  0  0
 15 16  1  0  0  0  0
 15 25  1  0  0  0  0
 15 26  1  0  0  0  0
M  CHG  1   9  -1
M  END
> <s_m_source_file>
AV-unprocessed.smi

> <i_m_source_file_index>
2761

> <i_lp_mmshare_version>
43012

> <i_f3d_flags>
0

> <s_epik_input>
TzFbQ0gyXVtDSDJdT1tDSDJdW0NASF0xQyg9TylbTkhdYzJbY0hdW2NIXWMoW09IXSlubjI=

> <s_epik_cmdline>
J2VwaWtfcHl0aG9uJywgJy1waCcsICc3LjAnLCAnLXRuJywgJzgnLCAnLW1hJywgJzIwMCcsICctbWV0YWxfYmluZGluZycsICctaW1hZScsICc8aW5maWxlLm1hZT4nLCAnLW9tYWUnLCAnPG91dGZpbGUubWFlPic=

> <r_lp_tautomer_probability>
1

> <r_epik_Ionization_Penalty>
4.21844

> <r_epik_Ionization_Penalty_Charging>
0.119247

> <r_epik_Ionization_Penalty_Neutral>
4.0992

> <r_epik_State_Penalty>
4.09486

> <r_epik_Charging_Adjusted_Penalty>
4.2141

> <i_epik_Tot_Q>
-1

> <i_epik_Tot_abs_Q>
1

> <r_epik_Metal_State_Penalty>
0.651223

> <b_epik_Metal_Only>
1

> <s_lp_Force_Field>
OPLS_2005

> <r_lp_Energy>
28.3135

> <b_lp_Chiralities_Consistent>
1

> <s_lp_Variant>
AV-unprocessed.smi:2761-4

> <Gold.Version>
5.8.1

> <Gold.Id.Protein>
6NUR|6NUR_protein|mol2

> <Gold.PLP.Fitness>
29.8046

> <Gold.PLP.PLP>
-21.6417

> <Gold.PLP.part.hbond>
-2.0000

> <Gold.PLP.part.metal>
0.0000

> <Gold.PLP.part.buried>
-2.3627

> <Gold.PLP.part.nonpolar>
-17.2357

> <Gold.PLP.part.repulsive>
0.2727

> <Gold.PLP.ligand.clash>
0.0995

> <Gold.PLP.ligand.torsion>
0.3698

> <Gold.PLP.Chemscore.Hbond>
3.0000

> <Gold.PLP.Chemscore.CHOScore>
0.0000

> <Gold.PLP.Chemscore.Metal>
0.0000

> <Gold.Chemscore.Hbonds>
donor molecule, donor type, donor heavy atom, donor atom, acceptor molecule, acceptor atom, score
      P1  H  7997  8009       L1     1  1.00
      P1  H 10752 10763       L1     9  1.88

> <Gold.PLP.Chemscore.Internal.Correction>
0.0020

> <Gold.Rescore>
     Score         DG    S(hbond)    S(metal)    S(lipo)     H(rot)  DE(clash)    DE(int)     intcor
     12.10     -13.68       1.72        0.00      42.81       1.00       0.01       1.56       ----

> <Gold.Chemscore.Fitness>
12.1033

> <Gold.Chemscore.DG>
-13.6759

> <Gold.Chemscore.ZeroCoef>
-5.4800

> <Gold.Chemscore.Hbond>
1.7206

> <Gold.Chemscore.Metal>
0.0000

> <Gold.Chemscore.Lipo>
42.8124

> <Gold.Chemscore.Internal_Hbond>
0.0000

> <Gold.Chemscore.DEClash>
0.0089

> <Gold.Chemscore.DEInternal>
1.5637

> <Gold.Chemscore.Rot>
1.0000

> <Gold.Chemscore.Internal.Correction>
   9.000000E+99

> <Gold.Chemscore.Hbonds>
donor molecule, donor type, donor heavy atom, donor atom, acceptor molecule, acceptor atom, score
      P1  H  7997  8009       L1     1  0.54
      P1  H 10752 10763       L1     9  0.19

> <Gold.Chemscore.Hbond.Weighted>
-5.7468

> <Gold.Chemscore.Metal.Weighted>
-0.0000

> <Gold.Chemscore.Lipo.Weighted>
-5.0091

> <Gold.Chemscore.Internal_Hbond.Weighted>
0.0000

> <Gold.Chemscore.DEClash.Weighted>
0.0089

> <Gold.Chemscore.DEInternal.Weighted>
1.5637

> <Gold.Chemscore.Rot.Weighted>
2.5600

> <Gold.Chemscore.Internal.Correction.Weighted>
   9.000000E+99

> <Gold.Protein.RotatedTorsions>
[ 6907 6896 6895 6894 ] final  -19.20 input  -60.11 | X-H torsion
[ 7974 7965 7964 7962 ] final  111.78 input  175.53 | X-H torsion
[ 8008 7997 7996 7995 ] final  103.69 input   59.86 | X-H torsion
[ 10167 10162 10161 10158 ] final  -55.78 input  -65.29 | X-H torsion
[ 10718 10713 10712 10709 ] final  139.50 input   66.30 | X-H torsion
[ 10763 10752 10751 10750 ] final   87.44 input  -60.55 | X-H torsion
[ 11005 11000 10999 10996 ] final -158.63 input  -57.11 | X-H torsion

> <Gold.Protein.ActiveResidues>
 VAL166  LYS551  ARG553  GLY616  TRP617  ASP618  TYR619  PRO620  LYS621  CYS622 
 ASP623  PHE694  ASN695  SER759  ASP760  ASP761  ALA762  ILE779  LEU786  VAL792 
 PHE793  MET794  SER795  GLU796  ALA797  LYS798  CYS799  TRP800  GLU811  SER814 

> <Gold.Protein.RotatedAtoms>
  151.2666  135.0671  159.9118 H   0  0  0  0  0  0  0  0  0  0  0  0  # atno 6907 bound_to 6896
  152.5357  134.0174  159.7976 H   0  0  0  0  0  0  0  0  0  0  0  0  # atno 6908 bound_to 6896
  151.0406  133.5660  159.2682 H   0  0  0  0  0  0  0  0  0  0  0  0  # atno 6909 bound_to 6896
  145.2379  139.2791  143.4133 H   0  0  0  0  0  0  0  0  0  0  0  0  # atno 7974 bound_to 7965
  156.1506  140.3160  155.8642 H   0  0  0  0  0  0  0  0  0  0  0  0  # atno 8008 bound_to 7997
  155.3978  140.0497  157.3055 H   0  0  0  0  0  0  0  0  0  0  0  0  # atno 8009 bound_to 7997
  154.5055  140.2145  155.9271 H   0  0  0  0  0  0  0  0  0  0  0  0  # atno 8010 bound_to 7997
  140.6355  143.2480  151.5130 H   0  0  0  0  0  0  0  0  0  0  0  0  # atno 10167 bound_to 10162
  157.4137  131.1031  151.0427 H   0  0  0  0  0  0  0  0  0  0  0  0  # atno 10718 bound_to 10713
  153.1669  135.4543  154.9849 H   0  0  0  0  0  0  0  0  0  0  0  0  # atno 10763 bound_to 10752
  154.7938  135.3230  154.7717 H   0  0  0  0  0  0  0  0  0  0  0  0  # atno 10764 bound_to 10752
  153.8199  135.6947  153.4883 H   0  0  0  0  0  0  0  0  0  0  0  0  # atno 10765 bound_to 10752
  140.6515  134.4445  157.5235 H   0  0  0  0  0  0  0  0  0  0  0  0  # atno 11005 bound_to 11000
  146.3336  140.2734  142.8607 LP  0  0  0  0  0  0  0  0  0  0  0  0  # atno 17320 bound_to 7965
  144.9616  140.8280  143.5510 LP  0  0  0  0  0  0  0  0  0  0  0  0  # atno 17321 bound_to 7965
  139.5565  144.2262  152.1621 LP  0  0  0  0  0  0  0  0  0  0  0  0  # atno 17342 bound_to 10162
  140.1517  144.5108  150.6683 LP  0  0  0  0  0  0  0  0  0  0  0  0  # atno 17343 bound_to 10162
  157.1382  130.6131  149.5548 LP  0  0  0  0  0  0  0  0  0  0  0  0  # atno 17370 bound_to 10713
  155.9858  130.4890  150.7051 LP  0  0  0  0  0  0  0  0  0  0  0  0  # atno 17371 bound_to 10713
  139.9044  134.8482  156.1764 LP  0  0  0  0  0  0  0  0  0  0  0  0  # atno 17394 bound_to 11000
  141.0533  133.6878  156.1813 LP  0  0  0  0  0  0  0  0  0  0  0  0  # atno 17395 bound_to 11000

$$$$
