AV-unprocessed.smi:3055|AV-procd|sdf|11643|dock5
  -GOLD-   2272017 33D 1   1.00000     0.00000
 Structure written by MMmdl.
 47 49  0  0  0  0  0  0  0  0  2 V2000
  150.4297  140.3640  157.2391 O   0  0  0  0  0  0  0  0  0  0  0  0
  150.0266  141.3005  156.5489 C   0  0  0  0  0  0  0  0  0  0  0  0
  149.9866  142.5590  157.0145 N   0  0  0  0  0  0  0  0  0  0  0  0
  150.3966  142.9584  158.3531 C   0  0  0  0  0  0  0  0  0  0  0  0
  151.9140  143.1781  158.4096 C   0  0  0  0  0  0  0  0  0  0  0  0
  152.4305  142.9638  159.7461 N   0  0  0  0  0  0  0  0  0  0  0  0
  152.0855  143.6575  160.8985 C   0  0  0  0  0  0  0  0  0  0  0  0
  152.8280  143.1127  161.9219 C   0  0  0  0  0  0  0  0  0  0  0  0
  153.6315  142.0892  161.4248 N   0  0  0  0  0  0  0  0  0  0  0  0
  153.3420  142.0597  160.1302 C   0  0  0  0  0  0  0  0  0  0  0  0
  149.6071  141.1510  155.2664 N   0  0  0  0  0  0  0  0  0  0  0  0
  149.8429  139.9824  154.3999 C   0  0  0  0  0  0  0  0  0  0  0  0
  148.4984  139.2954  154.1069 C   0  0  0  0  0  0  0  0  0  0  0  0
  147.4955  140.2903  153.4922 C   0  0  0  0  0  0  0  0  0  0  0  0
  147.3507  141.5808  154.3407 C   0  0  1  0  0  0  0  0  0  0  0  0
  146.6094  141.3408  155.6144 N   0  3  0  0  0  0  0  0  0  0  0  0
  146.3908  142.5388  156.4518 C   0  0  0  0  0  0  0  0  0  0  0  0
  145.3106  142.1260  157.4443 C   0  0  0  0  0  0  0  0  0  0  0  0
  144.4078  141.2007  156.6325 C   0  0  0  0  0  0  0  0  0  0  0  0
  145.2802  140.6981  155.4729 C   0  0  0  0  0  0  0  0  0  0  0  0
  148.7689  142.1551  154.5914 C   0  0  0  0  0  0  0  0  0  0  0  0
  149.6463  143.2853  156.4010 H   0  0  0  0  0  0  0  0  0  0  0  0
  149.8732  143.8747  158.6304 H   0  0  0  0  0  0  0  0  0  0  0  0
  150.1033  142.1885  159.0688 H   0  0  0  0  0  0  0  0  0  0  0  0
  152.4260  142.4969  157.7287 H   0  0  0  0  0  0  0  0  0  0  0  0
  152.1664  144.1921  158.0960 H   0  0  0  0  0  0  0  0  0  0  0  0
  151.3621  144.4594  160.8952 H   0  0  0  0  0  0  0  0  0  0  0  0
  152.8462  143.3774  162.9689 H   0  0  0  0  0  0  0  0  0  0  0  0
  153.8051  141.3648  159.4452 H   0  0  0  0  0  0  0  0  0  0  0  0
  150.2970  140.3199  153.4670 H   0  0  0  0  0  0  0  0  0  0  0  0
  150.5419  139.2538  154.8101 H   0  0  0  0  0  0  0  0  0  0  0  0
  148.6495  138.4546  153.4293 H   0  0  0  0  0  0  0  0  0  0  0  0
  148.0900  138.8795  155.0288 H   0  0  0  0  0  0  0  0  0  0  0  0
  147.8586  140.5704  152.5024 H   0  0  0  0  0  0  0  0  0  0  0  0
  146.5376  139.8027  153.3147 H   0  0  0  0  0  0  0  0  0  0  0  0
  146.7776  142.3056  153.7603 H   0  0  0  0  0  0  0  0  0  0  0  0
  147.2960  142.8690  156.9588 H   0  0  0  0  0  0  0  0  0  0  0  0
  146.0303  143.3614  155.8318 H   0  0  0  0  0  0  0  0  0  0  0  0
  145.7625  141.5710  158.2677 H   0  0  0  0  0  0  0  0  0  0  0  0
  144.7763  142.9772  157.8674 H   0  0  0  0  0  0  0  0  0  0  0  0
  144.0190  140.3829  157.2404 H   0  0  0  0  0  0  0  0  0  0  0  0
  143.5537  141.7548  156.2414 H   0  0  0  0  0  0  0  0  0  0  0  0
  144.8158  140.9792  154.5264 H   0  0  0  0  0  0  0  0  0  0  0  0
  145.3837  139.6126  155.4866 H   0  0  0  0  0  0  0  0  0  0  0  0
  148.7184  143.1000  155.1332 H   0  0  0  0  0  0  0  0  0  0  0  0
  149.2321  142.4111  153.6375 H   0  0  0  0  0  0  0  0  0  0  0  0
  147.1671  140.7085  156.1705 H   0  0  0  0  0  0  0  0  0  0  0  0
  1  2  2  0  0  0  0
  2  3  1  0  0  0  0
  2 11  1  0  0  0  0
  3  4  1  0  0  0  0
  3 22  1  0  0  0  0
  4  5  1  0  0  0  0
  4 23  1  0  0  0  0
  4 24  1  0  0  0  0
  5  6  1  0  0  0  0
  5 25  1  0  0  0  0
  5 26  1  0  0  0  0
  6 10  1  0  0  0  0
  6  7  1  0  0  0  0
  7  8  2  0  0  0  0
  7 27  1  0  0  0  0
  8  9  1  0  0  0  0
  8 28  1  0  0  0  0
  9 10  2  0  0  0  0
 10 29  1  0  0  0  0
 11 21  1  0  0  0  0
 11 12  1  0  0  0  0
 12 13  1  0  0  0  0
 12 30  1  0  0  0  0
 12 31  1  0  0  0  0
 13 14  1  0  0  0  0
 13 32  1  0  0  0  0
 13 33  1  0  0  0  0
 14 15  1  0  0  0  0
 14 34  1  0  0  0  0
 14 35  1  0  0  0  0
 15 16  1  0  0  0  0
 15 21  1  0  0  0  0
 15 36  1  0  0  0  0
 16 20  1  0  0  0  0
 16 17  1  0  0  0  0
 16 47  1  0  0  0  0
 17 18  1  0  0  0  0
 17 37  1  0  0  0  0
 17 38  1  0  0  0  0
 18 19  1  0  0  0  0
 18 39  1  0  0  0  0
 18 40  1  0  0  0  0
 19 20  1  0  0  0  0
 19 41  1  0  0  0  0
 19 42  1  0  0  0  0
 20 43  1  0  0  0  0
 20 44  1  0  0  0  0
 21 45  1  0  0  0  0
 21 46  1  0  0  0  0
M  CHG  1  16   1
M  END
> <s_m_source_file>
AV-unprocessed.smi

> <i_m_source_file_index>
3055

> <i_lp_mmshare_version>
43012

> <i_f3d_flags>
0

> <s_epik_input>
W2NIXTFuW2NIXVtjSF1uMVtDSDJdW0NIMl1bTkhdQyg9TylOMltDSDJdW0NIMl1bQ0gyXVtDQEhdKFtDSDJdMilOM1tDSDJdW0NIMl1bQ0gyXVtDSDJdMw==

> <s_epik_cmdline>
J2VwaWtfcHl0aG9uJywgJy1waCcsICc3LjAnLCAnLXRuJywgJzgnLCAnLW1hJywgJzIwMCcsICctbWV0YWxfYmluZGluZycsICctaW1hZScsICc8aW5maWxlLm1hZT4nLCAnLW9tYWUnLCAnPG91dGZpbGUubWFlPic=

> <r_lp_tautomer_probability>
1

> <r_epik_Ionization_Penalty>
0.618392

> <r_epik_Ionization_Penalty_Charging>
0.618355

> <r_epik_Ionization_Penalty_Neutral>
3.68592e-05

> <r_epik_State_Penalty>
0.635579

> <r_epik_Charging_Adjusted_Penalty>
1.25393

> <i_epik_Tot_Q>
1

> <i_epik_Tot_abs_Q>
1

> <r_epik_Metal_State_Penalty>
0.306847

> <b_epik_Metal_Only>
0

> <s_lp_Force_Field>
OPLS_2005

> <r_lp_Energy>
66.9505

> <b_lp_Chiralities_Consistent>
1

> <s_lp_Variant>
AV-unprocessed.smi:3055-3

> <Gold.Version>
5.8.1

> <Gold.Id.Protein>
6NUR|6NUR_protein|mol2

> <Gold.PLP.Fitness>
40.5813

> <Gold.PLP.PLP>
-38.7892

> <Gold.PLP.part.hbond>
-1.0000

> <Gold.PLP.part.metal>
0.0000

> <Gold.PLP.part.buried>
1.0326

> <Gold.PLP.part.nonpolar>
-37.4699

> <Gold.PLP.part.repulsive>
0.0217

> <Gold.PLP.ligand.clash>
0.2992

> <Gold.PLP.ligand.torsion>
0.4717

> <Gold.PLP.Chemscore.Hbond>
1.0000

> <Gold.PLP.Chemscore.CHOScore>
0.0000

> <Gold.PLP.Chemscore.Metal>
0.0000

> <Gold.Chemscore.Hbonds>
donor molecule, donor type, donor heavy atom, donor atom, acceptor molecule, acceptor atom, score
      L1  H     3    22       P1  8028  1.00

> <Gold.PLP.Chemscore.Internal.Correction>
0.0347

> <Gold.Rescore>
     Score         DG    S(hbond)    S(metal)    S(lipo)     H(rot)  DE(clash)    DE(int)     intcor
     13.16     -13.72       0.99        0.00      81.66       1.81       0.17       0.39       ----

> <Gold.Chemscore.Fitness>
13.1615

> <Gold.Chemscore.DG>
-13.7199

> <Gold.Chemscore.ZeroCoef>
-5.4800

> <Gold.Chemscore.Hbond>
0.9913

> <Gold.Chemscore.Metal>
0.0000

> <Gold.Chemscore.Lipo>
81.6570

> <Gold.Chemscore.Internal_Hbond>
0.0000

> <Gold.Chemscore.DEClash>
0.1725

> <Gold.Chemscore.DEInternal>
0.3859

> <Gold.Chemscore.Rot>
1.8066

> <Gold.Chemscore.Internal.Correction>
   9.000000E+99

> <Gold.Chemscore.Hbonds>
donor molecule, donor type, donor heavy atom, donor atom, acceptor molecule, acceptor atom, score
      L1  H     3    22       P1  8028  1.00

> <Gold.Chemscore.Hbond.Weighted>
-3.3110

> <Gold.Chemscore.Metal.Weighted>
-0.0000

> <Gold.Chemscore.Lipo.Weighted>
-9.5539

> <Gold.Chemscore.Internal_Hbond.Weighted>
0.0000

> <Gold.Chemscore.DEClash.Weighted>
0.1725

> <Gold.Chemscore.DEInternal.Weighted>
0.3859

> <Gold.Chemscore.Rot.Weighted>
4.6249

> <Gold.Chemscore.Internal.Correction.Weighted>
   9.000000E+99

> <Gold.Protein.RotatedTorsions>
[ 6907 6896 6895 6894 ] final  124.99 input  -60.11 | X-H torsion
[ 7974 7965 7964 7962 ] final  151.24 input  175.53 | X-H torsion
[ 8008 7997 7996 7995 ] final  128.82 input   59.86 | X-H torsion
[ 10167 10162 10161 10158 ] final  146.35 input  -65.29 | X-H torsion
[ 10718 10713 10712 10709 ] final   63.86 input   66.30 | X-H torsion
[ 10763 10752 10751 10750 ] final -178.86 input  -60.55 | X-H torsion
[ 11005 11000 10999 10996 ] final   61.78 input  -57.11 | X-H torsion

> <Gold.Protein.ActiveResidues>
 VAL166  LYS551  ARG553  GLY616  TRP617  ASP618  TYR619  PRO620  LYS621  CYS622 
 ASP623  PHE694  ASN695  SER759  ASP760  ASP761  ALA762  ILE779  LEU786  VAL792 
 PHE793  MET794  SER795  GLU796  ALA797  LYS798  CYS799  TRP800  GLU811  SER814 

> <Gold.Protein.RotatedAtoms>
  152.4031  133.6847  159.6332 H   0  0  0  0  0  0  0  0  0  0  0  0  # atno 6907 bound_to 6896
  150.7919  133.8757  159.3280 H   0  0  0  0  0  0  0  0  0  0  0  0  # atno 6908 bound_to 6896
  151.6518  135.1002  160.0213 H   0  0  0  0  0  0  0  0  0  0  0  0  # atno 6909 bound_to 6896
  144.8306  139.6512  143.6060 H   0  0  0  0  0  0  0  0  0  0  0  0  # atno 7974 bound_to 7965
  156.2923  140.2635  156.2498 H   0  0  0  0  0  0  0  0  0  0  0  0  # atno 8008 bound_to 7997
  154.9894  140.0389  157.2331 H   0  0  0  0  0  0  0  0  0  0  0  0  # atno 8009 bound_to 7997
  154.7700  140.2776  155.6150 H   0  0  0  0  0  0  0  0  0  0  0  0  # atno 8010 bound_to 7997
  139.4909  144.5836  151.6823 H   0  0  0  0  0  0  0  0  0  0  0  0  # atno 10167 bound_to 10162
  157.6000  130.9128  149.9771 H   0  0  0  0  0  0  0  0  0  0  0  0  # atno 10718 bound_to 10713
  154.5424  135.2807  155.1083 H   0  0  0  0  0  0  0  0  0  0  0  0  # atno 10763 bound_to 10752
  154.2560  135.6330  153.5261 H   0  0  0  0  0  0  0  0  0  0  0  0  # atno 10764 bound_to 10752
  152.9982  135.5594  154.5967 H   0  0  0  0  0  0  0  0  0  0  0  0  # atno 10765 bound_to 10752
  140.0137  134.6257  155.9742 H   0  0  0  0  0  0  0  0  0  0  0  0  # atno 11005 bound_to 11000
  146.2609  139.6409  142.9362 LP  0  0  0  0  0  0  0  0  0  0  0  0  # atno 17320 bound_to 7965
  145.4904  141.0438  143.2596 LP  0  0  0  0  0  0  0  0  0  0  0  0  # atno 17321 bound_to 7965
  140.5447  144.0522  150.6102 LP  0  0  0  0  0  0  0  0  0  0  0  0  # atno 17342 bound_to 10162
  140.3556  143.2937  152.0439 LP  0  0  0  0  0  0  0  0  0  0  0  0  # atno 17343 bound_to 10162
  156.1071  130.3652  150.0114 LP  0  0  0  0  0  0  0  0  0  0  0  0  # atno 17370 bound_to 10713
  156.8219  130.9361  151.3641 LP  0  0  0  0  0  0  0  0  0  0  0  0  # atno 17371 bound_to 10713
  141.1728  133.6538  156.4716 LP  0  0  0  0  0  0  0  0  0  0  0  0  # atno 17394 bound_to 11000
  140.4509  134.6930  157.5039 LP  0  0  0  0  0  0  0  0  0  0  0  0  # atno 17395 bound_to 11000

$$$$
