AV-unprocessed.smi:2592|AV-procd|sdf|10161|dock1
  -GOLD-   2272014173D 1   1.00000     0.00000
 Structure written by MMmdl.
 42 43  0  0  0  0  0  0  0  0  3 V2000
  151.1868  144.0496  158.1609 C   0  0  0  0  0  0  0  0  0  0  0  0
  151.1875  142.6073  157.7574 C   0  0  0  0  0  0  0  0  0  0  0  0
  150.6523  142.2343  156.5218 N   0  0  0  0  0  0  0  0  0  0  0  0
  150.7236  140.9215  156.2806 C   0  0  0  0  0  0  0  0  0  0  0  0
  150.2633  140.3568  155.1523 N   0  5  0  0  0  0  0  0  0  0  0  0
  149.1163  140.8026  154.5923 C   0  0  0  0  0  0  0  0  0  0  0  0
  148.6737  141.9525  154.6474 O   0  0  0  0  0  0  0  0  0  0  0  0
  148.4431  139.8590  153.9183 N   0  0  0  0  0  0  0  0  0  0  0  0
  147.1927  140.0562  153.1935 C   0  0  0  0  0  0  0  0  0  0  0  0
  146.8040  138.8015  152.3947 C   0  0  0  0  0  0  0  0  0  0  0  0
  146.5211  137.5929  153.3009 C   0  0  0  0  0  0  0  0  0  0  0  0
  146.5840  136.3078  152.5610 N   0  3  0  0  0  0  0  0  0  0  0  0
  146.3889  135.1347  153.4461 C   0  0  0  0  0  0  0  0  0  0  0  0
  146.5166  133.8274  152.6456 C   0  0  0  0  0  0  0  0  0  0  0  0
  145.5782  133.8285  151.5775 O   0  0  0  0  0  0  0  0  0  0  0  0
  145.8076  134.8988  150.6697 C   0  0  0  0  0  0  0  0  0  0  0  0
  145.6567  136.2419  151.4037 C   0  0  0  0  0  0  0  0  0  0  0  0
  151.4630  140.0462  157.6216 S   0  0  0  0  0  0  0  0  0  0  0  0
  151.6705  141.5472  158.4839 C   0  0  0  0  0  0  0  0  0  0  0  0
  152.3053  141.5758  159.8342 C   0  0  0  0  0  0  0  0  0  0  0  0
  150.5140  144.2206  159.0014 H   0  0  0  0  0  0  0  0  0  0  0  0
  150.8650  144.6972  157.3445 H   0  0  0  0  0  0  0  0  0  0  0  0
  152.1831  144.3735  158.4625 H   0  0  0  0  0  0  0  0  0  0  0  0
  148.8396  138.9306  153.9036 H   0  0  0  0  0  0  0  0  0  0  0  0
  146.4158  140.2915  153.9210 H   0  0  0  0  0  0  0  0  0  0  0  0
  147.2746  140.9226  152.5350 H   0  0  0  0  0  0  0  0  0  0  0  0
  145.9274  139.0255  151.7875 H   0  0  0  0  0  0  0  0  0  0  0  0
  147.6066  138.5541  151.6986 H   0  0  0  0  0  0  0  0  0  0  0  0
  147.2706  137.5832  154.0938 H   0  0  0  0  0  0  0  0  0  0  0  0
  145.5522  137.6942  153.7923 H   0  0  0  0  0  0  0  0  0  0  0  0
  147.1294  135.1459  154.2469 H   0  0  0  0  0  0  0  0  0  0  0  0
  145.4059  135.1912  153.9163 H   0  0  0  0  0  0  0  0  0  0  0  0
  147.5290  133.7044  152.2576 H   0  0  0  0  0  0  0  0  0  0  0  0
  146.3166  132.9711  153.2902 H   0  0  0  0  0  0  0  0  0  0  0  0
  146.7994  134.8080  150.2235 H   0  0  0  0  0  0  0  0  0  0  0  0
  145.0855  134.8323  149.8558 H   0  0  0  0  0  0  0  0  0  0  0  0
  144.6287  136.3632  151.7492 H   0  0  0  0  0  0  0  0  0  0  0  0
  145.8564  137.0536  150.7054 H   0  0  0  0  0  0  0  0  0  0  0  0
  153.3186  141.9734  159.7742 H   0  0  0  0  0  0  0  0  0  0  0  0
  152.3597  140.5761  160.2654 H   0  0  0  0  0  0  0  0  0  0  0  0
  151.7351  142.2046  160.5183 H   0  0  0  0  0  0  0  0  0  0  0  0
  147.5219  136.2331  152.1936 H   0  0  0  0  0  0  0  0  0  0  0  0
  1  2  1  0  0  0  0
  1 21  1  0  0  0  0
  1 22  1  0  0  0  0
  1 23  1  0  0  0  0
  2 19  2  0  0  0  0
  2  3  1  0  0  0  0
  3  4  2  0  0  0  0
  4  5  1  0  0  0  0
  4 18  1  0  0  0  0
  5  6  1  0  0  0  0
  6  7  2  0  0  0  0
  6  8  1  0  0  0  0
  8  9  1  0  0  0  0
  8 24  1  0  0  0  0
  9 10  1  0  0  0  0
  9 25  1  0  0  0  0
  9 26  1  0  0  0  0
 10 11  1  0  0  0  0
 10 27  1  0  0  0  0
 10 28  1  0  0  0  0
 11 12  1  0  0  0  0
 11 29  1  0  0  0  0
 11 30  1  0  0  0  0
 12 17  1  0  0  0  0
 12 13  1  0  0  0  0
 12 42  1  0  0  0  0
 13 14  1  0  0  0  0
 13 31  1  0  0  0  0
 13 32  1  0  0  0  0
 14 15  1  0  0  0  0
 14 33  1  0  0  0  0
 14 34  1  0  0  0  0
 15 16  1  0  0  0  0
 16 17  1  0  0  0  0
 16 35  1  0  0  0  0
 16 36  1  0  0  0  0
 17 37  1  0  0  0  0
 17 38  1  0  0  0  0
 18 19  1  0  0  0  0
 19 20  1  0  0  0  0
 20 39  1  0  0  0  0
 20 40  1  0  0  0  0
 20 41  1  0  0  0  0
M  CHG  1   5  -1
M  CHG  1  12   1
M  END
> <s_m_source_file>
AV-unprocessed.smi

> <i_m_source_file_index>
2592

> <i_lp_mmshare_version>
43012

> <i_f3d_flags>
0

> <s_epik_input>
W0NIM11jMW5jKHNjMVtDSDNdKVtOSF1DKD1PKVtOSF1bQ0gyXVtDSDJdW0NIMl1OMltDSDJdW0NIMl1PW0NIMl1bQ0gyXTI=

> <s_epik_cmdline>
J2VwaWtfcHl0aG9uJywgJy1waCcsICc3LjAnLCAnLXRuJywgJzgnLCAnLW1hJywgJzIwMCcsICctbWV0YWxfYmluZGluZycsICctaW1hZScsICc8aW5maWxlLm1hZT4nLCAnLW9tYWUnLCAnPG91dGZpbGUubWFlPic=

> <r_lp_tautomer_probability>
0.999

> <r_epik_Ionization_Penalty>
7.73516

> <r_epik_Ionization_Penalty_Charging>
6.31615

> <r_epik_Ionization_Penalty_Neutral>
1.41901

> <r_epik_State_Penalty>
6.31054

> <r_epik_Charging_Adjusted_Penalty>
12.6267

> <i_epik_Tot_Q>
0

> <i_epik_Tot_abs_Q>
2

> <r_epik_Metal_State_Penalty>
2.25864

> <b_epik_Metal_Only>
1

> <s_lp_Force_Field>
OPLS_2005

> <r_lp_Energy>
6.70997

> <b_lp_Chiralities_Consistent>
1

> <s_lp_Variant>
AV-unprocessed.smi:2592-3

> <Gold.Version>
5.8.1

> <Gold.Id.Protein>
6NUR|6NUR_protein|mol2

> <Gold.PLP.Fitness>
44.9327

> <Gold.PLP.PLP>
-36.8500

> <Gold.PLP.part.hbond>
-4.0000

> <Gold.PLP.part.metal>
0.0000

> <Gold.PLP.part.buried>
-3.1109

> <Gold.PLP.part.nonpolar>
-31.1609

> <Gold.PLP.part.repulsive>
1.6666

> <Gold.PLP.ligand.clash>
0.0000

> <Gold.PLP.ligand.torsion>
0.5976

> <Gold.PLP.Chemscore.Hbond>
3.0682

> <Gold.PLP.Chemscore.CHOScore>
0.0000

> <Gold.PLP.Chemscore.Metal>
0.0000

> <Gold.Chemscore.Hbonds>
donor molecule, donor type, donor heavy atom, donor atom, acceptor molecule, acceptor atom, score
      L1  H    12    42       P1  7948  1.62
      P1  H  7989  7998       L1     5  0.51

> <Gold.PLP.Chemscore.Internal.Correction>
0.0734

> <Gold.Rescore>
     Score         DG    S(hbond)    S(metal)    S(lipo)     H(rot)  DE(clash)    DE(int)     intcor
     12.32     -14.46       1.14        0.00      81.76       1.72       0.07       2.07       ----

> <Gold.Chemscore.Fitness>
12.3199

> <Gold.Chemscore.DG>
-14.4603

> <Gold.Chemscore.ZeroCoef>
-5.4800

> <Gold.Chemscore.Hbond>
1.1395

> <Gold.Chemscore.Metal>
0.0000

> <Gold.Chemscore.Lipo>
81.7575

> <Gold.Chemscore.Internal_Hbond>
0.0000

> <Gold.Chemscore.DEClash>
0.0656

> <Gold.Chemscore.DEInternal>
2.0748

> <Gold.Chemscore.Rot>
1.7154

> <Gold.Chemscore.Internal.Correction>
   9.000000E+99

> <Gold.Chemscore.Hbonds>
donor molecule, donor type, donor heavy atom, donor atom, acceptor molecule, acceptor atom, score
      L1  H    12    42       P1  7948  0.80
      P1  H  7989  7998       L1     5  0.07

> <Gold.Chemscore.Hbond.Weighted>
-3.8060

> <Gold.Chemscore.Metal.Weighted>
-0.0000

> <Gold.Chemscore.Lipo.Weighted>
-9.5656

> <Gold.Chemscore.Internal_Hbond.Weighted>
0.0000

> <Gold.Chemscore.DEClash.Weighted>
0.0656

> <Gold.Chemscore.DEInternal.Weighted>
2.0748

> <Gold.Chemscore.Rot.Weighted>
4.3914

> <Gold.Chemscore.Internal.Correction.Weighted>
   9.000000E+99

> <Gold.Protein.RotatedTorsions>
[ 6907 6896 6895 6894 ] final -122.82 input  -60.11 | X-H torsion
[ 7974 7965 7964 7962 ] final  -27.08 input  175.53 | X-H torsion
[ 8008 7997 7996 7995 ] final -105.01 input   59.86 | X-H torsion
[ 10167 10162 10161 10158 ] final -137.53 input  -65.29 | X-H torsion
[ 10718 10713 10712 10709 ] final  -25.40 input   66.30 | X-H torsion
[ 10763 10752 10751 10750 ] final  -42.86 input  -60.55 | X-H torsion
[ 11005 11000 10999 10996 ] final -144.24 input  -57.11 | X-H torsion

> <Gold.Protein.ActiveResidues>
 VAL166  LYS551  ARG553  GLY616  TRP617  ASP618  TYR619  PRO620  LYS621  CYS622 
 ASP623  PHE694  ASN695  SER759  ASP760  ASP761  ALA762  ILE779  LEU786  VAL792 
 PHE793  MET794  SER795  GLU796  ALA797  LYS798  CYS799  TRP800  GLU811  SER814 

> <Gold.Protein.RotatedAtoms>
  150.8612  133.7641  159.2991 H   0  0  0  0  0  0  0  0  0  0  0  0  # atno 6907 bound_to 6896
  151.5283  135.1066  159.9905 H   0  0  0  0  0  0  0  0  0  0  0  0  # atno 6908 bound_to 6896
  152.4627  133.7813  159.6908 H   0  0  0  0  0  0  0  0  0  0  0  0  # atno 6909 bound_to 6896
  146.1382  140.5105  142.8663 H   0  0  0  0  0  0  0  0  0  0  0  0  # atno 7974 bound_to 7965
  154.8936  140.0415  157.1853 H   0  0  0  0  0  0  0  0  0  0  0  0  # atno 8008 bound_to 7997
  154.8516  140.2930  155.5574 H   0  0  0  0  0  0  0  0  0  0  0  0  # atno 8009 bound_to 7997
  156.2996  140.2464  156.3475 H   0  0  0  0  0  0  0  0  0  0  0  0  # atno 8010 bound_to 7997
  139.8568  143.7128  152.2653 H   0  0  0  0  0  0  0  0  0  0  0  0  # atno 10167 bound_to 10162
  156.4649  130.4512  149.6905 H   0  0  0  0  0  0  0  0  0  0  0  0  # atno 10718 bound_to 10713
  153.9860  135.6711  153.4752 H   0  0  0  0  0  0  0  0  0  0  0  0  # atno 10763 bound_to 10752
  153.0726  135.4966  154.8334 H   0  0  0  0  0  0  0  0  0  0  0  0  # atno 10764 bound_to 10752
  154.7137  135.3102  154.9120 H   0  0  0  0  0  0  0  0  0  0  0  0  # atno 10765 bound_to 10752
  140.8045  134.2818  157.4966 H   0  0  0  0  0  0  0  0  0  0  0  0  # atno 11005 bound_to 11000
  144.7763  140.5746  143.6636 LP  0  0  0  0  0  0  0  0  0  0  0  0  # atno 17320 bound_to 7965
  145.5107  139.1479  143.3606 LP  0  0  0  0  0  0  0  0  0  0  0  0  # atno 17321 bound_to 7965
  139.7412  144.7559  151.0650 LP  0  0  0  0  0  0  0  0  0  0  0  0  # atno 17342 bound_to 10162
  140.7780  143.4970  150.9819 LP  0  0  0  0  0  0  0  0  0  0  0  0  # atno 17343 bound_to 10162
  156.3678  130.7515  151.2495 LP  0  0  0  0  0  0  0  0  0  0  0  0  # atno 17370 bound_to 10713
  157.7495  131.0332  150.4259 LP  0  0  0  0  0  0  0  0  0  0  0  0  # atno 17371 bound_to 10713
  139.8719  134.9448  156.3892 LP  0  0  0  0  0  0  0  0  0  0  0  0  # atno 17394 bound_to 11000
  140.9261  133.7611  155.9967 LP  0  0  0  0  0  0  0  0  0  0  0  0  # atno 17395 bound_to 11000

$$$$
