AV-unprocessed.smi:1211|AV-procd|sdf|5078|dock2
  -GOLD-   22720 4123D 1   1.00000     0.00000
 Structure written by MMmdl.
 47 49  0  0  0  0  0  0  0  0  1 V2000
  152.0234  144.6015  158.0936 C   0  0  0  0  0  0  0  0  0  0  0  0
  152.3648  143.1871  158.5341 C   0  0  0  0  0  0  0  0  0  0  0  0
  153.2861  142.9955  159.5857 C   0  0  0  0  0  0  0  0  0  0  0  0
  153.6002  141.6874  159.9926 C   0  0  0  0  0  0  0  0  0  0  0  0
  152.9743  140.6196  159.3270 C   0  0  0  0  0  0  0  0  0  0  0  0
  152.0929  140.7935  158.3213 N   0  0  0  0  0  0  0  0  0  0  0  0
  151.7795  142.0497  157.9157 C   0  0  0  0  0  0  0  0  0  0  0  0
  150.8611  142.3091  156.8599 N   0  0  0  0  0  0  0  0  0  0  0  0
  150.3986  141.4609  155.9246 C   0  0  0  0  0  0  0  0  0  0  0  0
  150.6990  140.2709  155.8253 O   0  0  0  0  0  0  0  0  0  0  0  0
  149.5478  142.0769  155.0949 N   0  0  0  0  0  0  0  0  0  0  0  0
  148.8566  141.4315  153.9832 C   0  0  0  0  0  0  0  0  0  0  0  0
  147.3277  141.2706  154.2632 C   0  0  1  0  0  0  0  0  0  0  0  0
  146.6880  142.6121  154.4287 N   0  0  0  0  0  0  0  0  0  0  0  0
  146.2844  143.2958  153.1915 C   0  0  0  0  0  0  0  0  0  0  0  0
  145.7159  144.7008  153.4574 C   0  0  0  0  0  0  0  0  0  0  0  0
  144.6212  144.6162  154.3594 O   0  0  0  0  0  0  0  0  0  0  0  0
  144.9927  144.0298  155.5994 C   0  0  0  0  0  0  0  0  0  0  0  0
  145.5488  142.6171  155.3567 C   0  0  0  0  0  0  0  0  0  0  0  0
  146.7237  140.4372  153.0954 C   0  0  0  0  0  0  0  0  0  0  0  0
  147.1966  138.9837  153.2125 C   0  0  0  0  0  0  0  0  0  0  0  0
  147.3924  138.6193  154.9728 S   0  0  0  0  0  0  0  0  0  0  0  0
  147.1502  140.3411  155.4909 C   0  0  0  0  0  0  0  0  0  0  0  0
  152.5726  145.3418  158.6760 H   0  0  0  0  0  0  0  0  0  0  0  0
  150.9582  144.7952  158.2238 H   0  0  0  0  0  0  0  0  0  0  0  0
  152.2768  144.7463  157.0432 H   0  0  0  0  0  0  0  0  0  0  0  0
  153.7483  143.8391  160.0771 H   0  0  0  0  0  0  0  0  0  0  0  0
  154.3015  141.5073  160.7939 H   0  0  0  0  0  0  0  0  0  0  0  0
  153.1870  139.5990  159.6086 H   0  0  0  0  0  0  0  0  0  0  0  0
  150.5147  143.2558  156.8135 H   0  0  0  0  0  0  0  0  0  0  0  0
  149.3491  143.0552  155.2455 H   0  0  0  0  0  0  0  0  0  0  0  0
  149.0396  142.0120  153.0793 H   0  0  0  0  0  0  0  0  0  0  0  0
  149.3292  140.4699  153.7834 H   0  0  0  0  0  0  0  0  0  0  0  0
  147.1310  143.4284  152.5223 H   0  0  0  0  0  0  0  0  0  0  0  0
  145.5374  142.7121  152.6550 H   0  0  0  0  0  0  0  0  0  0  0  0
  146.4848  145.3575  153.8677 H   0  0  0  0  0  0  0  0  0  0  0  0
  145.3745  145.1522  152.5259 H   0  0  0  0  0  0  0  0  0  0  0  0
  145.7331  144.6549  156.1011 H   0  0  0  0  0  0  0  0  0  0  0  0
  144.1181  143.9860  156.2484 H   0  0  0  0  0  0  0  0  0  0  0  0
  144.7503  141.9829  154.9700 H   0  0  0  0  0  0  0  0  0  0  0  0
  145.8297  142.2122  156.3263 H   0  0  0  0  0  0  0  0  0  0  0  0
  145.6395  140.3887  153.1635 H   0  0  0  0  0  0  0  0  0  0  0  0
  146.9514  140.8559  152.1147 H   0  0  0  0  0  0  0  0  0  0  0  0
  146.4924  138.2906  152.7521 H   0  0  0  0  0  0  0  0  0  0  0  0
  148.1565  138.8462  152.7148 H   0  0  0  0  0  0  0  0  0  0  0  0
  147.8305  140.5887  156.3065 H   0  0  0  0  0  0  0  0  0  0  0  0
  146.1403  140.3988  155.8934 H   0  0  0  0  0  0  0  0  0  0  0  0
  1  2  1  0  0  0  0
  1 24  1  0  0  0  0
  1 25  1  0  0  0  0
  1 26  1  0  0  0  0
  2  7  1  0  0  0  0
  2  3  2  0  0  0  0
  3  4  1  0  0  0  0
  3 27  1  0  0  0  0
  4  5  2  0  0  0  0
  4 28  1  0  0  0  0
  5  6  1  0  0  0  0
  5 29  1  0  0  0  0
  6  7  2  0  0  0  0
  7  8  1  0  0  0  0
  8  9  1  0  0  0  0
  8 30  1  0  0  0  0
  9 10  2  0  0  0  0
  9 11  1  0  0  0  0
 11 12  1  0  0  0  0
 11 31  1  0  0  0  0
 12 13  1  0  0  0  0
 12 32  1  0  0  0  0
 12 33  1  0  0  0  0
 13 23  1  0  0  0  0
 13 14  1  0  0  0  0
 13 20  1  0  0  0  0
 14 19  1  0  0  0  0
 14 15  1  0  0  0  0
 15 16  1  0  0  0  0
 15 34  1  0  0  0  0
 15 35  1  0  0  0  0
 16 17  1  0  0  0  0
 16 36  1  0  0  0  0
 16 37  1  0  0  0  0
 17 18  1  0  0  0  0
 18 19  1  0  0  0  0
 18 38  1  0  0  0  0
 18 39  1  0  0  0  0
 19 40  1  0  0  0  0
 19 41  1  0  0  0  0
 20 21  1  0  0  0  0
 20 42  1  0  0  0  0
 20 43  1  0  0  0  0
 21 22  1  0  0  0  0
 21 44  1  0  0  0  0
 21 45  1  0  0  0  0
 22 23  1  0  0  0  0
 23 46  1  0  0  0  0
 23 47  1  0  0  0  0
M  END
> <s_m_source_file>
AV-unprocessed.smi

> <i_m_source_file_index>
1211

> <i_lp_mmshare_version>
43012

> <i_f3d_flags>
0

> <s_epik_input>
W0NIM11jMVtjSF1bY0hdW2NIXW5jMVtOSF1DKD1PKVtOSF1bQ0gyXVtDQF0yKFtDSDJdW0NIMl1TW0NIMl0yKU4zW0NIMl1bQ0gyXU9bQ0gyXVtDSDJdMw==

> <s_epik_cmdline>
J2VwaWtfcHl0aG9uJywgJy1waCcsICc3LjAnLCAnLXRuJywgJzgnLCAnLW1hJywgJzIwMCcsICctbWV0YWxfYmluZGluZycsICctaW1hZScsICc8aW5maWxlLm1hZT4nLCAnLW9tYWUnLCAnPG91dGZpbGUubWFlPic=

> <r_epik_Ionization_Penalty>
0.0195636

> <r_epik_Ionization_Penalty_Charging>
0

> <r_epik_Ionization_Penalty_Neutral>
0.0195636

> <r_epik_State_Penalty>
0.0155843

> <r_epik_Charging_Adjusted_Penalty>
0.0155843

> <i_epik_Tot_Q>
0

> <i_epik_Tot_abs_Q>
0

> <r_epik_Metal_State_Penalty>
0.0155842

> <b_epik_Metal_Only>
0

> <s_lp_Force_Field>
OPLS_2005

> <r_lp_Energy>
55.2683

> <b_lp_Chiralities_Consistent>
1

> <s_lp_Variant>
AV-unprocessed.smi:1211-1

> <Gold.Version>
5.8.1

> <Gold.Id.Protein>
6NUR|6NUR_protein|mol2

> <Gold.PLP.Fitness>
44.9786

> <Gold.PLP.PLP>
-42.5495

> <Gold.PLP.part.hbond>
-1.9328

> <Gold.PLP.part.metal>
0.0000

> <Gold.PLP.part.buried>
-5.8098

> <Gold.PLP.part.nonpolar>
-35.5408

> <Gold.PLP.part.repulsive>
0.5733

> <Gold.PLP.ligand.clash>
0.0000

> <Gold.PLP.ligand.torsion>
1.1510

> <Gold.PLP.Chemscore.Hbond>
1.5482

> <Gold.PLP.Chemscore.CHOScore>
0.0000

> <Gold.PLP.Chemscore.Metal>
0.0000

> <Gold.Chemscore.Hbonds>
donor molecule, donor type, donor heavy atom, donor atom, acceptor molecule, acceptor atom, score
      L1  H    11    31       P1  8028  1.00

> <Gold.PLP.Chemscore.Internal.Correction>
0.0866

> <Gold.Rescore>
     Score         DG    S(hbond)    S(metal)    S(lipo)     H(rot)  DE(clash)    DE(int)     intcor
     17.31     -21.09       1.83        0.00     112.82       1.44       1.88       1.90       ----

> <Gold.Chemscore.Fitness>
17.3094

> <Gold.Chemscore.DG>
-21.0918

> <Gold.Chemscore.ZeroCoef>
-5.4800

> <Gold.Chemscore.Hbond>
1.8262

> <Gold.Chemscore.Metal>
0.0000

> <Gold.Chemscore.Lipo>
112.8194

> <Gold.Chemscore.Internal_Hbond>
0.0000

> <Gold.Chemscore.DEClash>
1.8844

> <Gold.Chemscore.DEInternal>
1.8980

> <Gold.Chemscore.Rot>
1.4405

> <Gold.Chemscore.Internal.Correction>
   9.000000E+99

> <Gold.Chemscore.Hbonds>
donor molecule, donor type, donor heavy atom, donor atom, acceptor molecule, acceptor atom, score
      L1  H     8    30       P1  8028  0.03
      L1  H    11    31       P1  8028  1.00

> <Gold.Chemscore.Hbond.Weighted>
-6.0995

> <Gold.Chemscore.Metal.Weighted>
-0.0000

> <Gold.Chemscore.Lipo.Weighted>
-13.1999

> <Gold.Chemscore.Internal_Hbond.Weighted>
0.0000

> <Gold.Chemscore.DEClash.Weighted>
1.8844

> <Gold.Chemscore.DEInternal.Weighted>
1.8980

> <Gold.Chemscore.Rot.Weighted>
3.6876

> <Gold.Chemscore.Internal.Correction.Weighted>
   9.000000E+99

> <Gold.Protein.RotatedTorsions>
[ 6907 6896 6895 6894 ] final  -55.62 input  -60.11 | X-H torsion
[ 7974 7965 7964 7962 ] final  -21.32 input  175.53 | X-H torsion
[ 8008 7997 7996 7995 ] final -171.94 input   59.86 | X-H torsion
[ 10167 10162 10161 10158 ] final  151.06 input  -65.29 | X-H torsion
[ 10718 10713 10712 10709 ] final  179.29 input   66.30 | X-H torsion
[ 10763 10752 10751 10750 ] final  160.10 input  -60.55 | X-H torsion
[ 11005 11000 10999 10996 ] final  -86.02 input  -57.11 | X-H torsion

> <Gold.Protein.ActiveResidues>
 VAL166  LYS551  ARG553  GLY616  TRP617  ASP618  TYR619  PRO620  LYS621  CYS622 
 ASP623  PHE694  ASN695  SER759  ASP760  ASP761  ALA762  ILE779  LEU786  VAL792 
 PHE793  MET794  SER795  GLU796  ALA797  LYS798  CYS799  TRP800  GLU811  SER814 

> <Gold.Protein.RotatedAtoms>
  150.8236  134.7456  159.6793 H   0  0  0  0  0  0  0  0  0  0  0  0  # atno 6907 bound_to 6896
  152.4349  134.5702  159.9929 H   0  0  0  0  0  0  0  0  0  0  0  0  # atno 6908 bound_to 6896
  151.5880  133.3332  159.3058 H   0  0  0  0  0  0  0  0  0  0  0  0  # atno 6909 bound_to 6896
  146.1739  140.4325  142.8521 H   0  0  0  0  0  0  0  0  0  0  0  0  # atno 7974 bound_to 7965
  155.9381  140.1103  157.1078 H   0  0  0  0  0  0  0  0  0  0  0  0  # atno 8008 bound_to 7997
  154.4084  140.1224  156.4956 H   0  0  0  0  0  0  0  0  0  0  0  0  # atno 8009 bound_to 7997
  155.6996  140.3472  155.4930 H   0  0  0  0  0  0  0  0  0  0  0  0  # atno 8010 bound_to 7997
  139.4844  144.5472  151.7464 H   0  0  0  0  0  0  0  0  0  0  0  0  # atno 10167 bound_to 10162
  156.8779  130.9806  151.3065 H   0  0  0  0  0  0  0  0  0  0  0  0  # atno 10718 bound_to 10713
  154.2422  135.2774  155.2849 H   0  0  0  0  0  0  0  0  0  0  0  0  # atno 10763 bound_to 10752
  154.5536  135.5668  153.6947 H   0  0  0  0  0  0  0  0  0  0  0  0  # atno 10764 bound_to 10752
  152.9997  135.6280  154.2566 H   0  0  0  0  0  0  0  0  0  0  0  0  # atno 10765 bound_to 10752
  141.1635  133.7431  156.9100 H   0  0  0  0  0  0  0  0  0  0  0  0  # atno 11005 bound_to 11000
  144.8206  140.6543  143.6355 LP  0  0  0  0  0  0  0  0  0  0  0  0  # atno 17320 bound_to 7965
  145.4264  139.1556  143.4046 LP  0  0  0  0  0  0  0  0  0  0  0  0  # atno 17321 bound_to 7965
  140.5020  144.1155  150.5973 LP  0  0  0  0  0  0  0  0  0  0  0  0  # atno 17342 bound_to 10162
  140.4051  143.2684  151.9901 LP  0  0  0  0  0  0  0  0  0  0  0  0  # atno 17343 bound_to 10162
  157.6157  130.8617  149.9025 LP  0  0  0  0  0  0  0  0  0  0  0  0  # atno 17370 bound_to 10713
  156.0692  130.3687  150.0812 LP  0  0  0  0  0  0  0  0  0  0  0  0  # atno 17371 bound_to 10713
  140.1524  134.9221  157.2609 LP  0  0  0  0  0  0  0  0  0  0  0  0  # atno 17394 bound_to 11000
  140.2707  134.3463  155.7374 LP  0  0  0  0  0  0  0  0  0  0  0  0  # atno 17395 bound_to 11000

$$$$
