#       Name:                AV-unprocessed.smi:21
#       Creating user name   scv26
#       Creation time:       Thu Mar 26 15:31:09 2020


#       File generated by GOLD software.
#

@<TRIPOS>MOLECULE
AV-unprocessed.smi:21
    71    74     1
SMALL
NO_CHARGES


@<TRIPOS>ATOM
      1 ****        -0.3237  -1.2725  -3.3083 C.3            1 S1                 0.0000
      2 ****        -1.2862  -1.8429  -2.4356 O.3            1 S1                 0.0000
      3 ****        -2.3698  -0.9746  -2.1400 C.3            1 S1                 0.0000
      4 ****        -1.9886   0.1647  -1.2016 C.3            1 S1                 0.0000
      5 ****        -3.3228   0.5798  -0.5617 C.3            1 S1                 0.0000
      6 ****        -3.1753   1.2659   0.8225 C.3            1 S1                 0.0000
      7 ****        -2.4742   2.5504   0.7692 N.pl3          1 S1                 0.0000
      8 ****        -3.1946   3.6870   0.2018 C.3            1 S1                 0.0000
      9 ****        -1.1160   2.5429   0.6766 C.ar           1 S1                 0.0000
     10 ****        -0.5164   3.3162  -0.2685 N.ar           1 S1                 0.0000
     11 ****         0.8093   3.2923  -0.4279 C.ar           1 S1                 0.0000
     12 ****         1.7143   2.5732   0.2359 N.ar           1 S1                 0.0000
     13 ****         1.1271   1.8077   1.1983 C.ar           1 S1                 0.0000
     14 ****        -0.2650   1.7413   1.4940 C.ar           1 S1                 0.0000
     15 ****        -0.4731   0.8708   2.5585 N.2            1 S1                 0.0000
     16 ****         0.7184   0.4329   2.8586 C.2            1 S1                 0.0000
     17 ****         1.7342   0.9198   2.0686 N.pl3          1 S1                 0.0000
     18 ****         3.1440   0.5885   2.1672 C.3            1 S1                 0.0000
     19 ****         3.7332  -0.1301   0.9202 C.3            1 S1                 0.0000
     20 ****         5.2562  -0.3237   1.1220 C.3            1 S1                 0.0000
     21 ****         5.9250   0.9155   1.2388 O.3            1 S1                 0.0000
     22 ****         3.0237  -1.4800   0.5927 C.3            1 S1                 0.0000
     23 ****         3.6861  -2.3088  -0.4987 C.3            1 S1                 0.0000
     24 ****         2.5768  -3.2690  -0.9020 C.3            1 S1                 0.0000
     25 ****         1.3909  -2.4943  -0.8309 O.3            1 S1                 0.0000
     26 ****         1.5999  -1.3704   0.0180 C.3            1 S1                 0.0000
     27 ****        -4.1728  -0.6490  -0.5875 N.4            1 S1                 1.0000
     28 ****        -4.7372  -1.1294   0.6959 C.3            1 S1                 0.0000
     29 ****        -3.4364  -1.7005  -1.3257 C.3            1 S1                 0.0000
     30 ****        -2.8180  -0.5812  -3.0545 H              1 S1                 0.0000
     31 ****        -3.8160   1.2774  -1.2399 H              1 S1                 0.0000
     32 ****         0.4526  -2.0069  -3.5225 H              1 S1                 0.0000
     33 ****         0.1582  -0.4027  -2.8606 H              1 S1                 0.0000
     34 ****        -0.7752  -0.9751  -4.2553 H              1 S1                 0.0000
     35 ****        -1.3058  -0.2084  -0.4366 H              1 S1                 0.0000
     36 ****        -1.4961   0.9873  -1.7206 H              1 S1                 0.0000
     37 ****        -4.1642   1.4749   1.2307 H              1 S1                 0.0000
     38 ****        -2.7072   0.5882   1.5319 H              1 S1                 0.0000
     39 ****        -2.7696   4.6293   0.5503 H              1 S1                 0.0000
     40 ****        -4.2426   3.6662   0.5014 H              1 S1                 0.0000
     41 ****        -3.1538   3.6696  -0.8879 H              1 S1                 0.0000
     42 ****         1.1998   3.9345  -1.2036 H              1 S1                 0.0000
     43 ****         0.8868  -0.2775   3.6551 H              1 S1                 0.0000
     44 ****         3.6736   1.5224   2.3575 H              1 S1                 0.0000
     45 ****         3.2920  -0.0299   3.0534 H              1 S1                 0.0000
     46 ****         3.6105   0.5222   0.0547 H              1 S1                 0.0000
     47 ****         5.4562  -0.9267   2.0082 H              1 S1                 0.0000
     48 ****         5.7102  -0.8369   0.2756 H              1 S1                 0.0000
     49 ****         6.8490   0.7503   1.3490 H              1 S1                 0.0000
     50 ****         2.9865  -2.0904   1.4966 H              1 S1                 0.0000
     51 ****         3.9593  -1.6785  -1.3464 H              1 S1                 0.0000
     52 ****         4.5778  -2.8366  -0.1595 H              1 S1                 0.0000
     53 ****         2.7229  -3.6891  -1.8972 H              1 S1                 0.0000
     54 ****         2.5056  -4.0920  -0.1897 H              1 S1                 0.0000
     55 ****         0.8385  -1.3574   0.7960 H              1 S1                 0.0000
     56 ****         1.4839  -0.4693  -0.5850 H              1 S1                 0.0000
     57 ****        -3.9520  -1.3836   1.4092 H              1 S1                 0.0000
     58 ****        -5.3370  -2.0243   0.5269 H              1 S1                 0.0000
     59 ****        -5.3938  -0.3832   1.1429 H              1 S1                 0.0000
     60 ****        -4.1029  -2.2989  -1.9473 H              1 S1                 0.0000
     61 ****        -2.9516  -2.3725  -0.6148 H              1 S1                 0.0000
     62 ****        -4.9652  -0.4078  -1.1658 H              1 S1                 0.0000
     63 ****        -0.8318  -2.0847  -1.5783 LP             1 S1                 0.0000
     64 ****        -1.6511  -2.6694  -2.8642 LP             1 S1                 0.0000
     65 ****        -1.0741   3.9087  -0.8499 LP             1 S1                 0.0000
     66 ****         2.6970   2.5930   0.0515 LP             1 S1                 0.0000
     67 ****        -1.3408   0.6340   2.9954 LP             1 S1                 0.0000
     68 ****         5.5749   1.4138   2.0319 LP             1 S1                 0.0000
     69 ****         5.7760   1.4580   0.4120 LP             1 S1                 0.0000
     70 ****         0.6494  -3.0552  -0.4628 LP             1 S1                 0.0000
     71 ****         1.1458  -2.1774  -1.7472 LP             1 S1                 0.0000
@<TRIPOS>BOND
    1    1    2 1     
    2    1   32 1     
    3    1   33 1     
    4    1   34 1     
    5    2    3 1     
    6    3   30 1     
    7    3   29 1     
    8    3    4 1     
    9    4    5 1     
   10    4   35 1     
   11    4   36 1     
   12    5   31 1     
   13    5    6 1     
   14    5   27 1     
   15    6    7 1     
   16    6   37 1     
   17    6   38 1     
   18    7    8 1     
   19    7    9 1     
   20    8   39 1     
   21    8   40 1     
   22    8   41 1     
   23    9   14 ar    
   24    9   10 ar    
   25   10   11 ar    
   26   11   12 ar    
   27   11   42 1     
   28   12   13 ar    
   29   13   17 1     
   30   13   14 ar    
   31   14   15 1     
   32   15   16 2     
   33   16   17 1     
   34   16   43 1     
   35   17   18 1     
   36   18   19 1     
   37   18   44 1     
   38   18   45 1     
   39   19   20 1     
   40   19   22 1     
   41   19   46 1     
   42   20   21 1     
   43   20   47 1     
   44   20   48 1     
   45   21   49 1     
   46   22   26 1     
   47   22   23 1     
   48   22   50 1     
   49   23   24 1     
   50   23   51 1     
   51   23   52 1     
   52   24   25 1     
   53   24   53 1     
   54   24   54 1     
   55   25   26 1     
   56   26   55 1     
   57   26   56 1     
   58   27   28 1     
   59   27   29 1     
   60   27   62 1     
   61   28   57 1     
   62   28   58 1     
   63   28   59 1     
   64   29   60 1     
   65   29   61 1     
   66    2   63 1     
   67    2   64 1     
   68   10   65 1     
   69   12   66 1     
   70   15   67 1     
   71   21   68 1     
   72   21   69 1     
   73   25   70 1     
   74   25   71 1     
@<TRIPOS>SUBSTRUCTURE
      1 S1             1
@<TRIPOS>SET
LONE_PAIRS      STATIC     ATOMS    <user>   **** ""
9 63 64 65 66 67 68 69 70 71
DONOR_HYDROGENS      STATIC     ATOMS    <user>   **** ""
2 49 62
ATOM$BLUE        STATIC     ATOMS    COLORGROUP SYSTEM
9 63 64 65 66 67 68 69 70 71
ATOM$RED        STATIC     ATOMS    COLORGROUP SYSTEM
2 49 62
