AV-unprocessed.smi:1224|AV-procd|sdf|5133|dock5
  -GOLD-   22720 4193D 1   1.00000     0.00000
 Structure written by MMmdl.
 43 45  0  0  0  0  0  0  0  0  1 V2000
  152.2181  142.7395  160.9797 C   0  0  0  0  0  0  0  0  0  0  0  0
  152.1859  141.9070  159.7100 C   0  0  0  0  0  0  0  0  0  0  0  0
  151.3019  142.2732  158.6700 C   0  0  0  0  0  0  0  0  0  0  0  0
  151.2419  141.5257  157.4735 C   0  0  0  0  0  0  0  0  0  0  0  0
  150.4616  141.6997  156.3433 N   0  0  0  0  0  0  0  0  0  0  0  0
  150.8636  140.6865  155.5816 C   0  0  0  0  0  0  0  0  0  0  0  0
  151.8205  139.8808  156.0816 N   0  0  0  0  0  0  0  0  0  0  0  0
  152.4184  138.7245  155.4383 C   0  0  0  0  0  0  0  0  0  0  0  0
  151.4082  137.9294  154.5874 C   0  0  1  0  0  0  0  0  0  0  0  0
  152.1489  137.0675  153.7490 O   0  0  0  0  0  0  0  0  0  0  0  0
  150.4344  137.0759  155.4227 C   0  0  0  0  0  0  0  0  0  0  0  0
  149.9004  135.9664  154.6390 N   0  0  0  0  0  0  0  0  0  0  0  0
  148.9687  135.1322  155.3892 C   0  0  0  0  0  0  0  0  0  0  0  0
  148.9415  133.7298  154.8810 C   0  0  0  0  0  0  0  0  0  0  0  0
  149.3895  132.5979  155.5138 C   0  0  0  0  0  0  0  0  0  0  0  0
  149.2120  131.4143  154.7387 C   0  0  0  0  0  0  0  0  0  0  0  0
  148.6305  131.6587  153.5229 C   0  0  0  0  0  0  0  0  0  0  0  0
  148.2879  133.3534  153.3066 S   0  0  0  0  0  0  0  0  0  0  0  0
  152.0991  140.3941  157.3436 C   0  0  0  0  0  0  0  0  0  0  0  0
  152.9813  140.0185  158.3719 C   0  0  0  0  0  0  0  0  0  0  0  0
  153.0278  140.7757  159.5611 C   0  0  0  0  0  0  0  0  0  0  0  0
  153.9844  140.3620  160.6654 C   0  0  0  0  0  0  0  0  0  0  0  0
  151.5110  143.5682  160.9312 H   0  0  0  0  0  0  0  0  0  0  0  0
  153.2125  143.1578  161.1367 H   0  0  0  0  0  0  0  0  0  0  0  0
  151.9585  142.1285  161.8445 H   0  0  0  0  0  0  0  0  0  0  0  0
  150.6600  143.1344  158.7828 H   0  0  0  0  0  0  0  0  0  0  0  0
  150.4440  140.5248  154.5993 H   0  0  0  0  0  0  0  0  0  0  0  0
  153.2437  139.0744  154.8166 H   0  0  0  0  0  0  0  0  0  0  0  0
  152.8552  138.0845  156.2066 H   0  0  0  0  0  0  0  0  0  0  0  0
  150.8505  138.6262  153.9600 H   0  0  0  0  0  0  0  0  0  0  0  0
  151.6080  136.8370  153.0087 H   0  0  0  0  0  0  0  0  0  0  0  0
  150.9221  136.7138  156.3289 H   0  0  0  0  0  0  0  0  0  0  0  0
  149.5988  137.6928  155.7528 H   0  0  0  0  0  0  0  0  0  0  0  0
  149.4312  136.3359  153.8181 H   0  0  0  0  0  0  0  0  0  0  0  0
  149.2448  135.1236  156.4442 H   0  0  0  0  0  0  0  0  0  0  0  0
  147.9663  135.5588  155.3385 H   0  0  0  0  0  0  0  0  0  0  0  0
  149.8347  132.5797  156.4979 H   0  0  0  0  0  0  0  0  0  0  0  0
  149.5129  130.4401  155.0947 H   0  0  0  0  0  0  0  0  0  0  0  0
  148.3830  130.9512  152.7453 H   0  0  0  0  0  0  0  0  0  0  0  0
  153.6169  139.1546  158.2454 H   0  0  0  0  0  0  0  0  0  0  0  0
  154.5522  139.4736  160.3875 H   0  0  0  0  0  0  0  0  0  0  0  0
  153.4371  140.1360  161.5808 H   0  0  0  0  0  0  0  0  0  0  0  0
  154.6956  141.1615  160.8748 H   0  0  0  0  0  0  0  0  0  0  0  0
  1  2  1  0  0  0  0
  1 23  1  0  0  0  0
  1 24  1  0  0  0  0
  1 25  1  0  0  0  0
  2 21  1  0  0  0  0
  2  3  2  0  0  0  0
  3  4  1  0  0  0  0
  3 26  1  0  0  0  0
  4 19  2  0  0  0  0
  4  5  1  0  0  0  0
  5  6  2  0  0  0  0
  6  7  1  0  0  0  0
  6 27  1  0  0  0  0
  7  8  1  0  0  0  0
  7 19  1  0  0  0  0
  8  9  1  0  0  0  0
  8 28  1  0  0  0  0
  8 29  1  0  0  0  0
  9 10  1  0  0  0  0
  9 11  1  0  0  0  0
  9 30  1  0  0  0  0
 10 31  1  0  0  0  0
 11 12  1  0  0  0  0
 11 32  1  0  0  0  0
 11 33  1  0  0  0  0
 12 13  1  0  0  0  0
 12 34  1  0  0  0  0
 13 14  1  0  0  0  0
 13 35  1  0  0  0  0
 13 36  1  0  0  0  0
 14 18  1  0  0  0  0
 14 15  2  0  0  0  0
 15 16  1  0  0  0  0
 15 37  1  0  0  0  0
 16 17  2  0  0  0  0
 16 38  1  0  0  0  0
 17 18  1  0  0  0  0
 17 39  1  0  0  0  0
 19 20  1  0  0  0  0
 20 21  2  0  0  0  0
 20 40  1  0  0  0  0
 21 22  1  0  0  0  0
 22 41  1  0  0  0  0
 22 42  1  0  0  0  0
 22 43  1  0  0  0  0
M  END
> <s_m_source_file>
AV-unprocessed.smi

> <i_m_source_file_index>
1224

> <i_lp_mmshare_version>
43012

> <i_f3d_flags>
0

> <s_epik_input>
W0NIM11jKFtjSF0xKWMoW0NIM10pW2NIXWMoYzEyKW4oW2NIXW4yKVtDSDJdW0NASF0oW09IXSlbQ0gyXVtOSF1bQ0gyXWMzW2NIXVtjSF1bY0hdczM=

> <s_epik_cmdline>
J2VwaWtfcHl0aG9uJywgJy1waCcsICc3LjAnLCAnLXRuJywgJzgnLCAnLW1hJywgJzIwMCcsICctbWV0YWxfYmluZGluZycsICctaW1hZScsICc8aW5maWxlLm1hZT4nLCAnLW9tYWUnLCAnPG91dGZpbGUubWFlPic=

> <r_epik_Ionization_Penalty>
1.55566

> <r_epik_Ionization_Penalty_Charging>
0

> <r_epik_Ionization_Penalty_Neutral>
1.55566

> <r_epik_State_Penalty>
1.63945

> <r_epik_Charging_Adjusted_Penalty>
1.63945

> <i_epik_Tot_Q>
0

> <i_epik_Tot_abs_Q>
0

> <r_epik_Metal_State_Penalty>
1.52326

> <b_epik_Metal_Only>
0

> <s_lp_Force_Field>
OPLS_2005

> <r_lp_Energy>
15.3814

> <b_lp_Chiralities_Consistent>
1

> <s_lp_Variant>
AV-unprocessed.smi:1224-6

> <Gold.Version>
5.8.1

> <Gold.Id.Protein>
6NUR|6NUR_protein|mol2

> <Gold.PLP.Fitness>
55.8350

> <Gold.PLP.PLP>
-45.6152

> <Gold.PLP.part.hbond>
-3.0863

> <Gold.PLP.part.metal>
0.0000

> <Gold.PLP.part.buried>
-0.6007

> <Gold.PLP.part.nonpolar>
-39.6208

> <Gold.PLP.part.repulsive>
0.0825

> <Gold.PLP.ligand.clash>
0.0000

> <Gold.PLP.ligand.torsion>
0.9206

> <Gold.PLP.Chemscore.Hbond>
3.0000

> <Gold.PLP.Chemscore.CHOScore>
1.0000

> <Gold.PLP.Chemscore.Metal>
0.0000

> <Gold.Chemscore.Hbonds>
donor molecule, donor type, donor heavy atom, donor atom, acceptor molecule, acceptor atom, score
      L1  H    10    31       P1  7949  1.00
      L1  H    12    34       P1  7948  0.99
      P1  H 10752 10765       L1    10  1.00
      L1  C    17    39       P1 10747  1.00

> <Gold.PLP.Chemscore.Internal.Correction>
0.0610

> <Gold.Rescore>
     Score         DG    S(hbond)    S(metal)    S(lipo)     H(rot)  DE(clash)    DE(int)     intcor
     19.07     -20.72       2.35        0.00     113.86       2.32       0.86       0.79       ----

> <Gold.Chemscore.Fitness>
19.0651

> <Gold.Chemscore.DG>
-20.7212

> <Gold.Chemscore.ZeroCoef>
-5.4800

> <Gold.Chemscore.Hbond>
2.3509

> <Gold.Chemscore.Metal>
0.0000

> <Gold.Chemscore.Lipo>
113.8586

> <Gold.Chemscore.Internal_Hbond>
0.0000

> <Gold.Chemscore.DEClash>
0.8628

> <Gold.Chemscore.DEInternal>
0.7933

> <Gold.Chemscore.Rot>
2.3173

> <Gold.Chemscore.Internal.Correction>
   9.000000E+99

> <Gold.Chemscore.Hbonds>
donor molecule, donor type, donor heavy atom, donor atom, acceptor molecule, acceptor atom, score
      L1  H    10    31       P1  7949  0.95
      L1  H    12    34       P1  7948  0.72
      P1  H 10752 10765       L1    10  0.39

> <Gold.Chemscore.Hbond.Weighted>
-7.8521

> <Gold.Chemscore.Metal.Weighted>
-0.0000

> <Gold.Chemscore.Lipo.Weighted>
-13.3215

> <Gold.Chemscore.Internal_Hbond.Weighted>
0.0000

> <Gold.Chemscore.DEClash.Weighted>
0.8628

> <Gold.Chemscore.DEInternal.Weighted>
0.7933

> <Gold.Chemscore.Rot.Weighted>
5.9324

> <Gold.Chemscore.Internal.Correction.Weighted>
   9.000000E+99

> <Gold.Protein.RotatedTorsions>
[ 6907 6896 6895 6894 ] final   23.38 input  -60.11 | X-H torsion
[ 7974 7965 7964 7962 ] final   53.08 input  175.53 | X-H torsion
[ 8008 7997 7996 7995 ] final   17.09 input   59.86 | X-H torsion
[ 10167 10162 10161 10158 ] final   16.64 input  -65.29 | X-H torsion
[ 10718 10713 10712 10709 ] final -110.85 input   66.30 | X-H torsion
[ 10763 10752 10751 10750 ] final  140.25 input  -60.55 | X-H torsion
[ 11005 11000 10999 10996 ] final  -87.41 input  -57.11 | X-H torsion

> <Gold.Protein.ActiveResidues>
 VAL166  LYS551  ARG553  GLY616  TRP617  ASP618  TYR619  PRO620  LYS621  CYS622 
 ASP623  PHE694  ASN695  SER759  ASP760  ASP761  ALA762  ILE779  LEU786  VAL792 
 PHE793  MET794  SER795  GLU796  ALA797  LYS798  CYS799  TRP800  GLU811  SER814 

> <Gold.Protein.RotatedAtoms>
  151.9414  135.0211  160.0535 H   0  0  0  0  0  0  0  0  0  0  0  0  # atno 6907 bound_to 6896
  152.2033  133.4852  159.5078 H   0  0  0  0  0  0  0  0  0  0  0  0  # atno 6908 bound_to 6896
  150.6959  134.1479  159.4172 H   0  0  0  0  0  0  0  0  0  0  0  0  # atno 6909 bound_to 6896
  145.9748  139.4184  143.0168 H   0  0  0  0  0  0  0  0  0  0  0  0  # atno 7974 bound_to 7965
  154.8864  140.2980  155.5395 H   0  0  0  0  0  0  0  0  0  0  0  0  # atno 8008 bound_to 7997
  156.3021  140.2432  156.3808 H   0  0  0  0  0  0  0  0  0  0  0  0  # atno 8009 bound_to 7997
  154.8663  140.0403  157.1686 H   0  0  0  0  0  0  0  0  0  0  0  0  # atno 8010 bound_to 7997
  140.5783  143.9031  150.6768 H   0  0  0  0  0  0  0  0  0  0  0  0  # atno 10167 bound_to 10162
  156.0614  130.5837  150.8294 H   0  0  0  0  0  0  0  0  0  0  0  0  # atno 10718 bound_to 10713
  153.9195  135.3002  155.3448 H   0  0  0  0  0  0  0  0  0  0  0  0  # atno 10763 bound_to 10752
  154.7582  135.4947  153.9418 H   0  0  0  0  0  0  0  0  0  0  0  0  # atno 10764 bound_to 10752
  153.1149  135.6768  153.9538 H   0  0  0  0  0  0  0  0  0  0  0  0  # atno 10765 bound_to 10752
  141.1617  133.7510  156.9302 H   0  0  0  0  0  0  0  0  0  0  0  0  # atno 11005 bound_to 11000
  145.7854  140.9838  143.1077 LP  0  0  0  0  0  0  0  0  0  0  0  0  # atno 17320 bound_to 7965
  144.6846  139.9616  143.7480 LP  0  0  0  0  0  0  0  0  0  0  0  0  # atno 17321 bound_to 7965
  140.2523  143.3584  152.1395 LP  0  0  0  0  0  0  0  0  0  0  0  0  # atno 17342 bound_to 10162
  139.5155  144.6963  151.5619 LP  0  0  0  0  0  0  0  0  0  0  0  0  # atno 17343 bound_to 10162
  157.5625  131.0946  150.9538 LP  0  0  0  0  0  0  0  0  0  0  0  0  # atno 17370 bound_to 10713
  156.9773  130.5513  149.5294 LP  0  0  0  0  0  0  0  0  0  0  0  0  # atno 17371 bound_to 10713
  140.1391  134.9305  157.2442 LP  0  0  0  0  0  0  0  0  0  0  0  0  # atno 17394 bound_to 11000
  140.2858  134.3297  155.7329 LP  0  0  0  0  0  0  0  0  0  0  0  0  # atno 17395 bound_to 11000

$$$$
