AV-unprocessed.smi:152|AV-procd|sdf|1248|dock1
  -GOLD-   2262018473D 1   1.00000     0.00000
 Structure written by MMmdl.
 58 61  0  0  0  0  0  0  0  0  2 V2000
  146.8838  131.3138  153.6455 C   0  0  0  0  0  0  0  0  0  0  0  0
  147.2874  131.6825  152.2107 C   0  0  0  0  0  0  0  0  0  0  0  0
  146.1132  131.8448  151.3176 N   0  3  2  0  0  0  0  0  0  0  0  0
  146.4332  131.8935  149.8738 C   0  0  0  0  0  0  0  0  0  0  0  0
  145.3122  132.7008  149.2042 C   0  0  0  0  0  0  0  0  0  0  0  0
  144.3202  133.0100  150.3261 C   0  0  0  0  0  0  0  0  0  0  0  0
  145.1660  132.9504  151.6029 C   0  0  2  0  0  0  0  0  0  0  0  0
  145.8689  134.3032  151.9004 C   0  0  0  0  0  0  0  0  0  0  0  0
  144.9862  135.2844  152.5308 N   0  0  0  0  0  0  0  0  0  0  0  0
  144.2094  136.1312  151.6366 C   0  0  0  0  0  0  0  0  0  0  0  0
  145.4670  135.9724  153.5942 C   0  0  0  0  0  0  0  0  0  0  0  0
  145.3504  135.4623  154.8490 N   0  0  0  0  0  0  0  0  0  0  0  0
  145.8303  136.1418  155.8951 C   0  0  0  0  0  0  0  0  0  0  0  0
  146.4497  137.3240  155.9094 N   0  0  0  0  0  0  0  0  0  0  0  0
  146.5717  137.8361  154.6511 C   0  0  0  0  0  0  0  0  0  0  0  0
  146.1107  137.2305  153.4491 C   0  0  0  0  0  0  0  0  0  0  0  0
  146.3935  138.0480  152.3628 N   0  0  0  0  0  0  0  0  0  0  0  0
  146.9901  139.0807  152.8927 C   0  0  0  0  0  0  0  0  0  0  0  0
  147.1501  139.0311  154.2599 N   0  0  0  0  0  0  0  0  0  0  0  0
  147.7761  140.0403  155.1006 C   0  0  0  0  0  0  0  0  0  0  0  0
  149.2413  140.3781  154.7094 C   0  0  0  0  0  0  0  0  0  0  0  0
  149.1979  141.1879  153.5496 O   0  0  0  0  0  0  0  0  0  0  0  0
  150.0243  141.1566  155.7883 C   0  0  0  0  0  0  0  0  0  0  0  0
  150.3706  140.2538  156.9845 C   0  0  0  0  0  0  0  0  0  0  0  0
  151.1214  139.1295  156.5379 O   0  0  0  0  0  0  0  0  0  0  0  0
  150.4086  138.3048  155.6214 C   0  0  0  0  0  0  0  0  0  0  0  0
  150.0412  139.1080  154.3595 C   0  0  0  0  0  0  0  0  0  0  0  0
  147.7666  131.1343  154.2592 H   0  0  0  0  0  0  0  0  0  0  0  0
  146.2779  130.4075  153.6642 H   0  0  0  0  0  0  0  0  0  0  0  0
  146.3117  132.1090  154.1233 H   0  0  0  0  0  0  0  0  0  0  0  0
  147.9116  132.5762  152.2008 H   0  0  0  0  0  0  0  0  0  0  0  0
  147.9064  130.8789  151.8098 H   0  0  0  0  0  0  0  0  0  0  0  0
  147.3940  132.3832  149.7076 H   0  0  0  0  0  0  0  0  0  0  0  0
  146.5009  130.8812  149.4740 H   0  0  0  0  0  0  0  0  0  0  0  0
  145.7168  133.6280  148.7961 H   0  0  0  0  0  0  0  0  0  0  0  0
  144.8416  132.1576  148.3840 H   0  0  0  0  0  0  0  0  0  0  0  0
  143.8017  133.9587  150.1830 H   0  0  0  0  0  0  0  0  0  0  0  0
  143.5599  132.2285  150.3601 H   0  0  0  0  0  0  0  0  0  0  0  0
  144.5424  132.6602  152.4488 H   0  0  0  0  0  0  0  0  0  0  0  0
  146.7328  134.1617  152.5496 H   0  0  0  0  0  0  0  0  0  0  0  0
  146.2568  134.7272  150.9737 H   0  0  0  0  0  0  0  0  0  0  0  0
  143.4618  136.7095  152.1807 H   0  0  0  0  0  0  0  0  0  0  0  0
  143.6849  135.5236  150.8992 H   0  0  0  0  0  0  0  0  0  0  0  0
  144.8605  136.8259  151.1047 H   0  0  0  0  0  0  0  0  0  0  0  0
  145.7002  135.6710  156.8583 H   0  0  0  0  0  0  0  0  0  0  0  0
  147.3383  139.9108  152.2953 H   0  0  0  0  0  0  0  0  0  0  0  0
  147.1498  140.9309  155.0642 H   0  0  0  0  0  0  0  0  0  0  0  0
  147.7354  139.6934  156.1340 H   0  0  0  0  0  0  0  0  0  0  0  0
  149.0673  140.6304  152.7978 H   0  0  0  0  0  0  0  0  0  0  0  0
  150.9584  141.5273  155.3633 H   0  0  0  0  0  0  0  0  0  0  0  0
  149.4812  142.0412  156.1193 H   0  0  0  0  0  0  0  0  0  0  0  0
  150.9688  140.8085  157.7074 H   0  0  0  0  0  0  0  0  0  0  0  0
  149.4726  139.9231  157.5075 H   0  0  0  0  0  0  0  0  0  0  0  0
  151.0406  137.4589  155.3511 H   0  0  0  0  0  0  0  0  0  0  0  0
  149.5228  137.8894  156.1027 H   0  0  0  0  0  0  0  0  0  0  0  0
  149.4845  138.4815  153.6615 H   0  0  0  0  0  0  0  0  0  0  0  0
  150.9659  139.3849  153.8503 H   0  0  0  0  0  0  0  0  0  0  0  0
  145.5638  131.0046  151.4288 H   0  0  0  0  0  0  0  0  0  0  0  0
  1  2  1  0  0  0  0
  1 28  1  0  0  0  0
  1 29  1  0  0  0  0
  1 30  1  0  0  0  0
  2  3  1  0  0  0  0
  2 31  1  0  0  0  0
  2 32  1  0  0  0  0
  3  7  1  0  0  0  0
  3  4  1  0  0  0  0
  3 58  1  0  0  0  0
  4  5  1  0  0  0  0
  4 33  1  0  0  0  0
  4 34  1  0  0  0  0
  5  6  1  0  0  0  0
  5 35  1  0  0  0  0
  5 36  1  0  0  0  0
  6  7  1  0  0  0  0
  6 37  1  0  0  0  0
  6 38  1  0  0  0  0
  7  8  1  0  0  0  0
  7 39  1  0  0  0  0
  8  9  1  0  0  0  0
  8 40  1  0  0  0  0
  8 41  1  0  0  0  0
  9 10  1  0  0  0  0
  9 11  1  0  0  0  0
 10 42  1  0  0  0  0
 10 43  1  0  0  0  0
 10 44  1  0  0  0  0
 11 16  1  0  0  0  0
 11 12  2  0  0  0  0
 12 13  1  0  0  0  0
 13 14  2  0  0  0  0
 13 45  1  0  0  0  0
 14 15  1  0  0  0  0
 15 19  1  0  0  0  0
 15 16  2  0  0  0  0
 16 17  1  0  0  0  0
 17 18  2  0  0  0  0
 18 19  1  0  0  0  0
 18 46  1  0  0  0  0
 19 20  1  0  0  0  0
 20 21  1  0  0  0  0
 20 47  1  0  0  0  0
 20 48  1  0  0  0  0
 21 27  1  0  0  0  0
 21 22  1  0  0  0  0
 21 23  1  0  0  0  0
 22 49  1  0  0  0  0
 23 24  1  0  0  0  0
 23 50  1  0  0  0  0
 23 51  1  0  0  0  0
 24 25  1  0  0  0  0
 24 52  1  0  0  0  0
 24 53  1  0  0  0  0
 25 26  1  0  0  0  0
 26 27  1  0  0  0  0
 26 54  1  0  0  0  0
 26 55  1  0  0  0  0
 27 56  1  0  0  0  0
 27 57  1  0  0  0  0
M  CHG  1   3   1
M  END
> <s_m_source_file>
AV-unprocessed.smi

> <i_m_source_file_index>
152

> <i_lp_mmshare_version>
43012

> <i_f3d_flags>
0

> <s_epik_input>
W0NIM11bQ0gyXU4xW0NIMl1bQ0gyXVtDSDJdW0NASF0xW0NIMl1OKFtDSDNdKWMobltjSF1uMiljKGMyMyluW2NIXW4zW0NIMl1DNChbT0hdKVtDSDJdW0NIMl1PW0NIMl1bQ0gyXTQ=

> <s_epik_cmdline>
J2VwaWtfcHl0aG9uJywgJy1waCcsICc3LjAnLCAnLXRuJywgJzgnLCAnLW1hJywgJzIwMCcsICctbWV0YWxfYmluZGluZycsICctaW1hZScsICc8aW5maWxlLm1hZT4nLCAnLW9tYWUnLCAnPG91dGZpbGUubWFlPic=

> <r_lp_tautomer_probability>
1

> <r_epik_Ionization_Penalty>
0.00152183

> <r_epik_Ionization_Penalty_Charging>
0.00112577

> <r_epik_Ionization_Penalty_Neutral>
0.000396066

> <r_epik_State_Penalty>
-0

> <r_epik_Charging_Adjusted_Penalty>
0.00112577

> <i_epik_Tot_Q>
1

> <i_epik_Tot_abs_Q>
1

> <r_epik_Metal_State_Penalty>
-0

> <b_epik_Metal_Only>
0

> <s_lp_Force_Field>
OPLS_2005

> <r_lp_Energy>
47.1196

> <b_lp_Chiralities_Consistent>
1

> <s_lp_Variant>
AV-unprocessed.smi:152-3

> <Gold.Version>
5.8.1

> <Gold.Id.Protein>
6NUR|6NUR_protein|mol2

> <Gold.PLP.Fitness>
41.9326

> <Gold.PLP.PLP>
-35.6672

> <Gold.PLP.part.hbond>
-2.3516

> <Gold.PLP.part.metal>
0.0000

> <Gold.PLP.part.buried>
-4.1249

> <Gold.PLP.part.nonpolar>
-28.2063

> <Gold.PLP.part.repulsive>
0.3926

> <Gold.PLP.ligand.clash>
0.0000

> <Gold.PLP.ligand.torsion>
1.4179

> <Gold.PLP.Chemscore.Hbond>
1.7747

> <Gold.PLP.Chemscore.CHOScore>
0.9404

> <Gold.PLP.Chemscore.Metal>
0.0000

> <Gold.Chemscore.Hbonds>
donor molecule, donor type, donor heavy atom, donor atom, acceptor molecule, acceptor atom, score
      L1  H    22    49       P1  7957  0.99
      P1  H  8011  8017       L1    22  0.25
      L1  C    18    46       P1  7957  0.91

> <Gold.PLP.Chemscore.Internal.Correction>
0.9560

> <Gold.Rescore>
     Score         DG    S(hbond)    S(metal)    S(lipo)     H(rot)  DE(clash)    DE(int)     intcor
     10.84     -12.94       1.31        0.00      86.34       2.73       0.28       1.82       ----

> <Gold.Chemscore.Fitness>
10.8420

> <Gold.Chemscore.DG>
-12.9415

> <Gold.Chemscore.ZeroCoef>
-5.4800

> <Gold.Chemscore.Hbond>
1.3055

> <Gold.Chemscore.Metal>
0.0000

> <Gold.Chemscore.Lipo>
86.3433

> <Gold.Chemscore.Internal_Hbond>
0.0000

> <Gold.Chemscore.DEClash>
0.2753

> <Gold.Chemscore.DEInternal>
1.8243

> <Gold.Chemscore.Rot>
2.7348

> <Gold.Chemscore.Internal.Correction>
   9.000000E+99

> <Gold.Chemscore.Hbonds>
donor molecule, donor type, donor heavy atom, donor atom, acceptor molecule, acceptor atom, score
      L1  H    22    49       P1  7957  0.94

> <Gold.Chemscore.Hbond.Weighted>
-4.3604

> <Gold.Chemscore.Metal.Weighted>
-0.0000

> <Gold.Chemscore.Lipo.Weighted>
-10.1022

> <Gold.Chemscore.Internal_Hbond.Weighted>
0.0000

> <Gold.Chemscore.DEClash.Weighted>
0.2753

> <Gold.Chemscore.DEInternal.Weighted>
1.8243

> <Gold.Chemscore.Rot.Weighted>
7.0010

> <Gold.Chemscore.Internal.Correction.Weighted>
   9.000000E+99

> <Gold.Protein.RotatedTorsions>
[ 6907 6896 6895 6894 ] final -156.05 input  -60.11 | X-H torsion
[ 7974 7965 7964 7962 ] final   56.35 input  175.53 | X-H torsion
[ 8008 7997 7996 7995 ] final   29.38 input   59.86 | X-H torsion
[ 10167 10162 10161 10158 ] final  -38.93 input  -65.29 | X-H torsion
[ 10718 10713 10712 10709 ] final  113.77 input   66.30 | X-H torsion
[ 10763 10752 10751 10750 ] final   48.27 input  -60.55 | X-H torsion
[ 11005 11000 10999 10996 ] final -176.55 input  -57.11 | X-H torsion

> <Gold.Protein.ActiveResidues>
 VAL166  LYS551  ARG553  GLY616  TRP617  ASP618  TYR619  PRO620  LYS621  CYS622 
 ASP623  PHE694  ASN695  SER759  ASP760  ASP761  ALA762  ILE779  LEU786  VAL792 
 PHE793  MET794  SER795  GLU796  ALA797  LYS798  CYS799  TRP800  GLU811  SER814 

> <Gold.Protein.RotatedAtoms>
  151.2818  133.4206  159.2627 H   0  0  0  0  0  0  0  0  0  0  0  0  # atno 6907 bound_to 6896
  151.0354  134.9570  159.8144 H   0  0  0  0  0  0  0  0  0  0  0  0  # atno 6908 bound_to 6896
  152.5354  134.2777  159.9048 H   0  0  0  0  0  0  0  0  0  0  0  0  # atno 6909 bound_to 6896
  145.9407  139.3886  143.0365 H   0  0  0  0  0  0  0  0  0  0  0  0  # atno 7974 bound_to 7965
  155.0736  140.3203  155.4623 H   0  0  0  0  0  0  0  0  0  0  0  0  # atno 8008 bound_to 7997
  156.2784  140.2107  156.5809 H   0  0  0  0  0  0  0  0  0  0  0  0  # atno 8009 bound_to 7997
  154.7035  140.0505  157.0468 H   0  0  0  0  0  0  0  0  0  0  0  0  # atno 8010 bound_to 7997
  140.7078  143.3246  151.2710 H   0  0  0  0  0  0  0  0  0  0  0  0  # atno 10167 bound_to 10162
  157.6319  131.0988  150.7089 H   0  0  0  0  0  0  0  0  0  0  0  0  # atno 10718 bound_to 10713
  152.9793  135.5949  154.3899 H   0  0  0  0  0  0  0  0  0  0  0  0  # atno 10763 bound_to 10752
  154.3555  135.2767  155.2350 H   0  0  0  0  0  0  0  0  0  0  0  0  # atno 10764 bound_to 10752
  154.4370  135.6022  153.6160 H   0  0  0  0  0  0  0  0  0  0  0  0  # atno 10765 bound_to 10752
  140.4508  134.6345  157.4800 H   0  0  0  0  0  0  0  0  0  0  0  0  # atno 11005 bound_to 11000
  145.8303  140.9634  143.0852 LP  0  0  0  0  0  0  0  0  0  0  0  0  # atno 17320 bound_to 7965
  144.6779  140.0154  143.7484 LP  0  0  0  0  0  0  0  0  0  0  0  0  # atno 17321 bound_to 7965
  139.6710  144.0019  152.2753 LP  0  0  0  0  0  0  0  0  0  0  0  0  # atno 17342 bound_to 10162
  139.9618  144.6552  150.8072 LP  0  0  0  0  0  0  0  0  0  0  0  0  # atno 17343 bound_to 10162
  156.7427  130.4744  149.5474 LP  0  0  0  0  0  0  0  0  0  0  0  0  # atno 17370 bound_to 10713
  156.1529  130.6322  151.0619 LP  0  0  0  0  0  0  0  0  0  0  0  0  # atno 17371 bound_to 10713
  140.0008  134.6840  155.9534 LP  0  0  0  0  0  0  0  0  0  0  0  0  # atno 17394 bound_to 11000
  141.1665  133.6537  156.4497 LP  0  0  0  0  0  0  0  0  0  0  0  0  # atno 17395 bound_to 11000

$$$$
