#       Name:                AV-unprocessed.smi:109
#       Creating user name   scv26
#       Creation time:       Thu Mar 26 18:05:19 2020


#       File generated by GOLD software.
#

@<TRIPOS>MOLECULE
AV-unprocessed.smi:109
    71    74     1
SMALL
NO_CHARGES


@<TRIPOS>ATOM
      1 ****        -5.2196   0.6122   3.4553 O.3            1 S1                 0.0000
      2 ****        -3.9431   0.7550   2.8706 C.3            1 S1                 0.0000
      3 ****        -4.0844   0.9946   1.3590 C.3            1 S1                 0.0000
      4 ****        -2.7265   1.2049   0.6522 C.3            1 S1                 0.0000
      5 ****        -1.9477  -0.0326   0.6967 N.pl3          1 S1                 0.0000
      6 ****        -0.5980  -0.0250   0.6210 C.ar           1 S1                 0.0000
      7 ****         0.1048   1.1373   0.6384 N.ar           1 S1                 0.0000
      8 ****         1.4382   1.1125   0.5629 C.ar           1 S1                 0.0000
      9 ****         2.2480   0.0562   0.4670 N.ar           1 S1                 0.0000
     10 ****         1.5502  -1.1162   0.4520 C.ar           1 S1                 0.0000
     11 ****         0.1338  -1.2367   0.5255 C.ar           1 S1                 0.0000
     12 ****        -0.2281  -2.5759   0.4852 N.2            1 S1                 0.0000
     13 ****         0.9114  -3.2068   0.3970 C.2            1 S1                 0.0000
     14 ****         2.0336  -2.4081   0.3610 N.pl3          1 S1                 0.0000
     15 ****         3.4583  -2.8651   0.2794 C.3            1 S1                 0.0000
     16 ****         4.1319  -2.4006   1.4122 O.3            1 S1                 0.0000
     17 ****         5.1664  -1.4877   1.0482 C.3            1 S1                 0.0000
     18 ****         6.3181  -1.5194   2.0687 C.3            1 S1                 0.0000
     19 ****         6.0067  -0.7031   3.1777 O.3            1 S1                 0.0000
     20 ****         5.5329  -1.9125  -0.3798 C.3            1 S1                 0.0000
     21 ****         6.4443  -3.0007  -0.3577 O.3            1 S1                 0.0000
     22 ****         4.1748  -2.3002  -0.9567 C.3            1 S1                 0.0000
     23 ****         4.2999  -3.2345  -2.0125 O.3            1 S1                 0.0000
     24 ****        -2.8455   1.7306  -0.8055 C.3            1 S1                 0.0000
     25 ****        -3.3623   3.1840  -0.8790 C.3            1 S1                 0.0000
     26 ****        -3.3584   3.7074  -2.3246 C.3            1 S1                 0.0000
     27 ****        -4.1784   2.7932  -3.2486 C.3            1 S1                 0.0000
     28 ****        -3.6786   1.3416  -3.1794 C.3            1 S1                 0.0000
     29 ****        -3.6804   0.8190  -1.7332 C.3            1 S1                 0.0000
     30 ****         3.4155  -3.9548   0.3025 H              1 S1                 0.0000
     31 ****         4.7520  -0.4808   1.0008 H              1 S1                 0.0000
     32 ****         5.9901  -1.0963  -0.9402 H              1 S1                 0.0000
     33 ****         3.6609  -1.4087  -1.3162 H              1 S1                 0.0000
     34 ****        -5.1106   0.4762   4.3842 H              1 S1                 0.0000
     35 ****        -3.4276   1.5903   3.3456 H              1 S1                 0.0000
     36 ****        -3.3620  -0.1451   3.0727 H              1 S1                 0.0000
     37 ****        -4.6184   0.1581   0.9066 H              1 S1                 0.0000
     38 ****        -4.7165   1.8703   1.2182 H              1 S1                 0.0000
     39 ****        -2.1943   1.9620   1.2294 H              1 S1                 0.0000
     40 ****        -2.4873  -0.8863   0.6939 H              1 S1                 0.0000
     41 ****         1.9257   2.0759   0.5819 H              1 S1                 0.0000
     42 ****         0.9639  -4.2851   0.3540 H              1 S1                 0.0000
     43 ****         6.5329  -2.5368   2.3968 H              1 S1                 0.0000
     44 ****         7.2287  -1.1222   1.6188 H              1 S1                 0.0000
     45 ****         6.7297  -0.7334   3.7854 H              1 S1                 0.0000
     46 ****         6.5536  -3.3130  -1.2434 H              1 S1                 0.0000
     47 ****         3.4337  -3.4583  -2.3168 H              1 S1                 0.0000
     48 ****        -1.8357   1.7554  -1.2173 H              1 S1                 0.0000
     49 ****        -4.3765   3.2508  -0.4864 H              1 S1                 0.0000
     50 ****        -2.7455   3.8321  -0.2555 H              1 S1                 0.0000
     51 ****        -3.7597   4.7207  -2.3538 H              1 S1                 0.0000
     52 ****        -2.3320   3.7711  -2.6884 H              1 S1                 0.0000
     53 ****        -5.2298   2.8315  -2.9609 H              1 S1                 0.0000
     54 ****        -4.1248   3.1571  -4.2750 H              1 S1                 0.0000
     55 ****        -4.3025   0.7037  -3.8059 H              1 S1                 0.0000
     56 ****        -2.6689   1.2823  -3.5876 H              1 S1                 0.0000
     57 ****        -3.2889  -0.1985  -1.7185 H              1 S1                 0.0000
     58 ****        -4.7095   0.7603  -1.3781 H              1 S1                 0.0000
     59 ****        -5.6892  -0.1733   3.0522 LP             1 S1                 0.0000
     60 ****        -5.7578   1.4399   3.2965 LP             1 S1                 0.0000
     61 ****        -0.3760   2.0114   0.7077 LP             1 S1                 0.0000
     62 ****         3.2447   0.1165   0.4127 LP             1 S1                 0.0000
     63 ****        -1.1480  -2.9668   0.5165 LP             1 S1                 0.0000
     64 ****         4.5355  -3.1777   1.8952 LP             1 S1                 0.0000
     65 ****         3.4813  -1.9361   2.0130 LP             1 S1                 0.0000
     66 ****         5.1776  -1.0412   3.6230 LP             1 S1                 0.0000
     67 ****         5.8614   0.2382   2.8732 LP             1 S1                 0.0000
     68 ****         6.0819  -3.7341   0.2174 LP             1 S1                 0.0000
     69 ****         7.3253  -2.6970   0.0052 LP             1 S1                 0.0000
     70 ****         4.7650  -4.0562  -1.6830 LP             1 S1                 0.0000
     71 ****         4.8268  -2.8306  -2.7603 LP             1 S1                 0.0000
@<TRIPOS>BOND
    1    1    2 1     
    2    1   34 1     
    3    2    3 1     
    4    2   35 1     
    5    2   36 1     
    6    3    4 1     
    7    3   37 1     
    8    3   38 1     
    9    4    5 1     
   10    4   24 1     
   11    4   39 1     
   12    5    6 1     
   13    5   40 1     
   14    6   11 ar    
   15    6    7 ar    
   16    7    8 ar    
   17    8    9 ar    
   18    8   41 1     
   19    9   10 ar    
   20   10   14 1     
   21   10   11 ar    
   22   11   12 1     
   23   12   13 2     
   24   13   14 1     
   25   13   42 1     
   26   14   15 1     
   27   15   30 1     
   28   15   22 1     
   29   15   16 1     
   30   16   17 1     
   31   17   31 1     
   32   17   18 1     
   33   17   20 1     
   34   18   19 1     
   35   18   43 1     
   36   18   44 1     
   37   19   45 1     
   38   20   32 1     
   39   20   21 1     
   40   20   22 1     
   41   21   46 1     
   42   22   33 1     
   43   22   23 1     
   44   23   47 1     
   45   24   29 1     
   46   24   25 1     
   47   24   48 1     
   48   25   26 1     
   49   25   49 1     
   50   25   50 1     
   51   26   27 1     
   52   26   51 1     
   53   26   52 1     
   54   27   28 1     
   55   27   53 1     
   56   27   54 1     
   57   28   29 1     
   58   28   55 1     
   59   28   56 1     
   60   29   57 1     
   61   29   58 1     
   62    1   59 1     
   63    1   60 1     
   64    7   61 1     
   65    9   62 1     
   66   12   63 1     
   67   16   64 1     
   68   16   65 1     
   69   19   66 1     
   70   19   67 1     
   71   21   68 1     
   72   21   69 1     
   73   23   70 1     
   74   23   71 1     
@<TRIPOS>SUBSTRUCTURE
      1 S1             1
@<TRIPOS>SET
LONE_PAIRS      STATIC     ATOMS    <user>   **** ""
13 59 60 61 62 63 64 65 66 67 68 69 70 71
DONOR_HYDROGENS      STATIC     ATOMS    <user>   **** ""
5 34 40 45 46 47
ATOM$BLUE        STATIC     ATOMS    COLORGROUP SYSTEM
13 59 60 61 62 63 64 65 66 67 68 69 70 71
ATOM$RED        STATIC     ATOMS    COLORGROUP SYSTEM
5 34 40 45 46 47
