#       Name:                AV-unprocessed.smi:2356
#       Creating user name   scv26
#       Creation time:       Fri Mar 27 13:02:55 2020


#       File generated by GOLD software.
#

@<TRIPOS>MOLECULE
AV-unprocessed.smi:2356
    58    61     1
SMALL
NO_CHARGES


@<TRIPOS>ATOM
      1 ****        -0.6337  -1.5511   0.4729 C.3            1 S1                 0.0000
      2 ****        -1.3993  -0.2531   0.6655 C.ar           1 S1                 0.0000
      3 ****        -2.7444  -0.3733   0.6918 N.ar           1 S1                 0.0000
      4 ****        -3.5041   0.7348   0.8565 C.ar           1 S1                 0.0000
      5 ****        -4.9027   0.5648   0.8780 N.pl3          1 S1                 0.0000
      6 ****        -5.5113  -0.7559   0.9178 C.3            1 S1                 0.0000
      7 ****        -7.0058  -0.4873   1.0858 C.3            1 S1                 0.0000
      8 ****        -7.0352   0.7941   1.9185 C.3            1 S1                 0.0000
      9 ****        -5.7844   1.5606   1.4718 C.3            1 S1                 0.0000
     10 ****        -2.9250   2.0181   0.9841 C.ar           1 S1                 0.0000
     11 ****        -1.5237   2.1448   0.9568 C.ar           1 S1                 0.0000
     12 ****        -0.7282   0.9844   0.8069 C.ar           1 S1                 0.0000
     13 ****         0.6939   0.9977   0.7547 N.am           1 S1                 0.0000
     14 ****         1.5599   1.9547   1.1414 C.2            1 S1                 0.0000
     15 ****         1.2424   3.0382   1.6261 O.2            1 S1                 0.0000
     16 ****         2.8524   1.6283   0.9582 N.am           1 S1                 0.0000
     17 ****         4.0431   2.4251   1.2650 C.3            1 S1                 0.0000
     18 ****         5.2339   1.9148   0.4406 C.3            1 S1                 0.0000
     19 ****         6.5247   2.6464   0.8419 C.3            1 S1                 0.0000
     20 ****         6.7560   2.4955   2.2385 O.3            1 S1                 0.0000
     21 ****         5.7287   3.0678   3.0422 C.3            1 S1                 0.0000
     22 ****         6.1412   2.9437   4.4953 C.3            1 S1                 0.0000
     23 ****         5.5620   3.8656   5.5430 C.3            1 S1                 0.0000
     24 ****         7.0127   3.9930   5.1448 C.3            1 S1                 0.0000
     25 ****         4.3973   2.3475   2.7609 C.3            1 S1                 0.0000
     26 ****        -0.0417  -1.5106  -0.4418 H              1 S1                 0.0000
     27 ****        -1.3058  -2.4070   0.4010 H              1 S1                 0.0000
     28 ****         0.0401  -1.7226   1.3126 H              1 S1                 0.0000
     29 ****        -5.3028  -1.3241   0.0108 H              1 S1                 0.0000
     30 ****        -5.1211  -1.3108   1.7722 H              1 S1                 0.0000
     31 ****        -7.4607  -0.3036   0.1115 H              1 S1                 0.0000
     32 ****        -7.5363  -1.3158   1.5558 H              1 S1                 0.0000
     33 ****        -7.9530   1.3672   1.7853 H              1 S1                 0.0000
     34 ****        -6.9495   0.5413   2.9762 H              1 S1                 0.0000
     35 ****        -5.3203   2.0722   2.3157 H              1 S1                 0.0000
     36 ****        -6.0356   2.3040   0.7146 H              1 S1                 0.0000
     37 ****        -3.5320   2.9045   1.0915 H              1 S1                 0.0000
     38 ****        -1.0960   3.1312   1.0369 H              1 S1                 0.0000
     39 ****         1.1155   0.1414   0.4259 H              1 S1                 0.0000
     40 ****         3.0283   0.7309   0.5302 H              1 S1                 0.0000
     41 ****         3.8680   3.4668   0.9892 H              1 S1                 0.0000
     42 ****         5.3659   0.8437   0.6009 H              1 S1                 0.0000
     43 ****         5.0438   2.0505  -0.6248 H              1 S1                 0.0000
     44 ****         7.3740   2.2315   0.2987 H              1 S1                 0.0000
     45 ****         6.4691   3.7050   0.5840 H              1 S1                 0.0000
     46 ****         5.6315   4.1277   2.7989 H              1 S1                 0.0000
     47 ****         6.3161   1.9178   4.8145 H              1 S1                 0.0000
     48 ****         4.8799   4.6461   5.2113 H              1 S1                 0.0000
     49 ****         5.3437   3.4395   6.5201 H              1 S1                 0.0000
     50 ****         7.7619   3.6522   5.8564 H              1 S1                 0.0000
     51 ****         7.2956   4.8581   4.5481 H              1 S1                 0.0000
     52 ****         3.6048   2.7894   3.3659 H              1 S1                 0.0000
     53 ****         4.4767   1.3032   3.0672 H              1 S1                 0.0000
     54 ****        -3.1740  -1.2706   0.5908 LP             1 S1                 0.0000
     55 ****         0.2771   3.2628   1.7591 LP             1 S1                 0.0000
     56 ****         1.9493   3.6954   1.8876 LP             1 S1                 0.0000
     57 ****         7.6226   2.9391   2.4670 LP             1 S1                 0.0000
     58 ****         6.8160   1.5193   2.4471 LP             1 S1                 0.0000
@<TRIPOS>BOND
    1    1    2 1     
    2    1   26 1     
    3    1   27 1     
    4    1   28 1     
    5    2   12 ar    
    6    2    3 ar    
    7    3    4 ar    
    8    4    5 1     
    9    4   10 ar    
   10    5    9 1     
   11    5    6 1     
   12    6    7 1     
   13    6   29 1     
   14    6   30 1     
   15    7    8 1     
   16    7   31 1     
   17    7   32 1     
   18    8    9 1     
   19    8   33 1     
   20    8   34 1     
   21    9   35 1     
   22    9   36 1     
   23   10   11 ar    
   24   10   37 1     
   25   11   12 ar    
   26   11   38 1     
   27   12   13 1     
   28   13   14 am    
   29   13   39 1     
   30   14   15 2     
   31   14   16 am    
   32   16   17 1     
   33   16   40 1     
   34   17   25 1     
   35   17   18 1     
   36   17   41 1     
   37   18   19 1     
   38   18   42 1     
   39   18   43 1     
   40   19   20 1     
   41   19   44 1     
   42   19   45 1     
   43   20   21 1     
   44   21   22 1     
   45   21   25 1     
   46   21   46 1     
   47   22   24 1     
   48   22   23 1     
   49   22   47 1     
   50   23   24 1     
   51   23   48 1     
   52   23   49 1     
   53   24   50 1     
   54   24   51 1     
   55   25   52 1     
   56   25   53 1     
   57    3   54 1     
   58   15   55 1     
   59   15   56 1     
   60   20   57 1     
   61   20   58 1     
@<TRIPOS>SUBSTRUCTURE
      1 S1             1
@<TRIPOS>SET
LONE_PAIRS      STATIC     ATOMS    <user>   **** ""
5 54 55 56 57 58
DONOR_HYDROGENS      STATIC     ATOMS    <user>   **** ""
2 39 40
ATOM$BLUE        STATIC     ATOMS    COLORGROUP SYSTEM
5 54 55 56 57 58
ATOM$RED        STATIC     ATOMS    COLORGROUP SYSTEM
2 39 40
