AV-unprocessed.smi:844|AV-procd|sdf|3926|dock1
  -GOLD-   22720 1383D 1   1.00000     0.00000
 Structure written by MMmdl.
 33 35  0  0  0  0  0  0  0  0  2 V2000
  152.4692  140.1753  157.3209 O   0  0  0  0  0  0  0  0  0  0  0  0
  151.7700  141.3656  157.6217 C   0  0  1  0  0  0  0  0  0  0  0  0
  150.2596  141.0653  157.5404 C   0  0  0  0  0  0  0  0  0  0  0  0
  149.7993  140.8567  156.1618 N   0  0  0  0  0  0  0  0  0  0  0  0
  150.3829  140.1764  155.1378 C   0  0  0  0  0  0  0  0  0  0  0  0
  149.5499  140.2578  154.0635 N   0  3  0  0  0  0  0  0  0  0  0  0
  148.4201  141.0048  154.4047 C   0  0  0  0  0  0  0  0  0  0  0  0
  147.3008  141.3589  153.6579 C   0  0  0  0  0  0  0  0  0  0  0  0
  146.3217  142.1339  154.3141 C   0  0  0  0  0  0  0  0  0  0  0  0
  146.4752  142.5268  155.6598 C   0  0  0  0  0  0  0  0  0  0  0  0
  147.6139  142.1614  156.4076 C   0  0  0  0  0  0  0  0  0  0  0  0
  148.5761  141.3953  155.7512 C   0  0  0  0  0  0  0  0  0  0  0  0
  152.1686  141.9480  158.9734 C   0  0  0  0  0  0  0  0  0  0  0  0
  153.0172  141.2227  159.8395 C   0  0  0  0  0  0  0  0  0  0  0  0
  153.3712  141.7497  161.0963 C   0  0  0  0  0  0  0  0  0  0  0  0
  152.8768  143.0049  161.4981 C   0  0  0  0  0  0  0  0  0  0  0  0
  153.2139  143.5105  162.7080 F   0  0  0  0  0  0  0  0  0  0  0  0
  152.0275  143.7318  160.6426 C   0  0  0  0  0  0  0  0  0  0  0  0
  151.6721  143.2065  159.3850 C   0  0  0  0  0  0  0  0  0  0  0  0
  150.8420  143.9140  158.5810 F   0  0  0  0  0  0  0  0  0  0  0  0
  151.8588  139.4541  157.3458 H   0  0  0  0  0  0  0  0  0  0  0  0
  152.0379  142.0742  156.8381 H   0  0  0  0  0  0  0  0  0  0  0  0
  150.0044  140.1772  158.1204 H   0  0  0  0  0  0  0  0  0  0  0  0
  149.6805  141.8882  157.9623 H   0  0  0  0  0  0  0  0  0  0  0  0
  151.3297  139.6570  155.1748 H   0  0  0  0  0  0  0  0  0  0  0  0
  147.1799  141.0590  152.6273 H   0  0  0  0  0  0  0  0  0  0  0  0
  145.4348  142.4331  153.7744 H   0  0  0  0  0  0  0  0  0  0  0  0
  145.7040  143.1206  156.1286 H   0  0  0  0  0  0  0  0  0  0  0  0
  147.7228  142.4654  157.4384 H   0  0  0  0  0  0  0  0  0  0  0  0
  153.3971  140.2552  159.5447 H   0  0  0  0  0  0  0  0  0  0  0  0
  154.0206  141.1898  161.7529 H   0  0  0  0  0  0  0  0  0  0  0  0
  151.6454  144.6933  160.9526 H   0  0  0  0  0  0  0  0  0  0  0  0
  149.7408  139.8334  153.1648 H   0  0  0  0  0  0  0  0  0  0  0  0
  1  2  1  0  0  0  0
  1 21  1  0  0  0  0
  2  3  1  0  0  0  0
  2 13  1  0  0  0  0
  2 22  1  0  0  0  0
  3  4  1  0  0  0  0
  3 23  1  0  0  0  0
  3 24  1  0  0  0  0
  4 12  1  0  0  0  0
  4  5  1  0  0  0  0
  5  6  2  0  0  0  0
  5 25  1  0  0  0  0
  6  7  1  0  0  0  0
  6 33  1  0  0  0  0
  7 12  2  0  0  0  0
  7  8  1  0  0  0  0
  8  9  2  0  0  0  0
  8 26  1  0  0  0  0
  9 10  1  0  0  0  0
  9 27  1  0  0  0  0
 10 11  2  0  0  0  0
 10 28  1  0  0  0  0
 11 12  1  0  0  0  0
 11 29  1  0  0  0  0
 13 19  1  0  0  0  0
 13 14  2  0  0  0  0
 14 15  1  0  0  0  0
 14 30  1  0  0  0  0
 15 16  2  0  0  0  0
 15 31  1  0  0  0  0
 16 17  1  0  0  0  0
 16 18  1  0  0  0  0
 18 19  2  0  0  0  0
 18 32  1  0  0  0  0
 19 20  1  0  0  0  0
M  CHG  1   6   1
M  END
> <s_m_source_file>
AV-unprocessed.smi

> <i_m_source_file_index>
844

> <i_lp_mmshare_version>
43012

> <i_f3d_flags>
0

> <s_epik_input>
RmMxW2NIXWMoRilbY0hdW2NIXWMxW0NASF0oW09IXSlbQ0gyXW4oW2NIXW4yKWMoYzIzKVtjSF1bY0hdW2NIXVtjSF0z

> <s_epik_cmdline>
J2VwaWtfcHl0aG9uJywgJy1waCcsICc3LjAnLCAnLXRuJywgJzgnLCAnLW1hJywgJzIwMCcsICctbWV0YWxfYmluZGluZycsICctaW1hZScsICc8aW5maWxlLm1hZT4nLCAnLW9tYWUnLCAnPG91dGZpbGUubWFlPic=

> <r_epik_Ionization_Penalty>
1.3029

> <r_epik_Ionization_Penalty_Charging>
1.3029

> <r_epik_Ionization_Penalty_Neutral>
1.79538e-06

> <r_epik_State_Penalty>
1.377

> <r_epik_Charging_Adjusted_Penalty>
2.6799

> <i_epik_Tot_Q>
1

> <i_epik_Tot_abs_Q>
1

> <r_epik_Metal_State_Penalty>
5.40879

> <b_epik_Metal_Only>
0

> <s_lp_Force_Field>
OPLS_2005

> <r_lp_Energy>
17.7817

> <b_lp_Chiralities_Consistent>
1

> <s_lp_Variant>
AV-unprocessed.smi:844-4

> <Gold.Version>
5.8.1

> <Gold.Id.Protein>
6NUR|6NUR_protein|mol2

> <Gold.PLP.Fitness>
50.1246

> <Gold.PLP.PLP>
-44.9647

> <Gold.PLP.part.hbond>
-2.0000

> <Gold.PLP.part.metal>
0.0000

> <Gold.PLP.part.buried>
-4.0488

> <Gold.PLP.part.nonpolar>
-39.0487

> <Gold.PLP.part.repulsive>
1.2269

> <Gold.PLP.ligand.clash>
0.0000

> <Gold.PLP.ligand.torsion>
0.4270

> <Gold.PLP.Chemscore.Hbond>
2.0000

> <Gold.PLP.Chemscore.CHOScore>
0.0000

> <Gold.PLP.Chemscore.Metal>
0.0000

> <Gold.Chemscore.Hbonds>
donor molecule, donor type, donor heavy atom, donor atom, acceptor molecule, acceptor atom, score
      L1  H     6    33       P1  7957  0.93
      P1  H  7997  8010       L1     1  0.97

> <Gold.PLP.Chemscore.Internal.Correction>
0.0138

> <Gold.Rescore>
     Score         DG    S(hbond)    S(metal)    S(lipo)     H(rot)  DE(clash)    DE(int)     intcor
     17.48     -18.81       1.85        0.00     106.11       2.06       0.80       0.53       ----

> <Gold.Chemscore.Fitness>
17.4761

> <Gold.Chemscore.DG>
-18.8104

> <Gold.Chemscore.ZeroCoef>
-5.4800

> <Gold.Chemscore.Hbond>
1.8528

> <Gold.Chemscore.Metal>
0.0000

> <Gold.Chemscore.Lipo>
106.1094

> <Gold.Chemscore.Internal_Hbond>
0.0000

> <Gold.Chemscore.DEClash>
0.8034

> <Gold.Chemscore.DEInternal>
0.5310

> <Gold.Chemscore.Rot>
2.0597

> <Gold.Chemscore.Internal.Correction>
   9.000000E+99

> <Gold.Chemscore.Hbonds>
donor molecule, donor type, donor heavy atom, donor atom, acceptor molecule, acceptor atom, score
      L1  H     6    33       P1  7957  0.85
      P1  H  7997  8010       L1     1  0.85

> <Gold.Chemscore.Hbond.Weighted>
-6.1884

> <Gold.Chemscore.Metal.Weighted>
-0.0000

> <Gold.Chemscore.Lipo.Weighted>
-12.4148

> <Gold.Chemscore.Internal_Hbond.Weighted>
0.0000

> <Gold.Chemscore.DEClash.Weighted>
0.8034

> <Gold.Chemscore.DEInternal.Weighted>
0.5310

> <Gold.Chemscore.Rot.Weighted>
5.2728

> <Gold.Chemscore.Internal.Correction.Weighted>
   9.000000E+99

> <Gold.Protein.RotatedTorsions>
[ 6907 6896 6895 6894 ] final  131.60 input  -60.11 | X-H torsion
[ 7974 7965 7964 7962 ] final   -2.82 input  175.53 | X-H torsion
[ 8008 7997 7996 7995 ] final   67.63 input   59.86 | X-H torsion
[ 10167 10162 10161 10158 ] final   -2.17 input  -65.29 | X-H torsion
[ 10718 10713 10712 10709 ] final  -64.45 input   66.30 | X-H torsion
[ 10763 10752 10751 10750 ] final   14.19 input  -60.55 | X-H torsion
[ 11005 11000 10999 10996 ] final  -47.25 input  -57.11 | X-H torsion

> <Gold.Protein.ActiveResidues>
 VAL166  LYS551  ARG553  GLY616  TRP617  ASP618  TYR619  PRO620  LYS621  CYS622 
 ASP623  PHE694  ASN695  SER759  ASP760  ASP761  ALA762  ILE779  LEU786  VAL792 
 PHE793  MET794  SER795  GLU796  ALA797  LYS798  CYS799  TRP800  GLU811  SER814 

> <Gold.Protein.RotatedAtoms>
  152.3409  133.6066  159.5875 H   0  0  0  0  0  0  0  0  0  0  0  0  # atno 6907 bound_to 6896
  150.7478  133.9723  159.3558 H   0  0  0  0  0  0  0  0  0  0  0  0  # atno 6908 bound_to 6896
  151.7587  135.0816  160.0393 H   0  0  0  0  0  0  0  0  0  0  0  0  # atno 6909 bound_to 6896
  146.2399  140.1628  142.8332 H   0  0  0  0  0  0  0  0  0  0  0  0  # atno 7974 bound_to 7965
  155.6959  140.3495  155.4912 H   0  0  0  0  0  0  0  0  0  0  0  0  # atno 8008 bound_to 7997
  155.9484  140.1114  157.1020 H   0  0  0  0  0  0  0  0  0  0  0  0  # atno 8009 bound_to 7997
  154.4116  140.1199  156.5005 H   0  0  0  0  0  0  0  0  0  0  0  0  # atno 8010 bound_to 7997
  140.6840  143.6689  150.8202 H   0  0  0  0  0  0  0  0  0  0  0  0  # atno 10167 bound_to 10162
  156.0729  130.4233  150.1421 H   0  0  0  0  0  0  0  0  0  0  0  0  # atno 10718 bound_to 10713
  153.1646  135.6802  153.8693 H   0  0  0  0  0  0  0  0  0  0  0  0  # atno 10763 bound_to 10752
  153.8077  135.3147  155.3398 H   0  0  0  0  0  0  0  0  0  0  0  0  # atno 10764 bound_to 10752
  154.7957  135.4808  154.0245 H   0  0  0  0  0  0  0  0  0  0  0  0  # atno 10765 bound_to 10752
  141.0629  133.6703  156.3270 H   0  0  0  0  0  0  0  0  0  0  0  0  # atno 11005 bound_to 11000
  145.0075  140.8685  143.5244 LP  0  0  0  0  0  0  0  0  0  0  0  0  # atno 17320 bound_to 7965
  145.1657  139.2433  143.5368 LP  0  0  0  0  0  0  0  0  0  0  0  0  # atno 17321 bound_to 7965
  140.0393  143.5362  152.2725 LP  0  0  0  0  0  0  0  0  0  0  0  0  # atno 17342 bound_to 10162
  139.6184  144.7624  151.2796 LP  0  0  0  0  0  0  0  0  0  0  0  0  # atno 17343 bound_to 10162
  156.9468  130.9762  151.3506 LP  0  0  0  0  0  0  0  0  0  0  0  0  # atno 17370 bound_to 10713
  157.5809  130.8376  149.8521 LP  0  0  0  0  0  0  0  0  0  0  0  0  # atno 17371 bound_to 10713
  140.5832  134.5724  157.5484 LP  0  0  0  0  0  0  0  0  0  0  0  0  # atno 17394 bound_to 11000
  139.9449  134.7720  156.0586 LP  0  0  0  0  0  0  0  0  0  0  0  0  # atno 17395 bound_to 11000

$$$$
