AV-unprocessed.smi:720|AV-procd|sdf|3498|dock2
  -GOLD-   22720 0493D 1   1.00000     0.00000
 Structure written by MMmdl.
 47 49  0  0  0  0  0  0  0  0  2 V2000
  145.2938  136.2421  151.9069 C   0  0  0  0  0  0  0  0  0  0  0  0
  146.2135  137.2527  152.4779 N   0  3  0  0  0  0  0  0  0  0  0  0
  146.4048  138.3948  151.5567 C   0  0  0  0  0  0  0  0  0  0  0  0
  145.8285  137.6959  153.8410 C   0  0  0  0  0  0  0  0  0  0  0  0
  147.0460  138.0383  154.7198 C   0  0  0  0  0  0  0  0  0  0  0  0
  147.3981  139.4415  154.6236 N   0  0  0  0  0  0  0  0  0  0  0  0
  146.8357  140.4176  153.8251 C   0  0  0  0  0  0  0  0  0  0  0  0
  147.4930  141.5873  154.0825 C   0  0  0  0  0  0  0  0  0  0  0  0
  148.4499  141.2155  155.0665 C   0  0  0  0  0  0  0  0  0  0  0  0
  149.3487  142.1727  155.6008 N   0  0  0  0  0  0  0  0  0  0  0  0
  150.2084  142.0156  156.6269 C   0  0  0  0  0  0  0  0  0  0  0  0
  150.3341  140.9810  157.2799 O   0  0  0  0  0  0  0  0  0  0  0  0
  150.9489  143.1055  156.8967 N   0  0  0  0  0  0  0  0  0  0  0  0
  151.9673  143.2659  157.9386 C   0  0  1  0  0  0  0  0  0  0  0  0
  152.6353  144.6564  157.8598 C   0  0  0  0  0  0  0  0  0  0  0  0
  152.3762  145.2486  159.2575 C   0  0  1  0  0  0  0  0  0  0  0  0
  150.8854  145.6104  159.3968 C   0  0  0  0  0  0  0  0  0  0  0  0
  150.2111  144.2316  159.5255 C   0  0  0  0  0  0  0  0  0  0  0  0
  151.4017  143.2589  159.3828 C   0  0  2  0  0  0  0  0  0  0  0  0
  152.4861  144.0146  160.1430 C   0  0  0  0  0  0  0  0  0  0  0  0
  148.3915  139.9326  155.3949 N   0  0  0  0  0  0  0  0  0  0  0  0
  144.2812  136.6381  151.8205 H   0  0  0  0  0  0  0  0  0  0  0  0
  145.2591  135.3422  152.5200 H   0  0  0  0  0  0  0  0  0  0  0  0
  145.6255  135.9407  150.9128 H   0  0  0  0  0  0  0  0  0  0  0  0
  145.4738  138.9466  151.4198 H   0  0  0  0  0  0  0  0  0  0  0  0
  146.7455  138.0511  150.5794 H   0  0  0  0  0  0  0  0  0  0  0  0
  147.1575  139.0829  151.9430 H   0  0  0  0  0  0  0  0  0  0  0  0
  145.2066  138.5880  153.7511 H   0  0  0  0  0  0  0  0  0  0  0  0
  145.2092  136.9357  154.3196 H   0  0  0  0  0  0  0  0  0  0  0  0
  146.8519  137.8092  155.7675 H   0  0  0  0  0  0  0  0  0  0  0  0
  147.9121  137.4467  154.4199 H   0  0  0  0  0  0  0  0  0  0  0  0
  146.0237  140.2017  153.1464 H   0  0  0  0  0  0  0  0  0  0  0  0
  147.3163  142.5549  153.6362 H   0  0  0  0  0  0  0  0  0  0  0  0
  149.3497  143.0748  155.1479 H   0  0  0  0  0  0  0  0  0  0  0  0
  150.7838  143.9161  156.3174 H   0  0  0  0  0  0  0  0  0  0  0  0
  152.7357  142.4982  157.8291 H   0  0  0  0  0  0  0  0  0  0  0  0
  153.7060  144.5528  157.6783 H   0  0  0  0  0  0  0  0  0  0  0  0
  152.2291  145.2885  157.0685 H   0  0  0  0  0  0  0  0  0  0  0  0
  153.0505  146.0651  159.5174 H   0  0  0  0  0  0  0  0  0  0  0  0
  150.7101  146.2076  160.2925 H   0  0  0  0  0  0  0  0  0  0  0  0
  150.5171  146.1753  158.5398 H   0  0  0  0  0  0  0  0  0  0  0  0
  149.7518  144.1271  160.5094 H   0  0  0  0  0  0  0  0  0  0  0  0
  149.4265  144.0751  158.7854 H   0  0  0  0  0  0  0  0  0  0  0  0
  151.1923  142.2599  159.7664 H   0  0  0  0  0  0  0  0  0  0  0  0
  153.4643  143.5326  160.0956 H   0  0  0  0  0  0  0  0  0  0  0  0
  152.2315  144.2060  161.1871 H   0  0  0  0  0  0  0  0  0  0  0  0
  147.1179  136.8110  152.5644 H   0  0  0  0  0  0  0  0  0  0  0  0
  1  2  1  0  0  0  0
  1 22  1  0  0  0  0
  1 23  1  0  0  0  0
  1 24  1  0  0  0  0
  2  3  1  0  0  0  0
  2  4  1  0  0  0  0
  2 47  1  0  0  0  0
  3 25  1  0  0  0  0
  3 26  1  0  0  0  0
  3 27  1  0  0  0  0
  4  5  1  0  0  0  0
  4 28  1  0  0  0  0
  4 29  1  0  0  0  0
  5  6  1  0  0  0  0
  5 30  1  0  0  0  0
  5 31  1  0  0  0  0
  6 21  1  0  0  0  0
  6  7  1  0  0  0  0
  7  8  2  0  0  0  0
  7 32  1  0  0  0  0
  8  9  1  0  0  0  0
  8 33  1  0  0  0  0
  9 10  1  0  0  0  0
  9 21  2  0  0  0  0
 10 11  1  0  0  0  0
 10 34  1  0  0  0  0
 11 12  2  0  0  0  0
 11 13  1  0  0  0  0
 13 14  1  0  0  0  0
 13 35  1  0  0  0  0
 14 19  1  0  0  0  0
 14 15  1  0  0  0  0
 14 36  1  0  0  0  0
 15 16  1  0  0  0  0
 15 37  1  0  0  0  0
 15 38  1  0  0  0  0
 16 20  1  0  0  0  0
 16 17  1  0  0  0  0
 16 39  1  0  0  0  0
 17 18  1  0  0  0  0
 17 40  1  0  0  0  0
 17 41  1  0  0  0  0
 18 19  1  0  0  0  0
 18 42  1  0  0  0  0
 18 43  1  0  0  0  0
 19 20  1  0  0  0  0
 19 44  1  0  0  0  0
 20 45  1  0  0  0  0
 20 46  1  0  0  0  0
M  CHG  1   2   1
M  END
> <s_m_source_file>
AV-unprocessed.smi

> <i_m_source_file_index>
720

> <i_lp_mmshare_version>
43012

> <i_f3d_flags>
0

> <s_epik_input>
W0NIM11OKFtDSDNdKVtDSDJdW0NIMl1uMVtjSF1bY0hdYyhuMSlbTkhdQyg9TylbTkhdW0NASF0oW0NIMl1bQ0BIXTIzKVtDQEhdKFtDSDJdMylbQ0gyXVtDSDJdMg==

> <s_epik_cmdline>
J2VwaWtfcHl0aG9uJywgJy1waCcsICc3LjAnLCAnLXRuJywgJzgnLCAnLW1hJywgJzIwMCcsICctbWV0YWxfYmluZGluZycsICctaW1hZScsICc8aW5maWxlLm1hZT4nLCAnLW9tYWUnLCAnPG91dGZpbGUubWFlPic=

> <r_lp_tautomer_probability>
1

> <r_epik_Ionization_Penalty>
0.0272832

> <r_epik_Ionization_Penalty_Charging>
0.027243

> <r_epik_Ionization_Penalty_Neutral>
4.01867e-05

> <r_epik_State_Penalty>
0.0222865

> <r_epik_Charging_Adjusted_Penalty>
0.0495295

> <i_epik_Tot_Q>
1

> <i_epik_Tot_abs_Q>
1

> <r_epik_Metal_State_Penalty>
0.0222866

> <b_epik_Metal_Only>
0

> <s_lp_Force_Field>
OPLS_2005

> <r_lp_Energy>
60.2388

> <b_lp_Chiralities_Consistent>
1

> <s_lp_Variant>
AV-unprocessed.smi:720-4

> <Gold.Version>
5.8.1

> <Gold.Id.Protein>
6NUR|6NUR_protein|mol2

> <Gold.PLP.Fitness>
55.2314

> <Gold.PLP.PLP>
-42.3165

> <Gold.PLP.part.hbond>
-3.0000

> <Gold.PLP.part.metal>
0.0000

> <Gold.PLP.part.buried>
-4.4748

> <Gold.PLP.part.nonpolar>
-37.0045

> <Gold.PLP.part.repulsive>
0.3199

> <Gold.PLP.ligand.clash>
0.0000

> <Gold.PLP.ligand.torsion>
0.6297

> <Gold.PLP.Chemscore.Hbond>
3.6960

> <Gold.PLP.Chemscore.CHOScore>
1.0000

> <Gold.PLP.Chemscore.Metal>
0.0000

> <Gold.Chemscore.Hbonds>
donor molecule, donor type, donor heavy atom, donor atom, acceptor molecule, acceptor atom, score
      L1  H     2    47       P1  7948  1.95
      L1  H    10    34       P1  8028  0.70
      L1  H    13    35       P1  8028  0.41
      L1  C     7    32       P1 10175  1.00

> <Gold.PLP.Chemscore.Internal.Correction>
0.0863

> <Gold.Rescore>
     Score         DG    S(hbond)    S(metal)    S(lipo)     H(rot)  DE(clash)    DE(int)     intcor
     21.52     -24.09       2.70        0.00     117.51       1.62       0.53       2.04       ----

> <Gold.Chemscore.Fitness>
21.5243

> <Gold.Chemscore.DG>
-24.0948

> <Gold.Chemscore.ZeroCoef>
-5.4800

> <Gold.Chemscore.Hbond>
2.6996

> <Gold.Chemscore.Metal>
0.0000

> <Gold.Chemscore.Lipo>
117.5073

> <Gold.Chemscore.Internal_Hbond>
0.0000

> <Gold.Chemscore.DEClash>
0.5279

> <Gold.Chemscore.DEInternal>
2.0426

> <Gold.Chemscore.Rot>
1.6212

> <Gold.Chemscore.Internal.Correction>
   9.000000E+99

> <Gold.Chemscore.Hbonds>
donor molecule, donor type, donor heavy atom, donor atom, acceptor molecule, acceptor atom, score
      L1  H     2    47       P1  7948  0.88
      L1  H    10    34       P1  8028  0.70
      L1  H    13    35       P1  8028  0.41

> <Gold.Chemscore.Hbond.Weighted>
-9.0167

> <Gold.Chemscore.Metal.Weighted>
-0.0000

> <Gold.Chemscore.Lipo.Weighted>
-13.7483

> <Gold.Chemscore.Internal_Hbond.Weighted>
0.0000

> <Gold.Chemscore.DEClash.Weighted>
0.5279

> <Gold.Chemscore.DEInternal.Weighted>
2.0426

> <Gold.Chemscore.Rot.Weighted>
4.1502

> <Gold.Chemscore.Internal.Correction.Weighted>
   9.000000E+99

> <Gold.Protein.RotatedTorsions>
[ 6907 6896 6895 6894 ] final  -96.11 input  -60.11 | X-H torsion
[ 7974 7965 7964 7962 ] final   99.30 input  175.53 | X-H torsion
[ 8008 7997 7996 7995 ] final  157.65 input   59.86 | X-H torsion
[ 10167 10162 10161 10158 ] final    5.91 input  -65.29 | X-H torsion
[ 10718 10713 10712 10709 ] final -171.17 input   66.30 | X-H torsion
[ 10763 10752 10751 10750 ] final   79.62 input  -60.55 | X-H torsion
[ 11005 11000 10999 10996 ] final   14.46 input  -57.11 | X-H torsion

> <Gold.Protein.ActiveResidues>
 VAL166  LYS551  ARG553  GLY616  TRP617  ASP618  TYR619  PRO620  LYS621  CYS622 
 ASP623  PHE694  ASN695  SER759  ASP760  ASP761  ALA762  ILE779  LEU786  VAL792 
 PHE793  MET794  SER795  GLU796  ALA797  LYS798  CYS799  TRP800  GLU811  SER814 

> <Gold.Protein.RotatedAtoms>
  150.6980  134.1554  159.4155 H   0  0  0  0  0  0  0  0  0  0  0  0  # atno 6907 bound_to 6896
  151.9536  135.0155  160.0553 H   0  0  0  0  0  0  0  0  0  0  0  0  # atno 6908 bound_to 6896
  152.1989  133.4792  159.5085 H   0  0  0  0  0  0  0  0  0  0  0  0  # atno 6909 bound_to 6896
  145.4007  139.2348  143.3302 H   0  0  0  0  0  0  0  0  0  0  0  0  # atno 7974 bound_to 7965
  156.2351  140.1879  156.7141 H   0  0  0  0  0  0  0  0  0  0  0  0  # atno 8008 bound_to 7997
  154.6091  140.0624  156.9498 H   0  0  0  0  0  0  0  0  0  0  0  0  # atno 8009 bound_to 7997
  155.2045  140.3295  155.4340 H   0  0  0  0  0  0  0  0  0  0  0  0  # atno 8010 bound_to 7997
  140.6456  143.7669  150.7494 H   0  0  0  0  0  0  0  0  0  0  0  0  # atno 10167 bound_to 10162
  156.7370  130.9328  151.3108 H   0  0  0  0  0  0  0  0  0  0  0  0  # atno 10718 bound_to 10713
  153.0967  135.4833  154.8792 H   0  0  0  0  0  0  0  0  0  0  0  0  # atno 10763 bound_to 10752
  154.7332  135.3065  154.8858 H   0  0  0  0  0  0  0  0  0  0  0  0  # atno 10764 bound_to 10752
  153.9487  135.6826  153.4797 H   0  0  0  0  0  0  0  0  0  0  0  0  # atno 10765 bound_to 10752
  140.4693  134.1048  155.7730 H   0  0  0  0  0  0  0  0  0  0  0  0  # atno 11005 bound_to 11000
  146.2753  140.4704  142.8798 LP  0  0  0  0  0  0  0  0  0  0  0  0  # atno 17320 bound_to 7965
  144.8376  140.6807  143.6250 LP  0  0  0  0  0  0  0  0  0  0  0  0  # atno 17321 bound_to 7965
  140.1309  143.4526  152.2254 LP  0  0  0  0  0  0  0  0  0  0  0  0  # atno 17342 bound_to 10162
  139.5667  144.7439  151.4003 LP  0  0  0  0  0  0  0  0  0  0  0  0  # atno 17343 bound_to 10162
  157.6835  130.9162  150.0326 LP  0  0  0  0  0  0  0  0  0  0  0  0  # atno 17370 bound_to 10713
  156.1490  130.3642  149.9466 LP  0  0  0  0  0  0  0  0  0  0  0  0  # atno 17371 bound_to 10713
  141.1585  133.8838  157.1913 LP  0  0  0  0  0  0  0  0  0  0  0  0  # atno 17394 bound_to 11000
  139.9896  135.0069  156.9943 LP  0  0  0  0  0  0  0  0  0  0  0  0  # atno 17395 bound_to 11000

$$$$
