AV-unprocessed.smi:3335|AV-procd|sdf|12841|dock9
  -GOLD-   2272019223D 1   1.00000     0.00000
 Structure written by MMmdl.
 47 48  0  0  0  0  0  0  0  0  2 V2000
  144.6049  133.8766  152.1164 C   0  0  0  0  0  0  0  0  0  0  0  0
  145.2896  135.1451  152.5371 C   0  0  0  0  0  0  0  0  0  0  0  0
  146.1596  135.3444  153.6456 C   0  0  0  0  0  0  0  0  0  0  0  0
  146.5923  136.5906  153.7398 N   0  0  0  0  0  0  0  0  0  0  0  0
  146.0278  137.2321  152.6918 N   0  0  0  0  0  0  0  0  0  0  0  0
  146.2469  138.6614  152.4769 C   0  0  2  0  0  0  0  0  0  0  0  0
  146.7012  138.9645  151.0352 C   0  0  0  0  0  0  0  0  0  0  0  0
  147.1739  139.2956  153.5492 C   0  0  2  0  0  0  0  0  0  0  0  0
  147.0600  140.8326  153.6434 C   0  0  0  0  0  0  0  0  0  0  0  0
  148.5741  138.8816  153.2844 N   0  3  0  0  0  0  0  0  0  0  0  0
  149.5089  138.8411  154.4328 C   0  0  1  0  0  0  0  0  0  0  0  0
  150.7478  137.9788  154.1136 C   0  0  0  0  0  0  0  0  0  0  0  0
  149.9072  140.2846  154.7924 C   0  0  0  0  0  0  0  0  0  0  0  0
  149.7726  141.1725  153.9493 O   0  0  0  0  0  0  0  0  0  0  0  0
  150.3694  140.5483  156.0341 N   0  0  0  0  0  0  0  0  0  0  0  0
  150.5189  139.5236  157.0664 C   0  0  0  0  0  0  0  0  0  0  0  0
  150.8387  140.2769  158.3573 C   0  0  0  0  0  0  0  0  0  0  0  0
  151.4835  141.5703  157.8809 C   0  0  0  0  0  0  0  0  0  0  0  0
  150.8098  141.8499  156.5375 C   0  0  0  0  0  0  0  0  0  0  0  0
  145.2308  136.3794  151.9551 C   0  0  0  0  0  0  0  0  0  0  0  0
  144.8170  133.0543  152.8002 H   0  0  0  0  0  0  0  0  0  0  0  0
  144.9240  133.5582  151.1240 H   0  0  0  0  0  0  0  0  0  0  0  0
  143.5217  133.9951  152.0835 H   0  0  0  0  0  0  0  0  0  0  0  0
  146.4836  134.6249  154.3832 H   0  0  0  0  0  0  0  0  0  0  0  0
  145.2698  139.1369  152.5785 H   0  0  0  0  0  0  0  0  0  0  0  0
  146.7780  140.0393  150.8681 H   0  0  0  0  0  0  0  0  0  0  0  0
  145.9853  138.5730  150.3118 H   0  0  0  0  0  0  0  0  0  0  0  0
  147.6719  138.5261  150.8039 H   0  0  0  0  0  0  0  0  0  0  0  0
  146.8769  138.8756  154.5095 H   0  0  0  0  0  0  0  0  0  0  0  0
  146.0231  141.1500  153.7473 H   0  0  0  0  0  0  0  0  0  0  0  0
  147.4688  141.3241  152.7607 H   0  0  0  0  0  0  0  0  0  0  0  0
  147.5892  141.2259  154.5102 H   0  0  0  0  0  0  0  0  0  0  0  0
  148.5605  137.9576  152.8767 H   0  0  0  0  0  0  0  0  0  0  0  0
  149.0223  138.3963  155.2986 H   0  0  0  0  0  0  0  0  0  0  0  0
  151.4846  138.0365  154.9160 H   0  0  0  0  0  0  0  0  0  0  0  0
  151.2362  138.2973  153.1916 H   0  0  0  0  0  0  0  0  0  0  0  0
  150.4880  136.9265  154.0024 H   0  0  0  0  0  0  0  0  0  0  0  0
  149.6200  138.9141  157.1750 H   0  0  0  0  0  0  0  0  0  0  0  0
  151.3444  138.8638  156.7945 H   0  0  0  0  0  0  0  0  0  0  0  0
  149.9126  140.5051  158.8864 H   0  0  0  0  0  0  0  0  0  0  0  0
  151.4779  139.7077  159.0328 H   0  0  0  0  0  0  0  0  0  0  0  0
  151.3659  142.3889  158.5916 H   0  0  0  0  0  0  0  0  0  0  0  0
  152.5519  141.4100  157.7292 H   0  0  0  0  0  0  0  0  0  0  0  0
  151.4989  142.3484  155.8555 H   0  0  0  0  0  0  0  0  0  0  0  0
  149.9391  142.4925  156.6776 H   0  0  0  0  0  0  0  0  0  0  0  0
  144.6893  136.7181  151.0839 H   0  0  0  0  0  0  0  0  0  0  0  0
  148.9507  139.5202  152.5984 H   0  0  0  0  0  0  0  0  0  0  0  0
  1  2  1  0  0  0  0
  1 21  1  0  0  0  0
  1 22  1  0  0  0  0
  1 23  1  0  0  0  0
  2 20  2  0  0  0  0
  2  3  1  0  0  0  0
  3  4  2  0  0  0  0
  3 24  1  0  0  0  0
  4  5  1  0  0  0  0
  5  6  1  0  0  0  0
  5 20  1  0  0  0  0
  6  7  1  0  0  0  0
  6  8  1  0  0  0  0
  6 25  1  0  0  0  0
  7 26  1  0  0  0  0
  7 27  1  0  0  0  0
  7 28  1  0  0  0  0
  8  9  1  0  0  0  0
  8 10  1  0  0  0  0
  8 29  1  0  0  0  0
  9 30  1  0  0  0  0
  9 31  1  0  0  0  0
  9 32  1  0  0  0  0
 10 11  1  0  0  0  0
 10 33  1  0  0  0  0
 10 47  1  0  0  0  0
 11 12  1  0  0  0  0
 11 13  1  0  0  0  0
 11 34  1  0  0  0  0
 12 35  1  0  0  0  0
 12 36  1  0  0  0  0
 12 37  1  0  0  0  0
 13 14  2  0  0  0  0
 13 15  1  0  0  0  0
 15 19  1  0  0  0  0
 15 16  1  0  0  0  0
 16 17  1  0  0  0  0
 16 38  1  0  0  0  0
 16 39  1  0  0  0  0
 17 18  1  0  0  0  0
 17 40  1  0  0  0  0
 17 41  1  0  0  0  0
 18 19  1  0  0  0  0
 18 42  1  0  0  0  0
 18 43  1  0  0  0  0
 19 44  1  0  0  0  0
 19 45  1  0  0  0  0
 20 46  1  0  0  0  0
M  CHG  1  10   1
M  END
> <s_m_source_file>
AV-unprocessed.smi

> <i_m_source_file_index>
3335

> <i_lp_mmshare_version>
43012

> <i_f3d_flags>
0

> <s_epik_input>
W0NIM11jMVtjSF1ubihbY0hdMSlbQ0BIXShbQ0gzXSlbQ0BIXShbQ0gzXSlbTkhdW0NASF0oW0NIM10pQyg9TylOMltDSDJdW0NIMl1bQ0gyXVtDSDJdMg==

> <s_epik_cmdline>
J2VwaWtfcHl0aG9uJywgJy1waCcsICc3LjAnLCAnLXRuJywgJzgnLCAnLW1hJywgJzIwMCcsICctbWV0YWxfYmluZGluZycsICctaW1hZScsICc8aW5maWxlLm1hZT4nLCAnLW9tYWUnLCAnPG91dGZpbGUubWFlPic=

> <r_lp_tautomer_probability>
1

> <r_epik_Ionization_Penalty>
0.14175

> <r_epik_Ionization_Penalty_Charging>
0.141731

> <r_epik_Ionization_Penalty_Neutral>
1.91261e-05

> <r_epik_State_Penalty>
0.131043

> <r_epik_Charging_Adjusted_Penalty>
0.272773

> <i_epik_Tot_Q>
1

> <i_epik_Tot_abs_Q>
1

> <r_epik_Metal_State_Penalty>
0.131408

> <b_epik_Metal_Only>
0

> <s_lp_Force_Field>
OPLS_2005

> <r_lp_Energy>
38.6819

> <b_lp_Chiralities_Consistent>
1

> <s_lp_Variant>
AV-unprocessed.smi:3335-5

> <Gold.Version>
5.8.1

> <Gold.Id.Protein>
6NUR|6NUR_protein|mol2

> <Gold.PLP.Fitness>
44.2978

> <Gold.PLP.PLP>
-31.6684

> <Gold.PLP.part.hbond>
-3.9651

> <Gold.PLP.part.metal>
0.0000

> <Gold.PLP.part.buried>
2.6398

> <Gold.PLP.part.nonpolar>
-32.1145

> <Gold.PLP.part.repulsive>
1.6734

> <Gold.PLP.ligand.clash>
0.0000

> <Gold.PLP.ligand.torsion>
1.1981

> <Gold.PLP.Chemscore.Hbond>
3.9408

> <Gold.PLP.Chemscore.CHOScore>
1.0000

> <Gold.PLP.Chemscore.Metal>
0.0000

> <Gold.Chemscore.Hbonds>
donor molecule, donor type, donor heavy atom, donor atom, acceptor molecule, acceptor atom, score
      L1  H    10    33       P1  7948  2.00
      L1  H    10    47       P1  7957  1.00
      P1  H  7989  7998       L1    14  0.14
      P1  H  8011  8017       L1    14  0.79
      L1  C    20    46       P1 10171  1.00

> <Gold.PLP.Chemscore.Internal.Correction>
0.2031

> <Gold.Rescore>
     Score         DG    S(hbond)    S(metal)    S(lipo)     H(rot)  DE(clash)    DE(int)     intcor
     16.59     -20.18       2.76        0.00      83.46       1.68       0.93       2.66       ----

> <Gold.Chemscore.Fitness>
16.5932

> <Gold.Chemscore.DG>
-20.1819

> <Gold.Chemscore.ZeroCoef>
-5.4800

> <Gold.Chemscore.Hbond>
2.7643

> <Gold.Chemscore.Metal>
0.0000

> <Gold.Chemscore.Lipo>
83.4555

> <Gold.Chemscore.Internal_Hbond>
0.0000

> <Gold.Chemscore.DEClash>
0.9256

> <Gold.Chemscore.DEInternal>
2.6631

> <Gold.Chemscore.Rot>
1.6778

> <Gold.Chemscore.Internal.Correction>
   9.000000E+99

> <Gold.Chemscore.Hbonds>
donor molecule, donor type, donor heavy atom, donor atom, acceptor molecule, acceptor atom, score
      L1  H    10    33       P1  7948  0.94
      L1  H    10    47       P1  7957  0.99
      P1  H  8011  8017       L1    14  0.73

> <Gold.Chemscore.Hbond.Weighted>
-9.2328

> <Gold.Chemscore.Metal.Weighted>
-0.0000

> <Gold.Chemscore.Lipo.Weighted>
-9.7643

> <Gold.Chemscore.Internal_Hbond.Weighted>
0.0000

> <Gold.Chemscore.DEClash.Weighted>
0.9256

> <Gold.Chemscore.DEInternal.Weighted>
2.6631

> <Gold.Chemscore.Rot.Weighted>
4.2952

> <Gold.Chemscore.Internal.Correction.Weighted>
   9.000000E+99

> <Gold.Protein.RotatedTorsions>
[ 6907 6896 6895 6894 ] final   30.00 input  -60.11 | X-H torsion
[ 7974 7965 7964 7962 ] final   81.57 input  175.53 | X-H torsion
[ 8008 7997 7996 7995 ] final  -77.92 input   59.86 | X-H torsion
[ 10167 10162 10161 10158 ] final   -4.23 input  -65.29 | X-H torsion
[ 10718 10713 10712 10709 ] final   40.20 input   66.30 | X-H torsion
[ 10763 10752 10751 10750 ] final -115.91 input  -60.55 | X-H torsion
[ 11005 11000 10999 10996 ] final   21.55 input  -57.11 | X-H torsion

> <Gold.Protein.ActiveResidues>
 VAL166  LYS551  ARG553  GLY616  TRP617  ASP618  TYR619  PRO620  LYS621  CYS622 
 ASP623  PHE694  ASN695  SER759  ASP760  ASP761  ALA762  ILE779  LEU786  VAL792 
 PHE793  MET794  SER795  GLU796  ALA797  LYS798  CYS799  TRP800  GLU811  SER814 

> <Gold.Protein.RotatedAtoms>
  152.0397  134.9719  160.0573 H   0  0  0  0  0  0  0  0  0  0  0  0  # atno 6907 bound_to 6896
  152.1162  133.4323  159.4662 H   0  0  0  0  0  0  0  0  0  0  0  0  # atno 6908 bound_to 6896
  150.6846  134.2508  159.4553 H   0  0  0  0  0  0  0  0  0  0  0  0  # atno 6909 bound_to 6896
  145.6364  139.2416  143.2056 H   0  0  0  0  0  0  0  0  0  0  0  0  # atno 7974 bound_to 7965
  154.5641  140.0702  156.8864 H   0  0  0  0  0  0  0  0  0  0  0  0  # atno 8008 bound_to 7997
  155.2756  140.3368  155.4244 H   0  0  0  0  0  0  0  0  0  0  0  0  # atno 8009 bound_to 7997
  156.2066  140.1742  156.7772 H   0  0  0  0  0  0  0  0  0  0  0  0  # atno 8010 bound_to 7997
  140.6920  143.6447  150.8404 H   0  0  0  0  0  0  0  0  0  0  0  0  # atno 10167 bound_to 10162
  157.3794  130.7745  149.7181 H   0  0  0  0  0  0  0  0  0  0  0  0  # atno 10718 bound_to 10713
  154.8499  135.4364  154.1737 H   0  0  0  0  0  0  0  0  0  0  0  0  # atno 10763 bound_to 10752
  153.2844  135.6956  153.7359 H   0  0  0  0  0  0  0  0  0  0  0  0  # atno 10764 bound_to 10752
  153.6551  135.3444  155.3086 H   0  0  0  0  0  0  0  0  0  0  0  0  # atno 10765 bound_to 10752
  140.3903  134.1826  155.7662 H   0  0  0  0  0  0  0  0  0  0  0  0  # atno 11005 bound_to 11000
  146.1316  140.7178  142.9409 LP  0  0  0  0  0  0  0  0  0  0  0  0  # atno 17320 bound_to 7965
  144.7174  140.4257  143.7034 LP  0  0  0  0  0  0  0  0  0  0  0  0  # atno 17321 bound_to 7965
  140.0161  143.5591  152.2819 LP  0  0  0  0  0  0  0  0  0  0  0  0  # atno 17342 bound_to 10162
  139.6333  144.7647  151.2491 LP  0  0  0  0  0  0  0  0  0  0  0  0  # atno 17343 bound_to 10162
  155.9772  130.4065  150.3725 LP  0  0  0  0  0  0  0  0  0  0  0  0  # atno 17370 bound_to 10713
  157.1827  131.0396  151.2740 LP  0  0  0  0  0  0  0  0  0  0  0  0  # atno 17371 bound_to 10713
  141.1893  133.8241  157.0962 LP  0  0  0  0  0  0  0  0  0  0  0  0  # atno 17394 bound_to 11000
  140.0411  134.9853  157.0964 LP  0  0  0  0  0  0  0  0  0  0  0  0  # atno 17395 bound_to 11000

$$$$
