AV-unprocessed.smi:1871|AV-procd|sdf|7601|dock5
  -GOLD-   22720 9313D 1   1.00000     0.00000
 Structure written by MMmdl.
 41 43  0  0  0  0  0  0  0  0  2 V2000
  145.1565  142.0538  154.3793 O   0  0  0  0  0  0  0  0  0  0  0  0
  146.3044  142.4068  153.6407 C   0  0  0  0  0  0  0  0  0  0  0  0
  147.5379  141.7354  154.1512 C   0  0  0  0  0  0  0  0  0  0  0  0
  148.4609  142.3062  154.9763 N   0  3  0  0  0  0  0  0  0  0  0  0
  149.4855  141.3976  155.2426 C   0  0  0  0  0  0  0  0  0  0  0  0
  150.6332  141.5196  156.0199 C   0  0  0  0  0  0  0  0  0  0  0  0
  151.4793  140.3927  156.0802 C   0  0  0  0  0  0  0  0  0  0  0  0
  151.1714  139.2053  155.3845 C   0  0  0  0  0  0  0  0  0  0  0  0
  150.0050  139.0941  154.5992 C   0  0  0  0  0  0  0  0  0  0  0  0
  149.1739  140.2130  154.5454 C   0  0  0  0  0  0  0  0  0  0  0  0
  147.9670  140.4662  153.8840 N   0  0  0  0  0  0  0  0  0  0  0  0
  147.3796  139.4054  153.0495 C   0  0  0  0  0  0  0  0  0  0  0  0
  146.1959  138.6897  153.7312 C   0  0  2  0  0  0  0  0  0  0  0  0
  146.5841  138.2351  155.0128 O   0  0  0  0  0  0  0  0  0  0  0  0
  145.6561  137.5676  152.8590 C   0  0  0  0  0  0  0  0  0  0  0  0
  144.5628  136.7844  153.2870 C   0  0  0  0  0  0  0  0  0  0  0  0
  144.0767  135.7412  152.4758 C   0  0  0  0  0  0  0  0  0  0  0  0
  144.6693  135.4672  151.2269 C   0  0  0  0  0  0  0  0  0  0  0  0
  144.1588  134.4252  150.4865 O   0  0  0  0  0  0  0  0  0  0  0  0
  144.1165  133.1802  151.0311 C   0  0  0  0  0  0  0  0  0  0  0  0
  143.6276  132.2874  150.1357 F   0  0  0  0  0  0  0  0  0  0  0  0
  145.3686  132.7824  151.3624 F   0  0  0  0  0  0  0  0  0  0  0  0
  145.7754  136.2439  150.8065 C   0  0  0  0  0  0  0  0  0  0  0  0
  146.2622  137.2878  151.6169 C   0  0  0  0  0  0  0  0  0  0  0  0
  144.6439  141.4462  153.8680 H   0  0  0  0  0  0  0  0  0  0  0  0
  146.1504  142.1283  152.5980 H   0  0  0  0  0  0  0  0  0  0  0  0
  146.4280  143.4889  153.6625 H   0  0  0  0  0  0  0  0  0  0  0  0
  150.8717  142.4285  156.5527 H   0  0  0  0  0  0  0  0  0  0  0  0
  152.3824  140.4399  156.6714 H   0  0  0  0  0  0  0  0  0  0  0  0
  151.8436  138.3622  155.4545 H   0  0  0  0  0  0  0  0  0  0  0  0
  149.7790  138.1809  154.0688 H   0  0  0  0  0  0  0  0  0  0  0  0
  147.0705  139.8484  152.1019 H   0  0  0  0  0  0  0  0  0  0  0  0
  148.1652  138.6909  152.8048 H   0  0  0  0  0  0  0  0  0  0  0  0
  145.3917  139.4083  153.8922 H   0  0  0  0  0  0  0  0  0  0  0  0
  146.3872  138.9112  155.6431 H   0  0  0  0  0  0  0  0  0  0  0  0
  144.0949  136.9780  154.2412 H   0  0  0  0  0  0  0  0  0  0  0  0
  143.2405  135.1472  152.8147 H   0  0  0  0  0  0  0  0  0  0  0  0
  143.5093  133.1565  151.9364 H   0  0  0  0  0  0  0  0  0  0  0  0
  146.2661  136.0446  149.8656 H   0  0  0  0  0  0  0  0  0  0  0  0
  147.1078  137.8699  151.2811 H   0  0  0  0  0  0  0  0  0  0  0  0
  148.3931  143.2536  155.3250 H   0  0  0  0  0  0  0  0  0  0  0  0
  1  2  1  0  0  0  0
  1 25  1  0  0  0  0
  2  3  1  0  0  0  0
  2 26  1  0  0  0  0
  2 27  1  0  0  0  0
  3 11  1  0  0  0  0
  3  4  2  0  0  0  0
  4  5  1  0  0  0  0
  4 41  1  0  0  0  0
  5 10  2  0  0  0  0
  5  6  1  0  0  0  0
  6  7  2  0  0  0  0
  6 28  1  0  0  0  0
  7  8  1  0  0  0  0
  7 29  1  0  0  0  0
  8  9  2  0  0  0  0
  8 30  1  0  0  0  0
  9 10  1  0  0  0  0
  9 31  1  0  0  0  0
 10 11  1  0  0  0  0
 11 12  1  0  0  0  0
 12 13  1  0  0  0  0
 12 32  1  0  0  0  0
 12 33  1  0  0  0  0
 13 14  1  0  0  0  0
 13 15  1  0  0  0  0
 13 34  1  0  0  0  0
 14 35  1  0  0  0  0
 15 24  1  0  0  0  0
 15 16  2  0  0  0  0
 16 17  1  0  0  0  0
 16 36  1  0  0  0  0
 17 18  2  0  0  0  0
 17 37  1  0  0  0  0
 18 19  1  0  0  0  0
 18 23  1  0  0  0  0
 19 20  1  0  0  0  0
 20 21  1  0  0  0  0
 20 22  1  0  0  0  0
 20 38  1  0  0  0  0
 23 24  2  0  0  0  0
 23 39  1  0  0  0  0
 24 40  1  0  0  0  0
M  CHG  1   4   1
M  END
> <s_m_source_file>
AV-unprocessed.smi

> <i_m_source_file_index>
1871

> <i_lp_mmshare_version>
43012

> <i_f3d_flags>
0

> <s_epik_input>
W2NIXTFbY0hdW2NIXVtjSF1jKGMxMiluKGMobjIpW0NIMl1bT0hdKVtDSDJdW0NASF0oW09IXSljM1tjSF1bY0hdYyhPW0NIXShGKUYpW2NIXVtjSF0z

> <s_epik_cmdline>
J2VwaWtfcHl0aG9uJywgJy1waCcsICc3LjAnLCAnLXRuJywgJzgnLCAnLW1hJywgJzIwMCcsICctbWV0YWxfYmluZGluZycsICctaW1hZScsICc8aW5maWxlLm1hZT4nLCAnLW9tYWUnLCAnPG91dGZpbGUubWFlPic=

> <r_lp_tautomer_probability>
1

> <r_epik_Ionization_Penalty>
1.35642

> <r_epik_Ionization_Penalty_Charging>
1.35557

> <r_epik_Ionization_Penalty_Neutral>
0.000856035

> <r_epik_State_Penalty>
1.43401

> <r_epik_Charging_Adjusted_Penalty>
2.78958

> <i_epik_Tot_Q>
1

> <i_epik_Tot_abs_Q>
1

> <r_epik_Metal_State_Penalty>
5.47166

> <b_epik_Metal_Only>
0

> <s_lp_Force_Field>
OPLS_2005

> <r_lp_Energy>
13.1026

> <b_lp_Chiralities_Consistent>
1

> <s_lp_Variant>
AV-unprocessed.smi:1871-3

> <Gold.Version>
5.8.1

> <Gold.Id.Protein>
6NUR|6NUR_protein|mol2

> <Gold.PLP.Fitness>
56.7769

> <Gold.PLP.PLP>
-48.7958

> <Gold.PLP.part.hbond>
-2.0000

> <Gold.PLP.part.metal>
0.0000

> <Gold.PLP.part.buried>
-2.4940

> <Gold.PLP.part.nonpolar>
-45.8299

> <Gold.PLP.part.repulsive>
0.3872

> <Gold.PLP.ligand.clash>
0.0000

> <Gold.PLP.ligand.torsion>
0.5611

> <Gold.PLP.Chemscore.Hbond>
3.0000

> <Gold.PLP.Chemscore.CHOScore>
0.0000

> <Gold.PLP.Chemscore.Metal>
0.0000

> <Gold.Chemscore.Hbonds>
donor molecule, donor type, donor heavy atom, donor atom, acceptor molecule, acceptor atom, score
      L1  H     1    25       P1 10175  1.00
      L1  H     4    41       P1  8028  2.00

> <Gold.PLP.Chemscore.Internal.Correction>
0.1034

> <Gold.Rescore>
     Score         DG    S(hbond)    S(metal)    S(lipo)     H(rot)  DE(clash)    DE(int)     intcor
     12.80     -14.40       1.78        0.00      99.24       3.37       1.27       0.33       ----

> <Gold.Chemscore.Fitness>
12.8043

> <Gold.Chemscore.DG>
-14.4031

> <Gold.Chemscore.ZeroCoef>
-5.4800

> <Gold.Chemscore.Hbond>
1.7751

> <Gold.Chemscore.Metal>
0.0000

> <Gold.Chemscore.Lipo>
99.2380

> <Gold.Chemscore.Internal_Hbond>
0.0000

> <Gold.Chemscore.DEClash>
1.2654

> <Gold.Chemscore.DEInternal>
0.3334

> <Gold.Chemscore.Rot>
3.3659

> <Gold.Chemscore.Internal.Correction>
   9.000000E+99

> <Gold.Chemscore.Hbonds>
donor molecule, donor type, donor heavy atom, donor atom, acceptor molecule, acceptor atom, score
      L1  H     1    25       P1 10175  0.25
      L1  H     4    41       P1  8028  0.94

> <Gold.Chemscore.Hbond.Weighted>
-5.9289

> <Gold.Chemscore.Metal.Weighted>
-0.0000

> <Gold.Chemscore.Lipo.Weighted>
-11.6108

> <Gold.Chemscore.Internal_Hbond.Weighted>
0.0000

> <Gold.Chemscore.DEClash.Weighted>
1.2654

> <Gold.Chemscore.DEInternal.Weighted>
0.3334

> <Gold.Chemscore.Rot.Weighted>
8.6167

> <Gold.Chemscore.Internal.Correction.Weighted>
   9.000000E+99

> <Gold.Protein.RotatedTorsions>
[ 6907 6896 6895 6894 ] final   47.89 input  -60.11 | X-H torsion
[ 7974 7965 7964 7962 ] final -116.15 input  175.53 | X-H torsion
[ 8008 7997 7996 7995 ] final -174.07 input   59.86 | X-H torsion
[ 10167 10162 10161 10158 ] final  -83.77 input  -65.29 | X-H torsion
[ 10718 10713 10712 10709 ] final  146.99 input   66.30 | X-H torsion
[ 10763 10752 10751 10750 ] final -147.89 input  -60.55 | X-H torsion
[ 11005 11000 10999 10996 ] final  136.40 input  -57.11 | X-H torsion

> <Gold.Protein.ActiveResidues>
 VAL166  LYS551  ARG553  GLY616  TRP617  ASP618  TYR619  PRO620  LYS621  CYS622 
 ASP623  PHE694  ASN695  SER759  ASP760  ASP761  ALA762  ILE779  LEU786  VAL792 
 PHE793  MET794  SER795  GLU796  ALA797  LYS798  CYS799  TRP800  GLU811  SER814 

> <Gold.Protein.RotatedAtoms>
  152.2732  134.7910  160.0410 H   0  0  0  0  0  0  0  0  0  0  0  0  # atno 6907 bound_to 6896
  151.8515  133.3435  159.3683 H   0  0  0  0  0  0  0  0  0  0  0  0  # atno 6908 bound_to 6896
  150.7160  134.5223  159.5704 H   0  0  0  0  0  0  0  0  0  0  0  0  # atno 6909 bound_to 6896
  145.1000  140.8546  143.3931 H   0  0  0  0  0  0  0  0  0  0  0  0  # atno 7974 bound_to 7965
  155.9655  140.1153  157.0858 H   0  0  0  0  0  0  0  0  0  0  0  0  # atno 8008 bound_to 7997
  154.4143  140.1173  156.5303 H   0  0  0  0  0  0  0  0  0  0  0  0  # atno 8009 bound_to 7997
  155.6665  140.3473  155.4804 H   0  0  0  0  0  0  0  0  0  0  0  0  # atno 8010 bound_to 7997
  140.4196  143.2590  151.8908 H   0  0  0  0  0  0  0  0  0  0  0  0  # atno 10167 bound_to 10162
  157.3265  131.0913  151.1198 H   0  0  0  0  0  0  0  0  0  0  0  0  # atno 10718 bound_to 10713
  154.8262  135.3348  154.6888 H   0  0  0  0  0  0  0  0  0  0  0  0  # atno 10763 bound_to 10752
  153.7514  135.6939  153.4949 H   0  0  0  0  0  0  0  0  0  0  0  0  # atno 10764 bound_to 10752
  153.2174  135.4461  155.0400 H   0  0  0  0  0  0  0  0  0  0  0  0  # atno 10765 bound_to 10752
  140.0043  134.9465  157.0141 H   0  0  0  0  0  0  0  0  0  0  0  0  # atno 11005 bound_to 11000
  145.0966  139.2852  143.5708 LP  0  0  0  0  0  0  0  0  0  0  0  0  # atno 17320 bound_to 7965
  146.3530  140.0520  142.8635 LP  0  0  0  0  0  0  0  0  0  0  0  0  # atno 17321 bound_to 7965
  139.4782  144.5452  151.8469 LP  0  0  0  0  0  0  0  0  0  0  0  0  # atno 17342 bound_to 10162
  140.4549  144.1804  150.5900 LP  0  0  0  0  0  0  0  0  0  0  0  0  # atno 17343 bound_to 10162
  157.2463  130.6593  149.5911 LP  0  0  0  0  0  0  0  0  0  0  0  0  # atno 17370 bound_to 10713
  155.9691  130.4552  150.5880 LP  0  0  0  0  0  0  0  0  0  0  0  0  # atno 17371 bound_to 10713
  140.4669  134.1426  155.7198 LP  0  0  0  0  0  0  0  0  0  0  0  0  # atno 17394 bound_to 11000
  141.1665  133.8692  157.1698 LP  0  0  0  0  0  0  0  0  0  0  0  0  # atno 17395 bound_to 11000

$$$$
