AV-unprocessed.smi:2915|AV-procd|sdf|11187|dock6
  -GOLD-   2272016 83D 1   1.00000     0.00000
 Structure written by MMmdl.
 41 42  0  0  0  0  0  0  0  0  1 V2000
  152.0140  144.5004  159.2382 C   0  0  0  0  0  0  0  0  0  0  0  0
  152.3104  143.0443  159.3503 C   0  0  0  0  0  0  0  0  0  0  0  0
  152.0661  142.1628  158.3771 N   0  0  0  0  0  0  0  0  0  0  0  0
  152.4400  140.8601  158.7240 C   0  0  0  0  0  0  0  0  0  0  0  0
  152.2433  139.7358  157.7457 C   0  0  0  0  0  0  0  0  0  0  0  0
  151.7481  140.2309  156.3803 C   0  0  0  0  0  0  0  0  0  0  0  0
  152.4408  140.1177  155.3675 O   0  0  0  0  0  0  0  0  0  0  0  0
  150.5278  140.7891  156.3775 N   0  0  0  0  0  0  0  0  0  0  0  0
  149.8437  141.3611  155.2169 C   0  0  0  0  0  0  0  0  0  0  0  0
  148.3510  140.9393  155.1044 C   0  0  0  0  0  0  0  0  0  0  0  0
  148.2989  139.3885  155.2152 C   0  0  0  0  0  0  0  0  0  0  0  0
  149.3080  138.5924  154.3601 C   0  0  0  0  0  0  0  0  0  0  0  0
  149.0218  137.2140  154.4562 O   0  0  0  0  0  0  0  0  0  0  0  0
  147.4981  141.6193  156.2112 C   0  0  0  0  0  0  0  0  0  0  0  0
  146.2527  142.1716  155.5169 C   0  0  0  0  0  0  0  0  0  0  0  0
  146.7426  142.5399  154.1213 C   0  0  0  0  0  0  0  0  0  0  0  0
  147.7341  141.4306  153.7654 C   0  0  0  0  0  0  0  0  0  0  0  0
  152.9623  140.7675  159.9907 C   0  0  0  0  0  0  0  0  0  0  0  0
  153.0178  142.3157  160.7867 S   0  0  0  0  0  0  0  0  0  0  0  0
  151.7051  144.7532  158.2234 H   0  0  0  0  0  0  0  0  0  0  0  0
  152.9020  145.0812  159.4877 H   0  0  0  0  0  0  0  0  0  0  0  0
  151.2129  144.7706  159.9262 H   0  0  0  0  0  0  0  0  0  0  0  0
  153.1781  139.1934  157.6003 H   0  0  0  0  0  0  0  0  0  0  0  0
  151.5258  139.0132  158.1376 H   0  0  0  0  0  0  0  0  0  0  0  0
  150.0346  140.8370  157.2571 H   0  0  0  0  0  0  0  0  0  0  0  0
  149.9219  142.4496  155.2219 H   0  0  0  0  0  0  0  0  0  0  0  0
  150.3860  141.0316  154.3301 H   0  0  0  0  0  0  0  0  0  0  0  0
  148.4322  139.1090  156.2616 H   0  0  0  0  0  0  0  0  0  0  0  0
  147.2961  139.0517  154.9477 H   0  0  0  0  0  0  0  0  0  0  0  0
  149.2533  138.8756  153.3097 H   0  0  0  0  0  0  0  0  0  0  0  0
  150.3355  138.7506  154.6838 H   0  0  0  0  0  0  0  0  0  0  0  0
  149.0435  136.8405  153.5883 H   0  0  0  0  0  0  0  0  0  0  0  0
  147.2468  140.9514  157.0351 H   0  0  0  0  0  0  0  0  0  0  0  0
  148.0314  142.4538  156.6660 H   0  0  0  0  0  0  0  0  0  0  0  0
  145.4886  141.3966  155.4473 H   0  0  0  0  0  0  0  0  0  0  0  0
  145.8192  143.0206  156.0464 H   0  0  0  0  0  0  0  0  0  0  0  0
  145.9304  142.6238  153.3989 H   0  0  0  0  0  0  0  0  0  0  0  0
  147.2597  143.5000  154.1546 H   0  0  0  0  0  0  0  0  0  0  0  0
  148.4798  141.7768  153.0496 H   0  0  0  0  0  0  0  0  0  0  0  0
  147.1974  140.6307  153.2578 H   0  0  0  0  0  0  0  0  0  0  0  0
  153.3229  139.8855  160.4990 H   0  0  0  0  0  0  0  0  0  0  0  0
  1  2  1  0  0  0  0
  1 20  1  0  0  0  0
  1 21  1  0  0  0  0
  1 22  1  0  0  0  0
  2 19  1  0  0  0  0
  2  3  2  0  0  0  0
  3  4  1  0  0  0  0
  4  5  1  0  0  0  0
  4 18  2  0  0  0  0
  5  6  1  0  0  0  0
  5 23  1  0  0  0  0
  5 24  1  0  0  0  0
  6  7  2  0  0  0  0
  6  8  1  0  0  0  0
  8  9  1  0  0  0  0
  8 25  1  0  0  0  0
  9 10  1  0  0  0  0
  9 26  1  0  0  0  0
  9 27  1  0  0  0  0
 10 17  1  0  0  0  0
 10 11  1  0  0  0  0
 10 14  1  0  0  0  0
 11 12  1  0  0  0  0
 11 28  1  0  0  0  0
 11 29  1  0  0  0  0
 12 13  1  0  0  0  0
 12 30  1  0  0  0  0
 12 31  1  0  0  0  0
 13 32  1  0  0  0  0
 14 15  1  0  0  0  0
 14 33  1  0  0  0  0
 14 34  1  0  0  0  0
 15 16  1  0  0  0  0
 15 35  1  0  0  0  0
 15 36  1  0  0  0  0
 16 17  1  0  0  0  0
 16 37  1  0  0  0  0
 16 38  1  0  0  0  0
 17 39  1  0  0  0  0
 17 40  1  0  0  0  0
 18 19  1  0  0  0  0
 18 41  1  0  0  0  0
M  END
> <s_m_source_file>
AV-unprocessed.smi

> <i_m_source_file_index>
2915

> <i_lp_mmshare_version>
43012

> <i_f3d_flags>
0

> <s_epik_input>
W0NIM11jMW5jKFtjSF1zMSlbQ0gyXUMoPU8pW05IXVtDSDJdQzIoW0NIMl1bQ0gyXVtPSF0pW0NIMl1bQ0gyXVtDSDJdW0NIMl0y

> <s_epik_cmdline>
J2VwaWtfcHl0aG9uJywgJy1waCcsICc3LjAnLCAnLXRuJywgJzgnLCAnLW1hJywgJzIwMCcsICctbWV0YWxfYmluZGluZycsICctaW1hZScsICc8aW5maWxlLm1hZT4nLCAnLW9tYWUnLCAnPG91dGZpbGUubWFlPic=

> <r_lp_tautomer_probability>
1

> <r_epik_Ionization_Penalty>
5.95244e-05

> <r_epik_Ionization_Penalty_Charging>
0

> <r_epik_Ionization_Penalty_Neutral>
5.95244e-05

> <r_epik_State_Penalty>
-0

> <r_epik_Charging_Adjusted_Penalty>
0

> <i_epik_Tot_Q>
0

> <i_epik_Tot_abs_Q>
0

> <r_epik_Metal_State_Penalty>
-0

> <b_epik_Metal_Only>
0

> <s_lp_Force_Field>
OPLS_2005

> <r_lp_Energy>
27.9647

> <b_lp_Chiralities_Consistent>
1

> <s_lp_Variant>
AV-unprocessed.smi:2915-1

> <Gold.Version>
5.8.1

> <Gold.Id.Protein>
6NUR|6NUR_protein|mol2

> <Gold.PLP.Fitness>
46.3003

> <Gold.PLP.PLP>
-39.6665

> <Gold.PLP.part.hbond>
-3.0000

> <Gold.PLP.part.metal>
0.0000

> <Gold.PLP.part.buried>
-2.9654

> <Gold.PLP.part.nonpolar>
-32.8581

> <Gold.PLP.part.repulsive>
0.0806

> <Gold.PLP.ligand.clash>
0.0000

> <Gold.PLP.ligand.torsion>
0.3489

> <Gold.PLP.Chemscore.Hbond>
2.4338

> <Gold.PLP.Chemscore.CHOScore>
0.0000

> <Gold.PLP.Chemscore.Metal>
0.0000

> <Gold.Chemscore.Hbonds>
donor molecule, donor type, donor heavy atom, donor atom, acceptor molecule, acceptor atom, score
      L1  H    13    32       P1  7948  1.00
      P1  H  7989  7998       L1     7  0.42
      P1  H  7997  8009       L1     7  0.93

> <Gold.PLP.Chemscore.Internal.Correction>
0.0303

> <Gold.Rescore>
     Score         DG    S(hbond)    S(metal)    S(lipo)     H(rot)  DE(clash)    DE(int)     intcor
     17.46     -17.84       2.01        0.00     101.83       2.45       0.05       0.33       ----

> <Gold.Chemscore.Fitness>
17.4559

> <Gold.Chemscore.DG>
-17.8423

> <Gold.Chemscore.ZeroCoef>
-5.4800

> <Gold.Chemscore.Hbond>
2.0095

> <Gold.Chemscore.Metal>
0.0000

> <Gold.Chemscore.Lipo>
101.8329

> <Gold.Chemscore.Internal_Hbond>
0.0000

> <Gold.Chemscore.DEClash>
0.0530

> <Gold.Chemscore.DEInternal>
0.3334

> <Gold.Chemscore.Rot>
2.4469

> <Gold.Chemscore.Internal.Correction>
   9.000000E+99

> <Gold.Chemscore.Hbonds>
donor molecule, donor type, donor heavy atom, donor atom, acceptor molecule, acceptor atom, score
      L1  H    13    32       P1  7948  1.00
      P1  H  7989  7998       L1     7  0.41
      P1  H  7997  8009       L1     7  0.58

> <Gold.Chemscore.Hbond.Weighted>
-6.7118

> <Gold.Chemscore.Metal.Weighted>
-0.0000

> <Gold.Chemscore.Lipo.Weighted>
-11.9144

> <Gold.Chemscore.Internal_Hbond.Weighted>
0.0000

> <Gold.Chemscore.DEClash.Weighted>
0.0530

> <Gold.Chemscore.DEInternal.Weighted>
0.3334

> <Gold.Chemscore.Rot.Weighted>
6.2640

> <Gold.Chemscore.Internal.Correction.Weighted>
   9.000000E+99

> <Gold.Protein.RotatedTorsions>
[ 6907 6896 6895 6894 ] final -114.04 input  -60.11 | X-H torsion
[ 7974 7965 7964 7962 ] final  -55.30 input  175.53 | X-H torsion
[ 8008 7997 7996 7995 ] final -138.92 input   59.86 | X-H torsion
[ 10167 10162 10161 10158 ] final  -14.75 input  -65.29 | X-H torsion
[ 10718 10713 10712 10709 ] final   -9.25 input   66.30 | X-H torsion
[ 10763 10752 10751 10750 ] final   47.21 input  -60.55 | X-H torsion
[ 11005 11000 10999 10996 ] final  118.17 input  -57.11 | X-H torsion

> <Gold.Protein.ActiveResidues>
 VAL166  LYS551  ARG553  GLY616  TRP617  ASP618  TYR619  PRO620  LYS621  CYS622 
 ASP623  PHE694  ASN695  SER759  ASP760  ASP761  ALA762  ILE779  LEU786  VAL792 
 PHE793  MET794  SER795  GLU796  ALA797  LYS798  CYS799  TRP800  GLU811  SER814 

> <Gold.Protein.RotatedAtoms>
  150.7873  133.8858  159.3298 H   0  0  0  0  0  0  0  0  0  0  0  0  # atno 6907 bound_to 6896
  151.6706  135.0975  160.0206 H   0  0  0  0  0  0  0  0  0  0  0  0  # atno 6908 bound_to 6896
  152.3939  133.6680  159.6296 H   0  0  0  0  0  0  0  0  0  0  0  0  # atno 6909 bound_to 6896
  145.8758  140.8182  142.9865 H   0  0  0  0  0  0  0  0  0  0  0  0  # atno 7974 bound_to 7965
  155.4363  140.0528  157.3014 H   0  0  0  0  0  0  0  0  0  0  0  0  # atno 8008 bound_to 7997
  154.4837  140.2092  155.9661 H   0  0  0  0  0  0  0  0  0  0  0  0  # atno 8009 bound_to 7997
  156.1244  140.3183  155.8260 H   0  0  0  0  0  0  0  0  0  0  0  0  # atno 8010 bound_to 7997
  140.7206  143.5290  150.9543 H   0  0  0  0  0  0  0  0  0  0  0  0  # atno 10167 bound_to 10162
  156.6908  130.5064  149.5944 H   0  0  0  0  0  0  0  0  0  0  0  0  # atno 10718 bound_to 10713
  152.9802  135.5983  154.3726 H   0  0  0  0  0  0  0  0  0  0  0  0  # atno 10763 bound_to 10752
  154.3398  135.2768  155.2430 H   0  0  0  0  0  0  0  0  0  0  0  0  # atno 10764 bound_to 10752
  154.4517  135.5988  153.6251 H   0  0  0  0  0  0  0  0  0  0  0  0  # atno 10765 bound_to 10752
  139.9100  134.9617  156.7462 H   0  0  0  0  0  0  0  0  0  0  0  0  # atno 11005 bound_to 11000
  144.6726  140.1308  143.7444 LP  0  0  0  0  0  0  0  0  0  0  0  0  # atno 17320 bound_to 7965
  145.9083  139.2471  143.1453 LP  0  0  0  0  0  0  0  0  0  0  0  0  # atno 17321 bound_to 7965
  139.9009  143.6837  152.3131 LP  0  0  0  0  0  0  0  0  0  0  0  0  # atno 17342 bound_to 10162
  139.7186  144.7607  151.0993 LP  0  0  0  0  0  0  0  0  0  0  0  0  # atno 17343 bound_to 10162
  156.1799  130.6492  151.0939 LP  0  0  0  0  0  0  0  0  0  0  0  0  # atno 17370 bound_to 10713
  157.7010  131.0776  150.6821 LP  0  0  0  0  0  0  0  0  0  0  0  0  # atno 17371 bound_to 10713
  140.6810  133.9475  155.7910 LP  0  0  0  0  0  0  0  0  0  0  0  0  # atno 17394 bound_to 11000
  141.0510  134.0484  157.3783 LP  0  0  0  0  0  0  0  0  0  0  0  0  # atno 17395 bound_to 11000

$$$$
