#       Name:                AV-unprocessed.smi:466
#       Creating user name   scv26
#       Creation time:       Thu Mar 26 23:05:12 2020


#       File generated by GOLD software.
#

@<TRIPOS>MOLECULE
AV-unprocessed.smi:466
    50    52     1
SMALL
NO_CHARGES


@<TRIPOS>ATOM
      1 ****        -2.1597   3.6161   0.9184 C.3            1 S1                 0.0000
      2 ****        -1.7249   2.2725   1.0649 O.3            1 S1                 0.0000
      3 ****        -2.6809   1.2835   1.1794 C.ar           1 S1                 0.0000
      4 ****        -4.0766   1.5307   1.1510 C.ar           1 S1                 0.0000
      5 ****        -4.9916   0.4688   1.2700 C.ar           1 S1                 0.0000
      6 ****        -4.5250  -0.8484   1.4200 C.ar           1 S1                 0.0000
      7 ****        -3.1422  -1.1053   1.4508 C.ar           1 S1                 0.0000
      8 ****        -2.2131  -0.0422   1.3292 C.ar           1 S1                 0.0000
      9 ****        -0.8468  -0.2139   1.3494 O.3            1 S1                 0.0000
     10 ****        -0.3154  -1.5296   1.4041 C.3            1 S1                 0.0000
     11 ****         1.2143  -1.4418   1.2959 C.3            1 S1                 0.0000
     12 ****         1.6436  -0.8178   0.0331 N.pl3          1 S1                 0.0000
     13 ****         1.9106  -1.3768  -1.1845 C.2            1 S1                 0.0000
     14 ****         1.8095  -2.8264  -1.5522 C.3            1 S1                 0.0000
     15 ****         2.8935  -3.2606  -2.5507 C.3            1 S1                 0.0000
     16 ****         2.7595  -4.6377  -2.8285 O.3            1 S1                 0.0000
     17 ****         2.2217  -0.3547  -2.0332 N.pl3          1 S1                 1.0000
     18 ****         2.1672   0.8623  -1.3543 C.ar           1 S1                 0.0000
     19 ****         2.3990   2.1616  -1.7952 C.ar           1 S1                 0.0000
     20 ****         2.2402   3.1905  -0.8438 C.ar           1 S1                 0.0000
     21 ****         1.8681   2.9084   0.4863 C.ar           1 S1                 0.0000
     22 ****         1.6420   1.5863   0.9221 C.ar           1 S1                 0.0000
     23 ****         1.7977   0.5739  -0.0254 C.ar           1 S1                 0.0000
     24 ****        -1.2891   4.2678   0.8449 H              1 S1                 0.0000
     25 ****        -2.7440   3.9423   1.7797 H              1 S1                 0.0000
     26 ****        -2.7482   3.7484   0.0096 H              1 S1                 0.0000
     27 ****        -4.4718   2.5286   1.0379 H              1 S1                 0.0000
     28 ****        -6.0532   0.6662   1.2467 H              1 S1                 0.0000
     29 ****        -5.2284  -1.6631   1.5124 H              1 S1                 0.0000
     30 ****        -2.8181  -2.1277   1.5711 H              1 S1                 0.0000
     31 ****        -0.5932  -2.0101   2.3431 H              1 S1                 0.0000
     32 ****        -0.7053  -2.1345   0.5835 H              1 S1                 0.0000
     33 ****         1.6321  -0.8817   2.1327 H              1 S1                 0.0000
     34 ****         1.6543  -2.4368   1.3519 H              1 S1                 0.0000
     35 ****         1.8854  -3.4356  -0.6520 H              1 S1                 0.0000
     36 ****         0.8186  -3.0087  -1.9695 H              1 S1                 0.0000
     37 ****         2.8123  -2.7045  -3.4851 H              1 S1                 0.0000
     38 ****         3.8881  -3.0771  -2.1430 H              1 S1                 0.0000
     39 ****         3.4410  -4.8931  -3.4318 H              1 S1                 0.0000
     40 ****         2.6800   2.3801  -2.8151 H              1 S1                 0.0000
     41 ****         2.4039   4.2163  -1.1408 H              1 S1                 0.0000
     42 ****         1.7503   3.7220   1.1870 H              1 S1                 0.0000
     43 ****         1.3472   1.3848   1.9412 H              1 S1                 0.0000
     44 ****         2.4466  -0.4831  -3.0113 H              1 S1                 0.0000
     45 ****        -1.1581   2.2329   1.8878 LP             1 S1                 0.0000
     46 ****        -1.1666   2.0532   0.2648 LP             1 S1                 0.0000
     47 ****        -0.5027   0.2739   2.1517 LP             1 S1                 0.0000
     48 ****        -0.4863   0.2127   0.5199 LP             1 S1                 0.0000
     49 ****         1.8643  -4.8127  -3.2384 LP             1 S1                 0.0000
     50 ****         2.8464  -5.1618  -1.9813 LP             1 S1                 0.0000
@<TRIPOS>BOND
    1    1    2 1     
    2    1   24 1     
    3    1   25 1     
    4    1   26 1     
    5    2    3 1     
    6    3    8 ar    
    7    3    4 ar    
    8    4    5 ar    
    9    4   27 1     
   10    5    6 ar    
   11    5   28 1     
   12    6    7 ar    
   13    6   29 1     
   14    7    8 ar    
   15    7   30 1     
   16    8    9 1     
   17    9   10 1     
   18   10   11 1     
   19   10   31 1     
   20   10   32 1     
   21   11   12 1     
   22   11   33 1     
   23   11   34 1     
   24   12   23 1     
   25   12   13 1     
   26   13   14 1     
   27   13   17 2     
   28   14   15 1     
   29   14   35 1     
   30   14   36 1     
   31   15   16 1     
   32   15   37 1     
   33   15   38 1     
   34   16   39 1     
   35   17   18 1     
   36   17   44 1     
   37   18   23 ar    
   38   18   19 ar    
   39   19   20 ar    
   40   19   40 1     
   41   20   21 ar    
   42   20   41 1     
   43   21   22 ar    
   44   21   42 1     
   45   22   23 ar    
   46   22   43 1     
   47    2   45 1     
   48    2   46 1     
   49    9   47 1     
   50    9   48 1     
   51   16   49 1     
   52   16   50 1     
@<TRIPOS>SUBSTRUCTURE
      1 S1             1
@<TRIPOS>SET
LONE_PAIRS      STATIC     ATOMS    <user>   **** ""
6 45 46 47 48 49 50
DONOR_HYDROGENS      STATIC     ATOMS    <user>   **** ""
2 39 44
ATOM$BLUE        STATIC     ATOMS    COLORGROUP SYSTEM
6 45 46 47 48 49 50
ATOM$RED        STATIC     ATOMS    COLORGROUP SYSTEM
2 39 44
