AV-unprocessed.smi:1455|AV-procd|sdf|5916|dock6
  -GOLD-   22720 6 03D 1   1.00000     0.00000
 Structure written by MMmdl.
 31 32  0  0  0  0  0  0  0  0  2 V2000
  152.4683  140.7317  157.8278 O   0  0  0  0  0  0  0  0  0  0  0  0
  151.5719  141.4849  157.4485 C   0  0  0  0  0  0  0  0  0  0  0  0
  150.4671  140.9319  156.5315 C   0  0  0  0  0  0  0  0  0  0  0  0
  150.6391  139.5213  156.1379 N   0  0  0  0  0  0  0  0  0  0  0  0
  149.6028  138.6270  156.4593 C   0  0  0  0  0  0  0  0  0  0  0  0
  149.6619  137.3225  156.1303 C   0  0  0  0  0  0  0  0  0  0  0  0
  150.8421  136.8423  155.4223 C   0  0  0  0  0  0  0  0  0  0  0  0
  150.9146  135.6540  155.1160 O   0  0  0  0  0  0  0  0  0  0  0  0
  151.8193  137.7496  155.1298 N   0  5  0  0  0  0  0  0  0  0  0  0
  151.7439  139.0743  155.4675 C   0  0  0  0  0  0  0  0  0  0  0  0
  152.6317  139.8781  155.1829 O   0  0  0  0  0  0  0  0  0  0  0  0
  151.5068  142.7770  157.8108 N   0  0  0  0  0  0  0  0  0  0  0  0
  152.4559  143.4638  158.6801 C   0  0  0  0  0  0  0  0  0  0  0  0
  152.2841  143.0413  160.1544 C   0  0  0  0  0  0  0  0  0  0  0  0
  152.1585  144.3374  160.9578 C   0  0  0  0  0  0  0  0  0  0  0  0
  151.5579  145.3369  159.9742 C   0  0  0  0  0  0  0  0  0  0  0  0
  152.2140  144.9832  158.6399 C   0  0  0  0  0  0  0  0  0  0  0  0
  149.5039  141.0757  157.0236 H   0  0  0  0  0  0  0  0  0  0  0  0
  150.4234  141.5606  155.6411 H   0  0  0  0  0  0  0  0  0  0  0  0
  148.7623  139.0652  156.9773 H   0  0  0  0  0  0  0  0  0  0  0  0
  148.8554  136.6493  156.3811 H   0  0  0  0  0  0  0  0  0  0  0  0
  150.7401  143.3259  157.4484 H   0  0  0  0  0  0  0  0  0  0  0  0
  153.4727  143.2584  158.3403 H   0  0  0  0  0  0  0  0  0  0  0  0
  151.3736  142.4537  160.2840 H   0  0  0  0  0  0  0  0  0  0  0  0
  153.1140  142.4261  160.5034 H   0  0  0  0  0  0  0  0  0  0  0  0
  151.5536  144.2169  161.8570 H   0  0  0  0  0  0  0  0  0  0  0  0
  153.1485  144.6764  161.2652 H   0  0  0  0  0  0  0  0  0  0  0  0
  150.4799  145.1845  159.9059 H   0  0  0  0  0  0  0  0  0  0  0  0
  151.7321  146.3726  160.2666 H   0  0  0  0  0  0  0  0  0  0  0  0
  153.1735  145.4969  158.5668 H   0  0  0  0  0  0  0  0  0  0  0  0
  151.6139  145.3051  157.7874 H   0  0  0  0  0  0  0  0  0  0  0  0
  1  2  2  0  0  0  0
  2  3  1  0  0  0  0
  2 12  1  0  0  0  0
  3  4  1  0  0  0  0
  3 18  1  0  0  0  0
  3 19  1  0  0  0  0
  4 10  1  0  0  0  0
  4  5  1  0  0  0  0
  5  6  2  0  0  0  0
  5 20  1  0  0  0  0
  6  7  1  0  0  0  0
  6 21  1  0  0  0  0
  7  8  2  0  0  0  0
  7  9  1  0  0  0  0
  9 10  1  0  0  0  0
 10 11  2  0  0  0  0
 12 13  1  0  0  0  0
 12 22  1  0  0  0  0
 13 17  1  0  0  0  0
 13 14  1  0  0  0  0
 13 23  1  0  0  0  0
 14 15  1  0  0  0  0
 14 24  1  0  0  0  0
 14 25  1  0  0  0  0
 15 16  1  0  0  0  0
 15 26  1  0  0  0  0
 15 27  1  0  0  0  0
 16 17  1  0  0  0  0
 16 28  1  0  0  0  0
 16 29  1  0  0  0  0
 17 30  1  0  0  0  0
 17 31  1  0  0  0  0
M  CHG  1   9  -1
M  END
> <s_m_source_file>
AV-unprocessed.smi

> <i_m_source_file_index>
1455

> <i_lp_mmshare_version>
43012

> <i_f3d_flags>
0

> <s_epik_input>
W0NIMl0xW0NIMl1bQ0gyXVtDSDJdW0NIXTFbTkhdQyg9TylbQ0gyXW4yW2NIXVtjSF1jKD1PKVtuSF1jMj1P

> <s_epik_cmdline>
J2VwaWtfcHl0aG9uJywgJy1waCcsICc3LjAnLCAnLXRuJywgJzgnLCAnLW1hJywgJzIwMCcsICctbWV0YWxfYmluZGluZycsICctaW1hZScsICc8aW5maWxlLm1hZT4nLCAnLW9tYWUnLCAnPG91dGZpbGUubWFlPic=

> <r_lp_tautomer_probability>
0.999537

> <r_epik_Ionization_Penalty>
3.09122

> <r_epik_Ionization_Penalty_Charging>
2.83991e-08

> <r_epik_Ionization_Penalty_Neutral>
3.09122

> <r_epik_State_Penalty>
3.09028

> <r_epik_Charging_Adjusted_Penalty>
3.09028

> <i_epik_Tot_Q>
-1

> <i_epik_Tot_abs_Q>
1

> <r_epik_Metal_State_Penalty>
0.460928

> <b_epik_Metal_Only>
1

> <s_lp_Force_Field>
OPLS_2005

> <r_lp_Energy>
25.8803

> <b_lp_Chiralities_Consistent>
1

> <s_lp_Variant>
AV-unprocessed.smi:1455-2

> <Gold.Version>
5.8.1

> <Gold.Id.Protein>
6NUR|6NUR_protein|mol2

> <Gold.PLP.Fitness>
42.0435

> <Gold.PLP.PLP>
-34.8293

> <Gold.PLP.part.hbond>
-3.8821

> <Gold.PLP.part.metal>
0.0000

> <Gold.PLP.part.buried>
-2.5996

> <Gold.PLP.part.nonpolar>
-27.6755

> <Gold.PLP.part.repulsive>
0.2806

> <Gold.PLP.ligand.clash>
0.0000

> <Gold.PLP.ligand.torsion>
0.1476

> <Gold.PLP.Chemscore.Hbond>
2.5016

> <Gold.PLP.Chemscore.CHOScore>
0.0000

> <Gold.PLP.Chemscore.Metal>
0.0000

> <Gold.Chemscore.Hbonds>
donor molecule, donor type, donor heavy atom, donor atom, acceptor molecule, acceptor atom, score
      P1  H  7989  7998       L1    11  0.37
      P1  H  7997  8009       L1    11  1.00
      P1  H 10752 10764       L1     8  0.85

> <Gold.PLP.Chemscore.Internal.Correction>
0.0045

> <Gold.Rescore>
     Score         DG    S(hbond)    S(metal)    S(lipo)     H(rot)  DE(clash)    DE(int)     intcor
     11.15     -14.68       1.57        0.00      70.57       1.69       0.39       3.14       ----

> <Gold.Chemscore.Fitness>
11.1477

> <Gold.Chemscore.DG>
-14.6768

> <Gold.Chemscore.ZeroCoef>
-5.4800

> <Gold.Chemscore.Hbond>
1.5747

> <Gold.Chemscore.Metal>
0.0000

> <Gold.Chemscore.Lipo>
70.5749

> <Gold.Chemscore.Internal_Hbond>
0.0000

> <Gold.Chemscore.DEClash>
0.3869

> <Gold.Chemscore.DEInternal>
3.1422

> <Gold.Chemscore.Rot>
1.6875

> <Gold.Chemscore.Internal.Correction>
   9.000000E+99

> <Gold.Chemscore.Hbonds>
donor molecule, donor type, donor heavy atom, donor atom, acceptor molecule, acceptor atom, score
      P1  H  7989  7998       L1    11  0.10
      P1  H  7997  8009       L1    11  0.98
      P1  H 10752 10764       L1     8  0.18

> <Gold.Chemscore.Hbond.Weighted>
-5.2595

> <Gold.Chemscore.Metal.Weighted>
-0.0000

> <Gold.Chemscore.Lipo.Weighted>
-8.2573

> <Gold.Chemscore.Internal_Hbond.Weighted>
0.0000

> <Gold.Chemscore.DEClash.Weighted>
0.3869

> <Gold.Chemscore.DEInternal.Weighted>
3.1422

> <Gold.Chemscore.Rot.Weighted>
4.3200

> <Gold.Chemscore.Internal.Correction.Weighted>
   9.000000E+99

> <Gold.Protein.RotatedTorsions>
[ 6907 6896 6895 6894 ] final  167.18 input  -60.11 | X-H torsion
[ 7974 7965 7964 7962 ] final  129.20 input  175.53 | X-H torsion
[ 8008 7997 7996 7995 ] final -146.66 input   59.86 | X-H torsion
[ 10167 10162 10161 10158 ] final    0.30 input  -65.29 | X-H torsion
[ 10718 10713 10712 10709 ] final  139.50 input   66.30 | X-H torsion
[ 10763 10752 10751 10750 ] final  -57.00 input  -60.55 | X-H torsion
[ 11005 11000 10999 10996 ] final  157.39 input  -57.11 | X-H torsion

> <Gold.Protein.ActiveResidues>
 VAL166  LYS551  ARG553  GLY616  TRP617  ASP618  TYR619  PRO620  LYS621  CYS622 
 ASP623  PHE694  ASN695  SER759  ASP760  ASP761  ALA762  ILE779  LEU786  VAL792 
 PHE793  MET794  SER795  GLU796  ALA797  LYS798  CYS799  TRP800  GLU811  SER814 

> <Gold.Protein.RotatedAtoms>
  151.8674  133.3469  159.3723 H   0  0  0  0  0  0  0  0  0  0  0  0  # atno 6907 bound_to 6896
  150.7162  134.5147  159.5633 H   0  0  0  0  0  0  0  0  0  0  0  0  # atno 6908 bound_to 6896
  152.2672  134.7972  160.0471 H   0  0  0  0  0  0  0  0  0  0  0  0  # atno 6909 bound_to 6896
  145.0313  139.4044  143.5148 H   0  0  0  0  0  0  0  0  0  0  0  0  # atno 7974 bound_to 7965
  155.5630  140.0627  157.2824 H   0  0  0  0  0  0  0  0  0  0  0  0  # atno 8008 bound_to 7997
  154.4384  140.1882  156.0847 H   0  0  0  0  0  0  0  0  0  0  0  0  # atno 8009 bound_to 7997
  156.0433  140.3293  155.7271 H   0  0  0  0  0  0  0  0  0  0  0  0  # atno 8010 bound_to 7997
  140.6734  143.6983  150.7972 H   0  0  0  0  0  0  0  0  0  0  0  0  # atno 10167 bound_to 10162
  157.4137  131.1031  151.0427 H   0  0  0  0  0  0  0  0  0  0  0  0  # atno 10718 bound_to 10713
  154.2155  135.6387  153.5128 H   0  0  0  0  0  0  0  0  0  0  0  0  # atno 10763 bound_to 10752
  152.9980  135.5484  154.6169 H   0  0  0  0  0  0  0  0  0  0  0  0  # atno 10764 bound_to 10752
  154.5617  135.2909  155.0887 H   0  0  0  0  0  0  0  0  0  0  0  0  # atno 10765 bound_to 10752
  140.1765  134.8506  157.2752 H   0  0  0  0  0  0  0  0  0  0  0  0  # atno 11005 bound_to 11000
  146.3499  139.9864  142.8690 LP  0  0  0  0  0  0  0  0  0  0  0  0  # atno 17320 bound_to 7965
  145.1767  140.9747  143.4290 LP  0  0  0  0  0  0  0  0  0  0  0  0  # atno 17321 bound_to 7965
  140.0673  143.5096  152.2598 LP  0  0  0  0  0  0  0  0  0  0  0  0  # atno 17342 bound_to 10162
  139.6014  144.7583  151.3162 LP  0  0  0  0  0  0  0  0  0  0  0  0  # atno 17343 bound_to 10162
  157.1383  130.6132  149.5548 LP  0  0  0  0  0  0  0  0  0  0  0  0  # atno 17370 bound_to 10713
  155.9858  130.4890  150.7050 LP  0  0  0  0  0  0  0  0  0  0  0  0  # atno 17371 bound_to 10713
  140.2316  134.3902  155.7519 LP  0  0  0  0  0  0  0  0  0  0  0  0  # atno 17394 bound_to 11000
  141.2220  133.7218  156.8650 LP  0  0  0  0  0  0  0  0  0  0  0  0  # atno 17395 bound_to 11000

$$$$
