#       Name:                AV-unprocessed.smi:2032
#       Creating user name   scv26
#       Creation time:       Fri Mar 27 10:53:04 2020


#       File generated by GOLD software.
#

@<TRIPOS>MOLECULE
AV-unprocessed.smi:2032
    48    49     1
SMALL
NO_CHARGES


@<TRIPOS>ATOM
      1 ****        -3.9294   0.7986  -1.0630 C.3            1 S1                 0.0000
      2 ****        -3.3935  -0.5137  -0.4633 C.3            1 S1                 0.0000
      3 ****        -1.8564  -0.5992  -0.4423 C.3            1 S1                 0.0000
      4 ****        -1.2712   0.2991   0.5888 N.4            1 S1                 1.0000
      5 ****         0.2257   0.3309   0.5311 C.3            1 S1                 0.0000
      6 ****         0.8943   0.7750   1.8547 C.3            1 S1                 0.0000
      7 ****         0.6861   1.2434  -0.6359 C.3            1 S1                 0.0000
      8 ****         2.1350   1.2578  -0.8096 N.am           1 S1                 0.0000
      9 ****         2.8652   0.2730  -1.3511 C.2            1 S1                 0.0000
     10 ****         2.3085  -0.7438  -1.7722 O.2            1 S1                 0.0000
     11 ****         4.1930   0.5253  -1.3625 N.pl3          1 S1                -1.0000
     12 ****         5.0464  -0.3873  -1.8548 C.2            1 S1                 0.0000
     13 ****         5.5756  -0.3052  -3.0809 N.2            1 S1                 0.0000
     14 ****         6.4435  -1.3565  -3.3825 C.2            1 S1                 0.0000
     15 ****         6.5840  -2.2562  -2.3595 C.2            1 S1                 0.0000
     16 ****         5.6257  -1.8065  -0.9779 S.3            1 S1                 0.0000
     17 ****        -1.8702  -0.0173   1.9130 C.3            1 S1                 0.0000
     18 ****        -3.4064   0.0814   1.8591 C.3            1 S1                 0.0000
     19 ****        -4.0543  -0.3353   3.1844 C.3            1 S1                 0.0000
     20 ****        -3.9132  -0.7726   0.8391 O.3            1 S1                 0.0000
     21 ****        -3.6192   0.9011  -2.1034 H              1 S1                 0.0000
     22 ****        -3.5667   1.6777  -0.5310 H              1 S1                 0.0000
     23 ****        -5.0191   0.8194  -1.0417 H              1 S1                 0.0000
     24 ****        -3.7605  -1.3207  -1.0981 H              1 S1                 0.0000
     25 ****        -1.5552  -1.6260  -0.2273 H              1 S1                 0.0000
     26 ****        -1.4734  -0.3706  -1.4355 H              1 S1                 0.0000
     27 ****         0.5661  -0.6882   0.3406 H              1 S1                 0.0000
     28 ****         1.9804   0.8011   1.7667 H              1 S1                 0.0000
     29 ****         0.6826   0.0848   2.6714 H              1 S1                 0.0000
     30 ****         0.5681   1.7719   2.1528 H              1 S1                 0.0000
     31 ****         0.2328   0.9567  -1.5841 H              1 S1                 0.0000
     32 ****         0.3645   2.2686  -0.4495 H              1 S1                 0.0000
     33 ****         2.6292   2.0753  -0.4823 H              1 S1                 0.0000
     34 ****         6.9193  -1.3846  -4.3514 H              1 S1                 0.0000
     35 ****         7.1895  -3.1494  -2.3328 H              1 S1                 0.0000
     36 ****        -1.5601  -1.0161   2.2250 H              1 S1                 0.0000
     37 ****        -1.5275   0.6850   2.6723 H              1 S1                 0.0000
     38 ****        -3.6982   1.1114   1.6532 H              1 S1                 0.0000
     39 ****        -3.7130   0.2959   4.0054 H              1 S1                 0.0000
     40 ****        -3.8134  -1.3688   3.4345 H              1 S1                 0.0000
     41 ****        -5.1400  -0.2504   3.1305 H              1 S1                 0.0000
     42 ****        -1.5750   1.2368   0.3689 H              1 S1                 0.0000
     43 ****         1.3144  -0.8321  -1.7092 LP             1 S1                 0.0000
     44 ****         2.8512  -1.4800  -2.1766 LP             1 S1                 0.0000
     45 ****         4.5401   1.3919  -1.0041 LP             1 S1                 0.0000
     46 ****         5.3696   0.4367  -3.7190 LP             1 S1                 0.0000
     47 ****        -3.6893  -1.7164   1.0825 LP             1 S1                 0.0000
     48 ****        -4.9067  -0.6637   0.8060 LP             1 S1                 0.0000
@<TRIPOS>BOND
    1    1    2 1     
    2    1   21 1     
    3    1   22 1     
    4    1   23 1     
    5    2   20 1     
    6    2    3 1     
    7    2   24 1     
    8    3    4 1     
    9    3   25 1     
   10    3   26 1     
   11    4    5 1     
   12    4   17 1     
   13    4   42 1     
   14    5    6 1     
   15    5    7 1     
   16    5   27 1     
   17    6   28 1     
   18    6   29 1     
   19    6   30 1     
   20    7    8 1     
   21    7   31 1     
   22    7   32 1     
   23    8    9 am    
   24    8   33 1     
   25    9   10 2     
   26    9   11 1     
   27   11   12 1     
   28   12   16 1     
   29   12   13 2     
   30   13   14 1     
   31   14   15 2     
   32   14   34 1     
   33   15   16 1     
   34   15   35 1     
   35   17   18 1     
   36   17   36 1     
   37   17   37 1     
   38   18   19 1     
   39   18   20 1     
   40   18   38 1     
   41   19   39 1     
   42   19   40 1     
   43   19   41 1     
   44   10   43 1     
   45   10   44 1     
   46   11   45 1     
   47   13   46 1     
   48   20   47 1     
   49   20   48 1     
@<TRIPOS>SUBSTRUCTURE
      1 S1             1
@<TRIPOS>SET
LONE_PAIRS      STATIC     ATOMS    <user>   **** ""
6 43 44 45 46 47 48
DONOR_HYDROGENS      STATIC     ATOMS    <user>   **** ""
2 42 33
ATOM$BLUE        STATIC     ATOMS    COLORGROUP SYSTEM
6 43 44 45 46 47 48
ATOM$RED        STATIC     ATOMS    COLORGROUP SYSTEM
2 42 33
