AV-unprocessed.smi:3335|AV-procd|sdf|12847|dock9
  -GOLD-   2272019233D 1   1.00000     0.00000
 Structure written by MMmdl.
 46 47  0  0  0  0  0  0  0  0  1 V2000
  147.0426  133.9829  162.5290 C   0  0  0  0  0  0  0  0  0  0  0  0
  147.4682  135.1171  161.6419 C   0  0  0  0  0  0  0  0  0  0  0  0
  147.3441  136.5130  161.8888 C   0  0  0  0  0  0  0  0  0  0  0  0
  147.8144  137.2531  160.8990 N   0  0  0  0  0  0  0  0  0  0  0  0
  148.2629  136.3618  159.9859 N   0  0  0  0  0  0  0  0  0  0  0  0
  148.8331  136.8124  158.7178 C   0  0  2  0  0  0  0  0  0  0  0  0
  149.2461  135.6363  157.8101 C   0  0  0  0  0  0  0  0  0  0  0  0
  149.9537  137.8740  158.8916 C   0  0  1  0  0  0  0  0  0  0  0  0
  151.1302  137.3410  159.7348 C   0  0  0  0  0  0  0  0  0  0  0  0
  150.3962  138.3432  157.5753 N   0  0  0  0  0  0  0  0  0  0  0  0
  150.9008  139.7281  157.5306 C   0  0  2  0  0  0  0  0  0  0  0  0
  150.8862  140.2250  156.0769 C   0  0  0  0  0  0  0  0  0  0  0  0
  152.3316  139.8487  158.0987 C   0  0  0  0  0  0  0  0  0  0  0  0
  153.1808  139.0259  157.7509 O   0  0  0  0  0  0  0  0  0  0  0  0
  152.6208  140.8432  158.9661 N   0  0  0  0  0  0  0  0  0  0  0  0
  151.6468  141.8537  159.3763 C   0  0  0  0  0  0  0  0  0  0  0  0
  152.4388  142.9067  160.1513 C   0  0  0  0  0  0  0  0  0  0  0  0
  153.6416  142.1441  160.6865 C   0  0  0  0  0  0  0  0  0  0  0  0
  153.9047  141.0731  159.6280 C   0  0  0  0  0  0  0  0  0  0  0  0
  148.0589  135.0648  160.4114 C   0  0  0  0  0  0  0  0  0  0  0  0
  146.2007  134.2607  163.1635 H   0  0  0  0  0  0  0  0  0  0  0  0
  147.8504  133.6638  163.1876 H   0  0  0  0  0  0  0  0  0  0  0  0
  146.7337  133.1116  161.9510 H   0  0  0  0  0  0  0  0  0  0  0  0
  146.9252  137.0078  162.7527 H   0  0  0  0  0  0  0  0  0  0  0  0
  148.0185  137.3112  158.1903 H   0  0  0  0  0  0  0  0  0  0  0  0
  149.5762  135.9942  156.8346 H   0  0  0  0  0  0  0  0  0  0  0  0
  148.4072  134.9598  157.6439 H   0  0  0  0  0  0  0  0  0  0  0  0
  150.0609  135.0520  158.2386 H   0  0  0  0  0  0  0  0  0  0  0  0
  149.5089  138.7168  159.4228 H   0  0  0  0  0  0  0  0  0  0  0  0
  150.7706  136.8624  160.6458 H   0  0  0  0  0  0  0  0  0  0  0  0
  151.7977  138.1433  160.0476 H   0  0  0  0  0  0  0  0  0  0  0  0
  151.7212  136.6068  159.1861 H   0  0  0  0  0  0  0  0  0  0  0  0
  149.6424  138.2102  156.9166 H   0  0  0  0  0  0  0  0  0  0  0  0
  150.2076  140.3579  158.0866 H   0  0  0  0  0  0  0  0  0  0  0  0
  151.2259  141.2592  156.0074 H   0  0  0  0  0  0  0  0  0  0  0  0
  149.8790  140.1857  155.6610 H   0  0  0  0  0  0  0  0  0  0  0  0
  151.5310  139.6195  155.4381 H   0  0  0  0  0  0  0  0  0  0  0  0
  151.1309  142.2966  158.5227 H   0  0  0  0  0  0  0  0  0  0  0  0
  150.8995  141.3860  160.0191 H   0  0  0  0  0  0  0  0  0  0  0  0
  152.7768  143.6867  159.4677 H   0  0  0  0  0  0  0  0  0  0  0  0
  151.8537  143.3828  160.9385 H   0  0  0  0  0  0  0  0  0  0  0  0
  154.5053  142.7855  160.8640 H   0  0  0  0  0  0  0  0  0  0  0  0
  153.3795  141.6671  161.6320 H   0  0  0  0  0  0  0  0  0  0  0  0
  154.3048  140.1657  160.0824 H   0  0  0  0  0  0  0  0  0  0  0  0
  154.6241  141.4360  158.8924 H   0  0  0  0  0  0  0  0  0  0  0  0
  148.3453  134.2179  159.8052 H   0  0  0  0  0  0  0  0  0  0  0  0
  1  2  1  0  0  0  0
  1 21  1  0  0  0  0
  1 22  1  0  0  0  0
  1 23  1  0  0  0  0
  2 20  2  0  0  0  0
  2  3  1  0  0  0  0
  3  4  2  0  0  0  0
  3 24  1  0  0  0  0
  4  5  1  0  0  0  0
  5  6  1  0  0  0  0
  5 20  1  0  0  0  0
  6  7  1  0  0  0  0
  6  8  1  0  0  0  0
  6 25  1  0  0  0  0
  7 26  1  0  0  0  0
  7 27  1  0  0  0  0
  7 28  1  0  0  0  0
  8  9  1  0  0  0  0
  8 10  1  0  0  0  0
  8 29  1  0  0  0  0
  9 30  1  0  0  0  0
  9 31  1  0  0  0  0
  9 32  1  0  0  0  0
 10 11  1  0  0  0  0
 10 33  1  0  0  0  0
 11 12  1  0  0  0  0
 11 13  1  0  0  0  0
 11 34  1  0  0  0  0
 12 35  1  0  0  0  0
 12 36  1  0  0  0  0
 12 37  1  0  0  0  0
 13 14  2  0  0  0  0
 13 15  1  0  0  0  0
 15 19  1  0  0  0  0
 15 16  1  0  0  0  0
 16 17  1  0  0  0  0
 16 38  1  0  0  0  0
 16 39  1  0  0  0  0
 17 18  1  0  0  0  0
 17 40  1  0  0  0  0
 17 41  1  0  0  0  0
 18 19  1  0  0  0  0
 18 42  1  0  0  0  0
 18 43  1  0  0  0  0
 19 44  1  0  0  0  0
 19 45  1  0  0  0  0
 20 46  1  0  0  0  0
M  END
> <s_m_source_file>
AV-unprocessed.smi

> <i_m_source_file_index>
3335

> <i_lp_mmshare_version>
43012

> <i_f3d_flags>
0

> <s_epik_input>
W0NIM11jMVtjSF1ubihbY0hdMSlbQ0BIXShbQ0gzXSlbQ0BIXShbQ0gzXSlbTkhdW0NASF0oW0NIM10pQyg9TylOMltDSDJdW0NIMl1bQ0gyXVtDSDJdMg==

> <s_epik_cmdline>
J2VwaWtfcHl0aG9uJywgJy1waCcsICc3LjAnLCAnLXRuJywgJzgnLCAnLW1hJywgJzIwMCcsICctbWV0YWxfYmluZGluZycsICctaW1hZScsICc8aW5maWxlLm1hZT4nLCAnLW9tYWUnLCAnPG91dGZpbGUubWFlPic=

> <r_lp_tautomer_probability>
1

> <r_epik_Ionization_Penalty>
0.918803

> <r_epik_Ionization_Penalty_Charging>
0

> <r_epik_Ionization_Penalty_Neutral>
0.918803

> <r_epik_State_Penalty>
0.958258

> <r_epik_Charging_Adjusted_Penalty>
0.958258

> <i_epik_Tot_Q>
0

> <i_epik_Tot_abs_Q>
0

> <r_epik_Metal_State_Penalty>
0.956786

> <b_epik_Metal_Only>
0

> <s_lp_Force_Field>
OPLS_2005

> <r_lp_Energy>
40.8069

> <b_lp_Chiralities_Consistent>
1

> <s_lp_Variant>
AV-unprocessed.smi:3335-11

> <Gold.Version>
5.8.1

> <Gold.Id.Protein>
6NUR|6NUR_protein|mol2

> <Gold.PLP.Fitness>
45.8759

> <Gold.PLP.PLP>
-39.4450

> <Gold.PLP.part.hbond>
-3.0000

> <Gold.PLP.part.metal>
0.0000

> <Gold.PLP.part.buried>
-3.3918

> <Gold.PLP.part.nonpolar>
-34.3907

> <Gold.PLP.part.repulsive>
0.0000

> <Gold.PLP.ligand.clash>
0.0000

> <Gold.PLP.ligand.torsion>
0.9529

> <Gold.PLP.Chemscore.Hbond>
2.7120

> <Gold.PLP.Chemscore.CHOScore>
0.0000

> <Gold.PLP.Chemscore.Metal>
0.0000

> <Gold.Chemscore.Hbonds>
donor molecule, donor type, donor heavy atom, donor atom, acceptor molecule, acceptor atom, score
      P1  H  6931  6943       L1     4  0.76
      P1  H  6934  6947       L1     4  0.83
      P1  H  7997  8010       L1    14  1.00

> <Gold.PLP.Chemscore.Internal.Correction>
0.2008

> <Gold.Rescore>
     Score         DG    S(hbond)    S(metal)    S(lipo)     H(rot)  DE(clash)    DE(int)     intcor
     19.27     -20.40       2.27        0.00      98.03       1.62       0.16       0.97       ----

> <Gold.Chemscore.Fitness>
19.2710

> <Gold.Chemscore.DG>
-20.3995

> <Gold.Chemscore.ZeroCoef>
-5.4800

> <Gold.Chemscore.Hbond>
2.2748

> <Gold.Chemscore.Metal>
0.0000

> <Gold.Chemscore.Lipo>
98.0338

> <Gold.Chemscore.Internal_Hbond>
0.0000

> <Gold.Chemscore.DEClash>
0.1590

> <Gold.Chemscore.DEInternal>
0.9696

> <Gold.Chemscore.Rot>
1.6204

> <Gold.Chemscore.Internal.Correction>
   9.000000E+99

> <Gold.Chemscore.Hbonds>
donor molecule, donor type, donor heavy atom, donor atom, acceptor molecule, acceptor atom, score
      P1  H  6931  6943       L1     4  0.15
      P1  H  6934  6947       L1     4  0.73
      P1  H  7997  8010       L1    14  0.59

> <Gold.Chemscore.Hbond.Weighted>
-7.5978

> <Gold.Chemscore.Metal.Weighted>
-0.0000

> <Gold.Chemscore.Lipo.Weighted>
-11.4700

> <Gold.Chemscore.Internal_Hbond.Weighted>
0.0000

> <Gold.Chemscore.DEClash.Weighted>
0.1590

> <Gold.Chemscore.DEInternal.Weighted>
0.9696

> <Gold.Chemscore.Rot.Weighted>
4.1482

> <Gold.Chemscore.Internal.Correction.Weighted>
   9.000000E+99

> <Gold.Protein.RotatedTorsions>
[ 6907 6896 6895 6894 ] final  126.04 input  -60.11 | X-H torsion
[ 7974 7965 7964 7962 ] final -103.27 input  175.53 | X-H torsion
[ 8008 7997 7996 7995 ] final   24.52 input   59.86 | X-H torsion
[ 10167 10162 10161 10158 ] final   69.76 input  -65.29 | X-H torsion
[ 10718 10713 10712 10709 ] final   41.84 input   66.30 | X-H torsion
[ 10763 10752 10751 10750 ] final  115.72 input  -60.55 | X-H torsion
[ 11005 11000 10999 10996 ] final  -92.39 input  -57.11 | X-H torsion

> <Gold.Protein.ActiveResidues>
 VAL166  LYS551  ARG553  GLY616  TRP617  ASP618  TYR619  PRO620  LYS621  CYS622 
 ASP623  PHE694  ASN695  SER759  ASP760  ASP761  ALA762  ILE779  LEU786  VAL792 
 PHE793  MET794  SER795  GLU796  ALA797  LYS798  CYS799  TRP800  GLU811  SER814 

> <Gold.Protein.RotatedAtoms>
  152.3939  133.6718  159.6259 H   0  0  0  0  0  0  0  0  0  0  0  0  # atno 6907 bound_to 6896
  150.7842  133.8907  159.3321 H   0  0  0  0  0  0  0  0  0  0  0  0  # atno 6908 bound_to 6896
  151.6688  135.0980  160.0245 H   0  0  0  0  0  0  0  0  0  0  0  0  # atno 6909 bound_to 6896
  145.2580  140.9260  143.3057 H   0  0  0  0  0  0  0  0  0  0  0  0  # atno 7974 bound_to 7965
  154.9976  140.3121  155.4880 H   0  0  0  0  0  0  0  0  0  0  0  0  # atno 8008 bound_to 7997
  156.2930  140.2238  156.5024 H   0  0  0  0  0  0  0  0  0  0  0  0  # atno 8009 bound_to 7997
  154.7647  140.0456  157.0991 H   0  0  0  0  0  0  0  0  0  0  0  0  # atno 8010 bound_to 7997
  140.0643  144.5206  150.7272 H   0  0  0  0  0  0  0  0  0  0  0  0  # atno 10167 bound_to 10162
  157.3981  130.7844  149.7325 H   0  0  0  0  0  0  0  0  0  0  0  0  # atno 10718 bound_to 10713
  153.5264  135.3587  155.2656 H   0  0  0  0  0  0  0  0  0  0  0  0  # atno 10763 bound_to 10752
  154.8730  135.4058  154.3201 H   0  0  0  0  0  0  0  0  0  0  0  0  # atno 10764 bound_to 10752
  153.3881  135.7071  153.6582 H   0  0  0  0  0  0  0  0  0  0  0  0  # atno 10765 bound_to 10752
  141.1523  133.7817  157.0013 H   0  0  0  0  0  0  0  0  0  0  0  0  # atno 11005 bound_to 11000
  144.9443  139.4153  143.6433 LP  0  0  0  0  0  0  0  0  0  0  0  0  # atno 17320 bound_to 7965
  146.3283  139.8419  142.8889 LP  0  0  0  0  0  0  0  0  0  0  0  0  # atno 17321 bound_to 7965
  140.7157  143.2542  151.4442 LP  0  0  0  0  0  0  0  0  0  0  0  0  # atno 17342 bound_to 10162
  139.5875  144.1573  152.2047 LP  0  0  0  0  0  0  0  0  0  0  0  0  # atno 17343 bound_to 10162
  155.9816  130.4018  150.3464 LP  0  0  0  0  0  0  0  0  0  0  0  0  # atno 17370 bound_to 10713
  157.1588  131.0340  151.2850 LP  0  0  0  0  0  0  0  0  0  0  0  0  # atno 17371 bound_to 10713
  140.0938  134.9576  157.1818 LP  0  0  0  0  0  0  0  0  0  0  0  0  # atno 17394 bound_to 11000
  140.3410  134.2704  155.7212 LP  0  0  0  0  0  0  0  0  0  0  0  0  # atno 17395 bound_to 11000

$$$$
