AV-unprocessed.smi:1535|AV-procd|sdf|6178|dock5
  -GOLD-   22720 6333D 1   1.00000     0.00000
 Structure written by MMmdl.
 47 48  0  0  0  0  0  0  0  0  2 V2000
  152.8081  143.0001  161.8906 C   0  0  0  0  0  0  0  0  0  0  0  0
  152.3074  142.6702  160.4953 C   0  0  0  0  0  0  0  0  0  0  0  0
  152.4528  141.3523  160.0076 C   0  0  0  0  0  0  0  0  0  0  0  0
  151.9995  141.0037  158.7167 C   0  0  0  0  0  0  0  0  0  0  0  0
  152.0414  139.7932  158.0471 N   0  0  0  0  0  0  0  0  0  0  0  0
  151.4662  140.1063  156.8904 C   0  0  0  0  0  0  0  0  0  0  0  0
  151.0677  141.3825  156.7246 N   0  0  0  0  0  0  0  0  0  0  0  0
  150.4285  141.9517  155.5510 C   0  0  0  0  0  0  0  0  0  0  0  0
  149.4433  140.9770  154.8753 C   0  0  2  0  0  0  0  0  0  0  0  0
  149.1881  141.4483  153.5683 O   0  0  0  0  0  0  0  0  0  0  0  0
  148.0963  140.8331  155.6195 C   0  0  0  0  0  0  0  0  0  0  0  0
  147.7770  142.0447  156.4143 N   0  3  2  0  0  0  0  0  0  0  0  0
  148.3741  142.0004  157.7681 C   0  0  0  0  0  0  0  0  0  0  0  0
  146.3244  142.3596  156.4453 C   0  0  0  0  0  0  0  0  0  0  0  0
  145.5025  141.2092  157.0520 C   0  0  2  0  0  0  0  0  0  0  0  0
  144.0480  141.2396  156.5664 C   0  0  0  0  0  0  0  0  0  0  0  0
  145.5609  141.2358  158.5228 C   0  0  0  0  0  0  0  0  0  0  0  0
  145.6107  141.2542  159.6780 N   0  0  0  0  0  0  0  0  0  0  0  0
  151.3906  142.0174  157.9201 C   0  0  0  0  0  0  0  0  0  0  0  0
  151.2355  143.3312  158.3971 C   0  0  0  0  0  0  0  0  0  0  0  0
  151.6980  143.6635  159.6875 C   0  0  0  0  0  0  0  0  0  0  0  0
  151.5291  145.0860  160.1913 C   0  0  0  0  0  0  0  0  0  0  0  0
  153.2191  142.1194  162.3853 H   0  0  0  0  0  0  0  0  0  0  0  0
  151.9944  143.3806  162.5082 H   0  0  0  0  0  0  0  0  0  0  0  0
  153.5929  143.7557  161.8470 H   0  0  0  0  0  0  0  0  0  0  0  0
  152.9148  140.5946  160.6237 H   0  0  0  0  0  0  0  0  0  0  0  0
  151.3354  139.3660  156.1144 H   0  0  0  0  0  0  0  0  0  0  0  0
  149.9098  142.8640  155.8499 H   0  0  0  0  0  0  0  0  0  0  0  0
  151.2088  142.2509  154.8498 H   0  0  0  0  0  0  0  0  0  0  0  0
  149.9270  140.0059  154.7800 H   0  0  0  0  0  0  0  0  0  0  0  0
  149.0898  140.7051  152.9918 H   0  0  0  0  0  0  0  0  0  0  0  0
  147.2717  140.6479  154.9300 H   0  0  0  0  0  0  0  0  0  0  0  0
  148.1493  139.9566  156.2678 H   0  0  0  0  0  0  0  0  0  0  0  0
  147.9717  141.1670  158.3455 H   0  0  0  0  0  0  0  0  0  0  0  0
  148.1760  142.9222  158.3147 H   0  0  0  0  0  0  0  0  0  0  0  0
  149.4565  141.8828  157.7073 H   0  0  0  0  0  0  0  0  0  0  0  0
  146.1408  143.2578  157.0359 H   0  0  0  0  0  0  0  0  0  0  0  0
  145.9778  142.5945  155.4378 H   0  0  0  0  0  0  0  0  0  0  0  0
  145.9370  140.2569  156.7480 H   0  0  0  0  0  0  0  0  0  0  0  0
  143.4817  140.4042  156.9795 H   0  0  0  0  0  0  0  0  0  0  0  0
  143.9936  141.1701  155.4797 H   0  0  0  0  0  0  0  0  0  0  0  0
  143.5493  142.1610  156.8689 H   0  0  0  0  0  0  0  0  0  0  0  0
  150.7631  144.0787  157.7777 H   0  0  0  0  0  0  0  0  0  0  0  0
  151.0998  145.7317  159.4249 H   0  0  0  0  0  0  0  0  0  0  0  0
  152.4916  145.5078  160.4809 H   0  0  0  0  0  0  0  0  0  0  0  0
  150.8668  145.1069  161.0571 H   0  0  0  0  0  0  0  0  0  0  0  0
  148.2313  142.8059  155.9293 H   0  0  0  0  0  0  0  0  0  0  0  0
  1  2  1  0  0  0  0
  1 23  1  0  0  0  0
  1 24  1  0  0  0  0
  1 25  1  0  0  0  0
  2 21  1  0  0  0  0
  2  3  2  0  0  0  0
  3  4  1  0  0  0  0
  3 26  1  0  0  0  0
  4 19  2  0  0  0  0
  4  5  1  0  0  0  0
  5  6  2  0  0  0  0
  6  7  1  0  0  0  0
  6 27  1  0  0  0  0
  7  8  1  0  0  0  0
  7 19  1  0  0  0  0
  8  9  1  0  0  0  0
  8 28  1  0  0  0  0
  8 29  1  0  0  0  0
  9 10  1  0  0  0  0
  9 11  1  0  0  0  0
  9 30  1  0  0  0  0
 10 31  1  0  0  0  0
 11 12  1  0  0  0  0
 11 32  1  0  0  0  0
 11 33  1  0  0  0  0
 12 13  1  0  0  0  0
 12 14  1  0  0  0  0
 12 47  1  0  0  0  0
 13 34  1  0  0  0  0
 13 35  1  0  0  0  0
 13 36  1  0  0  0  0
 14 15  1  0  0  0  0
 14 37  1  0  0  0  0
 14 38  1  0  0  0  0
 15 16  1  0  0  0  0
 15 17  1  0  0  0  0
 15 39  1  0  0  0  0
 16 40  1  0  0  0  0
 16 41  1  0  0  0  0
 16 42  1  0  0  0  0
 17 18  3  0  0  0  0
 19 20  1  0  0  0  0
 20 21  2  0  0  0  0
 20 43  1  0  0  0  0
 21 22  1  0  0  0  0
 22 44  1  0  0  0  0
 22 45  1  0  0  0  0
 22 46  1  0  0  0  0
M  CHG  1  12   1
M  END
> <s_m_source_file>
AV-unprocessed.smi

> <i_m_source_file_index>
1535

> <i_lp_mmshare_version>
43012

> <i_f3d_flags>
0

> <s_epik_input>
W0NIM11jKFtjSF0xKWMoW0NIM10pW2NIXWMoYzEyKW4oW2NIXW4yKVtDSDJdW0NASF0oW09IXSlbQ0gyXU4oW0NIM10pW0NIMl1bQ0BIXShbQ0gzXSlDI04=

> <s_epik_cmdline>
J2VwaWtfcHl0aG9uJywgJy1waCcsICc3LjAnLCAnLXRuJywgJzgnLCAnLW1hJywgJzIwMCcsICctbWV0YWxfYmluZGluZycsICctaW1hZScsICc8aW5maWxlLm1hZT4nLCAnLW9tYWUnLCAnPG91dGZpbGUubWFlPic=

> <r_epik_Ionization_Penalty>
2.21058

> <r_epik_Ionization_Penalty_Charging>
2.12381

> <r_epik_Ionization_Penalty_Neutral>
0.0867699

> <r_epik_State_Penalty>
2.36208

> <r_epik_Charging_Adjusted_Penalty>
4.48589

> <i_epik_Tot_Q>
1

> <i_epik_Tot_abs_Q>
1

> <r_epik_Metal_State_Penalty>
2.2818

> <b_epik_Metal_Only>
0

> <s_lp_Force_Field>
OPLS_2005

> <r_lp_Energy>
15.029

> <b_lp_Chiralities_Consistent>
1

> <s_lp_Variant>
AV-unprocessed.smi:1535-9

> <Gold.Version>
5.8.1

> <Gold.Id.Protein>
6NUR|6NUR_protein|mol2

> <Gold.PLP.Fitness>
53.3123

> <Gold.PLP.PLP>
-42.7920

> <Gold.PLP.part.hbond>
-5.0000

> <Gold.PLP.part.metal>
0.0000

> <Gold.PLP.part.buried>
-4.8450

> <Gold.PLP.part.nonpolar>
-32.2120

> <Gold.PLP.part.repulsive>
0.0096

> <Gold.PLP.ligand.clash>
0.0000

> <Gold.PLP.ligand.torsion>
1.5549

> <Gold.PLP.Chemscore.Hbond>
4.4944

> <Gold.PLP.Chemscore.CHOScore>
0.0000

> <Gold.PLP.Chemscore.Metal>
0.0000

> <Gold.Chemscore.Hbonds>
donor molecule, donor type, donor heavy atom, donor atom, acceptor molecule, acceptor atom, score
      L1  H    10    31       P1  7957  0.83
      L1  H    12    47       P1  8028  2.00
      P1  H  6934  6946       L1    18  0.90
      P1  H  8011  8017       L1    10  0.55

> <Gold.PLP.Chemscore.Internal.Correction>
0.1468

> <Gold.Rescore>
     Score         DG    S(hbond)    S(metal)    S(lipo)     H(rot)  DE(clash)    DE(int)     intcor
     17.08     -20.05       2.60        0.00     107.42       2.60       0.37       2.61       ----

> <Gold.Chemscore.Fitness>
17.0799

> <Gold.Chemscore.DG>
-20.0544

> <Gold.Chemscore.ZeroCoef>
-5.4800

> <Gold.Chemscore.Hbond>
2.5960

> <Gold.Chemscore.Metal>
0.0000

> <Gold.Chemscore.Lipo>
107.4176

> <Gold.Chemscore.Internal_Hbond>
0.0000

> <Gold.Chemscore.DEClash>
0.3695

> <Gold.Chemscore.DEInternal>
2.6051

> <Gold.Chemscore.Rot>
2.6031

> <Gold.Chemscore.Internal.Correction>
   9.000000E+99

> <Gold.Chemscore.Hbonds>
donor molecule, donor type, donor heavy atom, donor atom, acceptor molecule, acceptor atom, score
      L1  H    10    31       P1  7957  0.78
      L1  H    12    47       P1  8028  0.83
      P1  H  6934  6946       L1    18  0.88
      P1  H  8011  8017       L1    10  0.05

> <Gold.Chemscore.Hbond.Weighted>
-8.6706

> <Gold.Chemscore.Metal.Weighted>
-0.0000

> <Gold.Chemscore.Lipo.Weighted>
-12.5679

> <Gold.Chemscore.Internal_Hbond.Weighted>
0.0000

> <Gold.Chemscore.DEClash.Weighted>
0.3695

> <Gold.Chemscore.DEInternal.Weighted>
2.6051

> <Gold.Chemscore.Rot.Weighted>
6.6640

> <Gold.Chemscore.Internal.Correction.Weighted>
   9.000000E+99

> <Gold.Protein.RotatedTorsions>
[ 6907 6896 6895 6894 ] final -154.59 input  -60.11 | X-H torsion
[ 7974 7965 7964 7962 ] final  -84.02 input  175.53 | X-H torsion
[ 8008 7997 7996 7995 ] final -151.03 input   59.86 | X-H torsion
[ 10167 10162 10161 10158 ] final  -33.49 input  -65.29 | X-H torsion
[ 10718 10713 10712 10709 ] final  130.28 input   66.30 | X-H torsion
[ 10763 10752 10751 10750 ] final -105.67 input  -60.55 | X-H torsion
[ 11005 11000 10999 10996 ] final   85.15 input  -57.11 | X-H torsion

> <Gold.Protein.ActiveResidues>
 VAL166  LYS551  ARG553  GLY616  TRP617  ASP618  TYR619  PRO620  LYS621  CYS622 
 ASP623  PHE694  ASN695  SER759  ASP760  ASP761  ALA762  ILE779  LEU786  VAL792 
 PHE793  MET794  SER795  GLU796  ALA797  LYS798  CYS799  TRP800  GLU811  SER814 

> <Gold.Protein.RotatedAtoms>
  151.2598  133.4307  159.2615 H   0  0  0  0  0  0  0  0  0  0  0  0  # atno 6907 bound_to 6896
  151.0541  134.9693  159.8237 H   0  0  0  0  0  0  0  0  0  0  0  0  # atno 6908 bound_to 6896
  152.5387  134.2551  159.8966 H   0  0  0  0  0  0  0  0  0  0  0  0  # atno 6909 bound_to 6896
  145.5122  140.9539  143.1701 H   0  0  0  0  0  0  0  0  0  0  0  0  # atno 7974 bound_to 7965
  155.6329  140.0693  157.2643 H   0  0  0  0  0  0  0  0  0  0  0  0  # atno 8008 bound_to 7997
  154.4202  140.1764  156.1540 H   0  0  0  0  0  0  0  0  0  0  0  0  # atno 8009 bound_to 7997
  155.9918  140.3344  155.6764 H   0  0  0  0  0  0  0  0  0  0  0  0  # atno 8010 bound_to 7997
  140.7203  143.3617  151.1951 H   0  0  0  0  0  0  0  0  0  0  0  0  # atno 10167 bound_to 10162
  157.5077  131.1096  150.9338 H   0  0  0  0  0  0  0  0  0  0  0  0  # atno 10718 bound_to 10713
  154.7962  135.4740  154.0167 H   0  0  0  0  0  0  0  0  0  0  0  0  # atno 10763 bound_to 10752
  153.1707  135.6824  153.8618 H   0  0  0  0  0  0  0  0  0  0  0  0  # atno 10764 bound_to 10752
  153.8201  135.3205  155.3387 H   0  0  0  0  0  0  0  0  0  0  0  0  # atno 10765 bound_to 10752
  139.8979  134.8267  156.2543 H   0  0  0  0  0  0  0  0  0  0  0  0  # atno 11005 bound_to 11000
  144.7721  139.6711  143.7190 LP  0  0  0  0  0  0  0  0  0  0  0  0  # atno 17320 bound_to 7965
  146.2159  139.5548  142.9650 LP  0  0  0  0  0  0  0  0  0  0  0  0  # atno 17321 bound_to 7965
  139.7170  143.9285  152.2970 LP  0  0  0  0  0  0  0  0  0  0  0  0  # atno 17342 bound_to 10162
  139.9029  144.6901  150.8646 LP  0  0  0  0  0  0  0  0  0  0  0  0  # atno 17343 bound_to 10162
  156.9988  130.5592  149.5309 LP  0  0  0  0  0  0  0  0  0  0  0  0  # atno 17370 bound_to 10713
  156.0269  130.5362  150.8429 LP  0  0  0  0  0  0  0  0  0  0  0  0  # atno 17371 bound_to 10713
  141.0203  133.7045  156.1258 LP  0  0  0  0  0  0  0  0  0  0  0  0  # atno 17394 bound_to 11000
  140.7242  134.4325  157.5572 LP  0  0  0  0  0  0  0  0  0  0  0  0  # atno 17395 bound_to 11000

$$$$
