AV-unprocessed.smi:2484|AV-procd|sdf|9787|dock9
  -GOLD-   2272013423D 1   1.00000     0.00000
 Structure written by MMmdl.
 45 46  0  0  0  0  0  0  0  0  1 V2000
  157.3375  138.9300  166.4142 C   0  0  0  0  0  0  0  0  0  0  0  0
  156.6606  140.2955  166.1511 C   0  0  0  0  0  0  0  0  0  0  0  0
  156.0853  140.3101  164.7990 N   0  0  0  0  0  0  0  0  0  0  0  0
  155.3776  141.2866  164.2049 C   0  0  0  0  0  0  0  0  0  0  0  0
  155.1118  142.3645  164.7364 O   0  0  0  0  0  0  0  0  0  0  0  0
  155.0100  140.9272  162.9627 N   0  0  0  0  0  0  0  0  0  0  0  0
  154.1889  141.6441  162.0527 C   0  0  0  0  0  0  0  0  0  0  0  0
  153.3551  142.6224  162.6307 C   0  0  0  0  0  0  0  0  0  0  0  0
  152.5269  143.3812  161.7866 C   0  0  0  0  0  0  0  0  0  0  0  0
  152.5823  143.1168  160.3994 C   0  0  0  0  0  0  0  0  0  0  0  0
  151.7429  143.8825  159.3609 C   0  0  0  0  0  0  0  0  0  0  0  0
  150.7492  142.9655  158.6125 C   0  0  0  0  0  0  0  0  0  0  0  0
  152.6708  144.5189  158.3050 C   0  0  0  0  0  0  0  0  0  0  0  0
  150.9204  144.9806  160.0668 C   0  0  0  0  0  0  0  0  0  0  0  0
  153.4038  142.1598  159.9029 N   0  0  0  0  0  0  0  0  0  0  0  0
  154.1872  141.4403  160.7114 N   0  0  0  0  0  0  0  0  0  0  0  0
  155.4814  140.5137  167.1275 C   0  0  0  0  0  0  0  0  0  0  0  0
  155.9386  140.8551  168.5567 C   0  0  0  0  0  0  0  0  0  0  0  0
  156.7915  141.9912  168.5360 O   0  0  0  0  0  0  0  0  0  0  0  0
  157.9851  141.7607  167.8003 C   0  0  0  0  0  0  0  0  0  0  0  0
  157.6527  141.4744  166.3256 C   0  0  0  0  0  0  0  0  0  0  0  0
  157.7018  138.8449  167.4374 H   0  0  0  0  0  0  0  0  0  0  0  0
  158.1950  138.7687  165.7609 H   0  0  0  0  0  0  0  0  0  0  0  0
  156.6410  138.1069  166.2498 H   0  0  0  0  0  0  0  0  0  0  0  0
  156.2387  139.4721  164.2575 H   0  0  0  0  0  0  0  0  0  0  0  0
  155.3292  140.0253  162.6417 H   0  0  0  0  0  0  0  0  0  0  0  0
  153.3499  142.7933  163.6973 H   0  0  0  0  0  0  0  0  0  0  0  0
  151.8847  144.1357  162.2134 H   0  0  0  0  0  0  0  0  0  0  0  0
  150.1666  143.5280  157.8819 H   0  0  0  0  0  0  0  0  0  0  0  0
  150.0376  142.4989  159.2947 H   0  0  0  0  0  0  0  0  0  0  0  0
  151.2640  142.1733  158.0674 H   0  0  0  0  0  0  0  0  0  0  0  0
  153.2690  143.7620  157.7966 H   0  0  0  0  0  0  0  0  0  0  0  0
  153.3596  145.2372  158.7505 H   0  0  0  0  0  0  0  0  0  0  0  0
  152.1004  145.0526  157.5440 H   0  0  0  0  0  0  0  0  0  0  0  0
  150.3015  145.5318  159.3580 H   0  0  0  0  0  0  0  0  0  0  0  0
  151.5604  145.7083  160.5670 H   0  0  0  0  0  0  0  0  0  0  0  0
  150.2572  144.5545  160.8206 H   0  0  0  0  0  0  0  0  0  0  0  0
  154.8637  141.3401  166.7711 H   0  0  0  0  0  0  0  0  0  0  0  0
  154.8313  139.6379  167.1444 H   0  0  0  0  0  0  0  0  0  0  0  0
  155.0719  141.0835  169.1772 H   0  0  0  0  0  0  0  0  0  0  0  0
  156.4446  140.0111  169.0267 H   0  0  0  0  0  0  0  0  0  0  0  0
  158.6148  142.6478  167.8720 H   0  0  0  0  0  0  0  0  0  0  0  0
  158.5498  140.9403  168.2451 H   0  0  0  0  0  0  0  0  0  0  0  0
  158.5775  141.2904  165.7788 H   0  0  0  0  0  0  0  0  0  0  0  0
  157.2200  142.3789  165.8952 H   0  0  0  0  0  0  0  0  0  0  0  0
  1  2  1  0  0  0  0
  1 22  1  0  0  0  0
  1 23  1  0  0  0  0
  1 24  1  0  0  0  0
  2 21  1  0  0  0  0
  2  3  1  0  0  0  0
  2 17  1  0  0  0  0
  3  4  1  0  0  0  0
  3 25  1  0  0  0  0
  4  5  2  0  0  0  0
  4  6  1  0  0  0  0
  6  7  1  0  0  0  0
  6 26  1  0  0  0  0
  7 16  1  0  0  0  0
  7  8  2  0  0  0  0
  8  9  1  0  0  0  0
  8 27  1  0  0  0  0
  9 10  2  0  0  0  0
  9 28  1  0  0  0  0
 10 11  1  0  0  0  0
 10 15  1  0  0  0  0
 11 12  1  0  0  0  0
 11 13  1  0  0  0  0
 11 14  1  0  0  0  0
 12 29  1  0  0  0  0
 12 30  1  0  0  0  0
 12 31  1  0  0  0  0
 13 32  1  0  0  0  0
 13 33  1  0  0  0  0
 13 34  1  0  0  0  0
 14 35  1  0  0  0  0
 14 36  1  0  0  0  0
 14 37  1  0  0  0  0
 15 16  2  0  0  0  0
 17 18  1  0  0  0  0
 17 38  1  0  0  0  0
 17 39  1  0  0  0  0
 18 19  1  0  0  0  0
 18 40  1  0  0  0  0
 18 41  1  0  0  0  0
 19 20  1  0  0  0  0
 20 21  1  0  0  0  0
 20 42  1  0  0  0  0
 20 43  1  0  0  0  0
 21 44  1  0  0  0  0
 21 45  1  0  0  0  0
M  END
> <s_m_source_file>
AV-unprocessed.smi

> <i_m_source_file_index>
2484

> <i_lp_mmshare_version>
43012

> <i_f3d_flags>
0

> <s_epik_input>
W0NIMl0xW0NIMl1PW0NIMl1bQ0gyXUMxKFtDSDNdKVtOSF1DKD1PKVtOSF1jMltjSF1bY0hdYyhubjIpQyhbQ0gzXSkoW0NIM10pW0NIM10=

> <s_epik_cmdline>
J2VwaWtfcHl0aG9uJywgJy1waCcsICc3LjAnLCAnLXRuJywgJzgnLCAnLW1hJywgJzIwMCcsICctbWV0YWxfYmluZGluZycsICctaW1hZScsICc8aW5maWxlLm1hZT4nLCAnLW9tYWUnLCAnPG91dGZpbGUubWFlPic=

> <r_lp_tautomer_probability>
1

> <r_epik_Ionization_Penalty>
0.0115026

> <r_epik_Ionization_Penalty_Charging>
0

> <r_epik_Ionization_Penalty_Neutral>
0.0115026

> <r_epik_State_Penalty>
0.00473796

> <r_epik_Charging_Adjusted_Penalty>
0.00473796

> <i_epik_Tot_Q>
0

> <i_epik_Tot_abs_Q>
0

> <r_epik_Metal_State_Penalty>
-0

> <b_epik_Metal_Only>
0

> <s_lp_Force_Field>
OPLS_2005

> <r_lp_Energy>
18.8992

> <b_lp_Chiralities_Consistent>
1

> <s_lp_Variant>
AV-unprocessed.smi:2484-1

> <Gold.Version>
5.8.1

> <Gold.Id.Protein>
6NUR|6NUR_protein|mol2

> <Gold.PLP.Fitness>
40.4362

> <Gold.PLP.PLP>
-40.6871

> <Gold.PLP.part.hbond>
-1.5768

> <Gold.PLP.part.metal>
0.0000

> <Gold.PLP.part.buried>
-4.8557

> <Gold.PLP.part.nonpolar>
-33.8678

> <Gold.PLP.part.repulsive>
0.0055

> <Gold.PLP.ligand.clash>
0.0000

> <Gold.PLP.ligand.torsion>
0.1303

> <Gold.PLP.Chemscore.Hbond>
0.0000

> <Gold.PLP.Chemscore.CHOScore>
0.0000

> <Gold.PLP.Chemscore.Metal>
0.0000

> <Gold.PLP.Chemscore.Internal.Correction>
0.0097

> <Gold.Rescore>
     Score         DG    S(hbond)    S(metal)    S(lipo)     H(rot)  DE(clash)    DE(int)     intcor
     11.80     -14.17       0.00        0.00      99.95       1.18       0.16       2.21       ----

> <Gold.Chemscore.Fitness>
11.7992

> <Gold.Chemscore.DG>
-14.1651

> <Gold.Chemscore.ZeroCoef>
-5.4800

> <Gold.Chemscore.Hbond>
0.0000

> <Gold.Chemscore.Metal>
0.0000

> <Gold.Chemscore.Lipo>
99.9487

> <Gold.Chemscore.Internal_Hbond>
0.0000

> <Gold.Chemscore.DEClash>
0.1586

> <Gold.Chemscore.DEInternal>
2.2072

> <Gold.Chemscore.Rot>
1.1753

> <Gold.Chemscore.Internal.Correction>
   9.000000E+99

> <Gold.Chemscore.Hbond.Weighted>
-0.0000

> <Gold.Chemscore.Metal.Weighted>
-0.0000

> <Gold.Chemscore.Lipo.Weighted>
-11.6940

> <Gold.Chemscore.Internal_Hbond.Weighted>
0.0000

> <Gold.Chemscore.DEClash.Weighted>
0.1586

> <Gold.Chemscore.DEInternal.Weighted>
2.2072

> <Gold.Chemscore.Rot.Weighted>
3.0089

> <Gold.Chemscore.Internal.Correction.Weighted>
   9.000000E+99

> <Gold.Protein.RotatedTorsions>
[ 6907 6896 6895 6894 ] final  137.98 input  -60.11 | X-H torsion
[ 7974 7965 7964 7962 ] final  158.59 input  175.53 | X-H torsion
[ 8008 7997 7996 7995 ] final  -41.96 input   59.86 | X-H torsion
[ 10167 10162 10161 10158 ] final  -69.57 input  -65.29 | X-H torsion
[ 10718 10713 10712 10709 ] final  109.49 input   66.30 | X-H torsion
[ 10763 10752 10751 10750 ] final  153.12 input  -60.55 | X-H torsion
[ 11005 11000 10999 10996 ] final  -23.29 input  -57.11 | X-H torsion

> <Gold.Protein.ActiveResidues>
 VAL166  LYS551  ARG553  GLY616  TRP617  ASP618  TYR619  PRO620  LYS621  CYS622 
 ASP623  PHE694  ASN695  SER759  ASP760  ASP761  ALA762  ILE779  LEU786  VAL792 
 PHE793  MET794  SER795  GLU796  ALA797  LYS798  CYS799  TRP800  GLU811  SER814 

> <Gold.Protein.RotatedAtoms>
  152.2719  133.5390  159.5443 H   0  0  0  0  0  0  0  0  0  0  0  0  # atno 6907 bound_to 6896
  150.7162  134.0686  159.3865 H   0  0  0  0  0  0  0  0  0  0  0  0  # atno 6908 bound_to 6896
  151.8601  135.0527  160.0519 H   0  0  0  0  0  0  0  0  0  0  0  0  # atno 6909 bound_to 6896
  144.7837  139.7499  143.6249 H   0  0  0  0  0  0  0  0  0  0  0  0  # atno 7974 bound_to 7965
  154.4001  140.1486  156.3277 H   0  0  0  0  0  0  0  0  0  0  0  0  # atno 8008 bound_to 7997
  155.8472  140.3459  155.5648 H   0  0  0  0  0  0  0  0  0  0  0  0  # atno 8009 bound_to 7997
  155.8024  140.0872  157.1940 H   0  0  0  0  0  0  0  0  0  0  0  0  # atno 8010 bound_to 7997
  140.5420  143.2314  151.7071 H   0  0  0  0  0  0  0  0  0  0  0  0  # atno 10167 bound_to 10162
  157.6539  131.0915  150.6462 H   0  0  0  0  0  0  0  0  0  0  0  0  # atno 10718 bound_to 10713
  154.1311  135.2826  155.3185 H   0  0  0  0  0  0  0  0  0  0  0  0  # atno 10763 bound_to 10752
  154.6355  135.5420  153.7732 H   0  0  0  0  0  0  0  0  0  0  0  0  # atno 10764 bound_to 10752
  153.0281  135.6473  154.1461 H   0  0  0  0  0  0  0  0  0  0  0  0  # atno 10765 bound_to 10752
  140.8738  133.7702  156.0218 H   0  0  0  0  0  0  0  0  0  0  0  0  # atno 11005 bound_to 11000
  146.2059  139.5382  142.9713 LP  0  0  0  0  0  0  0  0  0  0  0  0  # atno 17320 bound_to 7965
  145.5979  141.0360  143.2034 LP  0  0  0  0  0  0  0  0  0  0  0  0  # atno 17321 bound_to 7965
  139.4993  144.3953  152.0238 LP  0  0  0  0  0  0  0  0  0  0  0  0  # atno 17342 bound_to 10162
  140.3063  144.3589  150.6046 LP  0  0  0  0  0  0  0  0  0  0  0  0  # atno 17343 bound_to 10162
  156.6770  130.4556  149.5639 LP  0  0  0  0  0  0  0  0  0  0  0  0  # atno 17370 bound_to 10713
  156.1956  130.6587  151.1110 LP  0  0  0  0  0  0  0  0  0  0  0  0  # atno 17371 bound_to 10713
  140.8542  134.2917  157.5262 LP  0  0  0  0  0  0  0  0  0  0  0  0  # atno 17394 bound_to 11000
  139.8714  134.9484  156.3995 LP  0  0  0  0  0  0  0  0  0  0  0  0  # atno 17395 bound_to 11000

$$$$
