AV-unprocessed.smi:2479|AV-procd|sdf|9767|dock4
  -GOLD-   2272013413D 1   1.00000     0.00000
 Structure written by MMmdl.
 29 30  0  0  0  0  0  0  0  0  1 V2000
  152.4223  137.0533  159.9939 N   0  0  0  0  0  0  0  0  0  0  0  0
  151.7184  137.7883  159.4436 C   0  0  0  0  0  0  0  0  0  0  0  0
  150.8345  138.7109  158.7527 C   0  0  0  0  0  0  0  0  0  0  0  0
  149.4881  138.3756  158.5091 C   0  0  0  0  0  0  0  0  0  0  0  0
  148.6254  139.1963  157.8733 N   0  0  0  0  0  0  0  0  0  0  0  0
  149.0735  140.4011  157.4408 C   0  0  0  0  0  0  0  0  0  0  0  0
  148.1575  141.2516  156.7904 N   0  0  0  0  0  0  0  0  0  0  0  0
  147.1002  141.6769  157.7030 C   0  0  0  0  0  0  0  0  0  0  0  0
  146.2166  142.7444  157.0418 C   0  0  0  0  0  0  0  0  0  0  0  0
  145.6976  142.2292  155.8227 O   0  0  0  0  0  0  0  0  0  0  0  0
  146.7348  141.9245  154.8973 C   0  0  0  0  0  0  0  0  0  0  0  0
  147.6670  140.8311  155.4695 C   0  0  1  0  0  0  0  0  0  0  0  0
  148.7721  140.5419  154.4374 C   0  0  0  0  0  0  0  0  0  0  0  0
  148.3846  140.0693  153.2500 N   0  0  0  0  0  0  0  0  0  0  0  0
  149.9545  140.7542  154.7015 O   0  0  0  0  0  0  0  0  0  0  0  0
  150.4088  140.8273  157.6451 C   0  0  0  0  0  0  0  0  0  0  0  0
  150.9655  142.3664  157.0876 Cl  0  0  0  0  0  0  0  0  0  0  0  0
  151.3015  139.9638  158.3100 C   0  0  0  0  0  0  0  0  0  0  0  0
  149.0858  137.4258  158.8314 H   0  0  0  0  0  0  0  0  0  0  0  0
  146.4925  140.8151  157.9841 H   0  0  0  0  0  0  0  0  0  0  0  0
  147.5296  142.0781  158.6223 H   0  0  0  0  0  0  0  0  0  0  0  0
  145.3870  143.0068  157.6984 H   0  0  0  0  0  0  0  0  0  0  0  0
  146.7801  143.6606  156.8570 H   0  0  0  0  0  0  0  0  0  0  0  0
  146.2735  141.5846  153.9693 H   0  0  0  0  0  0  0  0  0  0  0  0
  147.2901  142.8341  154.6583 H   0  0  0  0  0  0  0  0  0  0  0  0
  147.0730  139.9247  155.6033 H   0  0  0  0  0  0  0  0  0  0  0  0
  149.0720  139.8675  152.5384 H   0  0  0  0  0  0  0  0  0  0  0  0
  147.4029  139.9190  153.0673 H   0  0  0  0  0  0  0  0  0  0  0  0
  152.3269  140.2623  158.4743 H   0  0  0  0  0  0  0  0  0  0  0  0
  1  2  3  0  0  0  0
  2  3  1  0  0  0  0
  3 18  1  0  0  0  0
  3  4  2  0  0  0  0
  4  5  1  0  0  0  0
  4 19  1  0  0  0  0
  5  6  2  0  0  0  0
  6  7  1  0  0  0  0
  6 16  1  0  0  0  0
  7 12  1  0  0  0  0
  7  8  1  0  0  0  0
  8  9  1  0  0  0  0
  8 20  1  0  0  0  0
  8 21  1  0  0  0  0
  9 10  1  0  0  0  0
  9 22  1  0  0  0  0
  9 23  1  0  0  0  0
 10 11  1  0  0  0  0
 11 12  1  0  0  0  0
 11 24  1  0  0  0  0
 11 25  1  0  0  0  0
 12 13  1  0  0  0  0
 12 26  1  0  0  0  0
 13 14  1  0  0  0  0
 13 15  2  0  0  0  0
 14 27  1  0  0  0  0
 14 28  1  0  0  0  0
 16 17  1  0  0  0  0
 16 18  2  0  0  0  0
 18 29  1  0  0  0  0
M  END
> <s_m_source_file>
AV-unprocessed.smi

> <i_m_source_file_index>
2479

> <i_lp_mmshare_version>
43012

> <i_f3d_flags>
0

> <s_epik_input>
TiNDYzFbY0hdbmMoYyhDbClbY0hdMSlOMltDSDJdW0NIMl1PW0NIMl1bQ0BIXTJDKD1PKVtOSDJd

> <s_epik_cmdline>
J2VwaWtfcHl0aG9uJywgJy1waCcsICc3LjAnLCAnLXRuJywgJzgnLCAnLW1hJywgJzIwMCcsICctbWV0YWxfYmluZGluZycsICctaW1hZScsICc8aW5maWxlLm1hZT4nLCAnLW9tYWUnLCAnPG91dGZpbGUubWFlPic=

> <r_lp_tautomer_probability>
1

> <r_epik_Ionization_Penalty>
1.61078e-07

> <r_epik_Ionization_Penalty_Charging>
0

> <r_epik_Ionization_Penalty_Neutral>
1.61078e-07

> <r_epik_State_Penalty>
-0

> <r_epik_Charging_Adjusted_Penalty>
0

> <i_epik_Tot_Q>
0

> <i_epik_Tot_abs_Q>
0

> <r_epik_Metal_State_Penalty>
-0

> <b_epik_Metal_Only>
0

> <s_lp_Force_Field>
OPLS_2005

> <r_lp_Energy>
18.2822

> <b_lp_Chiralities_Consistent>
1

> <s_lp_Variant>
AV-unprocessed.smi:2479-1

> <Gold.Version>
5.8.1

> <Gold.Id.Protein>
6NUR|6NUR_protein|mol2

> <Gold.PLP.Fitness>
31.2951

> <Gold.PLP.PLP>
-23.1444

> <Gold.PLP.part.hbond>
-2.6412

> <Gold.PLP.part.metal>
0.0000

> <Gold.PLP.part.buried>
-7.1180

> <Gold.PLP.part.nonpolar>
-15.3048

> <Gold.PLP.part.repulsive>
0.4325

> <Gold.PLP.ligand.clash>
0.0000

> <Gold.PLP.ligand.torsion>
0.1169

> <Gold.PLP.Chemscore.Hbond>
2.7350

> <Gold.PLP.Chemscore.CHOScore>
0.0000

> <Gold.PLP.Chemscore.Metal>
0.0000

> <Gold.Chemscore.Hbonds>
donor molecule, donor type, donor heavy atom, donor atom, acceptor molecule, acceptor atom, score
      L1  H    14    27       P1  7957  0.89
      P1  H  6896  6907       L1     1  1.00
      P1  H  7989  7998       L1    15  0.72

> <Gold.PLP.Chemscore.Internal.Correction>
0.1797

> <Gold.Rescore>
     Score         DG    S(hbond)    S(metal)    S(lipo)     H(rot)  DE(clash)    DE(int)     intcor
     13.27     -14.71       2.69        0.00      34.83       1.50       0.00       1.44       ----

> <Gold.Chemscore.Fitness>
13.2656

> <Gold.Chemscore.DG>
-14.7056

> <Gold.Chemscore.ZeroCoef>
-5.4800

> <Gold.Chemscore.Hbond>
2.6924

> <Gold.Chemscore.Metal>
0.0000

> <Gold.Chemscore.Lipo>
34.8268

> <Gold.Chemscore.Internal_Hbond>
0.0000

> <Gold.Chemscore.DEClash>
0.0000

> <Gold.Chemscore.DEInternal>
1.4400

> <Gold.Chemscore.Rot>
1.5006

> <Gold.Chemscore.Internal.Correction>
   9.000000E+99

> <Gold.Chemscore.Hbonds>
donor molecule, donor type, donor heavy atom, donor atom, acceptor molecule, acceptor atom, score
      L1  H    14    27       P1  7957  0.83
      P1  H  6896  6907       L1     1  0.90
      P1  H  7989  7998       L1    15  0.68

> <Gold.Chemscore.Hbond.Weighted>
-8.9925

> <Gold.Chemscore.Metal.Weighted>
-0.0000

> <Gold.Chemscore.Lipo.Weighted>
-4.0747

> <Gold.Chemscore.Internal_Hbond.Weighted>
0.0000

> <Gold.Chemscore.DEClash.Weighted>
0.0000

> <Gold.Chemscore.DEInternal.Weighted>
1.4400

> <Gold.Chemscore.Rot.Weighted>
3.8416

> <Gold.Chemscore.Internal.Correction.Weighted>
   9.000000E+99

> <Gold.Protein.RotatedTorsions>
[ 6907 6896 6895 6894 ] final   16.71 input  -60.11 | X-H torsion
[ 7974 7965 7964 7962 ] final  -87.37 input  175.53 | X-H torsion
[ 8008 7997 7996 7995 ] final   29.38 input   59.86 | X-H torsion
[ 10167 10162 10161 10158 ] final   -5.27 input  -65.29 | X-H torsion
[ 10718 10713 10712 10709 ] final  -39.27 input   66.30 | X-H torsion
[ 10763 10752 10751 10750 ] final  -21.81 input  -60.55 | X-H torsion
[ 11005 11000 10999 10996 ] final   31.01 input  -57.11 | X-H torsion

> <Gold.Protein.ActiveResidues>
 VAL166  LYS551  ARG553  GLY616  TRP617  ASP618  TYR619  PRO620  LYS621  CYS622 
 ASP623  PHE694  ASN695  SER759  ASP760  ASP761  ALA762  ILE779  LEU786  VAL792 
 PHE793  MET794  SER795  GLU796  ALA797  LYS798  CYS799  TRP800  GLU811  SER814 

> <Gold.Protein.RotatedAtoms>
  151.8381  135.0599  160.0444 H   0  0  0  0  0  0  0  0  0  0  0  0  # atno 6907 bound_to 6896
  152.2829  133.5483  159.5517 H   0  0  0  0  0  0  0  0  0  0  0  0  # atno 6908 bound_to 6896
  150.7197  134.0454  159.3822 H   0  0  0  0  0  0  0  0  0  0  0  0  # atno 6909 bound_to 6896
  145.4675  140.9560  143.1935 H   0  0  0  0  0  0  0  0  0  0  0  0  # atno 7974 bound_to 7965
  155.0735  140.3203  155.4623 H   0  0  0  0  0  0  0  0  0  0  0  0  # atno 8008 bound_to 7997
  156.2785  140.2107  156.5808 H   0  0  0  0  0  0  0  0  0  0  0  0  # atno 8009 bound_to 7997
  154.7035  140.0505  157.0469 H   0  0  0  0  0  0  0  0  0  0  0  0  # atno 8010 bound_to 7997
  140.6957  143.6327  150.8508 H   0  0  0  0  0  0  0  0  0  0  0  0  # atno 10167 bound_to 10162
  156.2944  130.4232  149.8206 H   0  0  0  0  0  0  0  0  0  0  0  0  # atno 10718 bound_to 10713
  153.6420  135.6984  153.5238 H   0  0  0  0  0  0  0  0  0  0  0  0  # atno 10763 bound_to 10752
  153.2775  135.4196  155.1046 H   0  0  0  0  0  0  0  0  0  0  0  0  # atno 10764 bound_to 10752
  154.8497  135.3593  154.5964 H   0  0  0  0  0  0  0  0  0  0  0  0  # atno 10765 bound_to 10752
  140.2884  134.2893  155.7782 H   0  0  0  0  0  0  0  0  0  0  0  0  # atno 11005 bound_to 11000
  144.7965  139.6223  143.7090 LP  0  0  0  0  0  0  0  0  0  0  0  0  # atno 17320 bound_to 7965
  146.2416  139.6013  142.9488 LP  0  0  0  0  0  0  0  0  0  0  0  0  # atno 17321 bound_to 7965
  140.0045  143.5708  152.2863 LP  0  0  0  0  0  0  0  0  0  0  0  0  # atno 17342 bound_to 10162
  139.6410  144.7654  151.2339 LP  0  0  0  0  0  0  0  0  0  0  0  0  # atno 17343 bound_to 10162
  156.5607  130.8382  151.3328 LP  0  0  0  0  0  0  0  0  0  0  0  0  # atno 17370 bound_to 10713
  157.7351  130.9757  150.2064 LP  0  0  0  0  0  0  0  0  0  0  0  0  # atno 17371 bound_to 10713
  141.2151  133.7569  156.9586 LP  0  0  0  0  0  0  0  0  0  0  0  0  # atno 17394 bound_to 11000
  140.1219  134.9412  157.2215 LP  0  0  0  0  0  0  0  0  0  0  0  0  # atno 17395 bound_to 11000

$$$$
