#       Name:                AV-unprocessed.smi:974
#       Creating user name   scv26
#       Creation time:       Fri Mar 27 02:20:45 2020


#       File generated by GOLD software.
#

@<TRIPOS>MOLECULE
AV-unprocessed.smi:974
    34    35     1
SMALL
NO_CHARGES


@<TRIPOS>ATOM
      1 ****        -4.6733  -1.0047  -2.6764 N.pl3          1 S1                 0.0000
      2 ****        -3.4443  -0.3621  -2.4366 C.2            1 S1                 0.0000
      3 ****        -3.1889   0.9620  -1.9814 C.2            1 S1                 0.0000
      4 ****        -1.8960   1.2226  -1.8708 N.2            1 S1                 0.0000
      5 ****        -1.2859   0.0778  -2.2501 N.pl3          1 S1                 0.0000
      6 ****         0.1634  -0.0047  -2.2489 C.3            1 S1                 0.0000
      7 ****         0.6727  -0.6947  -0.9833 C.2            1 S1                 0.0000
      8 ****         0.9822  -1.8856  -1.0136 O.2            1 S1                 0.0000
      9 ****         0.7543   0.0648   0.1200 N.am           1 S1                 0.0000
     10 ****         1.2006  -0.3996   1.4305 C.3            1 S1                 0.0000
     11 ****         0.7521   0.5740   2.5377 C.3            1 S1                 0.0000
     12 ****         1.9892   0.8365   3.3988 C.3            1 S1                 0.0000
     13 ****         3.1597   0.6833   2.4331 C.3            1 S1                 0.0000
     14 ****         2.7390  -0.4660   1.5171 C.3            1 S1                 0.0000
     15 ****        -2.1983  -0.8973  -2.5969 C.2            1 S1                 0.0000
     16 ****        -4.7213  -1.9595  -3.0019 H              1 S1                 0.0000
     17 ****        -5.5575  -0.5413  -2.5232 H              1 S1                 0.0000
     18 ****        -3.8984   1.7365  -1.7299 H              1 S1                 0.0000
     19 ****         0.4829  -0.5619  -3.1305 H              1 S1                 0.0000
     20 ****         0.5889   0.9970  -2.3310 H              1 S1                 0.0000
     21 ****         0.4744   1.0325   0.0498 H              1 S1                 0.0000
     22 ****         0.7824  -1.3888   1.6265 H              1 S1                 0.0000
     23 ****         0.4149   1.5184   2.1068 H              1 S1                 0.0000
     24 ****        -0.0762   0.1764   3.1253 H              1 S1                 0.0000
     25 ****         1.9662   1.8145   3.8805 H              1 S1                 0.0000
     26 ****         2.0597   0.0806   4.1822 H              1 S1                 0.0000
     27 ****         3.2751   1.5966   1.8478 H              1 S1                 0.0000
     28 ****         4.1043   0.4908   2.9425 H              1 S1                 0.0000
     29 ****         3.0297  -1.4132   1.9734 H              1 S1                 0.0000
     30 ****         3.2343  -0.4153   0.5465 H              1 S1                 0.0000
     31 ****        -1.8858  -1.8785  -2.9235 H              1 S1                 0.0000
     32 ****        -1.4668   2.0754  -1.5733 LP             1 S1                 0.0000
     33 ****         0.9005  -2.4019  -1.8661 LP             1 S1                 0.0000
     34 ****         1.3153  -2.3368  -0.1857 LP             1 S1                 0.0000
@<TRIPOS>BOND
    1    1    2 1     
    2    1   16 1     
    3    1   17 1     
    4    2   15 2     
    5    2    3 1     
    6    3    4 2     
    7    3   18 1     
    8    4    5 1     
    9    5    6 1     
   10    5   15 1     
   11    6    7 1     
   12    6   19 1     
   13    6   20 1     
   14    7    8 2     
   15    7    9 am    
   16    9   10 1     
   17    9   21 1     
   18   10   14 1     
   19   10   11 1     
   20   10   22 1     
   21   11   12 1     
   22   11   23 1     
   23   11   24 1     
   24   12   13 1     
   25   12   25 1     
   26   12   26 1     
   27   13   14 1     
   28   13   27 1     
   29   13   28 1     
   30   14   29 1     
   31   14   30 1     
   32   15   31 1     
   33    4   32 1     
   34    8   33 1     
   35    8   34 1     
@<TRIPOS>SUBSTRUCTURE
      1 S1             1
@<TRIPOS>SET
LONE_PAIRS      STATIC     ATOMS    <user>   **** ""
3 32 33 34
DONOR_HYDROGENS      STATIC     ATOMS    <user>   **** ""
3 16 17 21
ATOM$BLUE        STATIC     ATOMS    COLORGROUP SYSTEM
3 32 33 34
ATOM$RED        STATIC     ATOMS    COLORGROUP SYSTEM
3 16 17 21
