AV-unprocessed.smi:1019|AV-procd|sdf|4449|dock10
  -GOLD-   22720 2413D 1   1.00000     0.00000
 Structure written by MMmdl.
 45 47  0  0  0  0  0  0  0  0  3 V2000
  146.0498  139.3919  154.8569 C   0  0  0  0  0  0  0  0  0  0  0  0
  146.3230  140.0400  153.5533 N   0  3  1  0  0  0  0  0  0  0  0  0
  147.0718  141.3110  153.7153 C   0  0  0  0  0  0  0  0  0  0  0  0
  148.3808  141.1040  154.4579 C   0  0  0  0  0  0  0  0  0  0  0  0
  148.6250  141.7996  155.6609 C   0  0  0  0  0  0  0  0  0  0  0  0
  149.8414  141.6203  156.3476 C   0  0  0  0  0  0  0  0  0  0  0  0
  150.8166  140.7426  155.8364 C   0  0  0  0  0  0  0  0  0  0  0  0
  150.5750  140.0428  154.6386 C   0  0  0  0  0  0  0  0  0  0  0  0
  149.3589  140.2218  153.9509 C   0  0  0  0  0  0  0  0  0  0  0  0
  146.9370  139.1100  152.5683 C   0  0  0  0  0  0  0  0  0  0  0  0
  145.9093  138.1273  151.9740 C   0  0  1  0  0  0  0  0  0  0  0  0
  146.1735  137.9645  150.5926 O   0  0  0  0  0  0  0  0  0  0  0  0
  145.9807  136.7486  152.6603 C   0  0  0  0  0  0  0  0  0  0  0  0
  145.1227  135.7440  152.0177 N   0  0  0  0  0  0  0  0  0  0  0  0
  143.8620  135.8618  151.5179 C   0  0  0  0  0  0  0  0  0  0  0  0
  143.4980  134.6438  151.0294 N   0  3  0  0  0  0  0  0  0  0  0  0
  144.5412  133.7347  151.2178 C   0  0  0  0  0  0  0  0  0  0  0  0
  144.6459  132.3862  150.8914 C   0  0  0  0  0  0  0  0  0  0  0  0
  145.8573  131.7462  151.2261 C   0  0  0  0  0  0  0  0  0  0  0  0
  146.9069  132.4443  151.8586 C   0  0  0  0  0  0  0  0  0  0  0  0
  146.7901  133.8117  152.1852 C   0  0  0  0  0  0  0  0  0  0  0  0
  145.5889  134.4359  151.8516 C   0  0  0  0  0  0  0  0  0  0  0  0
  146.9781  139.1064  155.3535 H   0  0  0  0  0  0  0  0  0  0  0  0
  145.4396  138.4973  154.7356 H   0  0  0  0  0  0  0  0  0  0  0  0
  145.5056  140.0687  155.5167 H   0  0  0  0  0  0  0  0  0  0  0  0
  147.3146  141.7265  152.7360 H   0  0  0  0  0  0  0  0  0  0  0  0
  146.4502  142.0508  154.2224 H   0  0  0  0  0  0  0  0  0  0  0  0
  147.8823  142.4756  156.0588 H   0  0  0  0  0  0  0  0  0  0  0  0
  150.0269  142.1557  157.2671 H   0  0  0  0  0  0  0  0  0  0  0  0
  151.7493  140.6054  156.3637 H   0  0  0  0  0  0  0  0  0  0  0  0
  151.3229  139.3690  154.2468 H   0  0  0  0  0  0  0  0  0  0  0  0
  149.1827  139.6823  153.0317 H   0  0  0  0  0  0  0  0  0  0  0  0
  147.3986  139.6591  151.7474 H   0  0  0  0  0  0  0  0  0  0  0  0
  147.7512  138.5671  153.0511 H   0  0  0  0  0  0  0  0  0  0  0  0
  144.8995  138.5226  152.0835 H   0  0  0  0  0  0  0  0  0  0  0  0
  145.3825  138.1331  150.1040 H   0  0  0  0  0  0  0  0  0  0  0  0
  147.0024  136.3664  152.6369 H   0  0  0  0  0  0  0  0  0  0  0  0
  145.7016  136.8189  153.7124 H   0  0  0  0  0  0  0  0  0  0  0  0
  143.2578  136.7577  151.5140 H   0  0  0  0  0  0  0  0  0  0  0  0
  143.8441  131.8491  150.4062 H   0  0  0  0  0  0  0  0  0  0  0  0
  145.9840  130.6989  150.9925 H   0  0  0  0  0  0  0  0  0  0  0  0
  147.8206  131.9194  152.0978 H   0  0  0  0  0  0  0  0  0  0  0  0
  147.5997  134.3372  152.6691 H   0  0  0  0  0  0  0  0  0  0  0  0
  145.4263  140.3063  153.1732 H   0  0  0  0  0  0  0  0  0  0  0  0
  142.6023  134.4503  150.5999 H   0  0  0  0  0  0  0  0  0  0  0  0
  1  2  1  0  0  0  0
  1 23  1  0  0  0  0
  1 24  1  0  0  0  0
  1 25  1  0  0  0  0
  2  3  1  0  0  0  0
  2 10  1  0  0  0  0
  2 44  1  0  0  0  0
  3  4  1  0  0  0  0
  3 26  1  0  0  0  0
  3 27  1  0  0  0  0
  4  9  1  0  0  0  0
  4  5  2  0  0  0  0
  5  6  1  0  0  0  0
  5 28  1  0  0  0  0
  6  7  2  0  0  0  0
  6 29  1  0  0  0  0
  7  8  1  0  0  0  0
  7 30  1  0  0  0  0
  8  9  2  0  0  0  0
  8 31  1  0  0  0  0
  9 32  1  0  0  0  0
 10 11  1  0  0  0  0
 10 33  1  0  0  0  0
 10 34  1  0  0  0  0
 11 12  1  0  0  0  0
 11 13  1  0  0  0  0
 11 35  1  0  0  0  0
 12 36  1  0  0  0  0
 13 14  1  0  0  0  0
 13 37  1  0  0  0  0
 13 38  1  0  0  0  0
 14 22  1  0  0  0  0
 14 15  1  0  0  0  0
 15 16  2  0  0  0  0
 15 39  1  0  0  0  0
 16 17  1  0  0  0  0
 16 45  1  0  0  0  0
 17 22  2  0  0  0  0
 17 18  1  0  0  0  0
 18 19  2  0  0  0  0
 18 40  1  0  0  0  0
 19 20  1  0  0  0  0
 19 41  1  0  0  0  0
 20 21  2  0  0  0  0
 20 42  1  0  0  0  0
 21 22  1  0  0  0  0
 21 43  1  0  0  0  0
M  CHG  1   2   1
M  CHG  1  16   1
M  END
> <s_m_source_file>
AV-unprocessed.smi

> <i_m_source_file_index>
1019

> <i_lp_mmshare_version>
43012

> <i_f3d_flags>
0

> <s_epik_input>
W2NIXTFbY0hdW2NIXVtjSF1bY0hdYzFbQ0gyXU4oW0NIM10pW0NIMl1bQ0BIXShbT0hdKVtDSDJdbihbY0hdbjIpYyhjMjMpW2NIXVtjSF1bY0hdW2NIXTM=

> <s_epik_cmdline>
J2VwaWtfcHl0aG9uJywgJy1waCcsICc3LjAnLCAnLXRuJywgJzgnLCAnLW1hJywgJzIwMCcsICctbWV0YWxfYmluZGluZycsICctaW1hZScsICc8aW5maWxlLm1hZT4nLCAnLW9tYWUnLCAnPG91dGZpbGUubWFlPic=

> <r_epik_Ionization_Penalty>
1.5198

> <r_epik_Ionization_Penalty_Charging>
1.5198

> <r_epik_Ionization_Penalty_Neutral>
3.13312e-06

> <r_epik_State_Penalty>
1.624

> <r_epik_Charging_Adjusted_Penalty>
3.1438

> <i_epik_Tot_Q>
2

> <i_epik_Tot_abs_Q>
2

> <r_epik_Metal_State_Penalty>
5.67392

> <b_epik_Metal_Only>
0

> <s_lp_Force_Field>
OPLS_2005

> <r_lp_Energy>
24.7474

> <b_lp_Chiralities_Consistent>
1

> <s_lp_Variant>
AV-unprocessed.smi:1019-7

> <Gold.Version>
5.8.1

> <Gold.Id.Protein>
6NUR|6NUR_protein|mol2

> <Gold.PLP.Fitness>
60.0965

> <Gold.PLP.PLP>
-41.2290

> <Gold.PLP.part.hbond>
-4.8420

> <Gold.PLP.part.metal>
0.0000

> <Gold.PLP.part.buried>
1.4499

> <Gold.PLP.part.nonpolar>
-37.8369

> <Gold.PLP.part.repulsive>
0.0025

> <Gold.PLP.ligand.clash>
0.0000

> <Gold.PLP.ligand.torsion>
1.0781

> <Gold.PLP.Chemscore.Hbond>
5.9920

> <Gold.PLP.Chemscore.CHOScore>
1.0000

> <Gold.PLP.Chemscore.Metal>
0.0000

> <Gold.Chemscore.Hbonds>
donor molecule, donor type, donor heavy atom, donor atom, acceptor molecule, acceptor atom, score
      L1  H     2    44       P1 10175  2.00
      L1  H    12    36       P1 10171  1.00
      L1  H    16    45       P1 10186  2.00
      P1  H  7954  7966       L1    12  0.74
      L1  C    15    39       P1 10171  0.71

> <Gold.PLP.Chemscore.Internal.Correction>
0.0477

> <Gold.Rescore>
     Score         DG    S(hbond)    S(metal)    S(lipo)     H(rot)  DE(clash)    DE(int)     intcor
     20.99     -23.73       3.67        0.00     105.01       2.46       1.54       1.20       ----

> <Gold.Chemscore.Fitness>
20.9931

> <Gold.Chemscore.DG>
-23.7318

> <Gold.Chemscore.ZeroCoef>
-5.4800

> <Gold.Chemscore.Hbond>
3.6681

> <Gold.Chemscore.Metal>
0.0000

> <Gold.Chemscore.Lipo>
105.0061

> <Gold.Chemscore.Internal_Hbond>
0.0000

> <Gold.Chemscore.DEClash>
1.5360

> <Gold.Chemscore.DEInternal>
1.2027

> <Gold.Chemscore.Rot>
2.4552

> <Gold.Chemscore.Internal.Correction>
   9.000000E+99

> <Gold.Chemscore.Hbonds>
donor molecule, donor type, donor heavy atom, donor atom, acceptor molecule, acceptor atom, score
      L1  H     2    44       P1 10175  0.98
      L1  H    12    36       P1 10171  0.97
      L1  H    16    45       P1 10186  0.35
      P1  H  7954  7966       L1    12  0.71

> <Gold.Chemscore.Hbond.Weighted>
-12.2515

> <Gold.Chemscore.Metal.Weighted>
-0.0000

> <Gold.Chemscore.Lipo.Weighted>
-12.2857

> <Gold.Chemscore.Internal_Hbond.Weighted>
0.0000

> <Gold.Chemscore.DEClash.Weighted>
1.5360

> <Gold.Chemscore.DEInternal.Weighted>
1.2027

> <Gold.Chemscore.Rot.Weighted>
6.2854

> <Gold.Chemscore.Internal.Correction.Weighted>
   9.000000E+99

> <Gold.Protein.RotatedTorsions>
[ 6907 6896 6895 6894 ] final -130.97 input  -60.11 | X-H torsion
[ 7974 7965 7964 7962 ] final   21.60 input  175.53 | X-H torsion
[ 8008 7997 7996 7995 ] final   16.83 input   59.86 | X-H torsion
[ 10167 10162 10161 10158 ] final -145.01 input  -65.29 | X-H torsion
[ 10718 10713 10712 10709 ] final  -47.85 input   66.30 | X-H torsion
[ 10763 10752 10751 10750 ] final  138.69 input  -60.55 | X-H torsion
[ 11005 11000 10999 10996 ] final   39.98 input  -57.11 | X-H torsion

> <Gold.Protein.ActiveResidues>
 VAL166  LYS551  ARG553  GLY616  TRP617  ASP618  TYR619  PRO620  LYS621  CYS622 
 ASP623  PHE694  ASN695  SER759  ASP760  ASP761  ALA762  ILE779  LEU786  VAL792 
 PHE793  MET794  SER795  GLU796  ALA797  LYS798  CYS799  TRP800  GLU811  SER814 

> <Gold.Protein.RotatedAtoms>
  150.9457  133.6606  159.2781 H   0  0  0  0  0  0  0  0  0  0  0  0  # atno 6907 bound_to 6896
  151.3979  135.0965  159.9556 H   0  0  0  0  0  0  0  0  0  0  0  0  # atno 6908 bound_to 6896
  152.5089  133.8957  159.7471 H   0  0  0  0  0  0  0  0  0  0  0  0  # atno 6909 bound_to 6896
  146.2064  139.8004  142.8722 H   0  0  0  0  0  0  0  0  0  0  0  0  # atno 7974 bound_to 7965
  154.8826  140.2975  155.5416 H   0  0  0  0  0  0  0  0  0  0  0  0  # atno 8008 bound_to 7997
  156.3022  140.2439  156.3765 H   0  0  0  0  0  0  0  0  0  0  0  0  # atno 8009 bound_to 7997
  154.8701  140.0402  157.1708 H   0  0  0  0  0  0  0  0  0  0  0  0  # atno 8010 bound_to 7997
  139.7845  143.8053  152.2643 H   0  0  0  0  0  0  0  0  0  0  0  0  # atno 10167 bound_to 10162
  156.2045  130.4157  149.9197 H   0  0  0  0  0  0  0  0  0  0  0  0  # atno 10718 bound_to 10713
  153.8937  135.3030  155.3448 H   0  0  0  0  0  0  0  0  0  0  0  0  # atno 10763 bound_to 10752
  154.7704  135.4889  153.9640 H   0  0  0  0  0  0  0  0  0  0  0  0  # atno 10764 bound_to 10752
  153.1283  135.6798  153.9319 H   0  0  0  0  0  0  0  0  0  0  0  0  # atno 10765 bound_to 10752
  140.1975  134.3911  155.8113 H   0  0  0  0  0  0  0  0  0  0  0  0  # atno 11005 bound_to 11000
  145.3302  141.0265  143.3450 LP  0  0  0  0  0  0  0  0  0  0  0  0  # atno 17320 bound_to 7965
  144.8804  139.4912  143.6726 LP  0  0  0  0  0  0  0  0  0  0  0  0  # atno 17321 bound_to 7965
  139.8126  144.7329  150.9677 LP  0  0  0  0  0  0  0  0  0  0  0  0  # atno 17342 bound_to 10162
  140.7819  143.4236  151.0803 LP  0  0  0  0  0  0  0  0  0  0  0  0  # atno 17343 bound_to 10162
  156.6895  130.8890  151.3586 LP  0  0  0  0  0  0  0  0  0  0  0  0  # atno 17370 bound_to 10713
  157.7004  130.9327  150.0769 LP  0  0  0  0  0  0  0  0  0  0  0  0  # atno 17371 bound_to 10713
  141.2227  133.7077  156.8201 LP  0  0  0  0  0  0  0  0  0  0  0  0  # atno 17394 bound_to 11000
  140.2091  134.8841  157.3254 LP  0  0  0  0  0  0  0  0  0  0  0  0  # atno 17395 bound_to 11000

$$$$
