AV-unprocessed.smi:2279|AV-procd|sdf|9189|dock5
  -GOLD-   2272012403D 1   1.00000     0.00000
 Structure written by MMmdl.
 57 59  0  0  0  0  0  0  0  0  2 V2000
  146.9825  130.6109  152.8623 C   0  0  0  0  0  0  0  0  0  0  0  0
  148.1894  131.2131  153.5505 C   0  0  0  0  0  0  0  0  0  0  0  0
  149.1165  130.3985  154.2283 C   0  0  0  0  0  0  0  0  0  0  0  0
  150.2184  131.0199  154.8478 C   0  0  0  0  0  0  0  0  0  0  0  0
  151.2557  130.2047  155.5909 C   0  0  0  0  0  0  0  0  0  0  0  0
  150.4238  132.3540  154.8200 N   0  0  0  0  0  0  0  0  0  0  0  0
  149.5375  133.1484  154.1701 C   0  0  0  0  0  0  0  0  0  0  0  0
  149.6616  134.5610  154.0844 N   0  0  0  0  0  0  0  0  0  0  0  0
  150.4642  135.3684  154.8003 C   0  0  0  0  0  0  0  0  0  0  0  0
  151.2536  135.0007  155.6710 O   0  0  0  0  0  0  0  0  0  0  0  0
  150.3015  136.6531  154.4500 N   0  0  0  0  0  0  0  0  0  0  0  0
  151.0273  137.7785  155.0321 C   0  0  2  0  0  0  0  0  0  0  0  0
  151.1551  137.6261  156.5556 C   0  0  0  0  0  0  0  0  0  0  0  0
  151.8463  138.8508  157.1753 C   0  0  0  0  0  0  0  0  0  0  0  0
  151.1248  140.1185  156.8625 N   0  3  1  0  0  0  0  0  0  0  0  0
  151.7036  141.2956  157.5912 C   0  0  0  0  0  0  0  0  0  0  0  0
  152.2088  140.8878  158.9952 C   0  0  0  0  0  0  0  0  0  0  0  0
  152.7531  142.0909  159.7849 C   0  0  0  0  0  0  0  0  0  0  0  0
  151.7115  143.1033  159.9364 N   0  0  0  0  0  0  0  0  0  0  0  0
  152.2200  144.2042  160.7427 C   0  0  0  0  0  0  0  0  0  0  0  0
  151.3238  143.6062  158.6212 C   0  0  0  0  0  0  0  0  0  0  0  0
  150.7144  142.4718  157.7797 C   0  0  0  0  0  0  0  0  0  0  0  0
  150.9891  140.2934  155.3860 C   0  0  0  0  0  0  0  0  0  0  0  0
  150.2950  139.0902  154.7242 C   0  0  0  0  0  0  0  0  0  0  0  0
  148.4050  132.6058  153.5223 C   0  0  0  0  0  0  0  0  0  0  0  0
  146.9424  129.5305  153.0044 H   0  0  0  0  0  0  0  0  0  0  0  0
  147.0188  130.8131  151.7918 H   0  0  0  0  0  0  0  0  0  0  0  0
  146.0647  131.0416  153.2634 H   0  0  0  0  0  0  0  0  0  0  0  0
  148.9873  129.3269  154.2720 H   0  0  0  0  0  0  0  0  0  0  0  0
  150.9453  129.1640  155.6873 H   0  0  0  0  0  0  0  0  0  0  0  0
  151.4113  130.6066  156.5925 H   0  0  0  0  0  0  0  0  0  0  0  0
  152.2067  130.2298  155.0584 H   0  0  0  0  0  0  0  0  0  0  0  0
  149.0685  135.0065  153.4002 H   0  0  0  0  0  0  0  0  0  0  0  0
  149.6322  136.8669  153.7250 H   0  0  0  0  0  0  0  0  0  0  0  0
  152.0247  137.8278  154.5901 H   0  0  0  0  0  0  0  0  0  0  0  0
  150.1686  137.4972  157.0034 H   0  0  0  0  0  0  0  0  0  0  0  0
  151.7239  136.7275  156.7981 H   0  0  0  0  0  0  0  0  0  0  0  0
  151.9075  138.6892  158.2494 H   0  0  0  0  0  0  0  0  0  0  0  0
  152.8733  138.9191  156.8124 H   0  0  0  0  0  0  0  0  0  0  0  0
  152.5467  141.6707  157.0079 H   0  0  0  0  0  0  0  0  0  0  0  0
  151.3991  140.4219  159.5588 H   0  0  0  0  0  0  0  0  0  0  0  0
  153.0034  140.1467  158.9331 H   0  0  0  0  0  0  0  0  0  0  0  0
  153.0818  141.7580  160.7705 H   0  0  0  0  0  0  0  0  0  0  0  0
  153.6250  142.5137  159.2831 H   0  0  0  0  0  0  0  0  0  0  0  0
  151.4506  144.9651  160.8784 H   0  0  0  0  0  0  0  0  0  0  0  0
  153.0872  144.6743  160.2766 H   0  0  0  0  0  0  0  0  0  0  0  0
  152.5133  143.8509  161.7320 H   0  0  0  0  0  0  0  0  0  0  0  0
  150.5897  144.4045  158.7387 H   0  0  0  0  0  0  0  0  0  0  0  0
  152.1866  144.0374  158.1104 H   0  0  0  0  0  0  0  0  0  0  0  0
  150.4313  142.8970  156.8168 H   0  0  0  0  0  0  0  0  0  0  0  0
  149.7973  142.1209  158.2557 H   0  0  0  0  0  0  0  0  0  0  0  0
  150.3840  141.1677  155.1513 H   0  0  0  0  0  0  0  0  0  0  0  0
  151.9744  140.4523  154.9449 H   0  0  0  0  0  0  0  0  0  0  0  0
  150.2446  139.2445  153.6456 H   0  0  0  0  0  0  0  0  0  0  0  0
  149.2636  139.0312  155.0753 H   0  0  0  0  0  0  0  0  0  0  0  0
  147.7061  133.2487  153.0070 H   0  0  0  0  0  0  0  0  0  0  0  0
  150.1830  140.0116  157.2117 H   0  0  0  0  0  0  0  0  0  0  0  0
  1  2  1  0  0  0  0
  1 26  1  0  0  0  0
  1 27  1  0  0  0  0
  1 28  1  0  0  0  0
  2 25  1  0  0  0  0
  2  3  2  0  0  0  0
  3  4  1  0  0  0  0
  3 29  1  0  0  0  0
  4  5  1  0  0  0  0
  4  6  2  0  0  0  0
  5 30  1  0  0  0  0
  5 31  1  0  0  0  0
  5 32  1  0  0  0  0
  6  7  1  0  0  0  0
  7  8  1  0  0  0  0
  7 25  2  0  0  0  0
  8  9  1  0  0  0  0
  8 33  1  0  0  0  0
  9 10  2  0  0  0  0
  9 11  1  0  0  0  0
 11 12  1  0  0  0  0
 11 34  1  0  0  0  0
 12 24  1  0  0  0  0
 12 13  1  0  0  0  0
 12 35  1  0  0  0  0
 13 14  1  0  0  0  0
 13 36  1  0  0  0  0
 13 37  1  0  0  0  0
 14 15  1  0  0  0  0
 14 38  1  0  0  0  0
 14 39  1  0  0  0  0
 15 16  1  0  0  0  0
 15 23  1  0  0  0  0
 15 57  1  0  0  0  0
 16 22  1  0  0  0  0
 16 17  1  0  0  0  0
 16 40  1  0  0  0  0
 17 18  1  0  0  0  0
 17 41  1  0  0  0  0
 17 42  1  0  0  0  0
 18 19  1  0  0  0  0
 18 43  1  0  0  0  0
 18 44  1  0  0  0  0
 19 20  1  0  0  0  0
 19 21  1  0  0  0  0
 20 45  1  0  0  0  0
 20 46  1  0  0  0  0
 20 47  1  0  0  0  0
 21 22  1  0  0  0  0
 21 48  1  0  0  0  0
 21 49  1  0  0  0  0
 22 50  1  0  0  0  0
 22 51  1  0  0  0  0
 23 24  1  0  0  0  0
 23 52  1  0  0  0  0
 23 53  1  0  0  0  0
 24 54  1  0  0  0  0
 24 55  1  0  0  0  0
 25 56  1  0  0  0  0
M  CHG  1  15   1
M  END
> <s_m_source_file>
AV-unprocessed.smi

> <i_m_source_file_index>
2279

> <i_lp_mmshare_version>
43012

> <i_f3d_flags>
0

> <s_epik_input>
W0NIM11jMVtjSF1jKFtDSDNdKW5jKFtjSF0xKVtOSF1DKD1PKVtOSF1bQ0hdMltDSDJdW0NIMl1OKFtDSDJdW0NIMl0yKVtDSF0zW0NIMl1bQ0gyXU4oW0NIM10pW0NIMl1bQ0gyXTM=

> <s_epik_cmdline>
J2VwaWtfcHl0aG9uJywgJy1waCcsICc3LjAnLCAnLXRuJywgJzgnLCAnLW1hJywgJzIwMCcsICctbWV0YWxfYmluZGluZycsICctaW1hZScsICc8aW5maWxlLm1hZT4nLCAnLW9tYWUnLCAnPG91dGZpbGUubWFlPic=

> <r_epik_Ionization_Penalty>
1.37263

> <r_epik_Ionization_Penalty_Charging>
0.00081195

> <r_epik_Ionization_Penalty_Neutral>
1.37182

> <r_epik_State_Penalty>
1.55149

> <r_epik_Charging_Adjusted_Penalty>
1.5523

> <i_epik_Tot_Q>
1

> <i_epik_Tot_abs_Q>
1

> <r_epik_Metal_State_Penalty>
1.5515

> <b_epik_Metal_Only>
0

> <s_lp_Force_Field>
OPLS_2005

> <r_lp_Energy>
32.7052

> <b_lp_Chiralities_Consistent>
1

> <s_lp_Variant>
AV-unprocessed.smi:2279-7

> <Gold.Version>
5.8.1

> <Gold.Id.Protein>
6NUR|6NUR_protein|mol2

> <Gold.PLP.Fitness>
51.5843

> <Gold.PLP.PLP>
-44.8619

> <Gold.PLP.part.hbond>
-3.7585

> <Gold.PLP.part.metal>
0.0000

> <Gold.PLP.part.buried>
-1.8744

> <Gold.PLP.part.nonpolar>
-38.6813

> <Gold.PLP.part.repulsive>
0.2436

> <Gold.PLP.ligand.clash>
0.0000

> <Gold.PLP.ligand.torsion>
0.6911

> <Gold.PLP.Chemscore.Hbond>
2.6912

> <Gold.PLP.Chemscore.CHOScore>
0.0000

> <Gold.PLP.Chemscore.Metal>
0.0000

> <Gold.Chemscore.Hbonds>
donor molecule, donor type, donor heavy atom, donor atom, acceptor molecule, acceptor atom, score
      L1  H     8    33       P1  7948  0.87
      L1  H    11    34       P1  7948  0.78
      P1  H 10752 10764       L1    10  0.93

> <Gold.PLP.Chemscore.Internal.Correction>
0.0309

> <Gold.Rescore>
     Score         DG    S(hbond)    S(metal)    S(lipo)     H(rot)  DE(clash)    DE(int)     intcor
     17.90     -21.35       1.67        0.00     114.15       1.19       0.09       3.36       ----

> <Gold.Chemscore.Fitness>
17.8954

> <Gold.Chemscore.DG>
-21.3506

> <Gold.Chemscore.ZeroCoef>
-5.4800

> <Gold.Chemscore.Hbond>
1.6661

> <Gold.Chemscore.Metal>
0.0000

> <Gold.Chemscore.Lipo>
114.1492

> <Gold.Chemscore.Internal_Hbond>
0.0000

> <Gold.Chemscore.DEClash>
0.0929

> <Gold.Chemscore.DEInternal>
3.3623

> <Gold.Chemscore.Rot>
1.1913

> <Gold.Chemscore.Internal.Correction>
   9.000000E+99

> <Gold.Chemscore.Hbonds>
donor molecule, donor type, donor heavy atom, donor atom, acceptor molecule, acceptor atom, score
      L1  H     8    33       P1  7948  0.19
      L1  H    11    34       P1  7948  0.54
      P1  H 10752 10764       L1    10  0.30

> <Gold.Chemscore.Hbond.Weighted>
-5.5648

> <Gold.Chemscore.Metal.Weighted>
-0.0000

> <Gold.Chemscore.Lipo.Weighted>
-13.3555

> <Gold.Chemscore.Internal_Hbond.Weighted>
0.0000

> <Gold.Chemscore.DEClash.Weighted>
0.0929

> <Gold.Chemscore.DEInternal.Weighted>
3.3623

> <Gold.Chemscore.Rot.Weighted>
3.0497

> <Gold.Chemscore.Internal.Correction.Weighted>
   9.000000E+99

> <Gold.Protein.RotatedTorsions>
[ 6907 6896 6895 6894 ] final  154.28 input  -60.11 | X-H torsion
[ 7974 7965 7964 7962 ] final -100.15 input  175.53 | X-H torsion
[ 8008 7997 7996 7995 ] final  145.52 input   59.86 | X-H torsion
[ 10167 10162 10161 10158 ] final  159.29 input  -65.29 | X-H torsion
[ 10718 10713 10712 10709 ] final -161.67 input   66.30 | X-H torsion
[ 10763 10752 10751 10750 ] final  -42.30 input  -60.55 | X-H torsion
[ 11005 11000 10999 10996 ] final  -56.39 input  -57.11 | X-H torsion

> <Gold.Protein.ActiveResidues>
 VAL166  LYS551  ARG553  GLY616  TRP617  ASP618  TYR619  PRO620  LYS621  CYS622 
 ASP623  PHE694  ASN695  SER759  ASP760  ASP761  ALA762  ILE779  LEU786  VAL792 
 PHE793  MET794  SER795  GLU796  ALA797  LYS798  CYS799  TRP800  GLU811  SER814 

> <Gold.Protein.RotatedAtoms>
  152.0607  133.4061  159.4416 H   0  0  0  0  0  0  0  0  0  0  0  0  # atno 6907 bound_to 6896
  150.6866  134.3203  159.4793 H   0  0  0  0  0  0  0  0  0  0  0  0  # atno 6908 bound_to 6896
  152.1024  134.9332  160.0620 H   0  0  0  0  0  0  0  0  0  0  0  0  # atno 6909 bound_to 6896
  145.2983  140.9370  143.2838 H   0  0  0  0  0  0  0  0  0  0  0  0  # atno 7974 bound_to 7965
  156.2881  140.2207  156.5228 H   0  0  0  0  0  0  0  0  0  0  0  0  # atno 8008 bound_to 7997
  154.7514  140.0480  157.0918 H   0  0  0  0  0  0  0  0  0  0  0  0  # atno 8009 bound_to 7997
  155.0105  140.3112  155.4835 H   0  0  0  0  0  0  0  0  0  0  0  0  # atno 8010 bound_to 7997
  139.4831  144.4744  151.8532 H   0  0  0  0  0  0  0  0  0  0  0  0  # atno 10167 bound_to 10162
  156.5995  130.8804  151.2910 H   0  0  0  0  0  0  0  0  0  0  0  0  # atno 10718 bound_to 10713
  153.9768  135.6722  153.4749 H   0  0  0  0  0  0  0  0  0  0  0  0  # atno 10763 bound_to 10752
  153.0767  135.4945  154.8415 H   0  0  0  0  0  0  0  0  0  0  0  0  # atno 10764 bound_to 10752
  154.7187  135.3112  154.9043 H   0  0  0  0  0  0  0  0  0  0  0  0  # atno 10765 bound_to 10752
  141.1118  133.6610  156.4612 H   0  0  0  0  0  0  0  0  0  0  0  0  # atno 11005 bound_to 11000
  144.9115  139.4523  143.6584 LP  0  0  0  0  0  0  0  0  0  0  0  0  # atno 17320 bound_to 7965
  146.3161  139.7926  142.8982 LP  0  0  0  0  0  0  0  0  0  0  0  0  # atno 17321 bound_to 7965
  140.4215  144.2237  150.5887 LP  0  0  0  0  0  0  0  0  0  0  0  0  # atno 17342 bound_to 10162
  140.4869  143.2360  151.8875 LP  0  0  0  0  0  0  0  0  0  0  0  0  # atno 17343 bound_to 10162
  157.7283  130.9655  150.1737 LP  0  0  0  0  0  0  0  0  0  0  0  0  # atno 17370 bound_to 10713
  156.2481  130.3698  149.8262 LP  0  0  0  0  0  0  0  0  0  0  0  0  # atno 17371 bound_to 10713
  140.4755  134.6713  157.5148 LP  0  0  0  0  0  0  0  0  0  0  0  0  # atno 17394 bound_to 11000
  140.0016  134.6828  155.9521 LP  0  0  0  0  0  0  0  0  0  0  0  0  # atno 17395 bound_to 11000

$$$$
