AV-unprocessed.smi:2302|AV-procd|sdf|9241|dock6
  -GOLD-   2272012463D 1   1.00000     0.00000
 Structure written by MMmdl.
 39 40  0  0  0  0  0  0  0  0  1 V2000
  145.8056  131.8248  149.2828 C   0  0  0  0  0  0  0  0  0  0  0  0
  145.2493  132.8310  150.2683 C   0  0  0  0  0  0  0  0  0  0  0  0
  143.9712  132.6596  150.8352 C   0  0  0  0  0  0  0  0  0  0  0  0
  143.5116  133.6331  151.7400 C   0  0  0  0  0  0  0  0  0  0  0  0
  144.3429  134.7301  152.0387 C   0  0  0  0  0  0  0  0  0  0  0  0
  145.6124  134.8277  151.4255 C   0  0  0  0  0  0  0  0  0  0  0  0
  146.3710  135.9723  151.7888 N   0  0  0  0  0  0  0  0  0  0  0  0
  145.9292  137.1316  152.3075 C   0  0  0  0  0  0  0  0  0  0  0  0
  144.7505  137.4067  152.5343 O   0  0  0  0  0  0  0  0  0  0  0  0
  146.9457  137.9710  152.5530 N   0  0  0  0  0  0  0  0  0  0  0  0
  146.8105  139.3160  153.1064 C   0  0  0  0  0  0  0  0  0  0  0  0
  147.8077  139.5928  154.2476 C   0  0  1  0  0  0  0  0  0  0  0  0
  149.2478  139.1289  153.9386 C   0  0  0  0  0  0  0  0  0  0  0  0
  150.1605  139.4416  155.0303 N   0  0  0  0  0  0  0  0  0  0  0  0
  151.5169  139.0033  154.7393 C   0  0  0  0  0  0  0  0  0  0  0  0
  150.1059  140.8689  155.3175 C   0  0  0  0  0  0  0  0  0  0  0  0
  148.6718  141.3318  155.6252 C   0  0  0  0  0  0  0  0  0  0  0  0
  147.8131  140.9886  154.5421 O   0  0  0  0  0  0  0  0  0  0  0  0
  146.0459  133.8833  150.5536 N   0  0  0  0  0  0  0  0  0  0  0  0
  145.2214  130.9043  149.2875 H   0  0  0  0  0  0  0  0  0  0  0  0
  146.8367  131.5725  149.5326 H   0  0  0  0  0  0  0  0  0  0  0  0
  145.7872  132.2372  148.2736 H   0  0  0  0  0  0  0  0  0  0  0  0
  143.3572  131.8071  150.5843 H   0  0  0  0  0  0  0  0  0  0  0  0
  142.5376  133.5413  152.1974 H   0  0  0  0  0  0  0  0  0  0  0  0
  144.0046  135.4870  152.7313 H   0  0  0  0  0  0  0  0  0  0  0  0
  147.3671  135.8947  151.6479 H   0  0  0  0  0  0  0  0  0  0  0  0
  147.8815  137.6615  152.3360 H   0  0  0  0  0  0  0  0  0  0  0  0
  146.9152  140.0685  152.3231 H   0  0  0  0  0  0  0  0  0  0  0  0
  145.7928  139.4152  153.4845 H   0  0  0  0  0  0  0  0  0  0  0  0
  147.4517  139.0646  155.1340 H   0  0  0  0  0  0  0  0  0  0  0  0
  149.2507  138.0541  153.7536 H   0  0  0  0  0  0  0  0  0  0  0  0
  149.6016  139.6041  153.0223 H   0  0  0  0  0  0  0  0  0  0  0  0
  152.1785  139.2121  155.5807 H   0  0  0  0  0  0  0  0  0  0  0  0
  151.9153  139.5101  153.8593 H   0  0  0  0  0  0  0  0  0  0  0  0
  151.5442  137.9290  154.5549 H   0  0  0  0  0  0  0  0  0  0  0  0
  150.7523  141.1016  156.1644 H   0  0  0  0  0  0  0  0  0  0  0  0
  150.4909  141.4324  154.4660 H   0  0  0  0  0  0  0  0  0  0  0  0
  148.3073  140.8732  156.5456 H   0  0  0  0  0  0  0  0  0  0  0  0
  148.6453  142.4115  155.7728 H   0  0  0  0  0  0  0  0  0  0  0  0
  1  2  1  0  0  0  0
  1 20  1  0  0  0  0
  1 21  1  0  0  0  0
  1 22  1  0  0  0  0
  2 19  1  0  0  0  0
  2  3  2  0  0  0  0
  3  4  1  0  0  0  0
  3 23  1  0  0  0  0
  4  5  2  0  0  0  0
  4 24  1  0  0  0  0
  5  6  1  0  0  0  0
  5 25  1  0  0  0  0
  6  7  1  0  0  0  0
  6 19  2  0  0  0  0
  7  8  1  0  0  0  0
  7 26  1  0  0  0  0
  8  9  2  0  0  0  0
  8 10  1  0  0  0  0
 10 11  1  0  0  0  0
 10 27  1  0  0  0  0
 11 12  1  0  0  0  0
 11 28  1  0  0  0  0
 11 29  1  0  0  0  0
 12 18  1  0  0  0  0
 12 13  1  0  0  0  0
 12 30  1  0  0  0  0
 13 14  1  0  0  0  0
 13 31  1  0  0  0  0
 13 32  1  0  0  0  0
 14 15  1  0  0  0  0
 14 16  1  0  0  0  0
 15 33  1  0  0  0  0
 15 34  1  0  0  0  0
 15 35  1  0  0  0  0
 16 17  1  0  0  0  0
 16 36  1  0  0  0  0
 16 37  1  0  0  0  0
 17 18  1  0  0  0  0
 17 38  1  0  0  0  0
 17 39  1  0  0  0  0
M  END
> <s_m_source_file>
AV-unprocessed.smi

> <i_m_source_file_index>
2302

> <i_lp_mmshare_version>
43012

> <i_f3d_flags>
0

> <s_epik_input>
W0NIM11jMVtjSF1bY0hdW2NIXWMobjEpW05IXUMoPU8pW05IXVtDSDJdW0NAQEhdMltDSDJdTihbQ0gzXSlbQ0gyXVtDSDJdTzI=

> <s_epik_cmdline>
J2VwaWtfcHl0aG9uJywgJy1waCcsICc3LjAnLCAnLXRuJywgJzgnLCAnLW1hJywgJzIwMCcsICctbWV0YWxfYmluZGluZycsICctaW1hZScsICc8aW5maWxlLm1hZT4nLCAnLW9tYWUnLCAnPG91dGZpbGUubWFlPic=

> <r_epik_Ionization_Penalty>
0.729465

> <r_epik_Ionization_Penalty_Charging>
0

> <r_epik_Ionization_Penalty_Neutral>
0.729465

> <r_epik_State_Penalty>
0.754525

> <r_epik_Charging_Adjusted_Penalty>
0.754525

> <i_epik_Tot_Q>
0

> <i_epik_Tot_abs_Q>
0

> <r_epik_Metal_State_Penalty>
0.754521

> <b_epik_Metal_Only>
0

> <s_lp_Force_Field>
OPLS_2005

> <r_lp_Energy>
21.4946

> <b_lp_Chiralities_Consistent>
1

> <s_lp_Variant>
AV-unprocessed.smi:2302-6

> <Gold.Version>
5.8.1

> <Gold.Id.Protein>
6NUR|6NUR_protein|mol2

> <Gold.PLP.Fitness>
38.5101

> <Gold.PLP.PLP>
-33.1996

> <Gold.PLP.part.hbond>
-2.0000

> <Gold.PLP.part.metal>
0.0000

> <Gold.PLP.part.buried>
-4.1208

> <Gold.PLP.part.nonpolar>
-28.4287

> <Gold.PLP.part.repulsive>
1.8269

> <Gold.PLP.ligand.clash>
0.0000

> <Gold.PLP.ligand.torsion>
0.2621

> <Gold.PLP.Chemscore.Hbond>
1.9440

> <Gold.PLP.Chemscore.CHOScore>
0.0000

> <Gold.PLP.Chemscore.Metal>
0.0000

> <Gold.Chemscore.Hbonds>
donor molecule, donor type, donor heavy atom, donor atom, acceptor molecule, acceptor atom, score
      L1  H     7    26       P1  7948  1.00
      L1  H    10    27       P1  7948  0.94

> <Gold.PLP.Chemscore.Internal.Correction>
0.0027

> <Gold.Rescore>
     Score         DG    S(hbond)    S(metal)    S(lipo)     H(rot)  DE(clash)    DE(int)     intcor
     16.03     -17.88       1.95        0.00      77.69       1.25       0.16       1.69       ----

> <Gold.Chemscore.Fitness>
16.0301

> <Gold.Chemscore.DG>
-17.8800

> <Gold.Chemscore.ZeroCoef>
-5.4800

> <Gold.Chemscore.Hbond>
1.9496

> <Gold.Chemscore.Metal>
0.0000

> <Gold.Chemscore.Lipo>
77.6913

> <Gold.Chemscore.Internal_Hbond>
0.0000

> <Gold.Chemscore.DEClash>
0.1596

> <Gold.Chemscore.DEInternal>
1.6903

> <Gold.Chemscore.Rot>
1.2506

> <Gold.Chemscore.Internal.Correction>
   9.000000E+99

> <Gold.Chemscore.Hbonds>
donor molecule, donor type, donor heavy atom, donor atom, acceptor molecule, acceptor atom, score
      L1  H     7    26       P1  7948  0.98
      L1  H    10    27       P1  7948  0.91

> <Gold.Chemscore.Hbond.Weighted>
-6.5116

> <Gold.Chemscore.Metal.Weighted>
-0.0000

> <Gold.Chemscore.Lipo.Weighted>
-9.0899

> <Gold.Chemscore.Internal_Hbond.Weighted>
0.0000

> <Gold.Chemscore.DEClash.Weighted>
0.1596

> <Gold.Chemscore.DEInternal.Weighted>
1.6903

> <Gold.Chemscore.Rot.Weighted>
3.2015

> <Gold.Chemscore.Internal.Correction.Weighted>
   9.000000E+99

> <Gold.Protein.RotatedTorsions>
[ 6907 6896 6895 6894 ] final -123.83 input  -60.11 | X-H torsion
[ 7974 7965 7964 7962 ] final -159.38 input  175.53 | X-H torsion
[ 8008 7997 7996 7995 ] final  125.88 input   59.86 | X-H torsion
[ 10167 10162 10161 10158 ] final  -80.28 input  -65.29 | X-H torsion
[ 10718 10713 10712 10709 ] final  -74.38 input   66.30 | X-H torsion
[ 10763 10752 10751 10750 ] final -107.39 input  -60.55 | X-H torsion
[ 11005 11000 10999 10996 ] final -146.33 input  -57.11 | X-H torsion

> <Gold.Protein.ActiveResidues>
 VAL166  LYS551  ARG553  GLY616  TRP617  ASP618  TYR619  PRO620  LYS621  CYS622 
 ASP623  PHE694  ASN695  SER759  ASP760  ASP761  ALA762  ILE779  LEU786  VAL792 
 PHE793  MET794  SER795  GLU796  ALA797  LYS798  CYS799  TRP800  GLU811  SER814 

> <Gold.Protein.RotatedAtoms>
  150.8709  133.7507  159.2961 H   0  0  0  0  0  0  0  0  0  0  0  0  # atno 6907 bound_to 6896
  151.5119  135.1063  159.9865 H   0  0  0  0  0  0  0  0  0  0  0  0  # atno 6908 bound_to 6896
  152.4694  133.7951  159.6979 H   0  0  0  0  0  0  0  0  0  0  0  0  # atno 6909 bound_to 6896
  144.7467  140.3693  143.6079 H   0  0  0  0  0  0  0  0  0  0  0  0  # atno 7974 bound_to 7965
  156.2847  140.2706  156.2021 H   0  0  0  0  0  0  0  0  0  0  0  0  # atno 8008 bound_to 7997
  155.0351  140.0386  157.2506 H   0  0  0  0  0  0  0  0  0  0  0  0  # atno 8009 bound_to 7997
  154.7322  140.2709  155.6451 H   0  0  0  0  0  0  0  0  0  0  0  0  # atno 8010 bound_to 7997
  140.4517  143.2481  151.8479 H   0  0  0  0  0  0  0  0  0  0  0  0  # atno 10167 bound_to 10162
  156.0245  130.4415  150.2884 H   0  0  0  0  0  0  0  0  0  0  0  0  # atno 10718 bound_to 10713
  154.8072  135.4677  154.0422 H   0  0  0  0  0  0  0  0  0  0  0  0  # atno 10763 bound_to 10752
  153.1882  135.6851  153.8394 H   0  0  0  0  0  0  0  0  0  0  0  0  # atno 10764 bound_to 10752
  153.7921  135.3241  155.3357 H   0  0  0  0  0  0  0  0  0  0  0  0  # atno 10765 bound_to 10752
  140.7831  134.3055  157.5039 H   0  0  0  0  0  0  0  0  0  0  0  0  # atno 11005 bound_to 11000
  145.7094  139.1681  143.2547 LP  0  0  0  0  0  0  0  0  0  0  0  0  # atno 17320 bound_to 7965
  146.1357  140.7125  142.9391 LP  0  0  0  0  0  0  0  0  0  0  0  0  # atno 17321 bound_to 7965
  139.4797  144.5112  151.8930 LP  0  0  0  0  0  0  0  0  0  0  0  0  # atno 17342 bound_to 10162
  140.4199  144.2257  150.5887 LP  0  0  0  0  0  0  0  0  0  0  0  0  # atno 17343 bound_to 10162
  157.0987  131.0190  151.3094 LP  0  0  0  0  0  0  0  0  0  0  0  0  # atno 17370 bound_to 10713
  157.4797  130.7757  149.7402 LP  0  0  0  0  0  0  0  0  0  0  0  0  # atno 17371 bound_to 10713
  139.8740  134.9330  156.3570 LP  0  0  0  0  0  0  0  0  0  0  0  0  # atno 17394 bound_to 11000
  140.9463  133.7481  156.0212 LP  0  0  0  0  0  0  0  0  0  0  0  0  # atno 17395 bound_to 11000

$$$$
