#       Name:                AV-unprocessed.smi:169
#       Creating user name   scv26
#       Creation time:       Thu Mar 26 19:15:15 2020


#       File generated by GOLD software.
#

@<TRIPOS>MOLECULE
AV-unprocessed.smi:169
    64    68     1
SMALL
NO_CHARGES


@<TRIPOS>ATOM
      1 ****        -5.4131  -2.3727   0.0706 C.3            1 S1                 0.0000
      2 ****        -4.0576  -1.9674   0.6758 C.3            1 S1                 0.0000
      3 ****        -3.4840  -0.7299   0.0851 N.4            1 S1                 1.0000
      4 ****        -4.2950   0.4964   0.4143 C.3            1 S1                 0.0000
      5 ****        -3.5117   1.8589   0.3147 C.3            1 S1                 0.0000
      6 ****        -2.5201   1.9007  -0.8644 C.3            1 S1                 0.0000
      7 ****        -2.5466   2.3115  -2.3423 C.3            1 S1                 0.0000
      8 ****        -2.1745   0.9491  -3.0146 C.3            1 S1                 0.0000
      9 ****        -1.8750  -0.0326  -1.8330 C.3            1 S1                 0.0000
     10 ****        -3.0997  -0.9009  -1.3667 C.3            1 S1                 0.0000
     11 ****        -1.5048   0.8677  -0.7583 N.3            1 S1                 0.0000
     12 ****        -0.2014   1.2061  -0.5780 C.ar           1 S1                 0.0000
     13 ****         0.1357   2.5148  -0.4297 N.ar           1 S1                 0.0000
     14 ****         1.4103   2.8681  -0.2424 C.ar           1 S1                 0.0000
     15 ****         2.4878   2.0865  -0.1567 N.ar           1 S1                 0.0000
     16 ****         2.1550   0.7696  -0.2776 C.ar           1 S1                 0.0000
     17 ****         0.8479   0.2471  -0.4912 C.ar           1 S1                 0.0000
     18 ****         0.9010  -1.1404  -0.5539 N.2            1 S1                 0.0000
     19 ****         2.1667  -1.4197  -0.4033 C.2            1 S1                 0.0000
     20 ****         2.9901  -0.3330  -0.2112 N.pl3          1 S1                 0.0000
     21 ****         4.4329  -0.3493  -0.0086 C.3            1 S1                 0.0000
     22 ****         4.8869  -0.5540   1.4560 C.3            1 S1                 0.0000
     23 ****         6.4135  -0.3604   1.4595 C.3            1 S1                 0.0000
     24 ****         6.9884  -0.5509   2.7368 O.3            1 S1                 0.0000
     25 ****         4.0782   0.1742   2.5456 C.3            1 S1                 0.0000
     26 ****         3.3329  -1.0235   2.8579 O.3            1 S1                 0.0000
     27 ****         4.3331  -1.8025   2.1651 C.3            1 S1                 0.0000
     28 ****        -5.7776  -3.2901   0.5334 H              1 S1                 0.0000
     29 ****        -5.3395  -2.5578  -1.0010 H              1 S1                 0.0000
     30 ****        -6.1728  -1.6073   0.2292 H              1 S1                 0.0000
     31 ****        -4.1644  -1.8313   1.7527 H              1 S1                 0.0000
     32 ****        -3.3434  -2.7825   0.5514 H              1 S1                 0.0000
     33 ****        -5.1648   0.5239  -0.2439 H              1 S1                 0.0000
     34 ****        -4.6923   0.4131   1.4268 H              1 S1                 0.0000
     35 ****        -4.2124   2.6940   0.2631 H              1 S1                 0.0000
     36 ****        -2.9455   2.0039   1.2354 H              1 S1                 0.0000
     37 ****        -3.4208   1.4641  -1.2789 H              1 S1                 0.0000
     38 ****        -3.4898   2.7365  -2.7006 H              1 S1                 0.0000
     39 ****        -1.7679   3.0492  -2.5395 H              1 S1                 0.0000
     40 ****        -2.9667   0.5778  -3.6653 H              1 S1                 0.0000
     41 ****        -1.2847   1.0801  -3.6318 H              1 S1                 0.0000
     42 ****        -1.0602  -0.6953  -2.1199 H              1 S1                 0.0000
     43 ****        -2.8336  -1.9439  -1.5436 H              1 S1                 0.0000
     44 ****        -3.9742  -0.7173  -1.9922 H              1 S1                 0.0000
     45 ****         1.5922   3.9281  -0.1428 H              1 S1                 0.0000
     46 ****         2.5334  -2.4354  -0.4231 H              1 S1                 0.0000
     47 ****         4.8446  -1.1352  -0.6431 H              1 S1                 0.0000
     48 ****         4.8303   0.5864  -0.4043 H              1 S1                 0.0000
     49 ****         6.8926  -1.0574   0.7711 H              1 S1                 0.0000
     50 ****         6.6764   0.6433   1.1234 H              1 S1                 0.0000
     51 ****         7.9227  -0.4255   2.6687 H              1 S1                 0.0000
     52 ****         4.6697   0.5091   3.3990 H              1 S1                 0.0000
     53 ****         3.4475   0.9857   2.1870 H              1 S1                 0.0000
     54 ****         3.9057  -2.5504   1.4991 H              1 S1                 0.0000
     55 ****         5.0257  -2.2738   2.8640 H              1 S1                 0.0000
     56 ****        -2.6082  -0.6078   0.5739 H              1 S1                 0.0000
     57 ****        -1.5113   0.4219   0.1368 LP             1 S1                 0.0000
     58 ****        -0.5751   3.2175  -0.4610 LP             1 S1                 0.0000
     59 ****         3.4197   2.4230  -0.0212 LP             1 S1                 0.0000
     60 ****         0.1425  -1.7788  -0.6845 LP             1 S1                 0.0000
     61 ****         6.7955  -1.4779   3.0583 LP             1 S1                 0.0000
     62 ****         6.6056   0.1116   3.3808 LP             1 S1                 0.0000
     63 ****         2.4233  -1.0611   2.4443 LP             1 S1                 0.0000
     64 ****         3.2628  -1.2207   3.8358 LP             1 S1                 0.0000
@<TRIPOS>BOND
    1    1    2 1     
    2    1   28 1     
    3    1   29 1     
    4    1   30 1     
    5    2    3 1     
    6    2   31 1     
    7    2   32 1     
    8    3   10 1     
    9    3    4 1     
   10    3   56 1     
   11    4    5 1     
   12    4   33 1     
   13    4   34 1     
   14    5    6 1     
   15    5   35 1     
   16    5   36 1     
   17    6   11 1     
   18    6    7 1     
   19    6   37 1     
   20    7    8 1     
   21    7   38 1     
   22    7   39 1     
   23    8    9 1     
   24    8   40 1     
   25    8   41 1     
   26    9   10 1     
   27    9   11 1     
   28    9   42 1     
   29   10   43 1     
   30   10   44 1     
   31   11   12 1     
   32   12   17 ar    
   33   12   13 ar    
   34   13   14 ar    
   35   14   15 ar    
   36   14   45 1     
   37   15   16 ar    
   38   16   20 1     
   39   16   17 ar    
   40   17   18 1     
   41   18   19 2     
   42   19   20 1     
   43   19   46 1     
   44   20   21 1     
   45   21   22 1     
   46   21   47 1     
   47   21   48 1     
   48   22   27 1     
   49   22   23 1     
   50   22   25 1     
   51   23   24 1     
   52   23   49 1     
   53   23   50 1     
   54   24   51 1     
   55   25   26 1     
   56   25   52 1     
   57   25   53 1     
   58   26   27 1     
   59   27   54 1     
   60   27   55 1     
   61   11   57 1     
   62   13   58 1     
   63   15   59 1     
   64   18   60 1     
   65   24   61 1     
   66   24   62 1     
   67   26   63 1     
   68   26   64 1     
@<TRIPOS>SUBSTRUCTURE
      1 S1             1
@<TRIPOS>SET
LONE_PAIRS      STATIC     ATOMS    <user>   **** ""
8 57 58 59 60 61 62 63 64
DONOR_HYDROGENS      STATIC     ATOMS    <user>   **** ""
2 56 51
ATOM$BLUE        STATIC     ATOMS    COLORGROUP SYSTEM
8 57 58 59 60 61 62 63 64
ATOM$RED        STATIC     ATOMS    COLORGROUP SYSTEM
2 56 51
