AV-unprocessed.smi:546|AV-procd|sdf|2887|dock1
  -GOLD-   2262023383D 1   1.00000     0.00000
 Structure written by MMmdl.
 51 53  0  0  0  0  0  0  0  0  2 V2000
  148.8233  132.6308  153.4412 C   0  0  0  0  0  0  0  0  0  0  0  0
  149.6033  132.8105  154.7451 C   0  0  0  0  0  0  0  0  0  0  0  0
  148.7223  133.3217  155.7284 O   0  0  0  0  0  0  0  0  0  0  0  0
  149.3790  134.0959  156.7170 C   0  0  0  0  0  0  0  0  0  0  0  0
  148.3841  135.0559  157.3866 C   0  0  0  0  0  0  0  0  0  0  0  0
  149.0555  136.2166  157.9623 N   0  0  0  0  0  0  0  0  0  0  0  0
  148.9260  136.6989  159.2240 C   0  0  0  0  0  0  0  0  0  0  0  0
  148.0478  136.1186  160.1355 N   0  0  0  0  0  0  0  0  0  0  0  0
  148.0212  134.6727  160.3429 C   0  0  0  0  0  0  0  0  0  0  0  0
  147.6814  134.2867  161.7932 C   0  0  2  0  0  0  0  0  0  0  0  0
  147.6999  132.7642  161.9847 C   0  0  0  0  0  0  0  0  0  0  0  0
  146.3193  134.8848  162.1791 C   0  0  0  0  0  0  0  0  0  0  0  0
  146.2877  136.3999  161.9181 C   0  0  1  0  0  0  0  0  0  0  0  0
  147.0497  137.1968  162.9892 C   0  0  0  0  0  0  0  0  0  0  0  0
  146.7560  136.7148  160.4787 C   0  0  0  0  0  0  0  0  0  0  0  0
  149.6730  137.7696  159.4979 N   0  0  0  0  0  0  0  0  0  0  0  0
  150.3348  137.9908  158.2991 C   0  0  0  0  0  0  0  0  0  0  0  0
  149.9783  137.0765  157.3576 C   0  0  0  0  0  0  0  0  0  0  0  0
  150.5155  137.0659  155.9790 C   0  0  0  0  0  0  0  0  0  0  0  0
  150.1481  136.2277  155.1581 O   0  0  0  0  0  0  0  0  0  0  0  0
  151.4237  138.0714  155.7719 N   0  5  0  0  0  0  0  0  0  0  0  0
  151.8154  139.0158  156.6967 C   0  0  0  0  0  0  0  0  0  0  0  0
  152.6424  139.8845  156.4186 O   0  0  0  0  0  0  0  0  0  0  0  0
  151.2777  138.9963  157.9587 N   0  0  0  0  0  0  0  0  0  0  0  0
  151.6365  139.9680  158.9964 C   0  0  0  0  0  0  0  0  0  0  0  0
  149.4658  132.2408  152.6520 H   0  0  0  0  0  0  0  0  0  0  0  0
  148.4106  133.5805  153.0998 H   0  0  0  0  0  0  0  0  0  0  0  0
  147.9946  131.9352  153.5748 H   0  0  0  0  0  0  0  0  0  0  0  0
  150.0175  131.8551  155.0703 H   0  0  0  0  0  0  0  0  0  0  0  0
  150.4354  133.4984  154.5882 H   0  0  0  0  0  0  0  0  0  0  0  0
  149.8306  133.4439  157.4657 H   0  0  0  0  0  0  0  0  0  0  0  0
  150.1810  134.6658  156.2495 H   0  0  0  0  0  0  0  0  0  0  0  0
  147.6292  135.3870  156.6756 H   0  0  0  0  0  0  0  0  0  0  0  0
  147.8325  134.5370  158.1704 H   0  0  0  0  0  0  0  0  0  0  0  0
  147.3008  134.2306  159.6534 H   0  0  0  0  0  0  0  0  0  0  0  0
  148.9961  134.2632  160.0751 H   0  0  0  0  0  0  0  0  0  0  0  0
  148.4472  134.7062  162.4467 H   0  0  0  0  0  0  0  0  0  0  0  0
  146.9578  132.2753  161.3526 H   0  0  0  0  0  0  0  0  0  0  0  0
  147.4850  132.4960  163.0195 H   0  0  0  0  0  0  0  0  0  0  0  0
  148.6767  132.3499  161.7333 H   0  0  0  0  0  0  0  0  0  0  0  0
  145.5368  134.4064  161.5882 H   0  0  0  0  0  0  0  0  0  0  0  0
  146.0864  134.6718  163.2230 H   0  0  0  0  0  0  0  0  0  0  0  0
  145.2471  136.7178  161.9935 H   0  0  0  0  0  0  0  0  0  0  0  0
  148.1158  136.9741  162.9820 H   0  0  0  0  0  0  0  0  0  0  0  0
  146.6732  136.9689  163.9867 H   0  0  0  0  0  0  0  0  0  0  0  0
  146.9301  138.2693  162.8361 H   0  0  0  0  0  0  0  0  0  0  0  0
  146.8079  137.7944  160.3327 H   0  0  0  0  0  0  0  0  0  0  0  0
  146.0163  136.3476  159.7660 H   0  0  0  0  0  0  0  0  0  0  0  0
  152.3194  140.7506  158.6648 H   0  0  0  0  0  0  0  0  0  0  0  0
  152.1082  139.4556  159.8352 H   0  0  0  0  0  0  0  0  0  0  0  0
  150.7384  140.4617  159.3686 H   0  0  0  0  0  0  0  0  0  0  0  0
  1  2  1  0  0  0  0
  1 26  1  0  0  0  0
  1 27  1  0  0  0  0
  1 28  1  0  0  0  0
  2  3  1  0  0  0  0
  2 29  1  0  0  0  0
  2 30  1  0  0  0  0
  3  4  1  0  0  0  0
  4  5  1  0  0  0  0
  4 31  1  0  0  0  0
  4 32  1  0  0  0  0
  5  6  1  0  0  0  0
  5 33  1  0  0  0  0
  5 34  1  0  0  0  0
  6 18  1  0  0  0  0
  6  7  1  0  0  0  0
  7  8  1  0  0  0  0
  7 16  2  0  0  0  0
  8 15  1  0  0  0  0
  8  9  1  0  0  0  0
  9 10  1  0  0  0  0
  9 35  1  0  0  0  0
  9 36  1  0  0  0  0
 10 11  1  0  0  0  0
 10 12  1  0  0  0  0
 10 37  1  0  0  0  0
 11 38  1  0  0  0  0
 11 39  1  0  0  0  0
 11 40  1  0  0  0  0
 12 13  1  0  0  0  0
 12 41  1  0  0  0  0
 12 42  1  0  0  0  0
 13 14  1  0  0  0  0
 13 15  1  0  0  0  0
 13 43  1  0  0  0  0
 14 44  1  0  0  0  0
 14 45  1  0  0  0  0
 14 46  1  0  0  0  0
 15 47  1  0  0  0  0
 15 48  1  0  0  0  0
 16 17  1  0  0  0  0
 17 24  1  0  0  0  0
 17 18  2  0  0  0  0
 18 19  1  0  0  0  0
 19 20  2  0  0  0  0
 19 21  1  0  0  0  0
 21 22  1  0  0  0  0
 22 23  2  0  0  0  0
 22 24  1  0  0  0  0
 24 25  1  0  0  0  0
 25 49  1  0  0  0  0
 25 50  1  0  0  0  0
 25 51  1  0  0  0  0
M  CHG  1  21  -1
M  END
> <s_m_source_file>
AV-unprocessed.smi

> <i_m_source_file_index>
546

> <i_lp_mmshare_version>
43012

> <i_f3d_flags>
0

> <s_epik_input>
W0NIM11uMWMoPU8pW25IXWMoPU8pYyhjMTIpbihbQ0gyXVtDSDJdT1tDSDJdW0NIM10pYyhuMilOM1tDSDJdW0NAQEhdKFtDSDNdKVtDSDJdW0NAQEhdKFtDSDNdKVtDSDJdMw==

> <s_epik_cmdline>
J2VwaWtfcHl0aG9uJywgJy1waCcsICc3LjAnLCAnLXRuJywgJzgnLCAnLW1hJywgJzIwMCcsICctbWV0YWxfYmluZGluZycsICctaW1hZScsICc8aW5maWxlLm1hZT4nLCAnLW9tYWUnLCAnPG91dGZpbGUubWFlPic=

> <r_lp_tautomer_probability>
1

> <r_epik_Ionization_Penalty>
5.12825

> <r_epik_Ionization_Penalty_Charging>
0.0743105

> <r_epik_Ionization_Penalty_Neutral>
5.05394

> <r_epik_State_Penalty>
5.04406

> <r_epik_Charging_Adjusted_Penalty>
5.11837

> <i_epik_Tot_Q>
-1

> <i_epik_Tot_abs_Q>
1

> <r_epik_Metal_State_Penalty>
1.15122

> <b_epik_Metal_Only>
1

> <s_lp_Force_Field>
OPLS_2005

> <r_lp_Energy>
46.3243

> <b_lp_Chiralities_Consistent>
1

> <s_lp_Variant>
AV-unprocessed.smi:546-5

> <Gold.Version>
5.8.1

> <Gold.Id.Protein>
6NUR|6NUR_protein|mol2

> <Gold.PLP.Fitness>
36.8717

> <Gold.PLP.PLP>
-36.0352

> <Gold.PLP.part.hbond>
-2.0000

> <Gold.PLP.part.metal>
0.0000

> <Gold.PLP.part.buried>
-4.4594

> <Gold.PLP.part.nonpolar>
-29.8296

> <Gold.PLP.part.repulsive>
0.1825

> <Gold.PLP.ligand.clash>
0.0000

> <Gold.PLP.ligand.torsion>
1.6093

> <Gold.PLP.Chemscore.Hbond>
1.0000

> <Gold.PLP.Chemscore.CHOScore>
0.0000

> <Gold.PLP.Chemscore.Metal>
0.0000

> <Gold.Chemscore.Hbonds>
donor molecule, donor type, donor heavy atom, donor atom, acceptor molecule, acceptor atom, score
      P1  H  7997  8008       L1    23  0.98

> <Gold.PLP.Chemscore.Internal.Correction>
1.0550

> <Gold.Rescore>
     Score         DG    S(hbond)    S(metal)    S(lipo)     H(rot)  DE(clash)    DE(int)     intcor
     11.62     -13.28       1.00        0.00      71.38       1.52       0.00       1.66       ----

> <Gold.Chemscore.Fitness>
11.6182

> <Gold.Chemscore.DG>
-13.2773

> <Gold.Chemscore.ZeroCoef>
-5.4800

> <Gold.Chemscore.Hbond>
0.9996

> <Gold.Chemscore.Metal>
0.0000

> <Gold.Chemscore.Lipo>
71.3783

> <Gold.Chemscore.Internal_Hbond>
0.0000

> <Gold.Chemscore.DEClash>
0.0000

> <Gold.Chemscore.DEInternal>
1.6590

> <Gold.Chemscore.Rot>
1.5206

> <Gold.Chemscore.Internal.Correction>
   9.000000E+99

> <Gold.Chemscore.Hbonds>
donor molecule, donor type, donor heavy atom, donor atom, acceptor molecule, acceptor atom, score
      P1  H  7997  8008       L1    23  0.93

> <Gold.Chemscore.Hbond.Weighted>
-3.3387

> <Gold.Chemscore.Metal.Weighted>
-0.0000

> <Gold.Chemscore.Lipo.Weighted>
-8.3513

> <Gold.Chemscore.Internal_Hbond.Weighted>
0.0000

> <Gold.Chemscore.DEClash.Weighted>
0.0000

> <Gold.Chemscore.DEInternal.Weighted>
1.6590

> <Gold.Chemscore.Rot.Weighted>
3.8926

> <Gold.Chemscore.Internal.Correction.Weighted>
   9.000000E+99

> <Gold.Protein.RotatedTorsions>
[ 6907 6896 6895 6894 ] final  -64.46 input  -60.11 | X-H torsion
[ 7974 7965 7964 7962 ] final  -14.15 input  175.53 | X-H torsion
[ 8008 7997 7996 7995 ] final  -26.97 input   59.86 | X-H torsion
[ 10167 10162 10161 10158 ] final  124.77 input  -65.29 | X-H torsion
[ 10718 10713 10712 10709 ] final   98.70 input   66.30 | X-H torsion
[ 10763 10752 10751 10750 ] final  178.90 input  -60.55 | X-H torsion
[ 11005 11000 10999 10996 ] final  112.54 input  -57.11 | X-H torsion

> <Gold.Protein.ActiveResidues>
 VAL166  LYS551  ARG553  GLY616  TRP617  ASP618  TYR619  PRO620  LYS621  CYS622 
 ASP623  PHE694  ASN695  SER759  ASP760  ASP761  ALA762  ILE779  LEU786  VAL792 
 PHE793  MET794  SER795  GLU796  ALA797  LYS798  CYS799  TRP800  GLU811  SER814 

> <Gold.Protein.RotatedAtoms>
  150.7584  134.6295  159.6178 H   0  0  0  0  0  0  0  0  0  0  0  0  # atno 6907 bound_to 6896
  152.3577  134.6914  160.0226 H   0  0  0  0  0  0  0  0  0  0  0  0  # atno 6908 bound_to 6896
  151.7314  133.3282  159.3378 H   0  0  0  0  0  0  0  0  0  0  0  0  # atno 6909 bound_to 6896
  146.2086  140.3306  142.8398 H   0  0  0  0  0  0  0  0  0  0  0  0  # atno 7974 bound_to 7965
  154.4399  140.1885  156.0858 H   0  0  0  0  0  0  0  0  0  0  0  0  # atno 8008 bound_to 7997
  156.0403  140.3320  155.7210 H   0  0  0  0  0  0  0  0  0  0  0  0  # atno 8009 bound_to 7997
  155.5709  140.0612  157.2797 H   0  0  0  0  0  0  0  0  0  0  0  0  # atno 8010 bound_to 7997
  139.5723  144.6945  151.3746 H   0  0  0  0  0  0  0  0  0  0  0  0  # atno 10167 bound_to 10162
  157.6890  131.0648  150.4835 H   0  0  0  0  0  0  0  0  0  0  0  0  # atno 10718 bound_to 10713
  154.5137  135.2790  155.1321 H   0  0  0  0  0  0  0  0  0  0  0  0  # atno 10763 bound_to 10752
  154.2906  135.6267  153.5387 H   0  0  0  0  0  0  0  0  0  0  0  0  # atno 10764 bound_to 10752
  152.9923  135.5673  154.5609 H   0  0  0  0  0  0  0  0  0  0  0  0  # atno 10765 bound_to 10752
  139.8930  134.9532  156.6602 H   0  0  0  0  0  0  0  0  0  0  0  0  # atno 11005 bound_to 11000
  144.8855  140.7456  143.5959 LP  0  0  0  0  0  0  0  0  0  0  0  0  # atno 17320 bound_to 7965
  145.3227  139.1783  143.4579 LP  0  0  0  0  0  0  0  0  0  0  0  0  # atno 17321 bound_to 7965
  140.7007  143.7639  150.7398 LP  0  0  0  0  0  0  0  0  0  0  0  0  # atno 17342 bound_to 10162
  140.1149  143.4665  152.2348 LP  0  0  0  0  0  0  0  0  0  0  0  0  # atno 17343 bound_to 10162
  156.5166  130.4152  149.6273 LP  0  0  0  0  0  0  0  0  0  0  0  0  # atno 17370 bound_to 10713
  156.3192  130.7271  151.2180 LP  0  0  0  0  0  0  0  0  0  0  0  0  # atno 17371 bound_to 10713
  140.7453  133.8943  155.8307 LP  0  0  0  0  0  0  0  0  0  0  0  0  # atno 17394 bound_to 11000
  141.0045  134.1105  157.4284 LP  0  0  0  0  0  0  0  0  0  0  0  0  # atno 17395 bound_to 11000

$$$$
