#       Name:                AV-unprocessed.smi:2001
#       Creating user name   scv26
#       Creation time:       Fri Mar 27 10:32:59 2020


#       File generated by GOLD software.
#

@<TRIPOS>MOLECULE
AV-unprocessed.smi:2001
    60    61     1
SMALL
NO_CHARGES


@<TRIPOS>ATOM
      1 ****        -6.6595  -2.5705   1.9190 C.3            1 S1                 0.0000
      2 ****        -6.1709  -2.5158   0.5902 O.3            1 S1                 0.0000
      3 ****        -5.5974  -1.2586   0.2746 C.3            1 S1                 0.0000
      4 ****        -5.1100  -1.2871  -1.1816 C.3            1 S1                 0.0000
      5 ****        -4.4748  -0.0214  -1.5625 N.am           1 S1                 0.0000
      6 ****        -3.0931  -0.0310  -1.4667 N.2            1 S1                 0.0000
      7 ****        -2.4126   1.0249  -1.7773 C.2            1 S1                 0.0000
      8 ****        -0.9258   1.0537  -1.6970 C.2            1 S1                 0.0000
      9 ****        -0.2767   2.0488  -2.0236 O.2            1 S1                 0.0000
     10 ****        -0.3494  -0.0770  -1.2499 N.am           1 S1                 0.0000
     11 ****         1.0865  -0.2908  -1.1163 C.3            1 S1                 0.0000
     12 ****         1.6464   0.3887   0.1478 C.3            1 S1                 0.0000
     13 ****         3.0985   0.3081   0.2927 N.3            1 S1                 0.0000
     14 ****         3.5652  -1.0532   0.5466 C.3            1 S1                 0.0000
     15 ****         5.0953  -1.1348   0.7239 C.3            1 S1                 0.0000
     16 ****         5.8696  -0.9838  -0.5967 C.3            1 S1                 0.0000
     17 ****         5.5334  -0.1938   1.7056 O.3            1 S1                 0.0000
     18 ****         5.1007   1.1493   1.4963 C.3            1 S1                 0.0000
     19 ****         5.5937   1.9987   2.6723 C.3            1 S1                 0.0000
     20 ****         3.5674   1.1765   1.3648 C.3            1 S1                 0.0000
     21 ****        -3.0805   2.2355  -2.2251 C.2            1 S1                 0.0000
     22 ****        -4.4290   2.2315  -2.3071 C.2            1 S1                 0.0000
     23 ****        -5.2225   1.0513  -1.9616 C.2            1 S1                 0.0000
     24 ****        -6.4514   1.0255  -2.0218 O.2            1 S1                 0.0000
     25 ****        -7.0889  -3.5536   2.1116 H              1 S1                 0.0000
     26 ****        -7.4389  -1.8254   2.0835 H              1 S1                 0.0000
     27 ****        -5.8585  -2.4057   2.6408 H              1 S1                 0.0000
     28 ****        -6.3368  -0.4682   0.4136 H              1 S1                 0.0000
     29 ****        -4.7623  -1.0513   0.9458 H              1 S1                 0.0000
     30 ****        -4.4051  -2.1104  -1.3113 H              1 S1                 0.0000
     31 ****        -5.9430  -1.5113  -1.8506 H              1 S1                 0.0000
     32 ****        -0.9519  -0.8483  -1.0006 H              1 S1                 0.0000
     33 ****         1.2513  -1.3671  -1.0817 H              1 S1                 0.0000
     34 ****         1.6003   0.0761  -2.0064 H              1 S1                 0.0000
     35 ****         1.3608   1.4410   0.1167 H              1 S1                 0.0000
     36 ****         1.1619  -0.0254   1.0334 H              1 S1                 0.0000
     37 ****         3.0858  -1.4365   1.4486 H              1 S1                 0.0000
     38 ****         3.2695  -1.7178  -0.2642 H              1 S1                 0.0000
     39 ****         5.3340  -2.1223   1.1199 H              1 S1                 0.0000
     40 ****         5.6039  -1.7783  -1.2943 H              1 S1                 0.0000
     41 ****         6.9447  -1.0406  -0.4259 H              1 S1                 0.0000
     42 ****         5.6593  -0.0350  -1.0898 H              1 S1                 0.0000
     43 ****         5.5514   1.5369   0.5821 H              1 S1                 0.0000
     44 ****         5.2970   3.0411   2.5542 H              1 S1                 0.0000
     45 ****         6.6811   1.9694   2.7453 H              1 S1                 0.0000
     46 ****         5.1862   1.6388   3.6173 H              1 S1                 0.0000
     47 ****         3.2435   2.2009   1.1773 H              1 S1                 0.0000
     48 ****         3.1130   0.8741   2.3097 H              1 S1                 0.0000
     49 ****        -2.5202   3.1215  -2.4864 H              1 S1                 0.0000
     50 ****        -4.9388   3.1248  -2.6373 H              1 S1                 0.0000
     51 ****        -6.9295  -2.6891  -0.0379 LP             1 S1                 0.0000
     52 ****        -5.4745  -3.2241   0.4751 LP             1 S1                 0.0000
     53 ****        -2.6203  -0.8559  -1.1567 LP             1 S1                 0.0000
     54 ****        -0.7478   2.8668  -2.3535 LP             1 S1                 0.0000
     55 ****         0.7211   2.0383  -1.9587 LP             1 S1                 0.0000
     56 ****         3.4786   0.6106  -0.5813 LP             1 S1                 0.0000
     57 ****         6.5333  -0.1988   1.7142 LP             1 S1                 0.0000
     58 ****         5.1909  -0.4938   2.5960 LP             1 S1                 0.0000
     59 ****        -6.9469   0.1934  -1.7724 LP             1 S1                 0.0000
     60 ****        -6.9546   1.8366  -2.3200 LP             1 S1                 0.0000
@<TRIPOS>BOND
    1    1    2 1     
    2    1   25 1     
    3    1   26 1     
    4    1   27 1     
    5    2    3 1     
    6    3    4 1     
    7    3   28 1     
    8    3   29 1     
    9    4    5 1     
   10    4   30 1     
   11    4   31 1     
   12    5   23 am    
   13    5    6 1     
   14    6    7 2     
   15    7    8 1     
   16    7   21 1     
   17    8    9 2     
   18    8   10 am    
   19   10   11 1     
   20   10   32 1     
   21   11   12 1     
   22   11   33 1     
   23   11   34 1     
   24   12   13 1     
   25   12   35 1     
   26   12   36 1     
   27   13   20 1     
   28   13   14 1     
   29   14   15 1     
   30   14   37 1     
   31   14   38 1     
   32   15   16 1     
   33   15   17 1     
   34   15   39 1     
   35   16   40 1     
   36   16   41 1     
   37   16   42 1     
   38   17   18 1     
   39   18   19 1     
   40   18   20 1     
   41   18   43 1     
   42   19   44 1     
   43   19   45 1     
   44   19   46 1     
   45   20   47 1     
   46   20   48 1     
   47   21   22 2     
   48   21   49 1     
   49   22   23 1     
   50   22   50 1     
   51   23   24 2     
   52    2   51 1     
   53    2   52 1     
   54    6   53 1     
   55    9   54 1     
   56    9   55 1     
   57   13   56 1     
   58   17   57 1     
   59   17   58 1     
   60   24   59 1     
   61   24   60 1     
@<TRIPOS>SUBSTRUCTURE
      1 S1             1
@<TRIPOS>SET
LONE_PAIRS      STATIC     ATOMS    <user>   **** ""
10 51 52 53 54 55 56 57 58 59 60
DONOR_HYDROGENS      STATIC     ATOMS    <user>   **** ""
1 32
ATOM$BLUE        STATIC     ATOMS    COLORGROUP SYSTEM
10 51 52 53 54 55 56 57 58 59 60
ATOM$RED        STATIC     ATOMS    COLORGROUP SYSTEM
1 32
