AV-unprocessed.smi:1622|AV-procd|sdf|6500|dock5
  -GOLD-   22720 7163D 1   1.00000     0.00000
 Structure written by MMmdl.
 40 41  0  0  0  0  0  0  0  0  3 V2000
  149.7220  132.3139  154.8948 C   0  0  0  0  0  0  0  0  0  0  0  0
  149.0941  132.8765  153.6100 C   0  0  0  0  0  0  0  0  0  0  0  0
  147.8275  133.7475  153.8333 C   0  0  1  0  0  0  0  0  0  0  0  0
  148.1028  134.9657  154.7495 C   0  0  0  0  0  0  0  0  0  0  0  0
  149.3760  135.6037  154.4373 N   0  0  0  0  0  0  0  0  0  0  0  0
  150.3763  135.8050  155.3045 C   0  0  0  0  0  0  0  0  0  0  0  0
  150.2619  135.4274  156.4728 O   0  0  0  0  0  0  0  0  0  0  0  0
  151.4438  136.4332  154.7631 N   0  5  0  0  0  0  0  0  0  0  0  0
  151.6916  137.7184  155.0653 C   0  0  0  0  0  0  0  0  0  0  0  0
  152.7414  138.3852  154.5645 N   0  0  0  0  0  0  0  0  0  0  0  0
  152.8086  139.7006  155.0006 N   0  0  0  0  0  0  0  0  0  0  0  0
  151.8009  140.0114  155.8194 C   0  0  0  0  0  0  0  0  0  0  0  0
  151.6437  141.3642  156.4243 C   0  0  0  0  0  0  0  0  0  0  0  0
  150.6750  138.6987  156.1217 S   0  0  0  0  0  0  0  0  0  0  0  0
  147.2093  134.1670  152.5403 N   0  3  0  0  0  0  0  0  0  0  0  0
  146.8044  133.0619  151.6423 C   0  0  0  0  0  0  0  0  0  0  0  0
  145.7554  133.6371  150.6845 C   0  0  0  0  0  0  0  0  0  0  0  0
  145.3254  134.9722  151.2964 C   0  0  0  0  0  0  0  0  0  0  0  0
  146.0148  135.0300  152.6593 C   0  0  0  0  0  0  0  0  0  0  0  0
  150.6228  131.7455  154.6632 H   0  0  0  0  0  0  0  0  0  0  0  0
  149.0388  131.6411  155.4132 H   0  0  0  0  0  0  0  0  0  0  0  0
  150.0034  133.1082  155.5859 H   0  0  0  0  0  0  0  0  0  0  0  0
  149.8493  133.4417  153.0641 H   0  0  0  0  0  0  0  0  0  0  0  0
  148.8535  132.0428  152.9499 H   0  0  0  0  0  0  0  0  0  0  0  0
  147.0964  133.1190  154.3449 H   0  0  0  0  0  0  0  0  0  0  0  0
  147.2898  135.6888  154.6653 H   0  0  0  0  0  0  0  0  0  0  0  0
  148.1475  134.6645  155.7960 H   0  0  0  0  0  0  0  0  0  0  0  0
  149.5123  135.9247  153.4900 H   0  0  0  0  0  0  0  0  0  0  0  0
  151.4525  142.1019  155.6450 H   0  0  0  0  0  0  0  0  0  0  0  0
  152.5517  141.6436  156.9591 H   0  0  0  0  0  0  0  0  0  0  0  0
  150.8094  141.3720  157.1258 H   0  0  0  0  0  0  0  0  0  0  0  0
  147.6573  132.6475  151.1039 H   0  0  0  0  0  0  0  0  0  0  0  0
  146.3548  132.2598  152.2300 H   0  0  0  0  0  0  0  0  0  0  0  0
  146.1806  133.7970  149.6929 H   0  0  0  0  0  0  0  0  0  0  0  0
  144.9126  132.9540  150.5729 H   0  0  0  0  0  0  0  0  0  0  0  0
  145.6752  135.7926  150.6683 H   0  0  0  0  0  0  0  0  0  0  0  0
  144.2420  135.0622  151.3830 H   0  0  0  0  0  0  0  0  0  0  0  0
  145.3492  134.6280  153.4251 H   0  0  0  0  0  0  0  0  0  0  0  0
  146.2715  136.0532  152.9351 H   0  0  0  0  0  0  0  0  0  0  0  0
  147.9001  134.7060  152.0378 H   0  0  0  0  0  0  0  0  0  0  0  0
  1  2  1  0  0  0  0
  1 20  1  0  0  0  0
  1 21  1  0  0  0  0
  1 22  1  0  0  0  0
  2  3  1  0  0  0  0
  2 23  1  0  0  0  0
  2 24  1  0  0  0  0
  3  4  1  0  0  0  0
  3 15  1  0  0  0  0
  3 25  1  0  0  0  0
  4  5  1  0  0  0  0
  4 26  1  0  0  0  0
  4 27  1  0  0  0  0
  5  6  1  0  0  0  0
  5 28  1  0  0  0  0
  6  7  2  0  0  0  0
  6  8  1  0  0  0  0
  8  9  1  0  0  0  0
  9 14  1  0  0  0  0
  9 10  2  0  0  0  0
 10 11  1  0  0  0  0
 11 12  2  0  0  0  0
 12 13  1  0  0  0  0
 12 14  1  0  0  0  0
 13 29  1  0  0  0  0
 13 30  1  0  0  0  0
 13 31  1  0  0  0  0
 15 19  1  0  0  0  0
 15 16  1  0  0  0  0
 15 40  1  0  0  0  0
 16 17  1  0  0  0  0
 16 32  1  0  0  0  0
 16 33  1  0  0  0  0
 17 18  1  0  0  0  0
 17 34  1  0  0  0  0
 17 35  1  0  0  0  0
 18 19  1  0  0  0  0
 18 36  1  0  0  0  0
 18 37  1  0  0  0  0
 19 38  1  0  0  0  0
 19 39  1  0  0  0  0
M  CHG  1   8  -1
M  CHG  1  15   1
M  END
> <s_m_source_file>
AV-unprocessed.smi

> <i_m_source_file_index>
1622

> <i_lp_mmshare_version>
43012

> <i_f3d_flags>
0

> <s_epik_input>
W0NIMl0xW0NIMl1bQ0gyXVtDSDJdTjFbQ0BIXShbQ0gyXVtDSDNdKVtDSDJdW05IXUMoPU8pW05IXWMybm5jKHMyKVtDSDNd

> <s_epik_cmdline>
J2VwaWtfcHl0aG9uJywgJy1waCcsICc3LjAnLCAnLXRuJywgJzgnLCAnLW1hJywgJzIwMCcsICctbWV0YWxfYmluZGluZycsICctaW1hZScsICc8aW5maWxlLm1hZT4nLCAnLW9tYWUnLCAnPG91dGZpbGUubWFlPic=

> <r_lp_tautomer_probability>
1

> <r_epik_Ionization_Penalty>
4.34497

> <r_epik_Ionization_Penalty_Charging>
4.23453

> <r_epik_Ionization_Penalty_Neutral>
0.110433

> <r_epik_State_Penalty>
4.23293

> <r_epik_Charging_Adjusted_Penalty>
8.46746

> <i_epik_Tot_Q>
0

> <i_epik_Tot_abs_Q>
2

> <r_epik_Metal_State_Penalty>
0.701092

> <b_epik_Metal_Only>
1

> <s_lp_Force_Field>
OPLS_2005

> <r_lp_Energy>
26.9801

> <b_lp_Chiralities_Consistent>
1

> <s_lp_Variant>
AV-unprocessed.smi:1622-4

> <Gold.Version>
5.8.1

> <Gold.Id.Protein>
6NUR|6NUR_protein|mol2

> <Gold.PLP.Fitness>
48.7619

> <Gold.PLP.PLP>
-31.5586

> <Gold.PLP.part.hbond>
-4.7507

> <Gold.PLP.part.metal>
0.0000

> <Gold.PLP.part.buried>
-4.2783

> <Gold.PLP.part.nonpolar>
-22.3711

> <Gold.PLP.part.repulsive>
0.2645

> <Gold.PLP.ligand.clash>
0.0000

> <Gold.PLP.ligand.torsion>
0.9391

> <Gold.PLP.Chemscore.Hbond>
6.3085

> <Gold.PLP.Chemscore.CHOScore>
0.0000

> <Gold.PLP.Chemscore.Metal>
0.0000

> <Gold.Chemscore.Hbonds>
donor molecule, donor type, donor heavy atom, donor atom, acceptor molecule, acceptor atom, score
      L1  H     5    28       P1  7948  1.00
      L1  H    15    40       P1  7948  2.00
      P1  H  7989  7998       L1    11  0.07
      P1  H  7997  8008       L1    11  1.00
      P1  H 10752 10763       L1     8  2.00

> <Gold.PLP.Chemscore.Internal.Correction>
0.1559

> <Gold.Rescore>
     Score         DG    S(hbond)    S(metal)    S(lipo)     H(rot)  DE(clash)    DE(int)     intcor
     17.35     -18.35       3.31        0.00      53.49       1.73       0.00       1.00       ----

> <Gold.Chemscore.Fitness>
17.3526

> <Gold.Chemscore.DG>
-18.3498

> <Gold.Chemscore.ZeroCoef>
-5.4800

> <Gold.Chemscore.Hbond>
3.3092

> <Gold.Chemscore.Metal>
0.0000

> <Gold.Chemscore.Lipo>
53.4872

> <Gold.Chemscore.Internal_Hbond>
0.0000

> <Gold.Chemscore.DEClash>
0.0015

> <Gold.Chemscore.DEInternal>
0.9958

> <Gold.Chemscore.Rot>
1.7348

> <Gold.Chemscore.Internal.Correction>
   9.000000E+99

> <Gold.Chemscore.Hbonds>
donor molecule, donor type, donor heavy atom, donor atom, acceptor molecule, acceptor atom, score
      L1  H     5    28       P1  7948  0.34
      L1  H    15    40       P1  7948  0.38
      P1  H  7997  8008       L1    11  0.36
      P1  H 10752 10763       L1     8  0.73

> <Gold.Chemscore.Hbond.Weighted>
-11.0529

> <Gold.Chemscore.Metal.Weighted>
-0.0000

> <Gold.Chemscore.Lipo.Weighted>
-6.2580

> <Gold.Chemscore.Internal_Hbond.Weighted>
0.0000

> <Gold.Chemscore.DEClash.Weighted>
0.0015

> <Gold.Chemscore.DEInternal.Weighted>
0.9958

> <Gold.Chemscore.Rot.Weighted>
4.4411

> <Gold.Chemscore.Internal.Correction.Weighted>
   9.000000E+99

> <Gold.Protein.RotatedTorsions>
[ 6907 6896 6895 6894 ] final   53.46 input  -60.11 | X-H torsion
[ 7974 7965 7964 7962 ] final  114.95 input  175.53 | X-H torsion
[ 8008 7997 7996 7995 ] final  -25.73 input   59.86 | X-H torsion
[ 10167 10162 10161 10158 ] final  -51.28 input  -65.29 | X-H torsion
[ 10718 10713 10712 10709 ] final  -90.62 input   66.30 | X-H torsion
[ 10763 10752 10751 10750 ] final   57.27 input  -60.55 | X-H torsion
[ 11005 11000 10999 10996 ] final  167.61 input  -57.11 | X-H torsion

> <Gold.Protein.ActiveResidues>
 VAL166  LYS551  ARG553  GLY616  TRP617  ASP618  TYR619  PRO620  LYS621  CYS622 
 ASP623  PHE694  ASN695  SER759  ASP760  ASP761  ALA762  ILE779  LEU786  VAL792 
 PHE793  MET794  SER795  GLU796  ALA797  LYS798  CYS799  TRP800  GLU811  SER814 

> <Gold.Protein.RotatedAtoms>
  152.3339  134.7224  160.0281 H   0  0  0  0  0  0  0  0  0  0  0  0  # atno 6907 bound_to 6896
  151.7631  133.3330  159.3431 H   0  0  0  0  0  0  0  0  0  0  0  0  # atno 6908 bound_to 6896
  150.7439  134.6019  159.6086 H   0  0  0  0  0  0  0  0  0  0  0  0  # atno 6909 bound_to 6896
  145.1980  139.2966  143.4333 H   0  0  0  0  0  0  0  0  0  0  0  0  # atno 7974 bound_to 7965
  154.4460  140.1918  156.0665 H   0  0  0  0  0  0  0  0  0  0  0  0  # atno 8008 bound_to 7997
  156.0543  140.3304  155.7360 H   0  0  0  0  0  0  0  0  0  0  0  0  # atno 8009 bound_to 7997
  155.5509  140.0595  157.2841 H   0  0  0  0  0  0  0  0  0  0  0  0  # atno 8010 bound_to 7997
  140.6596  143.2625  151.4481 H   0  0  0  0  0  0  0  0  0  0  0  0  # atno 10167 bound_to 10162
  155.9989  130.4917  150.5351 H   0  0  0  0  0  0  0  0  0  0  0  0  # atno 10718 bound_to 10713
  152.9847  135.5647  154.5363 H   0  0  0  0  0  0  0  0  0  0  0  0  # atno 10763 bound_to 10752
  154.4826  135.2789  155.1561 H   0  0  0  0  0  0  0  0  0  0  0  0  # atno 10764 bound_to 10752
  154.3064  135.6297  153.5499 H   0  0  0  0  0  0  0  0  0  0  0  0  # atno 10765 bound_to 10752
  140.2786  134.7768  157.3739 H   0  0  0  0  0  0  0  0  0  0  0  0  # atno 11005 bound_to 11000
  146.3423  140.2215  142.8591 LP  0  0  0  0  0  0  0  0  0  0  0  0  # atno 17320 bound_to 7965
  144.9976  140.8603  143.5301 LP  0  0  0  0  0  0  0  0  0  0  0  0  # atno 17321 bound_to 7965
  139.5826  144.1675  152.1988 LP  0  0  0  0  0  0  0  0  0  0  0  0  # atno 17342 bound_to 10162
  140.1005  144.5544  150.6992 LP  0  0  0  0  0  0  0  0  0  0  0  0  # atno 17343 bound_to 10162
  157.3295  131.0697  151.1871 LP  0  0  0  0  0  0  0  0  0  0  0  0  # atno 17370 bound_to 10713
  157.2757  130.6726  149.6041 LP  0  0  0  0  0  0  0  0  0  0  0  0  # atno 17371 bound_to 10713
  140.1304  134.5102  155.8110 LP  0  0  0  0  0  0  0  0  0  0  0  0  # atno 17394 bound_to 11000
  141.2166  133.6788  156.7029 LP  0  0  0  0  0  0  0  0  0  0  0  0  # atno 17395 bound_to 11000

$$$$
