AV-unprocessed.smi:1395|AV-procd|sdf|5670|dock1
  -GOLD-   22720 5293D 1   1.00000     0.00000
 Structure written by MMmdl.
 43 44  0  0  0  0  0  0  0  0  2 V2000
  150.9319  145.2802  158.6542 C   0  0  0  0  0  0  0  0  0  0  0  0
  151.5747  143.9940  159.1477 C   0  0  0  0  0  0  0  0  0  0  0  0
  152.4756  144.0454  160.2328 C   0  0  0  0  0  0  0  0  0  0  0  0
  153.0703  142.8563  160.6879 C   0  0  0  0  0  0  0  0  0  0  0  0
  152.7365  141.6580  160.0343 C   0  0  0  0  0  0  0  0  0  0  0  0
  151.8763  141.5996  158.9973 N   0  0  0  0  0  0  0  0  0  0  0  0
  151.2937  142.7383  158.5451 C   0  0  0  0  0  0  0  0  0  0  0  0
  150.3751  142.7505  157.4570 N   0  0  0  0  0  0  0  0  0  0  0  0
  149.8062  141.7036  156.8328 C   0  0  0  0  0  0  0  0  0  0  0  0
  150.0110  140.5182  157.0955 O   0  0  0  0  0  0  0  0  0  0  0  0
  148.9672  142.1087  155.8677 N   0  0  0  0  0  0  0  0  0  0  0  0
  148.1886  141.2201  155.0095 C   0  0  2  0  0  0  0  0  0  0  0  0
  147.2365  140.3662  155.8627 C   0  0  0  0  0  0  0  0  0  0  0  0
  146.4641  139.3574  154.9951 C   0  0  0  0  0  0  0  0  0  0  0  0
  147.3928  138.4921  154.2236 N   0  3  1  0  0  0  0  0  0  0  0  0
  146.6866  137.4132  153.4860 C   0  0  0  0  0  0  0  0  0  0  0  0
  146.1032  137.8849  152.1498 C   0  0  0  0  0  0  0  0  0  0  0  0
  144.7767  137.8225  152.0163 N   0  0  0  0  0  0  0  0  0  0  0  0
  146.8345  138.2849  151.2455 O   0  0  0  0  0  0  0  0  0  0  0  0
  148.2949  139.2968  153.3573 C   0  0  0  0  0  0  0  0  0  0  0  0
  149.1109  140.2985  154.1894 C   0  0  0  0  0  0  0  0  0  0  0  0
  151.2623  146.1390  159.2394 H   0  0  0  0  0  0  0  0  0  0  0  0
  149.8460  145.2192  158.7329 H   0  0  0  0  0  0  0  0  0  0  0  0
  151.1955  145.4634  157.6121 H   0  0  0  0  0  0  0  0  0  0  0  0
  152.7103  144.9838  160.7134 H   0  0  0  0  0  0  0  0  0  0  0  0
  153.7637  142.8624  161.5160 H   0  0  0  0  0  0  0  0  0  0  0  0
  153.1704  140.7214  160.3518 H   0  0  0  0  0  0  0  0  0  0  0  0
  150.1155  143.6666  157.1235 H   0  0  0  0  0  0  0  0  0  0  0  0
  148.8594  143.1011  155.7165 H   0  0  0  0  0  0  0  0  0  0  0  0
  147.5872  141.8237  154.3265 H   0  0  0  0  0  0  0  0  0  0  0  0
  147.8014  139.8282  156.6257 H   0  0  0  0  0  0  0  0  0  0  0  0
  146.5330  141.0081  156.3945 H   0  0  0  0  0  0  0  0  0  0  0  0
  145.8358  138.7415  155.6395 H   0  0  0  0  0  0  0  0  0  0  0  0
  145.7977  139.8815  154.3080 H   0  0  0  0  0  0  0  0  0  0  0  0
  147.3852  136.6083  153.2533 H   0  0  0  0  0  0  0  0  0  0  0  0
  145.9063  136.9788  154.1134 H   0  0  0  0  0  0  0  0  0  0  0  0
  144.3359  138.1244  151.1592 H   0  0  0  0  0  0  0  0  0  0  0  0
  144.2131  137.4757  152.7796 H   0  0  0  0  0  0  0  0  0  0  0  0
  148.9790  138.6436  152.8152 H   0  0  0  0  0  0  0  0  0  0  0  0
  147.7053  139.8265  152.6074 H   0  0  0  0  0  0  0  0  0  0  0  0
  149.7456  140.8888  153.5273 H   0  0  0  0  0  0  0  0  0  0  0  0
  149.7818  139.7541  154.8557 H   0  0  0  0  0  0  0  0  0  0  0  0
  147.9776  138.0269  154.9039 H   0  0  0  0  0  0  0  0  0  0  0  0
  1  2  1  0  0  0  0
  1 22  1  0  0  0  0
  1 23  1  0  0  0  0
  1 24  1  0  0  0  0
  2  7  1  0  0  0  0
  2  3  2  0  0  0  0
  3  4  1  0  0  0  0
  3 25  1  0  0  0  0
  4  5  2  0  0  0  0
  4 26  1  0  0  0  0
  5  6  1  0  0  0  0
  5 27  1  0  0  0  0
  6  7  2  0  0  0  0
  7  8  1  0  0  0  0
  8  9  1  0  0  0  0
  8 28  1  0  0  0  0
  9 10  2  0  0  0  0
  9 11  1  0  0  0  0
 11 12  1  0  0  0  0
 11 29  1  0  0  0  0
 12 21  1  0  0  0  0
 12 13  1  0  0  0  0
 12 30  1  0  0  0  0
 13 14  1  0  0  0  0
 13 31  1  0  0  0  0
 13 32  1  0  0  0  0
 14 15  1  0  0  0  0
 14 33  1  0  0  0  0
 14 34  1  0  0  0  0
 15 16  1  0  0  0  0
 15 20  1  0  0  0  0
 15 43  1  0  0  0  0
 16 17  1  0  0  0  0
 16 35  1  0  0  0  0
 16 36  1  0  0  0  0
 17 18  1  0  0  0  0
 17 19  2  0  0  0  0
 18 37  1  0  0  0  0
 18 38  1  0  0  0  0
 20 21  1  0  0  0  0
 20 39  1  0  0  0  0
 20 40  1  0  0  0  0
 21 41  1  0  0  0  0
 21 42  1  0  0  0  0
M  CHG  1  15   1
M  END
> <s_m_source_file>
AV-unprocessed.smi

> <i_m_source_file_index>
1395

> <i_lp_mmshare_version>
43012

> <i_f3d_flags>
0

> <s_epik_input>
W0NIM11jMVtjSF1bY0hdW2NIXW5jMVtOSF1DKD1PKVtOSF1bQ0hdMltDSDJdW0NIMl1OKFtDSDJdW0NIMl0yKVtDSDJdQyg9TylbTkgyXQ==

> <s_epik_cmdline>
J2VwaWtfcHl0aG9uJywgJy1waCcsICc3LjAnLCAnLXRuJywgJzgnLCAnLW1hJywgJzIwMCcsICctbWV0YWxfYmluZGluZycsICctaW1hZScsICc8aW5maWxlLm1hZT4nLCAnLW9tYWUnLCAnPG91dGZpbGUubWFlPic=

> <r_epik_Ionization_Penalty>
0.83893

> <r_epik_Ionization_Penalty_Charging>
0.838844

> <r_epik_Ionization_Penalty_Neutral>
8.62421e-05

> <r_epik_State_Penalty>
0.8734

> <r_epik_Charging_Adjusted_Penalty>
1.71224

> <i_epik_Tot_Q>
1

> <i_epik_Tot_abs_Q>
1

> <r_epik_Metal_State_Penalty>
0.890705

> <b_epik_Metal_Only>
0

> <s_lp_Force_Field>
OPLS_2005

> <r_lp_Energy>
13.5717

> <b_lp_Chiralities_Consistent>
1

> <s_lp_Variant>
AV-unprocessed.smi:1395-2

> <Gold.Version>
5.8.1

> <Gold.Id.Protein>
6NUR|6NUR_protein|mol2

> <Gold.PLP.Fitness>
44.4349

> <Gold.PLP.PLP>
-33.9813

> <Gold.PLP.part.hbond>
-4.9620

> <Gold.PLP.part.metal>
0.0000

> <Gold.PLP.part.buried>
-1.8182

> <Gold.PLP.part.nonpolar>
-28.7294

> <Gold.PLP.part.repulsive>
1.3616

> <Gold.PLP.ligand.clash>
0.0000

> <Gold.PLP.ligand.torsion>
0.1961

> <Gold.PLP.Chemscore.Hbond>
3.6028

> <Gold.PLP.Chemscore.CHOScore>
0.0000

> <Gold.PLP.Chemscore.Metal>
0.0000

> <Gold.Chemscore.Hbonds>
donor molecule, donor type, donor heavy atom, donor atom, acceptor molecule, acceptor atom, score
      L1  H     8    28       P1  8028  0.58
      L1  H    11    29       P1  8028  1.00
      L1  H    18    37       P1 10171  0.91
      P1  H  7954  7966       L1    19  1.00

> <Gold.PLP.Chemscore.Internal.Correction>
0.0375

> <Gold.Rescore>
     Score         DG    S(hbond)    S(metal)    S(lipo)     H(rot)  DE(clash)    DE(int)     intcor
     16.39     -22.71       3.78        0.00      82.18       1.96       2.19       4.13       ----

> <Gold.Chemscore.Fitness>
16.3873

> <Gold.Chemscore.DG>
-22.7133

> <Gold.Chemscore.ZeroCoef>
-5.4800

> <Gold.Chemscore.Hbond>
3.7848

> <Gold.Chemscore.Metal>
0.0000

> <Gold.Chemscore.Lipo>
82.1823

> <Gold.Chemscore.Internal_Hbond>
0.0000

> <Gold.Chemscore.DEClash>
2.1918

> <Gold.Chemscore.DEInternal>
4.1342

> <Gold.Chemscore.Rot>
1.9622

> <Gold.Chemscore.Internal.Correction>
   9.000000E+99

> <Gold.Chemscore.Hbonds>
donor molecule, donor type, donor heavy atom, donor atom, acceptor molecule, acceptor atom, score
      L1  H     8    28       P1  8028  0.56
      L1  H    11    29       P1  8028  0.99
      L1  H    18    37       P1 10171  0.89
      P1  H  7954  7966       L1    19  0.99

> <Gold.Chemscore.Hbond.Weighted>
-12.6412

> <Gold.Chemscore.Metal.Weighted>
-0.0000

> <Gold.Chemscore.Lipo.Weighted>
-9.6153

> <Gold.Chemscore.Internal_Hbond.Weighted>
0.0000

> <Gold.Chemscore.DEClash.Weighted>
2.1918

> <Gold.Chemscore.DEInternal.Weighted>
4.1342

> <Gold.Chemscore.Rot.Weighted>
5.0232

> <Gold.Chemscore.Internal.Correction.Weighted>
   9.000000E+99

> <Gold.Protein.RotatedTorsions>
[ 6907 6896 6895 6894 ] final   29.77 input  -60.11 | X-H torsion
[ 7974 7965 7964 7962 ] final   97.93 input  175.53 | X-H torsion
[ 8008 7997 7996 7995 ] final   84.87 input   59.86 | X-H torsion
[ 10167 10162 10161 10158 ] final  -58.46 input  -65.29 | X-H torsion
[ 10718 10713 10712 10709 ] final   17.35 input   66.30 | X-H torsion
[ 10763 10752 10751 10750 ] final  111.50 input  -60.55 | X-H torsion
[ 11005 11000 10999 10996 ] final -145.75 input  -57.11 | X-H torsion

> <Gold.Protein.ActiveResidues>
 VAL166  LYS551  ARG553  GLY616  TRP617  ASP618  TYR619  PRO620  LYS621  CYS622 
 ASP623  PHE694  ASN695  SER759  ASP760  ASP761  ALA762  ILE779  LEU786  VAL792 
 PHE793  MET794  SER795  GLU796  ALA797  LYS798  CYS799  TRP800  GLU811  SER814 

> <Gold.Protein.RotatedAtoms>
  152.0364  134.9737  160.0573 H   0  0  0  0  0  0  0  0  0  0  0  0  # atno 6907 bound_to 6896
  152.1194  133.4340  159.4676 H   0  0  0  0  0  0  0  0  0  0  0  0  # atno 6908 bound_to 6896
  150.6848  134.2472  159.4539 H   0  0  0  0  0  0  0  0  0  0  0  0  # atno 6909 bound_to 6896
  145.4190  139.2324  143.3207 H   0  0  0  0  0  0  0  0  0  0  0  0  # atno 7974 bound_to 7965
  155.9427  140.3407  155.6340 H   0  0  0  0  0  0  0  0  0  0  0  0  # atno 8008 bound_to 7997
  155.7020  140.0761  157.2425 H   0  0  0  0  0  0  0  0  0  0  0  0  # atno 8009 bound_to 7997
  154.4105  140.1638  156.2189 H   0  0  0  0  0  0  0  0  0  0  0  0  # atno 8010 bound_to 7997
  140.6196  143.2414  151.5514 H   0  0  0  0  0  0  0  0  0  0  0  0  # atno 10167 bound_to 10162
  157.0809  130.6387  149.5826 H   0  0  0  0  0  0  0  0  0  0  0  0  # atno 10718 bound_to 10713
  153.4642  135.3715  155.2355 H   0  0  0  0  0  0  0  0  0  0  0  0  # atno 10763 bound_to 10752
  154.8757  135.3916  154.3889 H   0  0  0  0  0  0  0  0  0  0  0  0  # atno 10764 bound_to 10752
  153.4467  135.7085  153.6199 H   0  0  0  0  0  0  0  0  0  0  0  0  # atno 10765 bound_to 10752
  140.7891  134.2990  157.5020 H   0  0  0  0  0  0  0  0  0  0  0  0  # atno 11005 bound_to 11000
  146.2666  140.4912  142.8831 LP  0  0  0  0  0  0  0  0  0  0  0  0  # atno 17320 bound_to 7965
  144.8258  140.6626  143.6323 LP  0  0  0  0  0  0  0  0  0  0  0  0  # atno 17321 bound_to 7965
  139.5427  144.2604  152.1382 LP  0  0  0  0  0  0  0  0  0  0  0  0  # atno 17342 bound_to 10162
  140.1821  144.4834  150.6523 LP  0  0  0  0  0  0  0  0  0  0  0  0  # atno 17343 bound_to 10162
  155.9924  130.4981  150.7338 LP  0  0  0  0  0  0  0  0  0  0  0  0  # atno 17370 bound_to 10713
  157.4801  131.0901  151.0546 LP  0  0  0  0  0  0  0  0  0  0  0  0  # atno 17371 bound_to 10713
  139.8733  134.9364  156.3658 LP  0  0  0  0  0  0  0  0  0  0  0  0  # atno 17394 bound_to 11000
  140.9408  133.7516  156.0144 LP  0  0  0  0  0  0  0  0  0  0  0  0  # atno 17395 bound_to 11000

$$$$
