AV-unprocessed.smi:1100|AV-procd|sdf|4759|dock8
  -GOLD-   22720 3293D 1   1.00000     0.00000
 Structure written by MMmdl.
 43 44  0  0  0  0  0  0  0  0  1 V2000
  144.7740  146.4705  158.5123 C   0  0  0  0  0  0  0  0  0  0  0  0
  144.8909  145.8896  159.9447 C   0  0  2  0  0  0  0  0  0  0  0  0
  146.2693  146.2992  160.5413 C   0  0  0  0  0  0  0  0  0  0  0  0
  147.4083  145.7957  159.7780 N   0  0  0  0  0  0  0  0  0  0  0  0
  148.3747  145.0054  160.2669 C   0  0  0  0  0  0  0  0  0  0  0  0
  148.3927  144.6075  161.4311 O   0  0  0  0  0  0  0  0  0  0  0  0
  149.2869  144.7210  159.3194 N   0  0  0  0  0  0  0  0  0  0  0  0
  150.4621  143.9635  159.4218 C   0  0  0  0  0  0  0  0  0  0  0  0
  151.6096  144.2949  160.2546 C   0  0  0  0  0  0  0  0  0  0  0  0
  152.6965  143.4980  160.2817 C   0  0  0  0  0  0  0  0  0  0  0  0
  152.7742  142.2731  159.4819 C   0  0  0  0  0  0  0  0  0  0  0  0
  153.7577  141.5327  159.5061 O   0  0  0  0  0  0  0  0  0  0  0  0
  151.6848  142.0072  158.7053 N   0  0  0  0  0  0  0  0  0  0  0  0
  151.6651  140.8088  157.8630 C   0  0  0  0  0  0  0  0  0  0  0  0
  150.5529  142.8433  158.6823 C   0  0  0  0  0  0  0  0  0  0  0  0
  144.6433  144.4296  159.9942 N   0  0  0  0  0  0  0  0  0  0  0  0
  145.4175  143.6891  158.9906 C   0  0  0  0  0  0  0  0  0  0  0  0
  145.1886  142.1694  159.0599 C   0  0  0  0  0  0  0  0  0  0  0  0
  145.4993  141.6956  160.3628 O   0  0  0  0  0  0  0  0  0  0  0  0
  144.7146  142.3318  161.3617 C   0  0  0  0  0  0  0  0  0  0  0  0
  144.9434  143.8522  161.3098 C   0  0  0  0  0  0  0  0  0  0  0  0
  145.0051  147.5344  158.4739 H   0  0  0  0  0  0  0  0  0  0  0  0
  143.7639  146.3881  158.1139 H   0  0  0  0  0  0  0  0  0  0  0  0
  145.4514  145.9633  157.8247 H   0  0  0  0  0  0  0  0  0  0  0  0
  144.1220  146.3761  160.5467 H   0  0  0  0  0  0  0  0  0  0  0  0
  146.3869  147.3804  160.5974 H   0  0  0  0  0  0  0  0  0  0  0  0
  146.3555  145.9273  161.5626 H   0  0  0  0  0  0  0  0  0  0  0  0
  147.4651  146.0759  158.8098 H   0  0  0  0  0  0  0  0  0  0  0  0
  149.1095  145.1020  158.4016 H   0  0  0  0  0  0  0  0  0  0  0  0
  151.6333  145.1858  160.8604 H   0  0  0  0  0  0  0  0  0  0  0  0
  153.5359  143.7707  160.9044 H   0  0  0  0  0  0  0  0  0  0  0  0
  150.7690  140.7420  157.2455 H   0  0  0  0  0  0  0  0  0  0  0  0
  151.7048  139.9102  158.4801 H   0  0  0  0  0  0  0  0  0  0  0  0
  152.5230  140.7967  157.1890 H   0  0  0  0  0  0  0  0  0  0  0  0
  149.7587  142.5119  158.0285 H   0  0  0  0  0  0  0  0  0  0  0  0
  145.1452  144.0006  157.9845 H   0  0  0  0  0  0  0  0  0  0  0  0
  146.4808  143.9013  159.1129 H   0  0  0  0  0  0  0  0  0  0  0  0
  144.1554  141.9227  158.8111 H   0  0  0  0  0  0  0  0  0  0  0  0
  145.8223  141.6581  158.3352 H   0  0  0  0  0  0  0  0  0  0  0  0
  143.6598  142.0939  161.2146 H   0  0  0  0  0  0  0  0  0  0  0  0
  144.9977  141.9399  162.3387 H   0  0  0  0  0  0  0  0  0  0  0  0
  145.9766  144.0720  161.5834 H   0  0  0  0  0  0  0  0  0  0  0  0
  144.3112  144.2951  162.0771 H   0  0  0  0  0  0  0  0  0  0  0  0
  1  2  1  0  0  0  0
  1 22  1  0  0  0  0
  1 23  1  0  0  0  0
  1 24  1  0  0  0  0
  2  3  1  0  0  0  0
  2 16  1  0  0  0  0
  2 25  1  0  0  0  0
  3  4  1  0  0  0  0
  3 26  1  0  0  0  0
  3 27  1  0  0  0  0
  4  5  1  0  0  0  0
  4 28  1  0  0  0  0
  5  6  2  0  0  0  0
  5  7  1  0  0  0  0
  7  8  1  0  0  0  0
  7 29  1  0  0  0  0
  8 15  2  0  0  0  0
  8  9  1  0  0  0  0
  9 10  2  0  0  0  0
  9 30  1  0  0  0  0
 10 11  1  0  0  0  0
 10 31  1  0  0  0  0
 11 12  2  0  0  0  0
 11 13  1  0  0  0  0
 13 14  1  0  0  0  0
 13 15  1  0  0  0  0
 14 32  1  0  0  0  0
 14 33  1  0  0  0  0
 14 34  1  0  0  0  0
 15 35  1  0  0  0  0
 16 21  1  0  0  0  0
 16 17  1  0  0  0  0
 17 18  1  0  0  0  0
 17 36  1  0  0  0  0
 17 37  1  0  0  0  0
 18 19  1  0  0  0  0
 18 38  1  0  0  0  0
 18 39  1  0  0  0  0
 19 20  1  0  0  0  0
 20 21  1  0  0  0  0
 20 40  1  0  0  0  0
 20 41  1  0  0  0  0
 21 42  1  0  0  0  0
 21 43  1  0  0  0  0
M  END
> <s_m_source_file>
AV-unprocessed.smi

> <i_m_source_file_index>
1100

> <i_lp_mmshare_version>
43012

> <i_f3d_flags>
0

> <s_epik_input>
W0NIMl0xW0NIMl1PW0NIMl1bQ0gyXU4xW0NASF0oW0NIM10pW0NIMl1bTkhdQyg9TylbTkhdYzJbY0hdW2NIXWMoPU8pbihbQ0gzXSlbY0hdMg==

> <s_epik_cmdline>
J2VwaWtfcHl0aG9uJywgJy1waCcsICc3LjAnLCAnLXRuJywgJzgnLCAnLW1hJywgJzIwMCcsICctbWV0YWxfYmluZGluZycsICctaW1hZScsICc8aW5maWxlLm1hZT4nLCAnLW9tYWUnLCAnPG91dGZpbGUubWFlPic=

> <r_lp_tautomer_probability>
1

> <r_epik_Ionization_Penalty>
0.266016

> <r_epik_Ionization_Penalty_Charging>
5.79683e-06

> <r_epik_Ionization_Penalty_Neutral>
0.26601

> <r_epik_State_Penalty>
0.257924

> <r_epik_Charging_Adjusted_Penalty>
0.25793

> <i_epik_Tot_Q>
0

> <i_epik_Tot_abs_Q>
0

> <r_epik_Metal_State_Penalty>
0.260326

> <b_epik_Metal_Only>
0

> <s_lp_Force_Field>
OPLS_2005

> <r_lp_Energy>
41.8129

> <b_lp_Chiralities_Consistent>
1

> <s_lp_Variant>
AV-unprocessed.smi:1100-1

> <Gold.Version>
5.8.1

> <Gold.Id.Protein>
6NUR|6NUR_protein|mol2

> <Gold.PLP.Fitness>
44.6091

> <Gold.PLP.PLP>
-34.3020

> <Gold.PLP.part.hbond>
-4.0000

> <Gold.PLP.part.metal>
0.0000

> <Gold.PLP.part.buried>
-5.5632

> <Gold.PLP.part.nonpolar>
-25.5396

> <Gold.PLP.part.repulsive>
0.5689

> <Gold.PLP.ligand.clash>
0.0000

> <Gold.PLP.ligand.torsion>
0.7442

> <Gold.PLP.Chemscore.Hbond>
3.9200

> <Gold.PLP.Chemscore.CHOScore>
0.0000

> <Gold.PLP.Chemscore.Metal>
0.0000

> <Gold.Chemscore.Hbonds>
donor molecule, donor type, donor heavy atom, donor atom, acceptor molecule, acceptor atom, score
      L1  H     4    28       P1  8029  1.00
      L1  H     7    29       P1  8029  0.94
      P1  H  6933  6944       L1     6  0.44
      P1  H  6934  6946       L1    19  1.00

> <Gold.PLP.Chemscore.Internal.Correction>
0.0355

> <Gold.Rescore>
     Score         DG    S(hbond)    S(metal)    S(lipo)     H(rot)  DE(clash)    DE(int)     intcor
     21.23     -22.20       3.63        0.00      71.95       1.49       0.17       0.80       ----

> <Gold.Chemscore.Fitness>
21.2339

> <Gold.Chemscore.DG>
-22.2015

> <Gold.Chemscore.ZeroCoef>
-5.4800

> <Gold.Chemscore.Hbond>
3.6311

> <Gold.Chemscore.Metal>
0.0000

> <Gold.Chemscore.Lipo>
71.9469

> <Gold.Chemscore.Internal_Hbond>
0.0000

> <Gold.Chemscore.DEClash>
0.1718

> <Gold.Chemscore.DEInternal>
0.7958

> <Gold.Chemscore.Rot>
1.4938

> <Gold.Chemscore.Internal.Correction>
   9.000000E+99

> <Gold.Chemscore.Hbonds>
donor molecule, donor type, donor heavy atom, donor atom, acceptor molecule, acceptor atom, score
      L1  H     4    28       P1  8029  0.96
      L1  H     7    29       P1  8029  0.76
      P1  H  6933  6944       L1     6  0.32
      P1  H  6934  6946       L1    19  0.97

> <Gold.Chemscore.Hbond.Weighted>
-12.1279

> <Gold.Chemscore.Metal.Weighted>
-0.0000

> <Gold.Chemscore.Lipo.Weighted>
-8.4178

> <Gold.Chemscore.Internal_Hbond.Weighted>
0.0000

> <Gold.Chemscore.DEClash.Weighted>
0.1718

> <Gold.Chemscore.DEInternal.Weighted>
0.7958

> <Gold.Chemscore.Rot.Weighted>
3.8242

> <Gold.Chemscore.Internal.Correction.Weighted>
   9.000000E+99

> <Gold.Protein.RotatedTorsions>
[ 6907 6896 6895 6894 ] final  -95.75 input  -60.11 | X-H torsion
[ 7974 7965 7964 7962 ] final  157.53 input  175.53 | X-H torsion
[ 8008 7997 7996 7995 ] final -119.74 input   59.86 | X-H torsion
[ 10167 10162 10161 10158 ] final   63.70 input  -65.29 | X-H torsion
[ 10718 10713 10712 10709 ] final -111.49 input   66.30 | X-H torsion
[ 10763 10752 10751 10750 ] final  156.95 input  -60.55 | X-H torsion
[ 11005 11000 10999 10996 ] final  112.20 input  -57.11 | X-H torsion

> <Gold.Protein.ActiveResidues>
 VAL166  LYS551  ARG553  GLY616  TRP617  ASP618  TYR619  PRO620  LYS621  CYS622 
 ASP623  PHE694  ASN695  SER759  ASP760  ASP761  ALA762  ILE779  LEU786  VAL792 
 PHE793  MET794  SER795  GLU796  ALA797  LYS798  CYS799  TRP800  GLU811  SER814 

> <Gold.Protein.RotatedAtoms>
  150.6971  134.1609  159.4175 H   0  0  0  0  0  0  0  0  0  0  0  0  # atno 6907 bound_to 6896
  151.9589  135.0130  160.0556 H   0  0  0  0  0  0  0  0  0  0  0  0  # atno 6908 bound_to 6896
  152.1944  133.4761  159.5062 H   0  0  0  0  0  0  0  0  0  0  0  0  # atno 6909 bound_to 6896
  144.7898  139.7353  143.6226 H   0  0  0  0  0  0  0  0  0  0  0  0  # atno 7974 bound_to 7965
  155.1206  140.0398  157.2749 H   0  0  0  0  0  0  0  0  0  0  0  0  # atno 8008 bound_to 7997
  154.6616  140.2592  155.7077 H   0  0  0  0  0  0  0  0  0  0  0  0  # atno 8009 bound_to 7997
  156.2621  140.2816  156.1090 H   0  0  0  0  0  0  0  0  0  0  0  0  # atno 8010 bound_to 7997
  140.1301  144.4650  150.6869 H   0  0  0  0  0  0  0  0  0  0  0  0  # atno 10167 bound_to 10162
  156.0650  130.5870  150.8380 H   0  0  0  0  0  0  0  0  0  0  0  0  # atno 10718 bound_to 10713
  154.1924  135.2794  155.3017 H   0  0  0  0  0  0  0  0  0  0  0  0  # atno 10763 bound_to 10752
  154.5918  135.5557  153.7289 H   0  0  0  0  0  0  0  0  0  0  0  0  # atno 10764 bound_to 10752
  153.0109  135.6370  154.2063 H   0  0  0  0  0  0  0  0  0  0  0  0  # atno 10765 bound_to 10752
  139.8921  134.9524  156.6548 H   0  0  0  0  0  0  0  0  0  0  0  0  # atno 11005 bound_to 11000
  146.2145  139.5525  142.9659 LP  0  0  0  0  0  0  0  0  0  0  0  0  # atno 17320 bound_to 7965
  145.5825  141.0380  143.2114 LP  0  0  0  0  0  0  0  0  0  0  0  0  # atno 17321 bound_to 7965
  140.6822  143.2332  151.5355 LP  0  0  0  0  0  0  0  0  0  0  0  0  # atno 17342 bound_to 10162
  139.5524  144.2362  152.1553 LP  0  0  0  0  0  0  0  0  0  0  0  0  # atno 17343 bound_to 10162
  157.5685  131.0946  150.9453 LP  0  0  0  0  0  0  0  0  0  0  0  0  # atno 17370 bound_to 10713
  156.9674  130.5478  149.5289 LP  0  0  0  0  0  0  0  0  0  0  0  0  # atno 17371 bound_to 10713
  140.7492  133.8911  155.8334 LP  0  0  0  0  0  0  0  0  0  0  0  0  # atno 17394 bound_to 11000
  141.0014  134.1145  157.4313 LP  0  0  0  0  0  0  0  0  0  0  0  0  # atno 17395 bound_to 11000

$$$$
