AV-unprocessed.smi:560|AV-procd|sdf|2928|dock9
  -GOLD-   2262023423D 1   1.00000     0.00000
 Structure written by MMmdl.
 42 43  0  0  0  0  0  0  0  0  2 V2000
  147.4799  141.9811  154.7658 C   0  0  0  0  0  0  0  0  0  0  0  0
  148.6116  141.0619  154.2627 C   0  0  2  0  0  0  0  0  0  0  0  0
  148.1117  139.6745  153.8221 C   0  0  0  0  0  0  0  0  0  0  0  0
  148.8918  138.7285  153.7043 O   0  0  0  0  0  0  0  0  0  0  0  0
  146.7945  139.5658  153.5826 N   0  0  0  0  0  0  0  0  0  0  0  0
  146.1183  138.3550  153.1292 C   0  0  2  0  0  0  0  0  0  0  0  0
  146.5698  137.1339  153.9527 C   0  0  0  0  0  0  0  0  0  0  0  0
  145.9461  135.8383  153.4097 C   0  0  0  0  0  0  0  0  0  0  0  0
  146.2795  135.6460  151.9730 N   0  3  1  0  0  0  0  0  0  0  0  0
  145.8163  134.3380  151.4394 C   0  0  0  0  0  0  0  0  0  0  0  0
  144.3573  134.3191  150.9574 C   0  0  0  0  0  0  0  0  0  0  0  0
  144.1022  134.3896  149.6459 N   0  0  0  0  0  0  0  0  0  0  0  0
  143.4518  134.2383  151.7830 O   0  0  0  0  0  0  0  0  0  0  0  0
  145.8103  136.7915  151.1519 C   0  0  0  0  0  0  0  0  0  0  0  0
  146.4246  138.1137  151.6422 C   0  0  0  0  0  0  0  0  0  0  0  0
  149.6819  140.9392  155.2469 N   0  0  0  0  0  0  0  0  0  0  0  0
  149.8483  141.6554  156.4149 C   0  0  0  0  0  0  0  0  0  0  0  0
  150.9995  141.2182  157.0046 C   0  0  0  0  0  0  0  0  0  0  0  0
  151.4802  140.2224  156.1099 C   0  0  0  0  0  0  0  0  0  0  0  0
  150.6956  140.0625  155.0570 N   0  0  0  0  0  0  0  0  0  0  0  0
  146.7180  142.1253  153.9989 H   0  0  0  0  0  0  0  0  0  0  0  0
  147.8674  142.9661  155.0274 H   0  0  0  0  0  0  0  0  0  0  0  0
  146.9873  141.5751  155.6503 H   0  0  0  0  0  0  0  0  0  0  0  0
  149.0412  141.5336  153.3775 H   0  0  0  0  0  0  0  0  0  0  0  0
  146.2239  140.3895  153.7078 H   0  0  0  0  0  0  0  0  0  0  0  0
  145.0402  138.4852  153.2423 H   0  0  0  0  0  0  0  0  0  0  0  0
  147.6577  137.0508  153.9295 H   0  0  0  0  0  0  0  0  0  0  0  0
  146.2931  137.2597  155.0002 H   0  0  0  0  0  0  0  0  0  0  0  0
  146.3057  134.9939  153.9981 H   0  0  0  0  0  0  0  0  0  0  0  0
  144.8620  135.8657  153.5324 H   0  0  0  0  0  0  0  0  0  0  0  0
  146.4763  134.0072  150.6357 H   0  0  0  0  0  0  0  0  0  0  0  0
  145.8850  133.5816  152.2224 H   0  0  0  0  0  0  0  0  0  0  0  0
  143.1546  134.3765  149.3003 H   0  0  0  0  0  0  0  0  0  0  0  0
  144.8734  134.4540  148.9959 H   0  0  0  0  0  0  0  0  0  0  0  0
  146.0876  136.6361  150.1085 H   0  0  0  0  0  0  0  0  0  0  0  0
  144.7208  136.8445  151.1867 H   0  0  0  0  0  0  0  0  0  0  0  0
  146.0428  138.9410  151.0426 H   0  0  0  0  0  0  0  0  0  0  0  0
  147.5041  138.0897  151.4843 H   0  0  0  0  0  0  0  0  0  0  0  0
  149.1402  142.4090  156.7273 H   0  0  0  0  0  0  0  0  0  0  0  0
  151.4326  141.5577  157.9338 H   0  0  0  0  0  0  0  0  0  0  0  0
  152.3710  139.6171  156.1920 H   0  0  0  0  0  0  0  0  0  0  0  0
  147.2863  135.6420  151.8974 H   0  0  0  0  0  0  0  0  0  0  0  0
  1  2  1  0  0  0  0
  1 21  1  0  0  0  0
  1 22  1  0  0  0  0
  1 23  1  0  0  0  0
  2  3  1  0  0  0  0
  2 16  1  0  0  0  0
  2 24  1  0  0  0  0
  3  4  2  0  0  0  0
  3  5  1  0  0  0  0
  5  6  1  0  0  0  0
  5 25  1  0  0  0  0
  6 15  1  0  0  0  0
  6  7  1  0  0  0  0
  6 26  1  0  0  0  0
  7  8  1  0  0  0  0
  7 27  1  0  0  0  0
  7 28  1  0  0  0  0
  8  9  1  0  0  0  0
  8 29  1  0  0  0  0
  8 30  1  0  0  0  0
  9 10  1  0  0  0  0
  9 14  1  0  0  0  0
  9 42  1  0  0  0  0
 10 11  1  0  0  0  0
 10 31  1  0  0  0  0
 10 32  1  0  0  0  0
 11 12  1  0  0  0  0
 11 13  2  0  0  0  0
 12 33  1  0  0  0  0
 12 34  1  0  0  0  0
 14 15  1  0  0  0  0
 14 35  1  0  0  0  0
 14 36  1  0  0  0  0
 15 37  1  0  0  0  0
 15 38  1  0  0  0  0
 16 20  1  0  0  0  0
 16 17  1  0  0  0  0
 17 18  2  0  0  0  0
 17 39  1  0  0  0  0
 18 19  1  0  0  0  0
 18 40  1  0  0  0  0
 19 20  2  0  0  0  0
 19 41  1  0  0  0  0
M  CHG  1   9   1
M  END
> <s_m_source_file>
AV-unprocessed.smi

> <i_m_source_file_index>
560

> <i_lp_mmshare_version>
43012

> <i_f3d_flags>
0

> <s_epik_input>
bjFbY0hdW2NIXVtjSF1uMVtDQEhdKFtDSDNdKUMoPU8pW05IXVtDSF0yW0NIMl1bQ0gyXU4oW0NIMl1bQ0gyXTIpW0NIMl1DKD1PKVtOSDJd

> <s_epik_cmdline>
J2VwaWtfcHl0aG9uJywgJy1waCcsICc3LjAnLCAnLXRuJywgJzgnLCAnLW1hJywgJzIwMCcsICctbWV0YWxfYmluZGluZycsICctaW1hZScsICc8aW5maWxlLm1hZT4nLCAnLW9tYWUnLCAnPG91dGZpbGUubWFlPic=

> <r_lp_tautomer_probability>
1

> <r_epik_Ionization_Penalty>
1.02943

> <r_epik_Ionization_Penalty_Charging>
1.02936

> <r_epik_Ionization_Penalty_Neutral>
7.4537e-05

> <r_epik_State_Penalty>
1.08036

> <r_epik_Charging_Adjusted_Penalty>
2.10972

> <i_epik_Tot_Q>
1

> <i_epik_Tot_abs_Q>
1

> <r_epik_Metal_State_Penalty>
1.09347

> <b_epik_Metal_Only>
0

> <s_lp_Force_Field>
OPLS_2005

> <r_lp_Energy>
17.0208

> <b_lp_Chiralities_Consistent>
1

> <s_lp_Variant>
AV-unprocessed.smi:560-3

> <Gold.Version>
5.8.1

> <Gold.Id.Protein>
6NUR|6NUR_protein|mol2

> <Gold.PLP.Fitness>
46.1896

> <Gold.PLP.PLP>
-31.2221

> <Gold.PLP.part.hbond>
-4.0000

> <Gold.PLP.part.metal>
0.0000

> <Gold.PLP.part.buried>
1.0388

> <Gold.PLP.part.nonpolar>
-31.3699

> <Gold.PLP.part.repulsive>
2.5661

> <Gold.PLP.ligand.clash>
0.0000

> <Gold.PLP.ligand.torsion>
1.4681

> <Gold.PLP.Chemscore.Hbond>
4.9262

> <Gold.PLP.Chemscore.CHOScore>
0.9984

> <Gold.PLP.Chemscore.Metal>
0.0000

> <Gold.Chemscore.Hbonds>
donor molecule, donor type, donor heavy atom, donor atom, acceptor molecule, acceptor atom, score
      L1  H     9    42       P1  7948  2.00
      L1  H    12    33       P1 10186  0.70
      L1  H    12    34       P1  7921  1.00
      P1  H  7989  7998       L1    20  1.00
      L1  C    17    39       P1  8028  0.85

> <Gold.PLP.Chemscore.Internal.Correction>
0.1298

> <Gold.Rescore>
     Score         DG    S(hbond)    S(metal)    S(lipo)     H(rot)  DE(clash)    DE(int)     intcor
     13.87     -18.40       3.71        0.00      59.85       2.52       0.85       3.68       ----

> <Gold.Chemscore.Fitness>
13.8665

> <Gold.Chemscore.DG>
-18.3961

> <Gold.Chemscore.ZeroCoef>
-5.4800

> <Gold.Chemscore.Hbond>
3.7053

> <Gold.Chemscore.Metal>
0.0000

> <Gold.Chemscore.Lipo>
59.8511

> <Gold.Chemscore.Internal_Hbond>
0.0000

> <Gold.Chemscore.DEClash>
0.8480

> <Gold.Chemscore.DEInternal>
3.6817

> <Gold.Chemscore.Rot>
2.5243

> <Gold.Chemscore.Internal.Correction>
   9.000000E+99

> <Gold.Chemscore.Hbonds>
donor molecule, donor type, donor heavy atom, donor atom, acceptor molecule, acceptor atom, score
      L1  H     9    42       P1  7948  1.00
      L1  H    12    33       P1 10186  0.67
      L1  H    12    34       P1  7921  1.00
      P1  H  7989  7998       L1    20  0.17

> <Gold.Chemscore.Hbond.Weighted>
-12.3758

> <Gold.Chemscore.Metal.Weighted>
-0.0000

> <Gold.Chemscore.Lipo.Weighted>
-7.0026

> <Gold.Chemscore.Internal_Hbond.Weighted>
0.0000

> <Gold.Chemscore.DEClash.Weighted>
0.8480

> <Gold.Chemscore.DEInternal.Weighted>
3.6817

> <Gold.Chemscore.Rot.Weighted>
6.4622

> <Gold.Chemscore.Internal.Correction.Weighted>
   9.000000E+99

> <Gold.Protein.RotatedTorsions>
[ 6907 6896 6895 6894 ] final   94.88 input  -60.11 | X-H torsion
[ 7974 7965 7964 7962 ] final  -42.72 input  175.53 | X-H torsion
[ 8008 7997 7996 7995 ] final   50.28 input   59.86 | X-H torsion
[ 10167 10162 10161 10158 ] final  143.52 input  -65.29 | X-H torsion
[ 10718 10713 10712 10709 ] final   56.68 input   66.30 | X-H torsion
[ 10763 10752 10751 10750 ] final  148.63 input  -60.55 | X-H torsion
[ 11005 11000 10999 10996 ] final  -64.85 input  -57.11 | X-H torsion

> <Gold.Protein.ActiveResidues>
 VAL166  LYS551  ARG553  GLY616  TRP617  ASP618  TYR619  PRO620  LYS621  CYS622 
 ASP623  PHE694  ASN695  SER759  ASP760  ASP761  ALA762  ILE779  LEU786  VAL792 
 PHE793  MET794  SER795  GLU796  ALA797  LYS798  CYS799  TRP800  GLU811  SER814 

> <Gold.Protein.RotatedAtoms>
  152.5447  134.1125  159.8364 H   0  0  0  0  0  0  0  0  0  0  0  0  # atno 6907 bound_to 6896
  151.1190  133.5110  159.2610 H   0  0  0  0  0  0  0  0  0  0  0  0  # atno 6908 bound_to 6896
  151.1800  135.0366  159.8843 H   0  0  0  0  0  0  0  0  0  0  0  0  # atno 6909 bound_to 6896
  146.0089  140.6988  142.9234 H   0  0  0  0  0  0  0  0  0  0  0  0  # atno 7974 bound_to 7965
  155.4161  140.3444  155.4267 H   0  0  0  0  0  0  0  0  0  0  0  0  # atno 8008 bound_to 7997
  156.1420  140.1545  156.8937 H   0  0  0  0  0  0  0  0  0  0  0  0  # atno 8009 bound_to 7997
  154.4979  140.0823  156.7717 H   0  0  0  0  0  0  0  0  0  0  0  0  # atno 8010 bound_to 7997
  139.4968  144.6034  151.6431 H   0  0  0  0  0  0  0  0  0  0  0  0  # atno 10167 bound_to 10162
  157.5451  130.8725  149.8879 H   0  0  0  0  0  0  0  0  0  0  0  0  # atno 10718 bound_to 10713
  154.0579  135.2876  155.3330 H   0  0  0  0  0  0  0  0  0  0  0  0  # atno 10763 bound_to 10752
  154.6827  135.5257  153.8288 H   0  0  0  0  0  0  0  0  0  0  0  0  # atno 10764 bound_to 10752
  153.0534  135.6585  154.0770 H   0  0  0  0  0  0  0  0  0  0  0  0  # atno 10765 bound_to 10752
  141.1437  133.6672  156.5896 H   0  0  0  0  0  0  0  0  0  0  0  0  # atno 11005 bound_to 11000
  144.6945  140.3363  143.7207 LP  0  0  0  0  0  0  0  0  0  0  0  0  # atno 17320 bound_to 7965
  145.7373  139.1754  143.2396 LP  0  0  0  0  0  0  0  0  0  0  0  0  # atno 17321 bound_to 7965
  140.5690  144.0141  150.6207 LP  0  0  0  0  0  0  0  0  0  0  0  0  # atno 17342 bound_to 10162
  140.3252  143.3112  152.0743 LP  0  0  0  0  0  0  0  0  0  0  0  0  # atno 17343 bound_to 10162
  156.0529  130.3714  150.1159 LP  0  0  0  0  0  0  0  0  0  0  0  0  # atno 17370 bound_to 10713
  156.9336  130.9722  151.3528 LP  0  0  0  0  0  0  0  0  0  0  0  0  # atno 17371 bound_to 10713
  140.3773  134.7554  157.4638 LP  0  0  0  0  0  0  0  0  0  0  0  0  # atno 17394 bound_to 11000
  140.0664  134.5923  155.8690 LP  0  0  0  0  0  0  0  0  0  0  0  0  # atno 17395 bound_to 11000

$$$$
