AV-unprocessed.smi:3018|AV-procd|sdf|11482|dock8
  -GOLD-   2272016423D 1   1.00000     0.00000
 Structure written by MMmdl.
 44 45  0  0  0  0  0  0  0  0  2 V2000
  150.1569  140.1696  154.9679 C   0  0  0  0  0  0  0  0  0  0  0  0
  151.3485  139.9086  155.8979 C   0  0  0  0  0  0  0  0  0  0  0  0
  151.0934  140.3865  157.3392 C   0  0  1  0  0  0  0  0  0  0  0  0
  151.0329  141.8116  157.3193 O   0  0  0  0  0  0  0  0  0  0  0  0
  151.0262  142.4681  158.5843 C   0  0  0  0  0  0  0  0  0  0  0  0
  150.7387  143.9573  158.3270 C   0  0  0  0  0  0  0  0  0  0  0  0
  150.7969  144.7730  159.6286 C   0  0  0  0  0  0  0  0  0  0  0  0
  152.1500  144.5942  160.3355 C   0  0  0  0  0  0  0  0  0  0  0  0
  152.4530  143.1089  160.5890 C   0  0  0  0  0  0  0  0  0  0  0  0
  152.3887  142.2947  159.2864 C   0  0  0  0  0  0  0  0  0  0  0  0
  149.7737  139.8226  157.8882 C   0  0  0  0  0  0  0  0  0  0  0  0
  148.8542  140.5820  158.1944 O   0  0  0  0  0  0  0  0  0  0  0  0
  149.7029  138.4889  158.0195 N   0  0  0  0  0  0  0  0  0  0  0  0
  148.5489  137.7561  158.5260 C   0  0  0  0  0  0  0  0  0  0  0  0
  148.9795  136.5809  159.4280 C   0  0  0  0  0  0  0  0  0  0  0  0
  148.0961  136.3408  160.6444 C   0  0  0  0  0  0  0  0  0  0  0  0
  147.5488  137.2157  161.4064 N   0  0  0  0  0  0  0  0  0  0  0  0
  146.8315  136.4567  162.3876 N   0  5  0  0  0  0  0  0  0  0  0  0
  147.0325  135.1475  162.1011 C   0  0  0  0  0  0  0  0  0  0  0  0
  146.6027  134.1569  162.6877 O   0  0  0  0  0  0  0  0  0  0  0  0
  147.8100  135.0599  161.0272 N   0  0  0  0  0  0  0  0  0  0  0  0
  148.1354  134.2177  160.5767 H   0  0  0  0  0  0  0  0  0  0  0  0
  150.3737  139.8306  153.9548 H   0  0  0  0  0  0  0  0  0  0  0  0
  149.9203  141.2328  154.9199 H   0  0  0  0  0  0  0  0  0  0  0  0
  149.2654  139.6431  155.3101 H   0  0  0  0  0  0  0  0  0  0  0  0
  151.5821  138.8428  155.8923 H   0  0  0  0  0  0  0  0  0  0  0  0
  152.2245  140.4165  155.4915 H   0  0  0  0  0  0  0  0  0  0  0  0
  151.9200  140.0474  157.9650 H   0  0  0  0  0  0  0  0  0  0  0  0
  150.2340  142.0774  159.2243 H   0  0  0  0  0  0  0  0  0  0  0  0
  151.4645  144.3547  157.6161 H   0  0  0  0  0  0  0  0  0  0  0  0
  149.7583  144.0706  157.8629 H   0  0  0  0  0  0  0  0  0  0  0  0
  150.6259  145.8282  159.4141 H   0  0  0  0  0  0  0  0  0  0  0  0
  149.9917  144.4581  160.2937 H   0  0  0  0  0  0  0  0  0  0  0  0
  152.9415  145.0287  159.7236 H   0  0  0  0  0  0  0  0  0  0  0  0
  152.1526  145.1414  161.2786 H   0  0  0  0  0  0  0  0  0  0  0  0
  153.4377  143.0037  161.0450 H   0  0  0  0  0  0  0  0  0  0  0  0
  151.7355  142.7071  161.3056 H   0  0  0  0  0  0  0  0  0  0  0  0
  152.5768  141.2449  159.5091 H   0  0  0  0  0  0  0  0  0  0  0  0
  153.1881  142.6150  158.6171 H   0  0  0  0  0  0  0  0  0  0  0  0
  150.5071  137.9422  157.7478 H   0  0  0  0  0  0  0  0  0  0  0  0
  147.9342  138.4579  159.0909 H   0  0  0  0  0  0  0  0  0  0  0  0
  147.9387  137.4051  157.6917 H   0  0  0  0  0  0  0  0  0  0  0  0
  149.0091  135.6593  158.8459 H   0  0  0  0  0  0  0  0  0  0  0  0
  149.9971  136.7530  159.7801 H   0  0  0  0  0  0  0  0  0  0  0  0
  1  2  1  0  0  0  0
  1 23  1  0  0  0  0
  1 24  1  0  0  0  0
  1 25  1  0  0  0  0
  2  3  1  0  0  0  0
  2 26  1  0  0  0  0
  2 27  1  0  0  0  0
  3  4  1  0  0  0  0
  3 11  1  0  0  0  0
  3 28  1  0  0  0  0
  4  5  1  0  0  0  0
  5 10  1  0  0  0  0
  5  6  1  0  0  0  0
  5 29  1  0  0  0  0
  6  7  1  0  0  0  0
  6 30  1  0  0  0  0
  6 31  1  0  0  0  0
  7  8  1  0  0  0  0
  7 32  1  0  0  0  0
  7 33  1  0  0  0  0
  8  9  1  0  0  0  0
  8 34  1  0  0  0  0
  8 35  1  0  0  0  0
  9 10  1  0  0  0  0
  9 36  1  0  0  0  0
  9 37  1  0  0  0  0
 10 38  1  0  0  0  0
 10 39  1  0  0  0  0
 11 12  2  0  0  0  0
 11 13  1  0  0  0  0
 13 14  1  0  0  0  0
 13 40  1  0  0  0  0
 14 15  1  0  0  0  0
 14 41  1  0  0  0  0
 14 42  1  0  0  0  0
 15 16  1  0  0  0  0
 15 43  1  0  0  0  0
 15 44  1  0  0  0  0
 16 21  1  0  0  0  0
 16 17  2  0  0  0  0
 17 18  1  0  0  0  0
 18 19  1  0  0  0  0
 19 20  2  0  0  0  0
 19 21  1  0  0  0  0
 21 22  1  0  0  0  0
M  CHG  1  18  -1
M  END
> <s_m_source_file>
AV-unprocessed.smi

> <i_m_source_file_index>
3018

> <i_lp_mmshare_version>
43012

> <i_f3d_flags>
0

> <s_epik_input>
W0NIMl0xW0NIMl1bQ0gyXVtDSDJdW0NIMl1bQ0hdMU9bQ0BASF0oW0NIMl1bQ0gzXSlDKD1PKVtOSF1bQ0gyXVtDSDJdYzJuW25IXWMoPU8pW25IXTI=

> <s_epik_cmdline>
J2VwaWtfcHl0aG9uJywgJy1waCcsICc3LjAnLCAnLXRuJywgJzgnLCAnLW1hJywgJzIwMCcsICctbWV0YWxfYmluZGluZycsICctaW1hZScsICc8aW5maWxlLm1hZT4nLCAnLW9tYWUnLCAnPG91dGZpbGUubWFlPic=

> <r_lp_tautomer_probability>
1

> <r_epik_Ionization_Penalty>
14.1812

> <r_epik_Ionization_Penalty_Charging>
13.7758

> <r_epik_Ionization_Penalty_Neutral>
0.405355

> <r_epik_State_Penalty>
4.92413

> <r_epik_Charging_Adjusted_Penalty>
18.7

> <i_epik_Tot_Q>
-1

> <i_epik_Tot_abs_Q>
1

> <r_epik_Metal_State_Penalty>
1.32654

> <b_epik_Metal_Only>
1

> <s_lp_Force_Field>
OPLS_2005

> <r_lp_Energy>
19.6137

> <b_lp_Chiralities_Consistent>
1

> <s_lp_Variant>
AV-unprocessed.smi:3018-4

> <Gold.Version>
5.8.1

> <Gold.Id.Protein>
6NUR|6NUR_protein|mol2

> <Gold.PLP.Fitness>
44.4497

> <Gold.PLP.PLP>
-40.5467

> <Gold.PLP.part.hbond>
-3.0500

> <Gold.PLP.part.metal>
0.0000

> <Gold.PLP.part.buried>
-6.5637

> <Gold.PLP.part.nonpolar>
-31.1716

> <Gold.PLP.part.repulsive>
0.2530

> <Gold.PLP.ligand.clash>
0.0000

> <Gold.PLP.ligand.torsion>
0.8358

> <Gold.PLP.Chemscore.Hbond>
1.7920

> <Gold.PLP.Chemscore.CHOScore>
0.0000

> <Gold.PLP.Chemscore.Metal>
0.0000

> <Gold.Chemscore.Hbonds>
donor molecule, donor type, donor heavy atom, donor atom, acceptor molecule, acceptor atom, score
      P1  H  6931  6943       L1    17  0.93
      P1  H  6934  6947       L1    17  0.86

> <Gold.PLP.Chemscore.Internal.Correction>
0.1986

> <Gold.Rescore>
     Score         DG    S(hbond)    S(metal)    S(lipo)     H(rot)  DE(clash)    DE(int)     intcor
     11.84     -14.06       1.70        0.00      90.00       2.98       0.30       1.91       ----

> <Gold.Chemscore.Fitness>
11.8450

> <Gold.Chemscore.DG>
-14.0592

> <Gold.Chemscore.ZeroCoef>
-5.4800

> <Gold.Chemscore.Hbond>
1.6978

> <Gold.Chemscore.Metal>
0.0000

> <Gold.Chemscore.Lipo>
90.0002

> <Gold.Chemscore.Internal_Hbond>
0.0000

> <Gold.Chemscore.DEClash>
0.3044

> <Gold.Chemscore.DEInternal>
1.9099

> <Gold.Chemscore.Rot>
2.9772

> <Gold.Chemscore.Internal.Correction>
   9.000000E+99

> <Gold.Chemscore.Hbonds>
donor molecule, donor type, donor heavy atom, donor atom, acceptor molecule, acceptor atom, score
      P1  H  6931  6943       L1    17  0.31
      P1  H  6934  6947       L1    17  0.84

> <Gold.Chemscore.Hbond.Weighted>
-5.6708

> <Gold.Chemscore.Metal.Weighted>
-0.0000

> <Gold.Chemscore.Lipo.Weighted>
-10.5300

> <Gold.Chemscore.Internal_Hbond.Weighted>
0.0000

> <Gold.Chemscore.DEClash.Weighted>
0.3044

> <Gold.Chemscore.DEInternal.Weighted>
1.9099

> <Gold.Chemscore.Rot.Weighted>
7.6216

> <Gold.Chemscore.Internal.Correction.Weighted>
   9.000000E+99

> <Gold.Protein.RotatedTorsions>
[ 6907 6896 6895 6894 ] final   49.69 input  -60.11 | X-H torsion
[ 7974 7965 7964 7962 ] final   25.14 input  175.53 | X-H torsion
[ 8008 7997 7996 7995 ] final   55.73 input   59.86 | X-H torsion
[ 10167 10162 10161 10158 ] final -101.26 input  -65.29 | X-H torsion
[ 10718 10713 10712 10709 ] final  136.60 input   66.30 | X-H torsion
[ 10763 10752 10751 10750 ] final   74.52 input  -60.55 | X-H torsion
[ 11005 11000 10999 10996 ] final   89.69 input  -57.11 | X-H torsion

> <Gold.Protein.ActiveResidues>
 VAL166  LYS551  ARG553  GLY616  TRP617  ASP618  TYR619  PRO620  LYS621  CYS622 
 ASP623  PHE694  ASN695  SER759  ASP760  ASP761  ALA762  ILE779  LEU786  VAL792 
 PHE793  MET794  SER795  GLU796  ALA797  LYS798  CYS799  TRP800  GLU811  SER814 

> <Gold.Protein.RotatedAtoms>
  152.2936  134.7693  160.0372 H   0  0  0  0  0  0  0  0  0  0  0  0  # atno 6907 bound_to 6896
  151.8231  133.3392  159.3598 H   0  0  0  0  0  0  0  0  0  0  0  0  # atno 6908 bound_to 6896
  150.7241  134.5484  159.5826 H   0  0  0  0  0  0  0  0  0  0  0  0  # atno 6909 bound_to 6896
  146.1903  139.7507  142.8836 H   0  0  0  0  0  0  0  0  0  0  0  0  # atno 7974 bound_to 7965
  155.5059  140.3476  155.4379 H   0  0  0  0  0  0  0  0  0  0  0  0  # atno 8008 bound_to 7997
  156.0882  140.1404  156.9653 H   0  0  0  0  0  0  0  0  0  0  0  0  # atno 8009 bound_to 7997
  154.4619  140.0931  156.6893 H   0  0  0  0  0  0  0  0  0  0  0  0  # atno 8010 bound_to 7997
  140.2432  143.3524  152.0783 H   0  0  0  0  0  0  0  0  0  0  0  0  # atno 10167 bound_to 10162
  157.4449  131.1061  151.0100 H   0  0  0  0  0  0  0  0  0  0  0  0  # atno 10718 bound_to 10713
  153.0592  135.5022  154.8055 H   0  0  0  0  0  0  0  0  0  0  0  0  # atno 10763 bound_to 10752
  154.6856  135.2975  154.9554 H   0  0  0  0  0  0  0  0  0  0  0  0  # atno 10764 bound_to 10752
  154.0325  135.6727  153.4835 H   0  0  0  0  0  0  0  0  0  0  0  0  # atno 10765 bound_to 10752
  139.8870  134.8567  156.3179 H   0  0  0  0  0  0  0  0  0  0  0  0  # atno 11005 bound_to 11000
  145.3812  141.0358  143.3176 LP  0  0  0  0  0  0  0  0  0  0  0  0  # atno 17320 bound_to 7965
  144.8474  139.5375  143.6872 LP  0  0  0  0  0  0  0  0  0  0  0  0  # atno 17321 bound_to 7965
  139.5070  144.6825  151.5973 LP  0  0  0  0  0  0  0  0  0  0  0  0  # atno 17342 bound_to 10162
  140.6098  143.9458  150.6444 LP  0  0  0  0  0  0  0  0  0  0  0  0  # atno 17343 bound_to 10162
  157.0950  130.5958  149.5448 LP  0  0  0  0  0  0  0  0  0  0  0  0  # atno 17370 bound_to 10713
  155.9963  130.5032  150.7493 LP  0  0  0  0  0  0  0  0  0  0  0  0  # atno 17371 bound_to 10713
  140.9807  133.7269  156.0667 LP  0  0  0  0  0  0  0  0  0  0  0  0  # atno 17394 bound_to 11000
  140.7753  134.3786  157.5499 LP  0  0  0  0  0  0  0  0  0  0  0  0  # atno 17395 bound_to 11000

$$$$
