AV-unprocessed.smi:1378|AV-procd|sdf|5596|dock7
  -GOLD-   22720 5203D 1   1.00000     0.00000
 Structure written by MMmdl.
 46 48  0  0  0  0  0  0  0  0  1 V2000
  153.8404  136.6249  163.4361 C   0  0  0  0  0  0  0  0  0  0  0  0
  153.8035  136.5473  162.0224 O   0  0  0  0  0  0  0  0  0  0  0  0
  153.1670  137.6685  161.4310 C   0  0  0  0  0  0  0  0  0  0  0  0
  152.6667  137.2950  160.0293 C   0  0  0  0  0  0  0  0  0  0  0  0
  151.8586  138.3521  159.4407 N   0  0  0  0  0  0  0  0  0  0  0  0
  150.6602  138.2351  158.8191 C   0  0  0  0  0  0  0  0  0  0  0  0
  149.8426  136.6815  158.6517 S   0  0  0  0  0  0  0  0  0  0  0  0
  148.1922  137.1849  159.2294 C   0  0  0  0  0  0  0  0  0  0  0  0
  147.8398  136.6050  160.5998 C   0  0  0  0  0  0  0  0  0  0  0  0
  147.6261  137.3552  161.5514 O   0  0  0  0  0  0  0  0  0  0  0  0
  147.7539  135.2680  160.6731 N   0  0  0  0  0  0  0  0  0  0  0  0
  147.3170  134.5051  161.8373 C   0  0  0  0  0  0  0  0  0  0  0  0
  147.2664  132.9973  161.5282 C   0  0  0  0  0  0  0  0  0  0  0  0
  145.7829  132.6403  161.4320 C   0  0  0  0  0  0  0  0  0  0  0  0
  145.1046  133.6051  162.3995 C   0  0  0  0  0  0  0  0  0  0  0  0
  145.8859  134.9103  162.2415 C   0  0  0  0  0  0  0  0  0  0  0  0
  150.1235  139.3725  158.3773 N   0  0  0  0  0  0  0  0  0  0  0  0
  151.0608  140.3157  158.7503 C   0  0  0  0  0  0  0  0  0  0  0  0
  151.0712  141.7182  158.5777 C   0  0  0  0  0  0  0  0  0  0  0  0
  152.1513  142.4880  159.0571 C   0  0  0  0  0  0  0  0  0  0  0  0
  153.2343  141.8682  159.7133 C   0  0  0  0  0  0  0  0  0  0  0  0
  153.2437  140.4721  159.8955 C   0  0  0  0  0  0  0  0  0  0  0  0
  152.1619  139.7089  159.4176 C   0  0  0  0  0  0  0  0  0  0  0  0
  154.3437  135.7453  163.8372 H   0  0  0  0  0  0  0  0  0  0  0  0
  152.8340  136.6572  163.8553 H   0  0  0  0  0  0  0  0  0  0  0  0
  154.3879  137.5076  163.7690 H   0  0  0  0  0  0  0  0  0  0  0  0
  152.3305  137.9940  162.0516 H   0  0  0  0  0  0  0  0  0  0  0  0
  153.8671  138.5023  161.3635 H   0  0  0  0  0  0  0  0  0  0  0  0
  153.5056  137.0719  159.3697 H   0  0  0  0  0  0  0  0  0  0  0  0
  152.0692  136.3843  160.0759 H   0  0  0  0  0  0  0  0  0  0  0  0
  148.1329  138.2737  159.2548 H   0  0  0  0  0  0  0  0  0  0  0  0
  147.4535  136.8484  158.5016 H   0  0  0  0  0  0  0  0  0  0  0  0
  147.9550  134.7388  159.8368 H   0  0  0  0  0  0  0  0  0  0  0  0
  147.9917  134.6823  162.6769 H   0  0  0  0  0  0  0  0  0  0  0  0
  147.8149  132.7199  160.6271 H   0  0  0  0  0  0  0  0  0  0  0  0
  147.7146  132.4471  162.3566 H   0  0  0  0  0  0  0  0  0  0  0  0
  145.4253  132.8244  160.4181 H   0  0  0  0  0  0  0  0  0  0  0  0
  145.5851  131.5953  161.6719 H   0  0  0  0  0  0  0  0  0  0  0  0
  144.0399  133.7262  162.1967 H   0  0  0  0  0  0  0  0  0  0  0  0
  145.2099  133.2346  163.4199 H   0  0  0  0  0  0  0  0  0  0  0  0
  145.8688  135.5096  163.1524 H   0  0  0  0  0  0  0  0  0  0  0  0
  145.4175  135.5078  161.4578 H   0  0  0  0  0  0  0  0  0  0  0  0
  150.2464  142.2030  158.0768 H   0  0  0  0  0  0  0  0  0  0  0  0
  152.1493  143.5593  158.9197 H   0  0  0  0  0  0  0  0  0  0  0  0
  154.0580  142.4652  160.0763 H   0  0  0  0  0  0  0  0  0  0  0  0
  154.0720  139.9934  160.3966 H   0  0  0  0  0  0  0  0  0  0  0  0
  1  2  1  0  0  0  0
  1 24  1  0  0  0  0
  1 25  1  0  0  0  0
  1 26  1  0  0  0  0
  2  3  1  0  0  0  0
  3  4  1  0  0  0  0
  3 27  1  0  0  0  0
  3 28  1  0  0  0  0
  4  5  1  0  0  0  0
  4 29  1  0  0  0  0
  4 30  1  0  0  0  0
  5 23  1  0  0  0  0
  5  6  1  0  0  0  0
  6  7  1  0  0  0  0
  6 17  2  0  0  0  0
  7  8  1  0  0  0  0
  8  9  1  0  0  0  0
  8 31  1  0  0  0  0
  8 32  1  0  0  0  0
  9 10  2  0  0  0  0
  9 11  1  0  0  0  0
 11 12  1  0  0  0  0
 11 33  1  0  0  0  0
 12 16  1  0  0  0  0
 12 13  1  0  0  0  0
 12 34  1  0  0  0  0
 13 14  1  0  0  0  0
 13 35  1  0  0  0  0
 13 36  1  0  0  0  0
 14 15  1  0  0  0  0
 14 37  1  0  0  0  0
 14 38  1  0  0  0  0
 15 16  1  0  0  0  0
 15 39  1  0  0  0  0
 15 40  1  0  0  0  0
 16 41  1  0  0  0  0
 16 42  1  0  0  0  0
 17 18  1  0  0  0  0
 18 23  2  0  0  0  0
 18 19  1  0  0  0  0
 19 20  2  0  0  0  0
 19 43  1  0  0  0  0
 20 21  1  0  0  0  0
 20 44  1  0  0  0  0
 21 22  2  0  0  0  0
 21 45  1  0  0  0  0
 22 23  1  0  0  0  0
 22 46  1  0  0  0  0
M  END
> <s_m_source_file>
AV-unprocessed.smi

> <i_m_source_file_index>
1378

> <i_lp_mmshare_version>
43012

> <i_f3d_flags>
0

> <s_epik_input>
W2NIXTFbY0hdW2NIXVtjSF1jKGMxMiluKFtDSDJdW0NIMl1PW0NIM10pYyhuMilTW0NIMl1DKD1PKVtOSF1bQ0hdM1tDSDJdW0NIMl1bQ0gyXVtDSDJdMw==

> <s_epik_cmdline>
J2VwaWtfcHl0aG9uJywgJy1waCcsICc3LjAnLCAnLXRuJywgJzgnLCAnLW1hJywgJzIwMCcsICctbWV0YWxfYmluZGluZycsICctaW1hZScsICc8aW5maWxlLm1hZT4nLCAnLW9tYWUnLCAnPG91dGZpbGUubWFlPic=

> <r_epik_Ionization_Penalty>
0.0369383

> <r_epik_Ionization_Penalty_Charging>
0

> <r_epik_Ionization_Penalty_Neutral>
0.0369383

> <r_epik_State_Penalty>
0.0308874

> <r_epik_Charging_Adjusted_Penalty>
0.0308874

> <i_epik_Tot_Q>
0

> <i_epik_Tot_abs_Q>
0

> <r_epik_Metal_State_Penalty>
0.0290628

> <b_epik_Metal_Only>
0

> <s_lp_Force_Field>
OPLS_2005

> <r_lp_Energy>
18.5214

> <b_lp_Chiralities_Consistent>
1

> <s_lp_Variant>
AV-unprocessed.smi:1378-1

> <Gold.Version>
5.8.1

> <Gold.Id.Protein>
6NUR|6NUR_protein|mol2

> <Gold.PLP.Fitness>
46.5117

> <Gold.PLP.PLP>
-42.8818

> <Gold.PLP.part.hbond>
-2.0000

> <Gold.PLP.part.metal>
0.0000

> <Gold.PLP.part.buried>
-4.5206

> <Gold.PLP.part.nonpolar>
-37.4819

> <Gold.PLP.part.repulsive>
0.0972

> <Gold.PLP.ligand.clash>
0.0000

> <Gold.PLP.ligand.torsion>
0.7762

> <Gold.PLP.Chemscore.Hbond>
1.6880

> <Gold.PLP.Chemscore.CHOScore>
0.0000

> <Gold.PLP.Chemscore.Metal>
0.0000

> <Gold.Chemscore.Hbonds>
donor molecule, donor type, donor heavy atom, donor atom, acceptor molecule, acceptor atom, score
      P1  H  6931  6943       L1    10  0.90
      P1  H  6934  6947       L1    10  0.75

> <Gold.PLP.Chemscore.Internal.Correction>
0.1185

> <Gold.Rescore>
     Score         DG    S(hbond)    S(metal)    S(lipo)     H(rot)  DE(clash)    DE(int)     intcor
     17.41     -18.35       1.64        0.00     106.49       1.98       0.16       0.78       ----

> <Gold.Chemscore.Fitness>
17.4121

> <Gold.Chemscore.DG>
-18.3479

> <Gold.Chemscore.ZeroCoef>
-5.4800

> <Gold.Chemscore.Hbond>
1.6392

> <Gold.Chemscore.Metal>
0.0000

> <Gold.Chemscore.Lipo>
106.4948

> <Gold.Chemscore.Internal_Hbond>
0.0000

> <Gold.Chemscore.DEClash>
0.1556

> <Gold.Chemscore.DEInternal>
0.7803

> <Gold.Chemscore.Rot>
1.9792

> <Gold.Chemscore.Internal.Correction>
   9.000000E+99

> <Gold.Chemscore.Hbonds>
donor molecule, donor type, donor heavy atom, donor atom, acceptor molecule, acceptor atom, score
      P1  H  6931  6943       L1    10  0.66
      P1  H  6934  6947       L1    10  0.56

> <Gold.Chemscore.Hbond.Weighted>
-5.4749

> <Gold.Chemscore.Metal.Weighted>
-0.0000

> <Gold.Chemscore.Lipo.Weighted>
-12.4599

> <Gold.Chemscore.Internal_Hbond.Weighted>
0.0000

> <Gold.Chemscore.DEClash.Weighted>
0.1556

> <Gold.Chemscore.DEInternal.Weighted>
0.7803

> <Gold.Chemscore.Rot.Weighted>
5.0669

> <Gold.Chemscore.Internal.Correction.Weighted>
   9.000000E+99

> <Gold.Protein.RotatedTorsions>
[ 6907 6896 6895 6894 ] final -163.18 input  -60.11 | X-H torsion
[ 7974 7965 7964 7962 ] final   87.23 input  175.53 | X-H torsion
[ 8008 7997 7996 7995 ] final   60.30 input   59.86 | X-H torsion
[ 10167 10162 10161 10158 ] final  -60.28 input  -65.29 | X-H torsion
[ 10718 10713 10712 10709 ] final  -22.63 input   66.30 | X-H torsion
[ 10763 10752 10751 10750 ] final -143.70 input  -60.55 | X-H torsion
[ 11005 11000 10999 10996 ] final  -71.22 input  -57.11 | X-H torsion

> <Gold.Protein.ActiveResidues>
 VAL166  LYS551  ARG553  GLY616  TRP617  ASP618  TYR619  PRO620  LYS621  CYS622 
 ASP623  PHE694  ASN695  SER759  ASP760  ASP761  ALA762  ILE779  LEU786  VAL792 
 PHE793  MET794  SER795  GLU796  ALA797  LYS798  CYS799  TRP800  GLU811  SER814 

> <Gold.Protein.RotatedAtoms>
  151.3919  133.3786  159.2721 H   0  0  0  0  0  0  0  0  0  0  0  0  # atno 6907 bound_to 6896
  150.9498  134.8901  159.7675 H   0  0  0  0  0  0  0  0  0  0  0  0  # atno 6908 bound_to 6896
  152.5107  134.3874  159.9424 H   0  0  0  0  0  0  0  0  0  0  0  0  # atno 6909 bound_to 6896
  145.5617  139.2304  143.2455 H   0  0  0  0  0  0  0  0  0  0  0  0  # atno 7974 bound_to 7965
  155.5800  140.3491  155.4538 H   0  0  0  0  0  0  0  0  0  0  0  0  # atno 8008 bound_to 7997
  156.0380  140.1289  157.0212 H   0  0  0  0  0  0  0  0  0  0  0  0  # atno 8009 bound_to 7997
  154.4380  140.1030  156.6181 H   0  0  0  0  0  0  0  0  0  0  0  0  # atno 8010 bound_to 7997
  140.6081  143.2379  151.5773 H   0  0  0  0  0  0  0  0  0  0  0  0  # atno 10167 bound_to 10162
  156.5019  130.4590  149.6696 H   0  0  0  0  0  0  0  0  0  0  0  0  # atno 10718 bound_to 10713
  154.8459  135.3460  154.6229 H   0  0  0  0  0  0  0  0  0  0  0  0  # atno 10763 bound_to 10752
  153.6838  135.6978  153.5114 H   0  0  0  0  0  0  0  0  0  0  0  0  # atno 10764 bound_to 10752
  153.2647  135.4311  155.0885 H   0  0  0  0  0  0  0  0  0  0  0  0  # atno 10765 bound_to 10752
  141.1588  133.6811  156.6872 H   0  0  0  0  0  0  0  0  0  0  0  0  # atno 11005 bound_to 11000
  146.1846  140.6442  142.9173 LP  0  0  0  0  0  0  0  0  0  0  0  0  # atno 17320 bound_to 7965
  144.7480  140.5117  143.6822 LP  0  0  0  0  0  0  0  0  0  0  0  0  # atno 17321 bound_to 7965
  139.5340  144.2833  152.1212 LP  0  0  0  0  0  0  0  0  0  0  0  0  # atno 17342 bound_to 10162
  140.2027  144.4642  150.6424 LP  0  0  0  0  0  0  0  0  0  0  0  0  # atno 17343 bound_to 10162
  156.3324  130.7338  151.2270 LP  0  0  0  0  0  0  0  0  0  0  0  0  # atno 17370 bound_to 10713
  157.7462  131.0426  150.4703 LP  0  0  0  0  0  0  0  0  0  0  0  0  # atno 17371 bound_to 10713
  140.3058  134.8126  157.4135 LP  0  0  0  0  0  0  0  0  0  0  0  0  # atno 17394 bound_to 11000
  140.1222  134.5205  155.8174 LP  0  0  0  0  0  0  0  0  0  0  0  0  # atno 17395 bound_to 11000

$$$$
