AV-unprocessed.smi:2078|AV-procd|sdf|8471|dock5
  -GOLD-   2272011173D 1   1.00000     0.00000
 Structure written by MMmdl.
 41 42  0  0  0  0  0  0  0  0  3 V2000
  145.1119  134.5694  162.8010 C   0  0  0  0  0  0  0  0  0  0  0  0
  146.0859  135.4254  162.0667 C   0  0  0  0  0  0  0  0  0  0  0  0
  147.3131  135.1781  161.5191 C   0  0  0  0  0  0  0  0  0  0  0  0
  147.6825  136.4375  160.9762 C   0  0  0  0  0  0  0  0  0  0  0  0
  148.9230  136.5991  160.3043 N   0  0  0  0  0  0  0  0  0  0  0  0
  149.1517  136.8362  158.9996 C   0  0  0  0  0  0  0  0  0  0  0  0
  148.2062  136.9509  158.2104 O   0  0  0  0  0  0  0  0  0  0  0  0
  150.4810  136.9225  158.7189 N   0  5  0  0  0  0  0  0  0  0  0  0
  151.3971  137.8795  159.3334 C   0  0  0  0  0  0  0  0  0  0  0  0
  152.1405  138.6621  158.2342 C   0  0  0  0  0  0  0  0  0  0  0  0
  152.7600  139.9089  158.7583 N   0  3  1  0  0  0  0  0  0  0  0  0
  151.8724  141.0927  158.6173 C   0  0  0  0  0  0  0  0  0  0  0  0
  152.6032  142.3837  159.0199 C   0  0  0  0  0  0  0  0  0  0  0  0
  153.1589  142.2820  160.4464 C   0  0  0  0  0  0  0  0  0  0  0  0
  154.0510  141.0369  160.5842 C   0  0  1  0  0  0  0  0  0  0  0  0
  154.6035  140.8952  162.0094 C   0  0  0  0  0  0  0  0  0  0  0  0
  153.2741  139.7778  160.1513 C   0  0  0  0  0  0  0  0  0  0  0  0
  146.7615  137.3692  161.1741 N   0  0  0  0  0  0  0  0  0  0  0  0
  145.7342  136.7253  161.8739 O   0  0  0  0  0  0  0  0  0  0  0  0
  145.4930  133.5542  162.9130 H   0  0  0  0  0  0  0  0  0  0  0  0
  144.1636  134.5178  162.2662 H   0  0  0  0  0  0  0  0  0  0  0  0
  144.9192  134.9702  163.7962 H   0  0  0  0  0  0  0  0  0  0  0  0
  147.8580  134.2460  161.5098 H   0  0  0  0  0  0  0  0  0  0  0  0
  149.7448  136.5266  160.8852 H   0  0  0  0  0  0  0  0  0  0  0  0
  150.8735  138.5877  159.9769 H   0  0  0  0  0  0  0  0  0  0  0  0
  152.1302  137.3832  159.9705 H   0  0  0  0  0  0  0  0  0  0  0  0
  152.9138  138.0100  157.8243 H   0  0  0  0  0  0  0  0  0  0  0  0
  151.4751  138.8975  157.4018 H   0  0  0  0  0  0  0  0  0  0  0  0
  151.5383  141.1827  157.5828 H   0  0  0  0  0  0  0  0  0  0  0  0
  150.9798  140.9550  159.2298 H   0  0  0  0  0  0  0  0  0  0  0  0
  153.4187  142.5754  158.3213 H   0  0  0  0  0  0  0  0  0  0  0  0
  151.9252  143.2343  158.9447 H   0  0  0  0  0  0  0  0  0  0  0  0
  153.7242  143.1824  160.6893 H   0  0  0  0  0  0  0  0  0  0  0  0
  152.3336  142.2300  161.1580 H   0  0  0  0  0  0  0  0  0  0  0  0
  154.9032  141.1539  159.9125 H   0  0  0  0  0  0  0  0  0  0  0  0
  153.8000  140.7809  162.7375 H   0  0  0  0  0  0  0  0  0  0  0  0
  155.1878  141.7711  162.2928 H   0  0  0  0  0  0  0  0  0  0  0  0
  155.2545  140.0245  162.0938 H   0  0  0  0  0  0  0  0  0  0  0  0
  152.4389  139.5969  160.8303 H   0  0  0  0  0  0  0  0  0  0  0  0
  153.9302  138.9099  160.2257 H   0  0  0  0  0  0  0  0  0  0  0  0
  153.5578  140.0861  158.1649 H   0  0  0  0  0  0  0  0  0  0  0  0
  1  2  1  0  0  0  0
  1 20  1  0  0  0  0
  1 21  1  0  0  0  0
  1 22  1  0  0  0  0
  2 19  1  0  0  0  0
  2  3  2  0  0  0  0
  3  4  1  0  0  0  0
  3 23  1  0  0  0  0
  4  5  1  0  0  0  0
  4 18  2  0  0  0  0
  5  6  1  0  0  0  0
  5 24  1  0  0  0  0
  6  7  2  0  0  0  0
  6  8  1  0  0  0  0
  8  9  1  0  0  0  0
  9 10  1  0  0  0  0
  9 25  1  0  0  0  0
  9 26  1  0  0  0  0
 10 11  1  0  0  0  0
 10 27  1  0  0  0  0
 10 28  1  0  0  0  0
 11 17  1  0  0  0  0
 11 12  1  0  0  0  0
 11 41  1  0  0  0  0
 12 13  1  0  0  0  0
 12 29  1  0  0  0  0
 12 30  1  0  0  0  0
 13 14  1  0  0  0  0
 13 31  1  0  0  0  0
 13 32  1  0  0  0  0
 14 15  1  0  0  0  0
 14 33  1  0  0  0  0
 14 34  1  0  0  0  0
 15 16  1  0  0  0  0
 15 17  1  0  0  0  0
 15 35  1  0  0  0  0
 16 36  1  0  0  0  0
 16 37  1  0  0  0  0
 16 38  1  0  0  0  0
 17 39  1  0  0  0  0
 17 40  1  0  0  0  0
 18 19  1  0  0  0  0
M  CHG  1   8  -1
M  CHG  1  11   1
M  END
> <s_m_source_file>
AV-unprocessed.smi

> <i_m_source_file_index>
2078

> <i_lp_mmshare_version>
43012

> <i_f3d_flags>
0

> <s_epik_input>
W0NIM11jMVtjSF1jKG5vMSlbTkhdQyg9TylbTkhdW0NIMl1bQ0gyXU4yW0NIMl1bQ0gyXVtDSDJdW0NAQEhdKFtDSDNdKVtDSDJdMg==

> <s_epik_cmdline>
J2VwaWtfcHl0aG9uJywgJy1waCcsICc3LjAnLCAnLXRuJywgJzgnLCAnLW1hJywgJzIwMCcsICctbWV0YWxfYmluZGluZycsICctaW1hZScsICc8aW5maWxlLm1hZT4nLCAnLW9tYWUnLCAnPG91dGZpbGUubWFlPic=

> <r_epik_Ionization_Penalty>
6.76934

> <r_epik_Ionization_Penalty_Charging>
6.76934

> <r_epik_Ionization_Penalty_Neutral>
5.77849e-06

> <r_epik_State_Penalty>
6.79457

> <r_epik_Charging_Adjusted_Penalty>
13.5639

> <i_epik_Tot_Q>
0

> <i_epik_Tot_abs_Q>
2

> <r_epik_Metal_State_Penalty>
2.72837

> <b_epik_Metal_Only>
1

> <s_lp_Force_Field>
OPLS_2005

> <r_lp_Energy>
13.3019

> <b_lp_Chiralities_Consistent>
1

> <s_lp_Variant>
AV-unprocessed.smi:2078-9

> <Gold.Version>
5.8.1

> <Gold.Id.Protein>
6NUR|6NUR_protein|mol2

> <Gold.PLP.Fitness>
38.7048

> <Gold.PLP.PLP>
-32.9251

> <Gold.PLP.part.hbond>
-2.2076

> <Gold.PLP.part.metal>
0.0000

> <Gold.PLP.part.buried>
-3.2863

> <Gold.PLP.part.nonpolar>
-28.0471

> <Gold.PLP.part.repulsive>
0.7270

> <Gold.PLP.ligand.clash>
0.0000

> <Gold.PLP.ligand.torsion>
1.6309

> <Gold.PLP.Chemscore.Hbond>
3.0000

> <Gold.PLP.Chemscore.CHOScore>
0.0000

> <Gold.PLP.Chemscore.Metal>
0.0000

> <Gold.Chemscore.Hbonds>
donor molecule, donor type, donor heavy atom, donor atom, acceptor molecule, acceptor atom, score
      P1  H  6896  6909       L1     8  0.56
      P1  H  6934  6947       L1    18  1.00

> <Gold.PLP.Chemscore.Internal.Correction>
0.0415

> <Gold.Rescore>
     Score         DG    S(hbond)    S(metal)    S(lipo)     H(rot)  DE(clash)    DE(int)     intcor
     13.20     -14.74       0.99        0.00      84.49       1.54       0.00       1.54       ----

> <Gold.Chemscore.Fitness>
13.1976

> <Gold.Chemscore.DG>
-14.7379

> <Gold.Chemscore.ZeroCoef>
-5.4800

> <Gold.Chemscore.Hbond>
0.9933

> <Gold.Chemscore.Metal>
0.0000

> <Gold.Chemscore.Lipo>
84.4876

> <Gold.Chemscore.Internal_Hbond>
0.0000

> <Gold.Chemscore.DEClash>
0.0013

> <Gold.Chemscore.DEInternal>
1.5390

> <Gold.Chemscore.Rot>
1.5409

> <Gold.Chemscore.Internal.Correction>
   9.000000E+99

> <Gold.Chemscore.Hbonds>
donor molecule, donor type, donor heavy atom, donor atom, acceptor molecule, acceptor atom, score
      P1  H  6896  6909       L1     8  0.01
      P1  H  6934  6947       L1    18  0.98

> <Gold.Chemscore.Hbond.Weighted>
-3.3175

> <Gold.Chemscore.Metal.Weighted>
-0.0000

> <Gold.Chemscore.Lipo.Weighted>
-9.8850

> <Gold.Chemscore.Internal_Hbond.Weighted>
0.0000

> <Gold.Chemscore.DEClash.Weighted>
0.0013

> <Gold.Chemscore.DEInternal.Weighted>
1.5390

> <Gold.Chemscore.Rot.Weighted>
3.9446

> <Gold.Chemscore.Internal.Correction.Weighted>
   9.000000E+99

> <Gold.Protein.RotatedTorsions>
[ 6907 6896 6895 6894 ] final  102.31 input  -60.11 | X-H torsion
[ 7974 7965 7964 7962 ] final  122.58 input  175.53 | X-H torsion
[ 8008 7997 7996 7995 ] final  -30.84 input   59.86 | X-H torsion
[ 10167 10162 10161 10158 ] final   14.84 input  -65.29 | X-H torsion
[ 10718 10713 10712 10709 ] final  123.51 input   66.30 | X-H torsion
[ 10763 10752 10751 10750 ] final -104.27 input  -60.55 | X-H torsion
[ 11005 11000 10999 10996 ] final  -28.08 input  -57.11 | X-H torsion

> <Gold.Protein.ActiveResidues>
 VAL166  LYS551  ARG553  GLY616  TRP617  ASP618  TYR619  PRO620  LYS621  CYS622 
 ASP623  PHE694  ASN695  SER759  ASP760  ASP761  ALA762  ILE779  LEU786  VAL792 
 PHE793  MET794  SER795  GLU796  ALA797  LYS798  CYS799  TRP800  GLU811  SER814 

> <Gold.Protein.RotatedAtoms>
  152.5327  133.9995  159.7887 H   0  0  0  0  0  0  0  0  0  0  0  0  # atno 6907 bound_to 6896
  151.0217  133.5863  159.2677 H   0  0  0  0  0  0  0  0  0  0  0  0  # atno 6908 bound_to 6896
  151.2900  135.0746  159.9254 H   0  0  0  0  0  0  0  0  0  0  0  0  # atno 6909 bound_to 6896
  145.1059  139.3486  143.4788 H   0  0  0  0  0  0  0  0  0  0  0  0  # atno 7974 bound_to 7965
  154.4235  140.1780  156.1471 H   0  0  0  0  0  0  0  0  0  0  0  0  # atno 8008 bound_to 7997
  155.9945  140.3366  155.6761 H   0  0  0  0  0  0  0  0  0  0  0  0  # atno 8009 bound_to 7997
  155.6327  140.0671  157.2634 H   0  0  0  0  0  0  0  0  0  0  0  0  # atno 8010 bound_to 7997
  140.5908  143.8799  150.6872 H   0  0  0  0  0  0  0  0  0  0  0  0  # atno 10167 bound_to 10162
  157.5659  131.1086  150.8456 H   0  0  0  0  0  0  0  0  0  0  0  0  # atno 10718 bound_to 10713
  154.7866  135.4792  153.9960 H   0  0  0  0  0  0  0  0  0  0  0  0  # atno 10763 bound_to 10752
  153.1569  135.6801  153.8806 H   0  0  0  0  0  0  0  0  0  0  0  0  # atno 10764 bound_to 10752
  153.8432  135.3176  155.3405 H   0  0  0  0  0  0  0  0  0  0  0  0  # atno 10765 bound_to 10752
  140.9176  133.7420  156.0757 H   0  0  0  0  0  0  0  0  0  0  0  0  # atno 11005 bound_to 11000
  146.3528  140.0956  142.8610 LP  0  0  0  0  0  0  0  0  0  0  0  0  # atno 17320 bound_to 7965
  145.0902  140.9279  143.4773 LP  0  0  0  0  0  0  0  0  0  0  0  0  # atno 17321 bound_to 7965
  140.2321  143.3727  152.1557 LP  0  0  0  0  0  0  0  0  0  0  0  0  # atno 17342 bound_to 10162
  139.5226  144.7061  151.5349 LP  0  0  0  0  0  0  0  0  0  0  0  0  # atno 17343 bound_to 10162
  156.8941  130.5223  149.5285 LP  0  0  0  0  0  0  0  0  0  0  0  0  # atno 17370 bound_to 10713
  156.0707  130.5740  150.9378 LP  0  0  0  0  0  0  0  0  0  0  0  0  # atno 17371 bound_to 10713
  140.8029  134.3488  157.5434 LP  0  0  0  0  0  0  0  0  0  0  0  0  # atno 17394 bound_to 11000
  139.8769  134.9208  156.3261 LP  0  0  0  0  0  0  0  0  0  0  0  0  # atno 17395 bound_to 11000

$$$$
