AV-unprocessed.smi:456|AV-procd|sdf|2617|dock3
  -GOLD-   2262023 13D 1   1.00000     0.00000
 Structure written by MMmdl.
 33 35  0  0  0  0  0  0  0  0  2 V2000
  152.8459  139.7635  157.2421 O   0  0  0  0  0  0  0  0  0  0  0  0
  151.5965  140.3576  157.5251 C   0  0  2  0  0  0  0  0  0  0  0  0
  150.7486  140.3266  156.2379 C   0  0  0  0  0  0  0  0  0  0  0  0
  150.7529  139.0085  155.5908 N   0  0  0  0  0  0  0  0  0  0  0  0
  151.0474  138.6660  154.3071 C   0  0  0  0  0  0  0  0  0  0  0  0
  150.8965  137.3166  154.1977 N   0  3  0  0  0  0  0  0  0  0  0  0
  150.5023  136.7899  155.4300 C   0  0  0  0  0  0  0  0  0  0  0  0
  150.2269  135.4826  155.8181 C   0  0  0  0  0  0  0  0  0  0  0  0
  149.8447  135.2858  157.1616 C   0  0  0  0  0  0  0  0  0  0  0  0
  149.5658  134.0327  157.5921 F   0  0  0  0  0  0  0  0  0  0  0  0
  149.7469  136.3673  158.0631 C   0  0  0  0  0  0  0  0  0  0  0  0
  149.3747  136.1344  159.3440 F   0  0  0  0  0  0  0  0  0  0  0  0
  150.0291  137.6886  157.6579 C   0  0  0  0  0  0  0  0  0  0  0  0
  150.4074  137.8724  156.3291 C   0  0  0  0  0  0  0  0  0  0  0  0
  151.7413  141.7655  158.0857 C   0  0  0  0  0  0  0  0  0  0  0  0
  151.0564  142.8497  157.4938 C   0  0  0  0  0  0  0  0  0  0  0  0
  151.1843  144.1467  158.0278 C   0  0  0  0  0  0  0  0  0  0  0  0
  151.9948  144.3669  159.1578 C   0  0  0  0  0  0  0  0  0  0  0  0
  152.6771  143.2892  159.7543 C   0  0  0  0  0  0  0  0  0  0  0  0
  152.5504  141.9923  159.2199 C   0  0  0  0  0  0  0  0  0  0  0  0
  152.8530  138.8915  157.6070 H   0  0  0  0  0  0  0  0  0  0  0  0
  151.1231  139.7295  158.2808 H   0  0  0  0  0  0  0  0  0  0  0  0
  149.7114  140.5874  156.4535 H   0  0  0  0  0  0  0  0  0  0  0  0
  151.1072  141.0606  155.5149 H   0  0  0  0  0  0  0  0  0  0  0  0
  151.3403  139.3432  153.5174 H   0  0  0  0  0  0  0  0  0  0  0  0
  150.2992  134.6521  155.1315 H   0  0  0  0  0  0  0  0  0  0  0  0
  149.9512  138.5095  158.3551 H   0  0  0  0  0  0  0  0  0  0  0  0
  150.4282  142.6898  156.6295 H   0  0  0  0  0  0  0  0  0  0  0  0
  150.6594  144.9725  157.5704 H   0  0  0  0  0  0  0  0  0  0  0  0
  152.0928  145.3617  159.5670 H   0  0  0  0  0  0  0  0  0  0  0  0
  153.2977  143.4575  160.6220 H   0  0  0  0  0  0  0  0  0  0  0  0
  153.0736  141.1711  159.6876 H   0  0  0  0  0  0  0  0  0  0  0  0
  151.0522  136.7971  153.3432 H   0  0  0  0  0  0  0  0  0  0  0  0
  1  2  1  0  0  0  0
  1 21  1  0  0  0  0
  2  3  1  0  0  0  0
  2 15  1  0  0  0  0
  2 22  1  0  0  0  0
  3  4  1  0  0  0  0
  3 23  1  0  0  0  0
  3 24  1  0  0  0  0
  4 14  1  0  0  0  0
  4  5  1  0  0  0  0
  5  6  2  0  0  0  0
  5 25  1  0  0  0  0
  6  7  1  0  0  0  0
  6 33  1  0  0  0  0
  7 14  2  0  0  0  0
  7  8  1  0  0  0  0
  8  9  2  0  0  0  0
  8 26  1  0  0  0  0
  9 10  1  0  0  0  0
  9 11  1  0  0  0  0
 11 12  1  0  0  0  0
 11 13  2  0  0  0  0
 13 14  1  0  0  0  0
 13 27  1  0  0  0  0
 15 20  1  0  0  0  0
 15 16  2  0  0  0  0
 16 17  1  0  0  0  0
 16 28  1  0  0  0  0
 17 18  2  0  0  0  0
 17 29  1  0  0  0  0
 18 19  1  0  0  0  0
 18 30  1  0  0  0  0
 19 20  2  0  0  0  0
 19 31  1  0  0  0  0
 20 32  1  0  0  0  0
M  CHG  1   6   1
M  END
> <s_m_source_file>
AV-unprocessed.smi

> <i_m_source_file_index>
456

> <i_lp_mmshare_version>
43012

> <i_f3d_flags>
0

> <s_epik_input>
W2NIXTFbY0hdW2NIXVtjSF1bY0hdYzFbQ0BIXShbT0hdKVtDSDJdbihbY0hdbjIpYyhjMjMpW2NIXWMoRiljKEYpW2NIXTM=

> <s_epik_cmdline>
J2VwaWtfcHl0aG9uJywgJy1waCcsICc3LjAnLCAnLXRuJywgJzgnLCAnLW1hJywgJzIwMCcsICctbWV0YWxfYmluZGluZycsICctaW1hZScsICc8aW5maWxlLm1hZT4nLCAnLW9tYWUnLCAnPG91dGZpbGUubWFlPic=

> <r_epik_Ionization_Penalty>
2.16139

> <r_epik_Ionization_Penalty_Charging>
2.16138

> <r_epik_Ionization_Penalty_Neutral>
1.34362e-06

> <r_epik_State_Penalty>
2.30198

> <r_epik_Charging_Adjusted_Penalty>
4.46337

> <i_epik_Tot_Q>
1

> <i_epik_Tot_abs_Q>
1

> <r_epik_Metal_State_Penalty>
6.38245

> <b_epik_Metal_Only>
0

> <s_lp_Force_Field>
OPLS_2005

> <r_lp_Energy>
16.094

> <b_lp_Chiralities_Consistent>
1

> <s_lp_Variant>
AV-unprocessed.smi:456-3

> <Gold.Version>
5.8.1

> <Gold.Id.Protein>
6NUR|6NUR_protein|mol2

> <Gold.PLP.Fitness>
47.0486

> <Gold.PLP.PLP>
-38.3428

> <Gold.PLP.part.hbond>
-2.6219

> <Gold.PLP.part.metal>
0.0000

> <Gold.PLP.part.buried>
-5.5744

> <Gold.PLP.part.nonpolar>
-30.2874

> <Gold.PLP.part.repulsive>
0.0949

> <Gold.PLP.ligand.clash>
0.0000

> <Gold.PLP.ligand.torsion>
0.1538

> <Gold.PLP.Chemscore.Hbond>
3.0000

> <Gold.PLP.Chemscore.CHOScore>
0.0000

> <Gold.PLP.Chemscore.Metal>
0.0000

> <Gold.Chemscore.Hbonds>
donor molecule, donor type, donor heavy atom, donor atom, acceptor molecule, acceptor atom, score
      L1  H     6    33       P1  7949  2.00
      P1  H  7997  8008       L1     1  1.00

> <Gold.PLP.Chemscore.Internal.Correction>
0.0133

> <Gold.Rescore>
     Score         DG    S(hbond)    S(metal)    S(lipo)     H(rot)  DE(clash)    DE(int)     intcor
     17.14     -17.22       1.73        0.00      95.33       2.03       0.03       0.04       ----

> <Gold.Chemscore.Fitness>
17.1447

> <Gold.Chemscore.DG>
-17.2153

> <Gold.Chemscore.ZeroCoef>
-5.4800

> <Gold.Chemscore.Hbond>
1.7267

> <Gold.Chemscore.Metal>
0.0000

> <Gold.Chemscore.Lipo>
95.3311

> <Gold.Chemscore.Internal_Hbond>
0.0000

> <Gold.Chemscore.DEClash>
0.0343

> <Gold.Chemscore.DEInternal>
0.0363

> <Gold.Chemscore.Rot>
2.0256

> <Gold.Chemscore.Internal.Correction>
   9.000000E+99

> <Gold.Chemscore.Hbonds>
donor molecule, donor type, donor heavy atom, donor atom, acceptor molecule, acceptor atom, score
      L1  H     6    33       P1  7949  0.32
      P1  H  7997  8008       L1     1  0.44

> <Gold.Chemscore.Hbond.Weighted>
-5.7671

> <Gold.Chemscore.Metal.Weighted>
-0.0000

> <Gold.Chemscore.Lipo.Weighted>
-11.1537

> <Gold.Chemscore.Internal_Hbond.Weighted>
0.0000

> <Gold.Chemscore.DEClash.Weighted>
0.0343

> <Gold.Chemscore.DEInternal.Weighted>
0.0363

> <Gold.Chemscore.Rot.Weighted>
5.1855

> <Gold.Chemscore.Internal.Correction.Weighted>
   9.000000E+99

> <Gold.Protein.RotatedTorsions>
[ 6907 6896 6895 6894 ] final   12.27 input  -60.11 | X-H torsion
[ 7974 7965 7964 7962 ] final   87.32 input  175.53 | X-H torsion
[ 8008 7997 7996 7995 ] final  -76.02 input   59.86 | X-H torsion
[ 10167 10162 10161 10158 ] final  153.24 input  -65.29 | X-H torsion
[ 10718 10713 10712 10709 ] final -155.68 input   66.30 | X-H torsion
[ 10763 10752 10751 10750 ] final   -7.94 input  -60.55 | X-H torsion
[ 11005 11000 10999 10996 ] final   99.65 input  -57.11 | X-H torsion

> <Gold.Protein.ActiveResidues>
 VAL166  LYS551  ARG553  GLY616  TRP617  ASP618  TYR619  PRO620  LYS621  CYS622 
 ASP623  PHE694  ASN695  SER759  ASP760  ASP761  ALA762  ILE779  LEU786  VAL792 
 PHE793  MET794  SER795  GLU796  ALA797  LYS798  CYS799  TRP800  GLU811  SER814 

> <Gold.Protein.RotatedAtoms>
  151.7676  135.0794  160.0354 H   0  0  0  0  0  0  0  0  0  0  0  0  # atno 6907 bound_to 6896
  152.3310  133.5954  159.5818 H   0  0  0  0  0  0  0  0  0  0  0  0  # atno 6908 bound_to 6896
  150.7423  133.9783  159.3610 H   0  0  0  0  0  0  0  0  0  0  0  0  # atno 6909 bound_to 6896
  145.5605  139.2303  143.2462 H   0  0  0  0  0  0  0  0  0  0  0  0  # atno 7974 bound_to 7965
  154.5468  140.0734  156.8602 H   0  0  0  0  0  0  0  0  0  0  0  0  # atno 8008 bound_to 7997
  155.3071  140.3388  155.4227 H   0  0  0  0  0  0  0  0  0  0  0  0  # atno 8009 bound_to 7997
  156.1925  140.1691  156.8049 H   0  0  0  0  0  0  0  0  0  0  0  0  # atno 8010 bound_to 7997
  139.4828  144.5290  151.7754 H   0  0  0  0  0  0  0  0  0  0  0  0  # atno 10167 bound_to 10162
  156.5161  130.8457  151.2665 H   0  0  0  0  0  0  0  0  0  0  0  0  # atno 10718 bound_to 10713
  153.4335  135.7012  153.6215 H   0  0  0  0  0  0  0  0  0  0  0  0  # atno 10763 bound_to 10752
  153.4620  135.3734  155.2344 H   0  0  0  0  0  0  0  0  0  0  0  0  # atno 10764 bound_to 10752
  154.8726  135.4022  154.3722 H   0  0  0  0  0  0  0  0  0  0  0  0  # atno 10765 bound_to 10752
  139.8770  134.9105  156.4637 H   0  0  0  0  0  0  0  0  0  0  0  0  # atno 11005 bound_to 11000
  146.1854  140.6430  142.9170 LP  0  0  0  0  0  0  0  0  0  0  0  0  # atno 17320 bound_to 7965
  144.7485  140.5131  143.6818 LP  0  0  0  0  0  0  0  0  0  0  0  0  # atno 17321 bound_to 7965
  140.4814  144.1444  150.5933 LP  0  0  0  0  0  0  0  0  0  0  0  0  # atno 17342 bound_to 10162
  140.4274  143.2584  151.9639 LP  0  0  0  0  0  0  0  0  0  0  0  0  # atno 17343 bound_to 10162
  157.7443  130.9933  150.2667 LP  0  0  0  0  0  0  0  0  0  0  0  0  # atno 17370 bound_to 10713
  156.3194  130.3783  149.7589 LP  0  0  0  0  0  0  0  0  0  0  0  0  # atno 17371 bound_to 10713
  140.8845  133.7893  155.9503 LP  0  0  0  0  0  0  0  0  0  0  0  0  # atno 17394 bound_to 11000
  140.8819  134.2601  157.5140 LP  0  0  0  0  0  0  0  0  0  0  0  0  # atno 17395 bound_to 11000

$$$$
