AV-unprocessed.smi:2811|AV-procd|sdf|10832|dock1
  -GOLD-   2272015273D 1   1.00000     0.00000
 Structure written by MMmdl.
 38 40  0  0  0  0  0  0  0  0  1 V2000
  152.0283  145.7178  160.3796 C   0  0  0  0  0  0  0  0  0  0  0  0
  152.1089  144.4002  159.6379 C   0  0  0  0  0  0  0  0  0  0  0  0
  153.0677  143.4328  159.9928 C   0  0  0  0  0  0  0  0  0  0  0  0
  153.0918  142.2257  159.2685 C   0  0  0  0  0  0  0  0  0  0  0  0
  154.0936  141.1394  159.5991 C   0  0  0  0  0  0  0  0  0  0  0  0
  152.2385  141.9568  158.2575 N   0  0  0  0  0  0  0  0  0  0  0  0
  151.3083  142.8797  157.9040 C   0  0  0  0  0  0  0  0  0  0  0  0
  150.3555  142.7094  156.8560 N   0  0  0  0  0  0  0  0  0  0  0  0
  150.1412  141.6899  155.9964 C   0  0  0  0  0  0  0  0  0  0  0  0
  150.8309  140.6722  156.0343 O   0  0  0  0  0  0  0  0  0  0  0  0
  149.1423  141.8536  155.1153 N   0  0  0  0  0  0  0  0  0  0  0  0
  148.7343  140.8818  154.1076 C   0  0  1  0  0  0  0  0  0  0  0  0
  148.7130  139.4452  154.6443 C   0  0  0  0  0  0  0  0  0  0  0  0
  147.2498  139.0443  154.4143 C   0  0  2  0  0  0  0  0  0  0  0  0
  146.9233  138.8778  152.9228 C   0  0  0  0  0  0  0  0  0  0  0  0
  146.9055  140.3286  152.4401 C   0  0  0  0  0  0  0  0  0  0  0  0
  147.2587  141.0871  153.7260 C   0  0  1  0  0  0  0  0  0  0  0  0
  146.6045  140.2750  154.6872 O   0  0  0  0  0  0  0  0  0  0  0  0
  151.2196  144.1168  158.5814 C   0  0  0  0  0  0  0  0  0  0  0  0
  152.9824  145.9618  160.8478 H   0  0  0  0  0  0  0  0  0  0  0  0
  151.2669  145.6646  161.1579 H   0  0  0  0  0  0  0  0  0  0  0  0
  151.7685  146.5286  159.6984 H   0  0  0  0  0  0  0  0  0  0  0  0
  153.7643  143.6111  160.7990 H   0  0  0  0  0  0  0  0  0  0  0  0
  154.9258  141.5374  160.1799 H   0  0  0  0  0  0  0  0  0  0  0  0
  154.4983  140.6975  158.6878 H   0  0  0  0  0  0  0  0  0  0  0  0
  153.6153  140.3511  160.1805 H   0  0  0  0  0  0  0  0  0  0  0  0
  149.7328  143.4940  156.7312 H   0  0  0  0  0  0  0  0  0  0  0  0
  148.6205  142.7184  155.1519 H   0  0  0  0  0  0  0  0  0  0  0  0
  149.3731  140.9762  153.2275 H   0  0  0  0  0  0  0  0  0  0  0  0
  149.4101  138.7901  154.1207 H   0  0  0  0  0  0  0  0  0  0  0  0
  148.9517  139.4092  155.7084 H   0  0  0  0  0  0  0  0  0  0  0  0
  146.9159  138.2138  155.0368 H   0  0  0  0  0  0  0  0  0  0  0  0
  147.6623  138.2668  152.4031 H   0  0  0  0  0  0  0  0  0  0  0  0
  145.9433  138.4188  152.7878 H   0  0  0  0  0  0  0  0  0  0  0  0
  147.6140  140.5183  151.6331 H   0  0  0  0  0  0  0  0  0  0  0  0
  145.9090  140.6028  152.0921 H   0  0  0  0  0  0  0  0  0  0  0  0
  146.9341  142.1285  153.7212 H   0  0  0  0  0  0  0  0  0  0  0  0
  150.4742  144.8450  158.2952 H   0  0  0  0  0  0  0  0  0  0  0  0
  1  2  1  0  0  0  0
  1 20  1  0  0  0  0
  1 21  1  0  0  0  0
  1 22  1  0  0  0  0
  2 19  1  0  0  0  0
  2  3  2  0  0  0  0
  3  4  1  0  0  0  0
  3 23  1  0  0  0  0
  4  5  1  0  0  0  0
  4  6  2  0  0  0  0
  5 24  1  0  0  0  0
  5 25  1  0  0  0  0
  5 26  1  0  0  0  0
  6  7  1  0  0  0  0
  7  8  1  0  0  0  0
  7 19  2  0  0  0  0
  8  9  1  0  0  0  0
  8 27  1  0  0  0  0
  9 10  2  0  0  0  0
  9 11  1  0  0  0  0
 11 12  1  0  0  0  0
 11 28  1  0  0  0  0
 12 17  1  0  0  0  0
 12 13  1  0  0  0  0
 12 29  1  0  0  0  0
 13 14  1  0  0  0  0
 13 30  1  0  0  0  0
 13 31  1  0  0  0  0
 14 18  1  0  0  0  0
 14 15  1  0  0  0  0
 14 32  1  0  0  0  0
 15 16  1  0  0  0  0
 15 33  1  0  0  0  0
 15 34  1  0  0  0  0
 16 17  1  0  0  0  0
 16 35  1  0  0  0  0
 16 36  1  0  0  0  0
 17 18  1  0  0  0  0
 17 37  1  0  0  0  0
 19 38  1  0  0  0  0
M  END
> <s_m_source_file>
AV-unprocessed.smi

> <i_m_source_file_index>
2811

> <i_lp_mmshare_version>
43012

> <i_f3d_flags>
0

> <s_epik_input>
W0NIM11jMVtjSF1jKFtDSDNdKW5jKFtjSF0xKVtOSF1DKD1PKVtOSF1bQ0BIXShbQ0gyXVtDQEBIXTIzKVtDQEBIXShPMylbQ0gyXVtDSDJdMg==

> <s_epik_cmdline>
J2VwaWtfcHl0aG9uJywgJy1waCcsICc3LjAnLCAnLXRuJywgJzgnLCAnLW1hJywgJzIwMCcsICctbWV0YWxfYmluZGluZycsICctaW1hZScsICc8aW5maWxlLm1hZT4nLCAnLW9tYWUnLCAnPG91dGZpbGUubWFlPic=

> <r_lp_tautomer_probability>
1

> <r_epik_Ionization_Penalty>
0.000281548

> <r_epik_Ionization_Penalty_Charging>
0

> <r_epik_Ionization_Penalty_Neutral>
0.000281548

> <r_epik_State_Penalty>
-0

> <r_epik_Charging_Adjusted_Penalty>
0

> <i_epik_Tot_Q>
0

> <i_epik_Tot_abs_Q>
0

> <r_epik_Metal_State_Penalty>
-0

> <b_epik_Metal_Only>
0

> <s_lp_Force_Field>
OPLS_2005

> <r_lp_Energy>
40.4481

> <b_lp_Chiralities_Consistent>
1

> <s_lp_Variant>
AV-unprocessed.smi:2811-4

> <Gold.Version>
5.8.1

> <Gold.Id.Protein>
6NUR|6NUR_protein|mol2

> <Gold.PLP.Fitness>
44.8958

> <Gold.PLP.PLP>
-39.8927

> <Gold.PLP.part.hbond>
-2.0000

> <Gold.PLP.part.metal>
0.0000

> <Gold.PLP.part.buried>
-4.1481

> <Gold.PLP.part.nonpolar>
-35.7987

> <Gold.PLP.part.repulsive>
0.3358

> <Gold.PLP.ligand.clash>
0.0000

> <Gold.PLP.ligand.torsion>
0.2990

> <Gold.PLP.Chemscore.Hbond>
1.8580

> <Gold.PLP.Chemscore.CHOScore>
0.0000

> <Gold.PLP.Chemscore.Metal>
0.0000

> <Gold.Chemscore.Hbonds>
donor molecule, donor type, donor heavy atom, donor atom, acceptor molecule, acceptor atom, score
      L1  H     8    27       P1  8028  1.00
      L1  H    11    28       P1  8028  0.74

> <Gold.PLP.Chemscore.Internal.Correction>
0.0272

> <Gold.Rescore>
     Score         DG    S(hbond)    S(metal)    S(lipo)     H(rot)  DE(clash)    DE(int)     intcor
     18.01     -22.01       1.87        0.00     109.86       1.00       0.97       3.02       ----

> <Gold.Chemscore.Fitness>
18.0114

> <Gold.Chemscore.DG>
-22.0053

> <Gold.Chemscore.ZeroCoef>
-5.4800

> <Gold.Chemscore.Hbond>
1.8659

> <Gold.Chemscore.Metal>
0.0000

> <Gold.Chemscore.Lipo>
109.8575

> <Gold.Chemscore.Internal_Hbond>
0.0000

> <Gold.Chemscore.DEClash>
0.9737

> <Gold.Chemscore.DEInternal>
3.0203

> <Gold.Chemscore.Rot>
1.0000

> <Gold.Chemscore.Internal.Correction>
   9.000000E+99

> <Gold.Chemscore.Hbonds>
donor molecule, donor type, donor heavy atom, donor atom, acceptor molecule, acceptor atom, score
      L1  H     8    27       P1  8028  0.96
      L1  H    11    28       P1  8028  0.71

> <Gold.Chemscore.Hbond.Weighted>
-6.2320

> <Gold.Chemscore.Metal.Weighted>
-0.0000

> <Gold.Chemscore.Lipo.Weighted>
-12.8533

> <Gold.Chemscore.Internal_Hbond.Weighted>
0.0000

> <Gold.Chemscore.DEClash.Weighted>
0.9737

> <Gold.Chemscore.DEInternal.Weighted>
3.0203

> <Gold.Chemscore.Rot.Weighted>
2.5600

> <Gold.Chemscore.Internal.Correction.Weighted>
   9.000000E+99

> <Gold.Protein.RotatedTorsions>
[ 6907 6896 6895 6894 ] final   10.67 input  -60.11 | X-H torsion
[ 7974 7965 7964 7962 ] final   71.46 input  175.53 | X-H torsion
[ 8008 7997 7996 7995 ] final -134.20 input   59.86 | X-H torsion
[ 10167 10162 10161 10158 ] final  169.55 input  -65.29 | X-H torsion
[ 10718 10713 10712 10709 ] final   73.33 input   66.30 | X-H torsion
[ 10763 10752 10751 10750 ] final -156.18 input  -60.55 | X-H torsion
[ 11005 11000 10999 10996 ] final  -64.14 input  -57.11 | X-H torsion

> <Gold.Protein.ActiveResidues>
 VAL166  LYS551  ARG553  GLY616  TRP617  ASP618  TYR619  PRO620  LYS621  CYS622 
 ASP623  PHE694  ASN695  SER759  ASP760  ASP761  ALA762  ILE779  LEU786  VAL792 
 PHE793  MET794  SER795  GLU796  ALA797  LYS798  CYS799  TRP800  GLU811  SER814 

> <Gold.Protein.RotatedAtoms>
  151.7420  135.0852  160.0316 H   0  0  0  0  0  0  0  0  0  0  0  0  # atno 6907 bound_to 6896
  152.3473  133.6133  159.5928 H   0  0  0  0  0  0  0  0  0  0  0  0  # atno 6908 bound_to 6896
  150.7517  133.9545  159.3538 H   0  0  0  0  0  0  0  0  0  0  0  0  # atno 6909 bound_to 6896
  145.7655  139.2819  143.1351 H   0  0  0  0  0  0  0  0  0  0  0  0  # atno 7974 bound_to 7965
  155.3582  140.0481  157.3046 H   0  0  0  0  0  0  0  0  0  0  0  0  # atno 8008 bound_to 7997
  154.5192  140.2219  155.8972 H   0  0  0  0  0  0  0  0  0  0  0  0  # atno 8009 bound_to 7997
  156.1670  140.3104  155.8912 H   0  0  0  0  0  0  0  0  0  0  0  0  # atno 8010 bound_to 7997
  139.4995  144.3693  151.9741 H   0  0  0  0  0  0  0  0  0  0  0  0  # atno 10167 bound_to 10162
  157.6542  130.9623  150.1054 H   0  0  0  0  0  0  0  0  0  0  0  0  # atno 10718 bound_to 10713
  154.7732  135.3151  154.8146 H   0  0  0  0  0  0  0  0  0  0  0  0  # atno 10763 bound_to 10752
  153.8876  135.6828  153.4767 H   0  0  0  0  0  0  0  0  0  0  0  0  # atno 10764 bound_to 10752
  153.1350  135.4763  154.9343 H   0  0  0  0  0  0  0  0  0  0  0  0  # atno 10765 bound_to 10752
  141.1415  133.6661  156.5787 H   0  0  0  0  0  0  0  0  0  0  0  0  # atno 11005 bound_to 11000
  146.0222  140.8337  142.9918 LP  0  0  0  0  0  0  0  0  0  0  0  0  # atno 17320 bound_to 7965
  144.6822  140.2645  143.7314 LP  0  0  0  0  0  0  0  0  0  0  0  0  # atno 17321 bound_to 7965
  140.3129  144.3517  150.6029 LP  0  0  0  0  0  0  0  0  0  0  0  0  # atno 17342 bound_to 10162
  140.5784  143.2174  151.7473 LP  0  0  0  0  0  0  0  0  0  0  0  0  # atno 17343 bound_to 10162
  156.1965  130.3657  149.8843 LP  0  0  0  0  0  0  0  0  0  0  0  0  # atno 17370 bound_to 10713
  156.6758  130.8838  151.3569 LP  0  0  0  0  0  0  0  0  0  0  0  0  # atno 17371 bound_to 10713
  140.3855  134.7486  157.4688 LP  0  0  0  0  0  0  0  0  0  0  0  0  # atno 17394 bound_to 11000
  140.0606  134.6002  155.8754 LP  0  0  0  0  0  0  0  0  0  0  0  0  # atno 17395 bound_to 11000

$$$$
