AV-unprocessed.smi:1708|AV-procd|sdf|6889|dock3
  -GOLD-   22720 8 93D 1   1.00000     0.00000
 Structure written by MMmdl.
 36 38  0  0  0  0  0  0  0  0  1 V2000
  153.4703  140.5730  160.5364 C   0  0  0  0  0  0  0  0  0  0  0  0
  152.7785  141.4352  159.5861 N   0  0  0  0  0  0  0  0  0  0  0  0
  152.4039  141.1224  158.3240 C   0  0  0  0  0  0  0  0  0  0  0  0
  152.5851  140.0433  157.7601 O   0  0  0  0  0  0  0  0  0  0  0  0
  151.7762  142.1984  157.7930 N   0  0  0  0  0  0  0  0  0  0  0  0
  151.1759  142.2761  156.4602 C   0  0  0  0  0  0  0  0  0  0  0  0
  150.4154  140.9868  156.0813 C   0  0  2  0  0  0  0  0  0  0  0  0
  151.2443  140.2105  155.2411 O   0  0  0  0  0  0  0  0  0  0  0  0
  149.0561  141.2681  155.4540 C   0  0  0  0  0  0  0  0  0  0  0  0
  148.8356  141.0270  154.0800 C   0  0  0  0  0  0  0  0  0  0  0  0
  147.5862  141.3190  153.4998 C   0  0  0  0  0  0  0  0  0  0  0  0
  146.5503  141.8543  154.2892 C   0  0  0  0  0  0  0  0  0  0  0  0
  146.7644  142.0970  155.6595 C   0  0  0  0  0  0  0  0  0  0  0  0
  145.7706  142.6160  156.4184 F   0  0  0  0  0  0  0  0  0  0  0  0
  148.0132  141.8036  156.2404 C   0  0  0  0  0  0  0  0  0  0  0  0
  151.7410  143.2268  158.7483 C   0  0  0  0  0  0  0  0  0  0  0  0
  151.1946  144.5219  158.7018 C   0  0  0  0  0  0  0  0  0  0  0  0
  151.3163  145.3182  159.8645 C   0  0  0  0  0  0  0  0  0  0  0  0
  151.9652  144.8189  161.0236 C   0  0  0  0  0  0  0  0  0  0  0  0
  152.5053  143.5116  161.0446 C   0  0  0  0  0  0  0  0  0  0  0  0
  152.3698  142.7427  159.8762 C   0  0  0  0  0  0  0  0  0  0  0  0
  153.7749  139.6274  160.0861 H   0  0  0  0  0  0  0  0  0  0  0  0
  152.8206  140.3505  161.3831 H   0  0  0  0  0  0  0  0  0  0  0  0
  154.3656  141.0683  160.9130 H   0  0  0  0  0  0  0  0  0  0  0  0
  150.5035  143.1330  156.4150 H   0  0  0  0  0  0  0  0  0  0  0  0
  151.9591  142.4756  155.7270 H   0  0  0  0  0  0  0  0  0  0  0  0
  150.2577  140.3966  156.9849 H   0  0  0  0  0  0  0  0  0  0  0  0
  150.8031  139.3955  155.0559 H   0  0  0  0  0  0  0  0  0  0  0  0
  149.6281  140.6270  153.4646 H   0  0  0  0  0  0  0  0  0  0  0  0
  147.4237  141.1358  152.4479 H   0  0  0  0  0  0  0  0  0  0  0  0
  145.5929  142.0801  153.8433 H   0  0  0  0  0  0  0  0  0  0  0  0
  148.1717  142.0020  157.2904 H   0  0  0  0  0  0  0  0  0  0  0  0
  150.6965  144.8982  157.8209 H   0  0  0  0  0  0  0  0  0  0  0  0
  150.9084  146.3182  159.8703 H   0  0  0  0  0  0  0  0  0  0  0  0
  152.0459  145.4435  161.9008 H   0  0  0  0  0  0  0  0  0  0  0  0
  152.9978  143.1226  161.9234 H   0  0  0  0  0  0  0  0  0  0  0  0
  1  2  1  0  0  0  0
  1 22  1  0  0  0  0
  1 23  1  0  0  0  0
  1 24  1  0  0  0  0
  2 21  1  0  0  0  0
  2  3  1  0  0  0  0
  3  4  2  0  0  0  0
  3  5  1  0  0  0  0
  5  6  1  0  0  0  0
  5 16  1  0  0  0  0
  6  7  1  0  0  0  0
  6 25  1  0  0  0  0
  6 26  1  0  0  0  0
  7  8  1  0  0  0  0
  7  9  1  0  0  0  0
  7 27  1  0  0  0  0
  8 28  1  0  0  0  0
  9 15  1  0  0  0  0
  9 10  2  0  0  0  0
 10 11  1  0  0  0  0
 10 29  1  0  0  0  0
 11 12  2  0  0  0  0
 11 30  1  0  0  0  0
 12 13  1  0  0  0  0
 12 31  1  0  0  0  0
 13 14  1  0  0  0  0
 13 15  2  0  0  0  0
 15 32  1  0  0  0  0
 16 21  2  0  0  0  0
 16 17  1  0  0  0  0
 17 18  2  0  0  0  0
 17 33  1  0  0  0  0
 18 19  1  0  0  0  0
 18 34  1  0  0  0  0
 19 20  2  0  0  0  0
 19 35  1  0  0  0  0
 20 21  1  0  0  0  0
 20 36  1  0  0  0  0
M  END
> <s_m_source_file>
AV-unprocessed.smi

> <i_m_source_file_index>
1708

> <i_lp_mmshare_version>
43012

> <i_f3d_flags>
0

> <s_epik_input>
W2NIXTFbY0hdW2NIXVtjSF1jKGMxMiluKFtDSDNdKWMoPU8pbjJbQ0gyXVtDQEhdKFtPSF0pYzNbY0hdW2NIXVtjSF1jKEYpW2NIXTM=

> <s_epik_cmdline>
J2VwaWtfcHl0aG9uJywgJy1waCcsICc3LjAnLCAnLXRuJywgJzgnLCAnLW1hJywgJzIwMCcsICctbWV0YWxfYmluZGluZycsICctaW1hZScsICc8aW5maWxlLm1hZT4nLCAnLW9tYWUnLCAnPG91dGZpbGUubWFlPic=

> <r_lp_tautomer_probability>
1

> <r_epik_Ionization_Penalty>
3.53466e-06

> <r_epik_Ionization_Penalty_Charging>
2.57375e-09

> <r_epik_Ionization_Penalty_Neutral>
3.53208e-06

> <r_epik_State_Penalty>
-0

> <r_epik_Charging_Adjusted_Penalty>
2.57375e-09

> <i_epik_Tot_Q>
0

> <i_epik_Tot_abs_Q>
0

> <r_epik_Metal_State_Penalty>
-0

> <b_epik_Metal_Only>
0

> <s_lp_Force_Field>
OPLS_2005

> <r_lp_Energy>
39.7129

> <b_lp_Chiralities_Consistent>
1

> <s_lp_Variant>
AV-unprocessed.smi:1708-1

> <Gold.Version>
5.8.1

> <Gold.Id.Protein>
6NUR|6NUR_protein|mol2

> <Gold.PLP.Fitness>
52.6821

> <Gold.PLP.PLP>
-48.8273

> <Gold.PLP.part.hbond>
-2.0000

> <Gold.PLP.part.metal>
0.0000

> <Gold.PLP.part.buried>
-5.5883

> <Gold.PLP.part.nonpolar>
-40.3817

> <Gold.PLP.part.repulsive>
0.0000

> <Gold.PLP.ligand.clash>
0.0000

> <Gold.PLP.ligand.torsion>
1.0831

> <Gold.PLP.Chemscore.Hbond>
2.0000

> <Gold.PLP.Chemscore.CHOScore>
0.0000

> <Gold.PLP.Chemscore.Metal>
0.0000

> <Gold.Chemscore.Hbonds>
donor molecule, donor type, donor heavy atom, donor atom, acceptor molecule, acceptor atom, score
      P1  H  7989  7998       L1     8  1.00
      P1  H  7997  8009       L1     4  0.88

> <Gold.PLP.Chemscore.Internal.Correction>
0.0210

> <Gold.Rescore>
     Score         DG    S(hbond)    S(metal)    S(lipo)     H(rot)  DE(clash)    DE(int)     intcor
     18.93     -21.22       1.71        0.00     126.11       1.85       0.17       2.13       ----

> <Gold.Chemscore.Fitness>
18.9283

> <Gold.Chemscore.DG>
-21.2246

> <Gold.Chemscore.ZeroCoef>
-5.4800

> <Gold.Chemscore.Hbond>
1.7117

> <Gold.Chemscore.Metal>
0.0000

> <Gold.Chemscore.Lipo>
126.1082

> <Gold.Chemscore.Internal_Hbond>
0.0000

> <Gold.Chemscore.DEClash>
0.1664

> <Gold.Chemscore.DEInternal>
2.1299

> <Gold.Chemscore.Rot>
1.8465

> <Gold.Chemscore.Internal.Correction>
   9.000000E+99

> <Gold.Chemscore.Hbonds>
donor molecule, donor type, donor heavy atom, donor atom, acceptor molecule, acceptor atom, score
      P1  H  7989  7998       L1     8  0.37
      P1  H  7997  8009       L1     4  0.59

> <Gold.Chemscore.Hbond.Weighted>
-5.7170

> <Gold.Chemscore.Metal.Weighted>
-0.0000

> <Gold.Chemscore.Lipo.Weighted>
-14.7547

> <Gold.Chemscore.Internal_Hbond.Weighted>
0.0000

> <Gold.Chemscore.DEClash.Weighted>
0.1664

> <Gold.Chemscore.DEInternal.Weighted>
2.1299

> <Gold.Chemscore.Rot.Weighted>
4.7270

> <Gold.Chemscore.Internal.Correction.Weighted>
   9.000000E+99

> <Gold.Protein.RotatedTorsions>
[ 6907 6896 6895 6894 ] final   14.32 input  -60.11 | X-H torsion
[ 7974 7965 7964 7962 ] final  165.82 input  175.53 | X-H torsion
[ 8008 7997 7996 7995 ] final  168.75 input   59.86 | X-H torsion
[ 10167 10162 10161 10158 ] final  -52.04 input  -65.29 | X-H torsion
[ 10718 10713 10712 10709 ] final -174.07 input   66.30 | X-H torsion
[ 10763 10752 10751 10750 ] final  167.28 input  -60.55 | X-H torsion
[ 11005 11000 10999 10996 ] final  119.95 input  -57.11 | X-H torsion

> <Gold.Protein.ActiveResidues>
 VAL166  LYS551  ARG553  GLY616  TRP617  ASP618  TYR619  PRO620  LYS621  CYS622 
 ASP623  PHE694  ASN695  SER759  ASP760  ASP761  ALA762  ILE779  LEU786  VAL792 
 PHE793  MET794  SER795  GLU796  ALA797  LYS798  CYS799  TRP800  GLU811  SER814 

> <Gold.Protein.RotatedAtoms>
  151.8003  135.0710  160.0399 H   0  0  0  0  0  0  0  0  0  0  0  0  # atno 6907 bound_to 6896
  152.3094  133.5732  159.5679 H   0  0  0  0  0  0  0  0  0  0  0  0  # atno 6908 bound_to 6896
  150.7312  134.0091  159.3705 H   0  0  0  0  0  0  0  0  0  0  0  0  # atno 6909 bound_to 6896
  144.7487  139.8525  143.6373 H   0  0  0  0  0  0  0  0  0  0  0  0  # atno 7974 bound_to 7965
  156.1519  140.1582  156.8756 H   0  0  0  0  0  0  0  0  0  0  0  0  # atno 8008 bound_to 7997
  154.5079  140.0808  156.7968 H   0  0  0  0  0  0  0  0  0  0  0  0  # atno 8009 bound_to 7997
  155.3879  140.3408  155.4252 H   0  0  0  0  0  0  0  0  0  0  0  0  # atno 8010 bound_to 7997
  140.6558  143.2598  151.4591 H   0  0  0  0  0  0  0  0  0  0  0  0  # atno 10167 bound_to 10162
  156.7796  130.9478  151.3120 H   0  0  0  0  0  0  0  0  0  0  0  0  # atno 10718 bound_to 10713
  154.3515  135.2753  155.2369 H   0  0  0  0  0  0  0  0  0  0  0  0  # atno 10763 bound_to 10752
  154.4596  135.5910  153.6250 H   0  0  0  0  0  0  0  0  0  0  0  0  # atno 10764 bound_to 10752
  152.9849  135.6062  154.3726 H   0  0  0  0  0  0  0  0  0  0  0  0  # atno 10765 bound_to 10752
  139.9166  134.9632  156.7734 H   0  0  0  0  0  0  0  0  0  0  0  0  # atno 11005 bound_to 11000
  146.1405  139.4461  143.0111 LP  0  0  0  0  0  0  0  0  0  0  0  0  # atno 17320 bound_to 7965
  145.7025  141.0131  143.1497 LP  0  0  0  0  0  0  0  0  0  0  0  0  # atno 17321 bound_to 7965
  139.5780  144.1774  152.1930 LP  0  0  0  0  0  0  0  0  0  0  0  0  # atno 17342 bound_to 10162
  140.1091  144.5473  150.6937 LP  0  0  0  0  0  0  0  0  0  0  0  0  # atno 17343 bound_to 10162
  157.6652  130.9001  149.9917 LP  0  0  0  0  0  0  0  0  0  0  0  0  # atno 17370 bound_to 10713
  156.1226  130.3645  149.9862 LP  0  0  0  0  0  0  0  0  0  0  0  0  # atno 17371 bound_to 10713
  140.6603  133.9651  155.7801 LP  0  0  0  0  0  0  0  0  0  0  0  0  # atno 17394 bound_to 11000
  141.0648  134.0293  157.3609 LP  0  0  0  0  0  0  0  0  0  0  0  0  # atno 17395 bound_to 11000

$$$$
