AV-unprocessed.smi:62|AV-procd|sdf|603|dock7
  -GOLD-   2262016493D 1   1.00000     0.00000
 Structure written by MMmdl.
 31 32  0  0  0  0  0  0  0  0  3 V2000
  148.5047  132.0309  153.2606 C   0  0  0  0  0  0  0  0  0  0  0  0
  149.1876  132.9634  154.1312 N   0  0  0  0  0  0  0  0  0  0  0  0
  149.0890  134.3353  154.1713 C   0  0  0  0  0  0  0  0  0  0  0  0
  149.9200  134.7895  155.1581 C   0  0  0  0  0  0  0  0  0  0  0  0
  150.1283  136.2327  155.5527 C   0  0  0  0  0  0  0  0  0  0  0  0
  149.5731  137.1588  154.5378 N   0  3  1  0  0  0  0  0  0  0  0  0
  148.1594  137.5463  154.7397 C   0  0  0  0  0  0  0  0  0  0  0  0
  148.0193  138.9066  154.0637 C   0  0  0  0  0  0  0  0  0  0  0  0
  149.3616  139.5618  154.3728 C   0  0  2  0  0  0  0  0  0  0  0  0
  149.6832  140.5753  153.4437 O   0  0  0  0  0  0  0  0  0  0  0  0
  150.3614  138.3976  154.3379 C   0  0  0  0  0  0  0  0  0  0  0  0
  150.5001  133.5814  155.6754 C   0  0  0  0  0  0  0  0  0  0  0  0
  151.5113  133.5849  156.7913 C   0  0  0  0  0  0  0  0  0  0  0  0
  152.1885  134.6119  157.0183 O   0  0  0  0  0  0  0  0  0  0  0  0
  151.6495  132.5368  157.4586 O   0  5  0  0  0  0  0  0  0  0  0  0
  150.0517  132.4997  155.0528 N   0  0  0  0  0  0  0  0  0  0  0  0
  147.8603  132.5702  152.5658 H   0  0  0  0  0  0  0  0  0  0  0  0
  147.8943  131.3504  153.8553 H   0  0  0  0  0  0  0  0  0  0  0  0
  149.2347  131.4537  152.6923 H   0  0  0  0  0  0  0  0  0  0  0  0
  148.4384  134.8749  153.4989 H   0  0  0  0  0  0  0  0  0  0  0  0
  149.6608  136.4465  156.5150 H   0  0  0  0  0  0  0  0  0  0  0  0
  151.1890  136.4469  155.6874 H   0  0  0  0  0  0  0  0  0  0  0  0
  147.4761  136.8024  154.3286 H   0  0  0  0  0  0  0  0  0  0  0  0
  147.9503  137.6450  155.8063 H   0  0  0  0  0  0  0  0  0  0  0  0
  147.8984  138.7698  152.9877 H   0  0  0  0  0  0  0  0  0  0  0  0
  147.1683  139.4808  154.4312 H   0  0  0  0  0  0  0  0  0  0  0  0
  149.3334  139.9876  155.3767 H   0  0  0  0  0  0  0  0  0  0  0  0
  149.7829  140.1829  152.5895 H   0  0  0  0  0  0  0  0  0  0  0  0
  151.1405  138.5277  155.0906 H   0  0  0  0  0  0  0  0  0  0  0  0
  150.8526  138.3227  153.3666 H   0  0  0  0  0  0  0  0  0  0  0  0
  149.6122  136.6682  153.6544 H   0  0  0  0  0  0  0  0  0  0  0  0
  1  2  1  0  0  0  0
  1 17  1  0  0  0  0
  1 18  1  0  0  0  0
  1 19  1  0  0  0  0
  2 16  1  0  0  0  0
  2  3  1  0  0  0  0
  3  4  2  0  0  0  0
  3 20  1  0  0  0  0
  4  5  1  0  0  0  0
  4 12  1  0  0  0  0
  5  6  1  0  0  0  0
  5 21  1  0  0  0  0
  5 22  1  0  0  0  0
  6 11  1  0  0  0  0
  6  7  1  0  0  0  0
  6 31  1  0  0  0  0
  7  8  1  0  0  0  0
  7 23  1  0  0  0  0
  7 24  1  0  0  0  0
  8  9  1  0  0  0  0
  8 25  1  0  0  0  0
  8 26  1  0  0  0  0
  9 10  1  0  0  0  0
  9 11  1  0  0  0  0
  9 27  1  0  0  0  0
 10 28  1  0  0  0  0
 11 29  1  0  0  0  0
 11 30  1  0  0  0  0
 12 13  1  0  0  0  0
 12 16  2  0  0  0  0
 13 14  2  0  0  0  0
 13 15  1  0  0  0  0
M  CHG  1   6   1
M  CHG  1  15  -1
M  END
> <s_m_source_file>
AV-unprocessed.smi

> <i_m_source_file_index>
62

> <i_lp_mmshare_version>
43012

> <i_f3d_flags>
0

> <s_epik_input>
W0NIM11uMVtjSF1jKGMobjEpQyg9TylbT0hdKVtDSDJdTjJbQ0gyXVtDSDJdW0NAQEhdKFtPSF0pW0NIMl0y

> <s_epik_cmdline>
J2VwaWtfcHl0aG9uJywgJy1waCcsICc3LjAnLCAnLXRuJywgJzgnLCAnLW1hJywgJzIwMCcsICctbWV0YWxfYmluZGluZycsICctaW1hZScsICc8aW5maWxlLm1hZT4nLCAnLW9tYWUnLCAnPG91dGZpbGUubWFlPic=

> <r_epik_Ionization_Penalty>
0.0522993

> <r_epik_Ionization_Penalty_Charging>
0.0522915

> <r_epik_Ionization_Penalty_Neutral>
7.84975e-06

> <r_epik_State_Penalty>
0.0448084

> <r_epik_Charging_Adjusted_Penalty>
0.0970998

> <i_epik_Tot_Q>
0

> <i_epik_Tot_abs_Q>
2

> <r_epik_Metal_State_Penalty>
0.0448097

> <b_epik_Metal_Only>
0

> <s_lp_Force_Field>
OPLS_2005

> <r_lp_Energy>
17.4079

> <b_lp_Chiralities_Consistent>
1

> <s_lp_Variant>
AV-unprocessed.smi:62-3

> <Gold.Version>
5.8.1

> <Gold.Id.Protein>
6NUR|6NUR_protein|mol2

> <Gold.PLP.Fitness>
48.5140

> <Gold.PLP.PLP>
-25.7898

> <Gold.PLP.part.hbond>
-5.6241

> <Gold.PLP.part.metal>
0.0000

> <Gold.PLP.part.buried>
-1.4192

> <Gold.PLP.part.nonpolar>
-18.9759

> <Gold.PLP.part.repulsive>
0.0220

> <Gold.PLP.ligand.clash>
0.0000

> <Gold.PLP.ligand.torsion>
0.8175

> <Gold.PLP.Chemscore.Hbond>
7.1225

> <Gold.PLP.Chemscore.CHOScore>
0.9932

> <Gold.PLP.Chemscore.Metal>
0.0000

> <Gold.Chemscore.Hbonds>
donor molecule, donor type, donor heavy atom, donor atom, acceptor molecule, acceptor atom, score
      L1  H     6    31       P1  7948  2.00
      L1  H    10    28       P1  7957  0.78
      P1  H  6896  6907       L1    15  1.95
      P1  H  7989  7998       L1    10  0.17
      P1  H  8011  8017       L1    10  0.11
      P1  H 10752 10763       L1    14  0.87
      L1  C     3    20       P1  7948  0.97

> <Gold.PLP.Chemscore.Internal.Correction>
0.0121

> <Gold.Rescore>
     Score         DG    S(hbond)    S(metal)    S(lipo)     H(rot)  DE(clash)    DE(int)     intcor
     16.14     -17.38       3.44        0.00      42.99       1.81       0.24       1.00       ----

> <Gold.Chemscore.Fitness>
16.1434

> <Gold.Chemscore.DG>
-17.3831

> <Gold.Chemscore.ZeroCoef>
-5.4800

> <Gold.Chemscore.Hbond>
3.4443

> <Gold.Chemscore.Metal>
0.0000

> <Gold.Chemscore.Lipo>
42.9947

> <Gold.Chemscore.Internal_Hbond>
0.0000

> <Gold.Chemscore.DEClash>
0.2386

> <Gold.Chemscore.DEInternal>
1.0011

> <Gold.Chemscore.Rot>
1.8091

> <Gold.Chemscore.Internal.Correction>
   9.000000E+99

> <Gold.Chemscore.Hbonds>
donor molecule, donor type, donor heavy atom, donor atom, acceptor molecule, acceptor atom, score
      L1  H     6    31       P1  7948  0.68
      L1  H    10    28       P1  7957  0.76
      P1  H  6896  6907       L1    15  0.23
      P1  H 10752 10763       L1    14  0.38

> <Gold.Chemscore.Hbond.Weighted>
-11.5041

> <Gold.Chemscore.Metal.Weighted>
-0.0000

> <Gold.Chemscore.Lipo.Weighted>
-5.0304

> <Gold.Chemscore.Internal_Hbond.Weighted>
0.0000

> <Gold.Chemscore.DEClash.Weighted>
0.2386

> <Gold.Chemscore.DEInternal.Weighted>
1.0011

> <Gold.Chemscore.Rot.Weighted>
4.6314

> <Gold.Chemscore.Internal.Correction.Weighted>
   9.000000E+99

> <Gold.Protein.RotatedTorsions>
[ 6907 6896 6895 6894 ] final  174.60 input  -60.11 | X-H torsion
[ 7974 7965 7964 7962 ] final -177.29 input  175.53 | X-H torsion
[ 8008 7997 7996 7995 ] final -106.75 input   59.86 | X-H torsion
[ 10167 10162 10161 10158 ] final   95.74 input  -65.29 | X-H torsion
[ 10718 10713 10712 10709 ] final -113.80 input   66.30 | X-H torsion
[ 10763 10752 10751 10750 ] final  108.70 input  -60.55 | X-H torsion
[ 11005 11000 10999 10996 ] final -154.01 input  -57.11 | X-H torsion

> <Gold.Protein.ActiveResidues>
 VAL166  LYS551  ARG553  GLY616  TRP617  ASP618  TYR619  PRO620  LYS621  CYS622 
 ASP623  PHE694  ASN695  SER759  ASP760  ASP761  ALA762  ILE779  LEU786  VAL792 
 PHE793  MET794  SER795  GLU796  ALA797  LYS798  CYS799  TRP800  GLU811  SER814 

> <Gold.Protein.RotatedAtoms>
  151.7496  133.3326  159.3387 H   0  0  0  0  0  0  0  0  0  0  0  0  # atno 6907 bound_to 6896
  150.7540  134.6204  159.6142 H   0  0  0  0  0  0  0  0  0  0  0  0  # atno 6908 bound_to 6896
  152.3477  134.7050  160.0297 H   0  0  0  0  0  0  0  0  0  0  0  0  # atno 6909 bound_to 6896
  144.7127  140.1041  143.6415 H   0  0  0  0  0  0  0  0  0  0  0  0  # atno 7974 bound_to 7965
  154.9191  140.0408  157.1988 H   0  0  0  0  0  0  0  0  0  0  0  0  # atno 8008 bound_to 7997
  154.8271  140.2893  155.5726 H   0  0  0  0  0  0  0  0  0  0  0  0  # atno 8009 bound_to 7997
  156.2984  140.2508  156.3189 H   0  0  0  0  0  0  0  0  0  0  0  0  # atno 8010 bound_to 7997
  139.7960  144.6833  150.9828 H   0  0  0  0  0  0  0  0  0  0  0  0  # atno 10167 bound_to 10162
  156.0789  130.5992  150.8690 H   0  0  0  0  0  0  0  0  0  0  0  0  # atno 10718 bound_to 10713
  153.4243  135.3803  155.2131 H   0  0  0  0  0  0  0  0  0  0  0  0  # atno 10763 bound_to 10752
  154.8746  135.3825  154.4345 H   0  0  0  0  0  0  0  0  0  0  0  0  # atno 10764 bound_to 10752
  153.4869  135.7088  153.5969 H   0  0  0  0  0  0  0  0  0  0  0  0  # atno 10765 bound_to 10752
  140.7019  134.3928  157.5208 H   0  0  0  0  0  0  0  0  0  0  0  0  # atno 11005 bound_to 11000
  145.9512  139.2735  143.1211 LP  0  0  0  0  0  0  0  0  0  0  0  0  # atno 17320 bound_to 7965
  145.9321  140.9041  143.0351 LP  0  0  0  0  0  0  0  0  0  0  0  0  # atno 17321 bound_to 7965
  140.7820  143.4331  151.0665 LP  0  0  0  0  0  0  0  0  0  0  0  0  # atno 17342 bound_to 10162
  139.8005  143.8090  152.3162 LP  0  0  0  0  0  0  0  0  0  0  0  0  # atno 17343 bound_to 10162
  157.5897  131.0945  150.9138 LP  0  0  0  0  0  0  0  0  0  0  0  0  # atno 17370 bound_to 10713
  156.9316  130.5352  149.5279 LP  0  0  0  0  0  0  0  0  0  0  0  0  # atno 17371 bound_to 10713
  139.8894  134.8830  156.2421 LP  0  0  0  0  0  0  0  0  0  0  0  0  # atno 17394 bound_to 11000
  141.0156  133.7070  156.1184 LP  0  0  0  0  0  0  0  0  0  0  0  0  # atno 17395 bound_to 11000

$$$$
