#       Name:                AV-unprocessed.smi:2061
#       Creating user name   scv26
#       Creation time:       Fri Mar 27 11:04:49 2020


#       File generated by GOLD software.
#

@<TRIPOS>MOLECULE
AV-unprocessed.smi:2061
    53    54     1
SMALL
NO_CHARGES


@<TRIPOS>ATOM
      1 ****        -3.9106   6.6756   1.7082 C.3            1 S1                 0.0000
      2 ****        -3.4072   5.3183   1.3550 C.2            1 S1                 0.0000
      3 ****        -3.2144   4.6785   0.1629 C.2            1 S1                 0.0000
      4 ****        -2.7121   3.4104   0.5589 C.2            1 S1                 0.0000
      5 ****        -2.3742   2.4273  -0.4058 N.am           1 S1                 0.0000
      6 ****        -1.8842   1.1966  -0.1806 C.2            1 S1                 0.0000
      7 ****        -1.6674   0.7099   0.9298 O.2            1 S1                 0.0000
      8 ****        -1.6462   0.5448  -1.3281 N.am           1 S1                 0.0000
      9 ****        -1.0974  -0.8055  -1.4140 C.3            1 S1                 0.0000
     10 ****         0.4214  -0.8636  -1.0973 C.3            1 S1                 0.0000
     11 ****         1.1979   0.0340  -2.0907 C.3            1 S1                 0.0000
     12 ****         0.8976  -2.2877  -1.0842 N.4            1 S1                 1.0000
     13 ****         2.3543  -2.5140  -1.2885 C.3            1 S1                 0.0000
     14 ****         3.1572  -2.1445  -0.0248 C.3            1 S1                 0.0000
     15 ****         4.6573  -2.4046  -0.1988 C.3            1 S1                 0.0000
     16 ****         2.6913  -2.9466   1.0551 O.3            1 S1                 0.0000
     17 ****         1.3159  -2.7315   1.3541 C.3            1 S1                 0.0000
     18 ****         0.9487  -3.6120   2.5535 C.3            1 S1                 0.0000
     19 ****         0.4616  -3.0647   0.1094 C.3            1 S1                 0.0000
     20 ****        -2.6069   3.2875   1.8733 N.2            1 S1                 0.0000
     21 ****        -3.0522   4.5098   2.3902 O.3            1 S1                 0.0000
     22 ****        -4.2268   7.2184   0.8173 H              1 S1                 0.0000
     23 ****        -3.1332   7.2590   2.2019 H              1 S1                 0.0000
     24 ****        -4.7641   6.6078   2.3830 H              1 S1                 0.0000
     25 ****        -3.4032   5.0594  -0.8297 H              1 S1                 0.0000
     26 ****        -2.5098   2.6954  -1.3694 H              1 S1                 0.0000
     27 ****        -1.8535   1.0128  -2.1985 H              1 S1                 0.0000
     28 ****        -1.6831  -1.4436  -0.7539 H              1 S1                 0.0000
     29 ****        -1.2765  -1.1767  -2.4236 H              1 S1                 0.0000
     30 ****         0.5875  -0.4424  -0.1065 H              1 S1                 0.0000
     31 ****         0.7977   1.0472  -2.1181 H              1 S1                 0.0000
     32 ****         1.1518  -0.3616  -3.1059 H              1 S1                 0.0000
     33 ****         2.2459   0.1422  -1.8124 H              1 S1                 0.0000
     34 ****         2.4997  -3.5747  -1.4995 H              1 S1                 0.0000
     35 ****         2.7342  -2.0042  -2.1724 H              1 S1                 0.0000
     36 ****         3.0161  -1.0906   0.2204 H              1 S1                 0.0000
     37 ****         5.0685  -1.8000  -1.0075 H              1 S1                 0.0000
     38 ****         4.8535  -3.4520  -0.4304 H              1 S1                 0.0000
     39 ****         5.2040  -2.1571   0.7114 H              1 S1                 0.0000
     40 ****         1.1745  -1.6906   1.6471 H              1 S1                 0.0000
     41 ****        -0.0950  -3.4740   2.8366 H              1 S1                 0.0000
     42 ****         1.5623  -3.3653   3.4203 H              1 S1                 0.0000
     43 ****         1.0985  -4.6686   2.3296 H              1 S1                 0.0000
     44 ****        -0.5940  -2.9194   0.3288 H              1 S1                 0.0000
     45 ****         0.5683  -4.1250  -0.1243 H              1 S1                 0.0000
     46 ****         0.4484  -2.7144  -1.8820 H              1 S1                 0.0000
     47 ****        -1.8584   1.2418   1.7548 LP             1 S1                 0.0000
     48 ****        -1.3004  -0.2172   1.0064 LP             1 S1                 0.0000
     49 ****         3.2317  -2.7313   1.8684 LP             1 S1                 0.0000
     50 ****         2.8186  -3.9091   0.8154 LP             1 S1                 0.0000
     51 ****        -2.2801   2.4934   2.3857 LP             1 S1                 0.0000
     52 ****        -3.8425   4.3563   2.9835 LP             1 S1                 0.0000
     53 ****        -2.3187   4.9397   2.9166 LP             1 S1                 0.0000
@<TRIPOS>BOND
    1    1    2 1     
    2    1   22 1     
    3    1   23 1     
    4    1   24 1     
    5    2   21 1     
    6    2    3 2     
    7    3    4 1     
    8    3   25 1     
    9    4    5 1     
   10    4   20 2     
   11    5    6 am    
   12    5   26 1     
   13    6    7 2     
   14    6    8 am    
   15    8    9 1     
   16    8   27 1     
   17    9   10 1     
   18    9   28 1     
   19    9   29 1     
   20   10   11 1     
   21   10   12 1     
   22   10   30 1     
   23   11   31 1     
   24   11   32 1     
   25   11   33 1     
   26   12   19 1     
   27   12   13 1     
   28   12   46 1     
   29   13   14 1     
   30   13   34 1     
   31   13   35 1     
   32   14   15 1     
   33   14   16 1     
   34   14   36 1     
   35   15   37 1     
   36   15   38 1     
   37   15   39 1     
   38   16   17 1     
   39   17   18 1     
   40   17   19 1     
   41   17   40 1     
   42   18   41 1     
   43   18   42 1     
   44   18   43 1     
   45   19   44 1     
   46   19   45 1     
   47   20   21 1     
   48    7   47 1     
   49    7   48 1     
   50   16   49 1     
   51   16   50 1     
   52   20   51 1     
   53   21   52 1     
   54   21   53 1     
@<TRIPOS>SUBSTRUCTURE
      1 S1             1
@<TRIPOS>SET
LONE_PAIRS      STATIC     ATOMS    <user>   **** ""
7 47 48 49 50 51 52 53
DONOR_HYDROGENS      STATIC     ATOMS    <user>   **** ""
3 26 27 46
ATOM$BLUE        STATIC     ATOMS    COLORGROUP SYSTEM
7 47 48 49 50 51 52 53
ATOM$RED        STATIC     ATOMS    COLORGROUP SYSTEM
3 26 27 46
