AV-unprocessed.smi:1372|AV-procd|sdf|5583|dock10
  -GOLD-   22720 5183D 1   1.00000     0.00000
 Structure written by MMmdl.
 41 43  0  0  0  0  0  0  0  0  1 V2000
  150.6114  137.3607  158.1205 C   0  0  0  0  0  0  0  0  0  0  0  0
  151.2910  136.5243  156.6303 S   0  0  0  0  0  0  0  0  0  0  0  0
  152.4862  135.7680  157.0345 O   0  0  0  0  0  0  0  0  0  0  0  0
  150.1897  135.8308  155.9450 O   0  0  0  0  0  0  0  0  0  0  0  0
  151.8179  137.9646  155.5998 C   0  0  0  0  0  0  0  0  0  0  0  0
  150.6257  138.6925  155.0440 C   0  0  0  0  0  0  0  0  0  0  0  0
  149.6875  138.0609  154.3357 N   0  0  0  0  0  0  0  0  0  0  0  0
  148.7920  139.0676  154.0383 C   0  0  0  0  0  0  0  0  0  0  0  0
  147.5766  139.0335  153.3180 C   0  0  0  0  0  0  0  0  0  0  0  0
  146.8196  140.2100  153.1395 C   0  0  0  0  0  0  0  0  0  0  0  0
  147.2666  141.4343  153.6772 C   0  0  0  0  0  0  0  0  0  0  0  0
  148.4761  141.4899  154.3965 C   0  0  0  0  0  0  0  0  0  0  0  0
  149.2277  140.3123  154.5717 C   0  0  0  0  0  0  0  0  0  0  0  0
  150.4329  140.0289  155.2072 N   0  0  0  0  0  0  0  0  0  0  0  0
  151.2731  141.0071  155.8876 C   0  0  0  0  0  0  0  0  0  0  0  0
  150.4736  141.9355  156.8233 C   0  0  1  0  0  0  0  0  0  0  0  0
  149.4089  141.2253  157.4238 O   0  0  0  0  0  0  0  0  0  0  0  0
  151.3800  142.5883  157.8547 C   0  0  0  0  0  0  0  0  0  0  0  0
  151.9888  141.8017  158.8562 C   0  0  0  0  0  0  0  0  0  0  0  0
  152.8214  142.4010  159.8213 C   0  0  0  0  0  0  0  0  0  0  0  0
  153.0484  143.7903  159.7919 C   0  0  0  0  0  0  0  0  0  0  0  0
  152.4414  144.5808  158.7972 C   0  0  0  0  0  0  0  0  0  0  0  0
  151.6084  143.9821  157.8320 C   0  0  0  0  0  0  0  0  0  0  0  0
  150.2559  136.6097  158.8257 H   0  0  0  0  0  0  0  0  0  0  0  0
  149.7819  138.0054  157.8304 H   0  0  0  0  0  0  0  0  0  0  0  0
  151.3914  137.9588  158.5914 H   0  0  0  0  0  0  0  0  0  0  0  0
  152.4285  138.6075  156.2293 H   0  0  0  0  0  0  0  0  0  0  0  0
  152.4410  137.6015  154.7826 H   0  0  0  0  0  0  0  0  0  0  0  0
  147.2265  138.1000  152.9030 H   0  0  0  0  0  0  0  0  0  0  0  0
  145.8917  140.1726  152.5878 H   0  0  0  0  0  0  0  0  0  0  0  0
  146.6808  142.3309  153.5365 H   0  0  0  0  0  0  0  0  0  0  0  0
  148.8211  142.4264  154.8090 H   0  0  0  0  0  0  0  0  0  0  0  0
  152.0776  140.5007  156.4197 H   0  0  0  0  0  0  0  0  0  0  0  0
  151.7677  141.6066  155.1222 H   0  0  0  0  0  0  0  0  0  0  0  0
  150.0184  142.7247  156.2231 H   0  0  0  0  0  0  0  0  0  0  0  0
  148.7165  141.8365  157.6245 H   0  0  0  0  0  0  0  0  0  0  0  0
  151.8180  140.7355  158.8895 H   0  0  0  0  0  0  0  0  0  0  0  0
  153.2852  141.7945  160.5853 H   0  0  0  0  0  0  0  0  0  0  0  0
  153.6866  144.2498  160.5323 H   0  0  0  0  0  0  0  0  0  0  0  0
  152.6140  145.6466  158.7753 H   0  0  0  0  0  0  0  0  0  0  0  0
  151.1433  144.5967  157.0749 H   0  0  0  0  0  0  0  0  0  0  0  0
  1  2  1  0  0  0  0
  1 24  1  0  0  0  0
  1 25  1  0  0  0  0
  1 26  1  0  0  0  0
  2  3  2  0  0  0  0
  2  4  2  0  0  0  0
  2  5  1  0  0  0  0
  5  6  1  0  0  0  0
  5 27  1  0  0  0  0
  5 28  1  0  0  0  0
  6 14  1  0  0  0  0
  6  7  2  0  0  0  0
  7  8  1  0  0  0  0
  8 13  2  0  0  0  0
  8  9  1  0  0  0  0
  9 10  2  0  0  0  0
  9 29  1  0  0  0  0
 10 11  1  0  0  0  0
 10 30  1  0  0  0  0
 11 12  2  0  0  0  0
 11 31  1  0  0  0  0
 12 13  1  0  0  0  0
 12 32  1  0  0  0  0
 13 14  1  0  0  0  0
 14 15  1  0  0  0  0
 15 16  1  0  0  0  0
 15 33  1  0  0  0  0
 15 34  1  0  0  0  0
 16 17  1  0  0  0  0
 16 18  1  0  0  0  0
 16 35  1  0  0  0  0
 17 36  1  0  0  0  0
 18 23  1  0  0  0  0
 18 19  2  0  0  0  0
 19 20  1  0  0  0  0
 19 37  1  0  0  0  0
 20 21  2  0  0  0  0
 20 38  1  0  0  0  0
 21 22  1  0  0  0  0
 21 39  1  0  0  0  0
 22 23  2  0  0  0  0
 22 40  1  0  0  0  0
 23 41  1  0  0  0  0
M  END
> <s_m_source_file>
AV-unprocessed.smi

> <i_m_source_file_index>
1372

> <i_lp_mmshare_version>
43012

> <i_f3d_flags>
0

> <s_epik_input>
W2NIXTFbY0hdW2NIXVtjSF1jKGMxMiluKGMobjIpW0NIMl1TKD1PKSg9TylbQ0gzXSlbQ0gyXVtDQEhdKFtPSF0pYzNbY0hdW2NIXVtjSF1bY0hdW2NIXTM=

> <s_epik_cmdline>
J2VwaWtfcHl0aG9uJywgJy1waCcsICc3LjAnLCAnLXRuJywgJzgnLCAnLW1hJywgJzIwMCcsICctbWV0YWxfYmluZGluZycsICctaW1hZScsICc8aW5maWxlLm1hZT4nLCAnLW9tYWUnLCAnPG91dGZpbGUubWFlPic=

> <r_epik_Ionization_Penalty>
0.0151431

> <r_epik_Ionization_Penalty_Charging>
0

> <r_epik_Ionization_Penalty_Neutral>
0.0151431

> <r_epik_State_Penalty>
0.0118835

> <r_epik_Charging_Adjusted_Penalty>
0.0118835

> <i_epik_Tot_Q>
0

> <i_epik_Tot_abs_Q>
0

> <r_epik_Metal_State_Penalty>
1.20034e-05

> <b_epik_Metal_Only>
0

> <s_lp_Force_Field>
OPLS_2005

> <r_lp_Energy>
10.2865

> <b_lp_Chiralities_Consistent>
1

> <s_lp_Variant>
AV-unprocessed.smi:1372-2

> <Gold.Version>
5.8.1

> <Gold.Id.Protein>
6NUR|6NUR_protein|mol2

> <Gold.PLP.Fitness>
49.8406

> <Gold.PLP.PLP>
-48.0835

> <Gold.PLP.part.hbond>
-1.0000

> <Gold.PLP.part.metal>
0.0000

> <Gold.PLP.part.buried>
-3.5607

> <Gold.PLP.part.nonpolar>
-43.3355

> <Gold.PLP.part.repulsive>
0.2837

> <Gold.PLP.ligand.clash>
0.0000

> <Gold.PLP.ligand.torsion>
0.6848

> <Gold.PLP.Chemscore.Hbond>
1.0000

> <Gold.PLP.Chemscore.CHOScore>
0.0000

> <Gold.PLP.Chemscore.Metal>
0.0000

> <Gold.Chemscore.Hbonds>
donor molecule, donor type, donor heavy atom, donor atom, acceptor molecule, acceptor atom, score
      P1  H 10752 10765       L1     3  1.00

> <Gold.PLP.Chemscore.Internal.Correction>
0.1266

> <Gold.Rescore>
     Score         DG    S(hbond)    S(metal)    S(lipo)     H(rot)  DE(clash)    DE(int)     intcor
     15.92     -18.39       0.94        0.00     134.50       2.33       0.58       1.88       ----

> <Gold.Chemscore.Fitness>
15.9243

> <Gold.Chemscore.DG>
-18.3922

> <Gold.Chemscore.ZeroCoef>
-5.4800

> <Gold.Chemscore.Hbond>
0.9407

> <Gold.Chemscore.Metal>
0.0000

> <Gold.Chemscore.Lipo>
134.5006

> <Gold.Chemscore.Internal_Hbond>
0.0000

> <Gold.Chemscore.DEClash>
0.5843

> <Gold.Chemscore.DEInternal>
1.8836

> <Gold.Chemscore.Rot>
2.3306

> <Gold.Chemscore.Internal.Correction>
   9.000000E+99

> <Gold.Chemscore.Hbonds>
donor molecule, donor type, donor heavy atom, donor atom, acceptor molecule, acceptor atom, score
      P1  H 10752 10765       L1     3  0.42

> <Gold.Chemscore.Hbond.Weighted>
-3.1420

> <Gold.Chemscore.Metal.Weighted>
-0.0000

> <Gold.Chemscore.Lipo.Weighted>
-15.7366

> <Gold.Chemscore.Internal_Hbond.Weighted>
0.0000

> <Gold.Chemscore.DEClash.Weighted>
0.5843

> <Gold.Chemscore.DEInternal.Weighted>
1.8836

> <Gold.Chemscore.Rot.Weighted>
5.9664

> <Gold.Chemscore.Internal.Correction.Weighted>
   9.000000E+99

> <Gold.Protein.RotatedTorsions>
[ 6907 6896 6895 6894 ] final -113.09 input  -60.11 | X-H torsion
[ 7974 7965 7964 7962 ] final -156.49 input  175.53 | X-H torsion
[ 8008 7997 7996 7995 ] final  119.95 input   59.86 | X-H torsion
[ 10167 10162 10161 10158 ] final   -4.30 input  -65.29 | X-H torsion
[ 10718 10713 10712 10709 ] final -156.71 input   66.30 | X-H torsion
[ 10763 10752 10751 10750 ] final -128.94 input  -60.55 | X-H torsion
[ 11005 11000 10999 10996 ] final -136.34 input  -57.11 | X-H torsion

> <Gold.Protein.ActiveResidues>
 VAL166  LYS551  ARG553  GLY616  TRP617  ASP618  TYR619  PRO620  LYS621  CYS622 
 ASP623  PHE694  ASN695  SER759  ASP760  ASP761  ALA762  ILE779  LEU786  VAL792 
 PHE793  MET794  SER795  GLU796  ALA797  LYS798  CYS799  TRP800  GLU811  SER814 

> <Gold.Protein.RotatedAtoms>
  150.7804  133.8995  159.3336 H   0  0  0  0  0  0  0  0  0  0  0  0  # atno 6907 bound_to 6896
  151.6860  135.0952  160.0234 H   0  0  0  0  0  0  0  0  0  0  0  0  # atno 6908 bound_to 6896
  152.3853  133.6565  159.6229 H   0  0  0  0  0  0  0  0  0  0  0  0  # atno 6909 bound_to 6896
  144.7591  140.4103  143.5990 H   0  0  0  0  0  0  0  0  0  0  0  0  # atno 7974 bound_to 7965
  156.2620  140.2841  156.1072 H   0  0  0  0  0  0  0  0  0  0  0  0  # atno 8008 bound_to 7997
  155.1296  140.0393  157.2789 H   0  0  0  0  0  0  0  0  0  0  0  0  # atno 8009 bound_to 7997
  154.6609  140.2566  155.7116 H   0  0  0  0  0  0  0  0  0  0  0  0  # atno 8010 bound_to 7997
  140.6922  143.6439  150.8411 H   0  0  0  0  0  0  0  0  0  0  0  0  # atno 10167 bound_to 10162
  156.5303  130.8518  151.2714 H   0  0  0  0  0  0  0  0  0  0  0  0  # atno 10718 bound_to 10713
  154.8757  135.3912  154.3838 H   0  0  0  0  0  0  0  0  0  0  0  0  # atno 10763 bound_to 10752
  153.4582  135.7029  153.6071 H   0  0  0  0  0  0  0  0  0  0  0  0  # atno 10764 bound_to 10752
  153.4581  135.3818  155.2291 H   0  0  0  0  0  0  0  0  0  0  0  0  # atno 10765 bound_to 10752
  140.8814  134.1926  157.4588 H   0  0  0  0  0  0  0  0  0  0  0  0  # atno 11005 bound_to 11000
  145.6680  139.1593  143.2771 LP  0  0  0  0  0  0  0  0  0  0  0  0  # atno 17320 bound_to 7965
  146.1634  140.6754  142.9267 LP  0  0  0  0  0  0  0  0  0  0  0  0  # atno 17321 bound_to 7965
  140.0153  143.5599  152.2822 LP  0  0  0  0  0  0  0  0  0  0  0  0  # atno 17342 bound_to 10162
  139.6338  144.7647  151.2481 LP  0  0  0  0  0  0  0  0  0  0  0  0  # atno 17343 bound_to 10162
  157.7423  130.9887  150.2504 LP  0  0  0  0  0  0  0  0  0  0  0  0  # atno 17370 bound_to 10713
  156.3066  130.3766  149.7700 LP  0  0  0  0  0  0  0  0  0  0  0  0  # atno 17371 bound_to 10713
  139.8720  134.9819  156.5134 LP  0  0  0  0  0  0  0  0  0  0  0  0  # atno 17394 bound_to 11000
  140.8456  133.8171  155.9118 LP  0  0  0  0  0  0  0  0  0  0  0  0  # atno 17395 bound_to 11000

$$$$
