AV-unprocessed.smi:158|AV-procd|sdf|1334|dock9
  -GOLD-   2262019 33D 1   1.00000     0.00000
 Structure written by MMmdl.
 31 33  0  0  0  0  0  0  0  0  1 V2000
  152.0337  144.3079  159.2118 N   0  0  0  0  0  0  0  0  0  0  0  0
  152.2837  143.0148  158.9627 C   0  0  0  0  0  0  0  0  0  0  0  0
  153.3723  142.4487  159.5332 N   0  0  0  0  0  0  0  0  0  0  0  0
  153.6595  141.1618  159.3059 C   0  0  0  0  0  0  0  0  0  0  0  0
  155.0669  140.5376  160.0820 Cl  0  0  0  0  0  0  0  0  0  0  0  0
  152.9766  140.3024  158.5440 N   0  0  0  0  0  0  0  0  0  0  0  0
  151.8722  140.8626  157.9698 C   0  0  0  0  0  0  0  0  0  0  0  0
  151.4633  142.2149  158.1297 C   0  0  0  0  0  0  0  0  0  0  0  0
  150.3074  142.4519  157.4006 N   0  0  0  0  0  0  0  0  0  0  0  0
  150.0490  141.2998  156.8438 C   0  0  0  0  0  0  0  0  0  0  0  0
  150.9317  140.2818  157.1365 N   0  0  0  0  0  0  0  0  0  0  0  0
  150.8633  138.8677  156.6294 C   0  0  1  0  0  0  0  0  0  0  0  0
  149.5337  138.5455  156.3378 O   0  0  0  0  0  0  0  0  0  0  0  0
  149.3916  138.1984  154.9587 C   0  0  1  0  0  0  0  0  0  0  0  0
  147.9961  138.5603  154.4181 C   0  0  0  0  0  0  0  0  0  0  0  0
  147.9448  138.3521  153.0224 O   0  0  0  0  0  0  0  0  0  0  0  0
  150.6012  138.8237  154.2474 C   0  0  1  0  0  0  0  0  0  0  0  0
  150.3683  140.1732  153.8877 O   0  0  0  0  0  0  0  0  0  0  0  0
  151.6599  138.6947  155.3266 C   0  0  1  0  0  0  0  0  0  0  0  0
  152.6778  139.5509  155.2091 F   0  0  0  0  0  0  0  0  0  0  0  0
  151.2470  138.2700  157.4569 H   0  0  0  0  0  0  0  0  0  0  0  0
  149.5051  137.1136  154.9198 H   0  0  0  0  0  0  0  0  0  0  0  0
  150.8711  138.2712  153.3467 H   0  0  0  0  0  0  0  0  0  0  0  0
  152.0773  137.6872  155.3182 H   0  0  0  0  0  0  0  0  0  0  0  0
  151.2277  144.7528  158.7963 H   0  0  0  0  0  0  0  0  0  0  0  0
  152.6495  144.8339  159.8148 H   0  0  0  0  0  0  0  0  0  0  0  0
  149.1929  141.1550  156.2009 H   0  0  0  0  0  0  0  0  0  0  0  0
  147.2431  137.9245  154.8847 H   0  0  0  0  0  0  0  0  0  0  0  0
  147.7235  139.5906  154.6453 H   0  0  0  0  0  0  0  0  0  0  0  0
  148.4733  139.0130  152.6012 H   0  0  0  0  0  0  0  0  0  0  0  0
  149.8058  140.1877  153.1284 H   0  0  0  0  0  0  0  0  0  0  0  0
  1  2  1  0  0  0  0
  1 25  1  0  0  0  0
  1 26  1  0  0  0  0
  2  8  1  0  0  0  0
  2  3  2  0  0  0  0
  3  4  1  0  0  0  0
  4  5  1  0  0  0  0
  4  6  2  0  0  0  0
  6  7  1  0  0  0  0
  7 11  1  0  0  0  0
  7  8  2  0  0  0  0
  8  9  1  0  0  0  0
  9 10  2  0  0  0  0
 10 11  1  0  0  0  0
 10 27  1  0  0  0  0
 11 12  1  0  0  0  0
 12 21  1  0  0  0  0
 12 19  1  0  0  0  0
 12 13  1  0  0  0  0
 13 14  1  0  0  0  0
 14 22  1  0  0  0  0
 14 15  1  0  0  0  0
 14 17  1  0  0  0  0
 15 16  1  0  0  0  0
 15 28  1  0  0  0  0
 15 29  1  0  0  0  0
 16 30  1  0  0  0  0
 17 23  1  0  0  0  0
 17 18  1  0  0  0  0
 17 19  1  0  0  0  0
 18 31  1  0  0  0  0
 19 24  1  0  0  0  0
 19 20  1  0  0  0  0
M  END
> <s_m_source_file>
AV-unprocessed.smi

> <i_m_source_file_index>
158

> <i_lp_mmshare_version>
43012

> <i_f3d_flags>
0

> <s_epik_input>
Q2xjKG4xKW5jKFtOSDJdKWMoYzEyKW5bY0hdbjJbQ0BASF0zT1tDQEhdKFtDSDJdW09IXSlbQ0BASF0oW09IXSlbQ0BASF0zRg==

> <s_epik_cmdline>
J2VwaWtfcHl0aG9uJywgJy1waCcsICc3LjAnLCAnLXRuJywgJzgnLCAnLW1hJywgJzIwMCcsICctbWV0YWxfYmluZGluZycsICctaW1hZScsICc8aW5maWxlLm1hZT4nLCAnLW9tYWUnLCAnPG91dGZpbGUubWFlPic=

> <r_lp_tautomer_probability>
1

> <r_epik_Ionization_Penalty>
6.51543e-05

> <r_epik_Ionization_Penalty_Charging>
0

> <r_epik_Ionization_Penalty_Neutral>
6.51543e-05

> <r_epik_State_Penalty>
-0

> <r_epik_Charging_Adjusted_Penalty>
0

> <i_epik_Tot_Q>
0

> <i_epik_Tot_abs_Q>
0

> <r_epik_Metal_State_Penalty>
-0

> <b_epik_Metal_Only>
0

> <s_epik_Chemistry_Notes>
This compound contains an acetal/aminal-like group ( X-CH(R)-Y where X, Y are N, S, or O) that may be acid/base labile, releasing an aldehyde.

> <s_lp_Force_Field>
OPLS_2005

> <r_lp_Energy>
41.2986

> <b_lp_Chiralities_Consistent>
1

> <s_lp_Variant>
AV-unprocessed.smi:158-12

> <Gold.Version>
5.8.1

> <Gold.Id.Protein>
6NUR|6NUR_protein|mol2

> <Gold.PLP.Fitness>
38.6034

> <Gold.PLP.PLP>
-30.1909

> <Gold.PLP.part.hbond>
-4.0071

> <Gold.PLP.part.metal>
0.0000

> <Gold.PLP.part.buried>
-2.9455

> <Gold.PLP.part.nonpolar>
-22.4088

> <Gold.PLP.part.repulsive>
0.1653

> <Gold.PLP.ligand.clash>
0.0000

> <Gold.PLP.ligand.torsion>
0.7656

> <Gold.PLP.Chemscore.Hbond>
3.0513

> <Gold.PLP.Chemscore.CHOScore>
0.0000

> <Gold.PLP.Chemscore.Metal>
0.0000

> <Gold.Chemscore.Hbonds>
donor molecule, donor type, donor heavy atom, donor atom, acceptor molecule, acceptor atom, score
      L1  H    16    30       P1  7957  0.86
      L1  H    18    31       P1  7957  0.96
      P1  H  7989  7998       L1    18  0.81
      P1  H  7997  8008       L1     6  0.32

> <Gold.PLP.Chemscore.Internal.Correction>
0.7897

> <Gold.Rescore>
     Score         DG    S(hbond)    S(metal)    S(lipo)     H(rot)  DE(clash)    DE(int)     intcor
      7.65      -9.17       2.09        0.00      40.11       3.12       0.83       0.69       ----

> <Gold.Chemscore.Fitness>
7.6483

> <Gold.Chemscore.DG>
-9.1746

> <Gold.Chemscore.ZeroCoef>
-5.4800

> <Gold.Chemscore.Hbond>
2.0949

> <Gold.Chemscore.Metal>
0.0000

> <Gold.Chemscore.Lipo>
40.1066

> <Gold.Chemscore.Internal_Hbond>
0.0000

> <Gold.Chemscore.DEClash>
0.8316

> <Gold.Chemscore.DEInternal>
0.6947

> <Gold.Chemscore.Rot>
3.1230

> <Gold.Chemscore.Internal.Correction>
   9.000000E+99

> <Gold.Chemscore.Hbonds>
donor molecule, donor type, donor heavy atom, donor atom, acceptor molecule, acceptor atom, score
      L1  H    16    30       P1  7957  0.84
      L1  H    18    31       P1  7957  0.90
      P1  H  7989  7998       L1    18  0.33
      P1  H  7997  8008       L1     6  0.03

> <Gold.Chemscore.Hbond.Weighted>
-6.9971

> <Gold.Chemscore.Metal.Weighted>
-0.0000

> <Gold.Chemscore.Lipo.Weighted>
-4.6925

> <Gold.Chemscore.Internal_Hbond.Weighted>
0.0000

> <Gold.Chemscore.DEClash.Weighted>
0.8316

> <Gold.Chemscore.DEInternal.Weighted>
0.6947

> <Gold.Chemscore.Rot.Weighted>
7.9950

> <Gold.Chemscore.Internal.Correction.Weighted>
   9.000000E+99

> <Gold.Protein.RotatedTorsions>
[ 6907 6896 6895 6894 ] final -163.24 input  -60.11 | X-H torsion
[ 7974 7965 7964 7962 ] final  -23.68 input  175.53 | X-H torsion
[ 8008 7997 7996 7995 ] final  -89.39 input   59.86 | X-H torsion
[ 10167 10162 10161 10158 ] final   60.85 input  -65.29 | X-H torsion
[ 10718 10713 10712 10709 ] final   32.00 input   66.30 | X-H torsion
[ 10763 10752 10751 10750 ] final  -70.68 input  -60.55 | X-H torsion
[ 11005 11000 10999 10996 ] final  113.95 input  -57.11 | X-H torsion

> <Gold.Protein.ActiveResidues>
 VAL166  LYS551  ARG553  GLY616  TRP617  ASP618  TYR619  PRO620  LYS621  CYS622 
 ASP623  PHE694  ASN695  SER759  ASP760  ASP761  ALA762  ILE779  LEU786  VAL792 
 PHE793  MET794  SER795  GLU796  ALA797  LYS798  CYS799  TRP800  GLU811  SER814 

> <Gold.Protein.RotatedAtoms>
  151.3930  133.3782  159.2722 H   0  0  0  0  0  0  0  0  0  0  0  0  # atno 6907 bound_to 6896
  150.9491  134.8894  159.7671 H   0  0  0  0  0  0  0  0  0  0  0  0  # atno 6908 bound_to 6896
  152.5104  134.3884  159.9427 H   0  0  0  0  0  0  0  0  0  0  0  0  # atno 6909 bound_to 6896
  146.1601  140.4648  142.8575 H   0  0  0  0  0  0  0  0  0  0  0  0  # atno 7974 bound_to 7965
  154.6860  140.0542  157.0315 H   0  0  0  0  0  0  0  0  0  0  0  0  # atno 8008 bound_to 7997
  155.0884  140.3216  155.4562 H   0  0  0  0  0  0  0  0  0  0  0  0  # atno 8009 bound_to 7997
  156.2711  140.2052  156.6011 H   0  0  0  0  0  0  0  0  0  0  0  0  # atno 8010 bound_to 7997
  140.1612  144.4369  150.6708 H   0  0  0  0  0  0  0  0  0  0  0  0  # atno 10167 bound_to 10162
  157.2797  130.7249  149.6550 H   0  0  0  0  0  0  0  0  0  0  0  0  # atno 10718 bound_to 10713
  154.4210  135.5986  153.6010 H   0  0  0  0  0  0  0  0  0  0  0  0  # atno 10763 bound_to 10752
  152.9794  135.5952  154.3955 H   0  0  0  0  0  0  0  0  0  0  0  0  # atno 10764 bound_to 10752
  154.3780  135.2841  155.2206 H   0  0  0  0  0  0  0  0  0  0  0  0  # atno 10765 bound_to 10752
  139.8967  134.9559  156.6817 H   0  0  0  0  0  0  0  0  0  0  0  0  # atno 11005 bound_to 11000
  144.8016  140.6223  143.6474 LP  0  0  0  0  0  0  0  0  0  0  0  0  # atno 17320 bound_to 7965
  145.4608  139.1513  143.3867 LP  0  0  0  0  0  0  0  0  0  0  0  0  # atno 17321 bound_to 7965
  140.6642  143.2262  151.5783 LP  0  0  0  0  0  0  0  0  0  0  0  0  # atno 17342 bound_to 10162
  139.5380  144.2725  152.1293 LP  0  0  0  0  0  0  0  0  0  0  0  0  # atno 17343 bound_to 10162
  155.9664  130.4342  150.5038 LP  0  0  0  0  0  0  0  0  0  0  0  0  # atno 17370 bound_to 10713
  157.2979  131.0639  151.2088 LP  0  0  0  0  0  0  0  0  0  0  0  0  # atno 17371 bound_to 10713
  140.7294  133.9072  155.8201 LP  0  0  0  0  0  0  0  0  0  0  0  0  # atno 17394 bound_to 11000
  141.0165  134.0948  157.4166 LP  0  0  0  0  0  0  0  0  0  0  0  0  # atno 17395 bound_to 11000

$$$$
