AV-unprocessed.smi:3267|AV-procd|sdf|12505|dock6
  -GOLD-   2272018413D 1   1.00000     0.00000
 Structure written by MMmdl.
 38 39  0  0  0  0  0  0  0  0  1 V2000
  148.1990  141.4837  154.5089 C   0  0  0  0  0  0  0  0  0  0  0  0
  149.4333  141.1670  155.3689 C   0  0  1  0  0  0  0  0  0  0  0  0
  150.6094  140.5709  154.5584 C   0  0  0  0  0  0  0  0  0  0  0  0
  150.8709  139.1700  154.8471 N   0  0  0  0  0  0  0  0  0  0  0  0
  150.6230  138.0699  154.0528 C   0  0  0  0  0  0  0  0  0  0  0  0
  151.0325  136.9668  154.7454 C   0  0  0  0  0  0  0  0  0  0  0  0
  151.5187  137.4995  155.9718 C   0  0  0  0  0  0  0  0  0  0  0  0
  151.4191  138.8174  156.0306 N   0  0  0  0  0  0  0  0  0  0  0  0
  149.8412  142.3719  156.0881 N   0  0  0  0  0  0  0  0  0  0  0  0
  150.8810  142.4612  156.9287 C   0  0  0  0  0  0  0  0  0  0  0  0
  151.6231  141.5203  157.2115 O   0  0  0  0  0  0  0  0  0  0  0  0
  151.0135  143.7002  157.4212 N   0  0  0  0  0  0  0  0  0  0  0  0
  152.0301  144.1170  158.3796 C   0  0  0  0  0  0  0  0  0  0  0  0
  152.0102  143.2332  159.6376 C   0  0  2  0  0  0  0  0  0  0  0  0
  152.1701  144.0125  160.9428 C   0  0  0  0  0  0  0  0  0  0  0  0
  152.8027  143.0065  161.8943 C   0  0  0  0  0  0  0  0  0  0  0  0
  153.2141  141.8416  160.9903 C   0  0  0  0  0  0  0  0  0  0  0  0
  153.1266  142.3581  159.6711 O   0  0  0  0  0  0  0  0  0  0  0  0
  147.8743  140.6045  153.9522 H   0  0  0  0  0  0  0  0  0  0  0  0
  148.3993  142.2788  153.7900 H   0  0  0  0  0  0  0  0  0  0  0  0
  147.3630  141.8062  155.1305 H   0  0  0  0  0  0  0  0  0  0  0  0
  149.1289  140.4219  156.1063 H   0  0  0  0  0  0  0  0  0  0  0  0
  150.4401  140.6834  153.4863 H   0  0  0  0  0  0  0  0  0  0  0  0
  151.5190  141.1311  154.7778 H   0  0  0  0  0  0  0  0  0  0  0  0
  150.1837  138.1634  153.0705 H   0  0  0  0  0  0  0  0  0  0  0  0
  150.9897  135.9362  154.4260 H   0  0  0  0  0  0  0  0  0  0  0  0
  151.9377  136.9715  156.8158 H   0  0  0  0  0  0  0  0  0  0  0  0
  149.2974  143.2054  155.9190 H   0  0  0  0  0  0  0  0  0  0  0  0
  150.3547  144.4041  157.1219 H   0  0  0  0  0  0  0  0  0  0  0  0
  153.0213  144.1202  157.9226 H   0  0  0  0  0  0  0  0  0  0  0  0
  151.8152  145.1492  158.6568 H   0  0  0  0  0  0  0  0  0  0  0  0
  151.0932  142.6416  159.6730 H   0  0  0  0  0  0  0  0  0  0  0  0
  152.8494  144.8541  160.8010 H   0  0  0  0  0  0  0  0  0  0  0  0
  151.2220  144.4060  161.3105 H   0  0  0  0  0  0  0  0  0  0  0  0
  153.6666  143.4449  162.3949 H   0  0  0  0  0  0  0  0  0  0  0  0
  152.1024  142.6752  162.6617 H   0  0  0  0  0  0  0  0  0  0  0  0
  154.2181  141.4761  161.2069 H   0  0  0  0  0  0  0  0  0  0  0  0
  152.5176  141.0086  161.0955 H   0  0  0  0  0  0  0  0  0  0  0  0
  1  2  1  0  0  0  0
  1 19  1  0  0  0  0
  1 20  1  0  0  0  0
  1 21  1  0  0  0  0
  2  3  1  0  0  0  0
  2  9  1  0  0  0  0
  2 22  1  0  0  0  0
  3  4  1  0  0  0  0
  3 23  1  0  0  0  0
  3 24  1  0  0  0  0
  4  8  1  0  0  0  0
  4  5  1  0  0  0  0
  5  6  2  0  0  0  0
  5 25  1  0  0  0  0
  6  7  1  0  0  0  0
  6 26  1  0  0  0  0
  7  8  2  0  0  0  0
  7 27  1  0  0  0  0
  9 10  1  0  0  0  0
  9 28  1  0  0  0  0
 10 11  2  0  0  0  0
 10 12  1  0  0  0  0
 12 13  1  0  0  0  0
 12 29  1  0  0  0  0
 13 14  1  0  0  0  0
 13 30  1  0  0  0  0
 13 31  1  0  0  0  0
 14 18  1  0  0  0  0
 14 15  1  0  0  0  0
 14 32  1  0  0  0  0
 15 16  1  0  0  0  0
 15 33  1  0  0  0  0
 15 34  1  0  0  0  0
 16 17  1  0  0  0  0
 16 35  1  0  0  0  0
 16 36  1  0  0  0  0
 17 18  1  0  0  0  0
 17 37  1  0  0  0  0
 17 38  1  0  0  0  0
M  END
> <s_m_source_file>
AV-unprocessed.smi

> <i_m_source_file_index>
3267

> <i_lp_mmshare_version>
43012

> <i_f3d_flags>
0

> <s_epik_input>
bjFbY0hdW2NIXVtjSF1uMVtDSDJdW0NAQEhdKFtDSDNdKVtOSF1DKD1PKVtOSF1bQ0gyXVtDQEBIXTJbQ0gyXVtDSDJdW0NIMl1PMg==

> <s_epik_cmdline>
J2VwaWtfcHl0aG9uJywgJy1waCcsICc3LjAnLCAnLXRuJywgJzgnLCAnLW1hJywgJzIwMCcsICctbWV0YWxfYmluZGluZycsICctaW1hZScsICc8aW5maWxlLm1hZT4nLCAnLW9tYWUnLCAnPG91dGZpbGUubWFlPic=

> <r_lp_tautomer_probability>
1

> <r_epik_Ionization_Penalty>
6.24796e-05

> <r_epik_Ionization_Penalty_Charging>
0

> <r_epik_Ionization_Penalty_Neutral>
6.24796e-05

> <r_epik_State_Penalty>
-0

> <r_epik_Charging_Adjusted_Penalty>
0

> <i_epik_Tot_Q>
0

> <i_epik_Tot_abs_Q>
0

> <r_epik_Metal_State_Penalty>
-0

> <b_epik_Metal_Only>
0

> <s_lp_Force_Field>
OPLS_2005

> <r_lp_Energy>
14.7816

> <b_lp_Chiralities_Consistent>
1

> <s_lp_Variant>
AV-unprocessed.smi:3267-2

> <Gold.Version>
5.8.1

> <Gold.Id.Protein>
6NUR|6NUR_protein|mol2

> <Gold.PLP.Fitness>
45.7230

> <Gold.PLP.PLP>
-38.5540

> <Gold.PLP.part.hbond>
-2.0000

> <Gold.PLP.part.metal>
0.0000

> <Gold.PLP.part.buried>
0.1768

> <Gold.PLP.part.nonpolar>
-36.6724

> <Gold.PLP.part.repulsive>
0.1472

> <Gold.PLP.ligand.clash>
0.0000

> <Gold.PLP.ligand.torsion>
1.5081

> <Gold.PLP.Chemscore.Hbond>
1.8247

> <Gold.PLP.Chemscore.CHOScore>
1.5531

> <Gold.PLP.Chemscore.Metal>
0.0000

> <Gold.Chemscore.Hbonds>
donor molecule, donor type, donor heavy atom, donor atom, acceptor molecule, acceptor atom, score
      L1  H     9    28       P1  8028  1.00
      L1  H    12    29       P1  8028  0.76
      L1  C     5    25       P1  7948  0.86
      L1  C     5    25       P1  7949  0.03
      L1  C     5    25       P1  7957  0.54

> <Gold.PLP.Chemscore.Internal.Correction>
0.0518

> <Gold.Rescore>
     Score         DG    S(hbond)    S(metal)    S(lipo)     H(rot)  DE(clash)    DE(int)     intcor
     15.73     -19.09       1.92        0.00     102.45       1.87       1.81       1.55       ----

> <Gold.Chemscore.Fitness>
15.7284

> <Gold.Chemscore.DG>
-19.0915

> <Gold.Chemscore.ZeroCoef>
-5.4800

> <Gold.Chemscore.Hbond>
1.9215

> <Gold.Chemscore.Metal>
0.0000

> <Gold.Chemscore.Lipo>
102.4536

> <Gold.Chemscore.Internal_Hbond>
0.0000

> <Gold.Chemscore.DEClash>
1.8145

> <Gold.Chemscore.DEInternal>
1.5486

> <Gold.Chemscore.Rot>
1.8724

> <Gold.Chemscore.Internal.Correction>
   9.000000E+99

> <Gold.Chemscore.Hbonds>
donor molecule, donor type, donor heavy atom, donor atom, acceptor molecule, acceptor atom, score
      L1  H     9    28       P1  8028  0.98
      L1  H    12    29       P1  8028  0.58

> <Gold.Chemscore.Hbond.Weighted>
-6.4176

> <Gold.Chemscore.Metal.Weighted>
-0.0000

> <Gold.Chemscore.Lipo.Weighted>
-11.9871

> <Gold.Chemscore.Internal_Hbond.Weighted>
0.0000

> <Gold.Chemscore.DEClash.Weighted>
1.8145

> <Gold.Chemscore.DEInternal.Weighted>
1.5486

> <Gold.Chemscore.Rot.Weighted>
4.7933

> <Gold.Chemscore.Internal.Correction.Weighted>
   9.000000E+99

> <Gold.Protein.RotatedTorsions>
[ 6907 6896 6895 6894 ] final  -76.05 input  -60.11 | X-H torsion
[ 7974 7965 7964 7962 ] final -161.34 input  175.53 | X-H torsion
[ 8008 7997 7996 7995 ] final  105.55 input   59.86 | X-H torsion
[ 10167 10162 10161 10158 ] final  143.86 input  -65.29 | X-H torsion
[ 10718 10713 10712 10709 ] final   19.63 input   66.30 | X-H torsion
[ 10763 10752 10751 10750 ] final  -47.53 input  -60.55 | X-H torsion
[ 11005 11000 10999 10996 ] final -166.19 input  -57.11 | X-H torsion

> <Gold.Protein.ActiveResidues>
 VAL166  LYS551  ARG553  GLY616  TRP617  ASP618  TYR619  PRO620  LYS621  CYS622 
 ASP623  PHE694  ASN695  SER759  ASP760  ASP761  ALA762  ILE779  LEU786  VAL792 
 PHE793  MET794  SER795  GLU796  ALA797  LYS798  CYS799  TRP800  GLU811  SER814 

> <Gold.Protein.RotatedAtoms>
  150.7039  134.4629  159.5388 H   0  0  0  0  0  0  0  0  0  0  0  0  # atno 6907 bound_to 6896
  152.2300  134.8328  160.0484 H   0  0  0  0  0  0  0  0  0  0  0  0  # atno 6908 bound_to 6896
  151.9147  133.3535  159.3913 H   0  0  0  0  0  0  0  0  0  0  0  0  # atno 6909 bound_to 6896
  144.7395  140.3412  143.6134 H   0  0  0  0  0  0  0  0  0  0  0  0  # atno 7974 bound_to 7965
  156.1668  140.3128  155.8903 H   0  0  0  0  0  0  0  0  0  0  0  0  # atno 8008 bound_to 7997
  155.3669  140.0479  157.3063 H   0  0  0  0  0  0  0  0  0  0  0  0  # atno 8009 bound_to 7997
  154.5201  140.2195  155.9003 H   0  0  0  0  0  0  0  0  0  0  0  0  # atno 8010 bound_to 7997
  139.4960  144.6011  151.6478 H   0  0  0  0  0  0  0  0  0  0  0  0  # atno 10167 bound_to 10162
  157.1131  130.6517  149.5903 H   0  0  0  0  0  0  0  0  0  0  0  0  # atno 10718 bound_to 10713
  154.0629  135.6615  153.4814 H   0  0  0  0  0  0  0  0  0  0  0  0  # atno 10763 bound_to 10752
  153.0420  135.5139  154.7641 H   0  0  0  0  0  0  0  0  0  0  0  0  # atno 10764 bound_to 10752
  154.6683  135.3025  154.9743 H   0  0  0  0  0  0  0  0  0  0  0  0  # atno 10765 bound_to 10752
  140.5673  134.5273  157.5155 H   0  0  0  0  0  0  0  0  0  0  0  0  # atno 11005 bound_to 11000
  145.7372  139.1753  143.2396 LP  0  0  0  0  0  0  0  0  0  0  0  0  # atno 17320 bound_to 7965
  146.1161  140.7367  142.9480 LP  0  0  0  0  0  0  0  0  0  0  0  0  # atno 17321 bound_to 7965
  140.5661  144.0187  150.6193 LP  0  0  0  0  0  0  0  0  0  0  0  0  # atno 17342 bound_to 10162
  140.3289  143.3090  152.0708 LP  0  0  0  0  0  0  0  0  0  0  0  0  # atno 17343 bound_to 10162
  155.9846  130.4871  150.6989 LP  0  0  0  0  0  0  0  0  0  0  0  0  # atno 17370 bound_to 10713
  157.4542  131.0876  151.0814 LP  0  0  0  0  0  0  0  0  0  0  0  0  # atno 17371 bound_to 10713
  139.9379  134.7842  156.0756 LP  0  0  0  0  0  0  0  0  0  0  0  0  # atno 17394 bound_to 11000
  141.1078  133.6654  156.2905 LP  0  0  0  0  0  0  0  0  0  0  0  0  # atno 17395 bound_to 11000

$$$$
