AV-unprocessed.smi:955|AV-procd|sdf|4259|dock2
  -GOLD-   22720 2163D 1   1.00000     0.00000
 Structure written by MMmdl.
 29 29  0  0  0  0  0  0  0  0  1 V2000
  149.7131  136.6579  155.2731 C   0  0  0  0  0  0  0  0  0  0  0  0
  150.9468  137.5621  155.1171 C   0  0  2  0  0  0  0  0  0  0  0  0
  151.3432  138.0121  156.4495 N   0  0  0  0  0  0  0  0  0  0  0  0
  152.2876  138.9301  156.7150 C   0  0  0  0  0  0  0  0  0  0  0  0
  152.9357  139.4960  155.8333 O   0  0  0  0  0  0  0  0  0  0  0  0
  152.5159  139.2631  158.2009 C   0  0  2  0  0  0  0  0  0  0  0  0
  151.8276  138.2682  159.1580 C   0  0  0  0  0  0  0  0  0  0  0  0
  152.1379  140.6427  158.4912 N   0  0  0  0  0  0  0  0  0  0  0  0
  152.4313  141.3837  159.6183 C   0  0  0  0  0  0  0  0  0  0  0  0
  151.9067  142.6313  159.4381 C   0  0  0  0  0  0  0  0  0  0  0  0
  151.3082  142.5628  158.1495 C   0  0  0  0  0  0  0  0  0  0  0  0
  151.4530  141.3763  157.5828 N   0  0  0  0  0  0  0  0  0  0  0  0
  150.5478  138.7609  154.2412 C   0  0  0  0  0  0  0  0  0  0  0  0
  149.9949  138.4837  153.0583 N   0  0  0  0  0  0  0  0  0  0  0  0
  150.7181  139.9166  154.6280 O   0  0  0  0  0  0  0  0  0  0  0  0
  149.3683  136.2861  154.3074 H   0  0  0  0  0  0  0  0  0  0  0  0
  148.8804  137.1818  155.7454 H   0  0  0  0  0  0  0  0  0  0  0  0
  149.9459  135.7888  155.8893 H   0  0  0  0  0  0  0  0  0  0  0  0
  151.7579  137.0007  154.6486 H   0  0  0  0  0  0  0  0  0  0  0  0
  150.8515  137.6022  157.2300 H   0  0  0  0  0  0  0  0  0  0  0  0
  153.5904  139.1832  158.3730 H   0  0  0  0  0  0  0  0  0  0  0  0
  152.1814  137.2505  158.9904 H   0  0  0  0  0  0  0  0  0  0  0  0
  150.7439  138.2664  159.0345 H   0  0  0  0  0  0  0  0  0  0  0  0
  152.0411  138.5188  160.1974 H   0  0  0  0  0  0  0  0  0  0  0  0
  152.9849  140.9662  160.4466 H   0  0  0  0  0  0  0  0  0  0  0  0
  151.9474  143.4665  160.1213 H   0  0  0  0  0  0  0  0  0  0  0  0
  150.7799  143.3357  157.6112 H   0  0  0  0  0  0  0  0  0  0  0  0
  149.7108  139.2348  152.4465 H   0  0  0  0  0  0  0  0  0  0  0  0
  149.8590  137.5221  152.7820 H   0  0  0  0  0  0  0  0  0  0  0  0
  1  2  1  0  0  0  0
  1 16  1  0  0  0  0
  1 17  1  0  0  0  0
  1 18  1  0  0  0  0
  2  3  1  0  0  0  0
  2 13  1  0  0  0  0
  2 19  1  0  0  0  0
  3  4  1  0  0  0  0
  3 20  1  0  0  0  0
  4  5  2  0  0  0  0
  4  6  1  0  0  0  0
  6  7  1  0  0  0  0
  6  8  1  0  0  0  0
  6 21  1  0  0  0  0
  7 22  1  0  0  0  0
  7 23  1  0  0  0  0
  7 24  1  0  0  0  0
  8 12  1  0  0  0  0
  8  9  1  0  0  0  0
  9 10  2  0  0  0  0
  9 25  1  0  0  0  0
 10 11  1  0  0  0  0
 10 26  1  0  0  0  0
 11 12  2  0  0  0  0
 11 27  1  0  0  0  0
 13 14  1  0  0  0  0
 13 15  2  0  0  0  0
 14 28  1  0  0  0  0
 14 29  1  0  0  0  0
M  END
> <s_m_source_file>
AV-unprocessed.smi

> <i_m_source_file_index>
955

> <i_lp_mmshare_version>
43012

> <i_f3d_flags>
0

> <s_epik_input>
W05IMl1DKD1PKVtDQEhdKFtDSDNdKVtOSF1DKD1PKVtDQEhdKFtDSDNdKW4xW2NIXVtjSF1bY0hdbjE=

> <s_epik_cmdline>
J2VwaWtfcHl0aG9uJywgJy1waCcsICc3LjAnLCAnLXRuJywgJzgnLCAnLW1hJywgJzIwMCcsICctbWV0YWxfYmluZGluZycsICctaW1hZScsICc8aW5maWxlLm1hZT4nLCAnLW9tYWUnLCAnPG91dGZpbGUubWFlPic=

> <r_lp_tautomer_probability>
1

> <r_epik_Ionization_Penalty>
2.8146e-05

> <r_epik_Ionization_Penalty_Charging>
0

> <r_epik_Ionization_Penalty_Neutral>
2.8146e-05

> <r_epik_State_Penalty>
-0

> <r_epik_Charging_Adjusted_Penalty>
0

> <i_epik_Tot_Q>
0

> <i_epik_Tot_abs_Q>
0

> <r_epik_Metal_State_Penalty>
-0

> <b_epik_Metal_Only>
0

> <s_lp_Force_Field>
OPLS_2005

> <r_lp_Energy>
4.37159

> <b_lp_Chiralities_Consistent>
1

> <s_lp_Variant>
AV-unprocessed.smi:955-1

> <Gold.Version>
5.8.1

> <Gold.Id.Protein>
6NUR|6NUR_protein|mol2

> <Gold.PLP.Fitness>
36.5328

> <Gold.PLP.PLP>
-25.3432

> <Gold.PLP.part.hbond>
-4.0332

> <Gold.PLP.part.metal>
0.0000

> <Gold.PLP.part.buried>
-4.0083

> <Gold.PLP.part.nonpolar>
-17.1953

> <Gold.PLP.part.repulsive>
0.2361

> <Gold.PLP.ligand.clash>
0.0000

> <Gold.PLP.ligand.torsion>
0.4629

> <Gold.PLP.Chemscore.Hbond>
3.9920

> <Gold.PLP.Chemscore.CHOScore>
0.0000

> <Gold.PLP.Chemscore.Metal>
0.0000

> <Gold.Chemscore.Hbonds>
donor molecule, donor type, donor heavy atom, donor atom, acceptor molecule, acceptor atom, score
      L1  H    14    28       P1  7957  0.94
      L1  H    14    29       P1  7948  1.00
      P1  H  7989  7998       L1    15  1.00
      P1  H  7997  8008       L1     5  1.00

> <Gold.PLP.Chemscore.Internal.Correction>
0.1393

> <Gold.Rescore>
     Score         DG    S(hbond)    S(metal)    S(lipo)     H(rot)  DE(clash)    DE(int)     intcor
     14.32     -17.73       3.78        0.00      47.16       2.30       0.00       3.40       ----

> <Gold.Chemscore.Fitness>
14.3231

> <Gold.Chemscore.DG>
-17.7279

> <Gold.Chemscore.ZeroCoef>
-5.4800

> <Gold.Chemscore.Hbond>
3.7758

> <Gold.Chemscore.Metal>
0.0000

> <Gold.Chemscore.Lipo>
47.1598

> <Gold.Chemscore.Internal_Hbond>
0.0000

> <Gold.Chemscore.DEClash>
0.0000

> <Gold.Chemscore.DEInternal>
3.4048

> <Gold.Chemscore.Rot>
2.2972

> <Gold.Chemscore.Internal.Correction>
   9.000000E+99

> <Gold.Chemscore.Hbonds>
donor molecule, donor type, donor heavy atom, donor atom, acceptor molecule, acceptor atom, score
      L1  H    14    28       P1  7957  0.82
      L1  H    14    29       P1  7948  0.25
      P1  H  7989  7998       L1    15  0.82
      P1  H  7997  8008       L1     5  0.99

> <Gold.Chemscore.Hbond.Weighted>
-12.6112

> <Gold.Chemscore.Metal.Weighted>
-0.0000

> <Gold.Chemscore.Lipo.Weighted>
-5.5177

> <Gold.Chemscore.Internal_Hbond.Weighted>
0.0000

> <Gold.Chemscore.DEClash.Weighted>
0.0000

> <Gold.Chemscore.DEInternal.Weighted>
3.4048

> <Gold.Chemscore.Rot.Weighted>
5.8809

> <Gold.Chemscore.Internal.Correction.Weighted>
   9.000000E+99

> <Gold.Protein.RotatedTorsions>
[ 6907 6896 6895 6894 ] final   95.48 input  -60.11 | X-H torsion
[ 7974 7965 7964 7962 ] final   53.13 input  175.53 | X-H torsion
[ 8008 7997 7996 7995 ] final  -20.66 input   59.86 | X-H torsion
[ 10167 10162 10161 10158 ] final  -90.62 input  -65.29 | X-H torsion
[ 10718 10713 10712 10709 ] final  -25.37 input   66.30 | X-H torsion
[ 10763 10752 10751 10750 ] final  173.96 input  -60.55 | X-H torsion
[ 11005 11000 10999 10996 ] final -103.77 input  -57.11 | X-H torsion

> <Gold.Protein.ActiveResidues>
 VAL166  LYS551  ARG553  GLY616  TRP617  ASP618  TYR619  PRO620  LYS621  CYS622 
 ASP623  PHE694  ASN695  SER759  ASP760  ASP761  ALA762  ILE779  LEU786  VAL792 
 PHE793  MET794  SER795  GLU796  ALA797  LYS798  CYS799  TRP800  GLU811  SER814 

> <Gold.Protein.RotatedAtoms>
  152.5443  134.1033  159.8326 H   0  0  0  0  0  0  0  0  0  0  0  0  # atno 6907 bound_to 6896
  151.1108  133.5167  159.2613 H   0  0  0  0  0  0  0  0  0  0  0  0  # atno 6908 bound_to 6896
  151.1887  135.0402  159.8877 H   0  0  0  0  0  0  0  0  0  0  0  0  # atno 6909 bound_to 6896
  145.9743  139.4179  143.0171 H   0  0  0  0  0  0  0  0  0  0  0  0  # atno 7974 bound_to 7965
  154.4755  140.2056  155.9888 H   0  0  0  0  0  0  0  0  0  0  0  0  # atno 8008 bound_to 7997
  156.1082  140.3233  155.8006 H   0  0  0  0  0  0  0  0  0  0  0  0  # atno 8009 bound_to 7997
  155.4680  140.0529  157.2974 H   0  0  0  0  0  0  0  0  0  0  0  0  # atno 8010 bound_to 7997
  140.3531  143.2881  151.9703 H   0  0  0  0  0  0  0  0  0  0  0  0  # atno 10167 bound_to 10162
  156.4653  130.4512  149.6903 H   0  0  0  0  0  0  0  0  0  0  0  0  # atno 10718 bound_to 10713
  154.4473  135.2763  155.1806 H   0  0  0  0  0  0  0  0  0  0  0  0  # atno 10763 bound_to 10752
  154.3647  135.6121  153.5712 H   0  0  0  0  0  0  0  0  0  0  0  0  # atno 10764 bound_to 10752
  152.9844  135.5843  154.4811 H   0  0  0  0  0  0  0  0  0  0  0  0  # atno 10765 bound_to 10752
  141.1131  133.8668  157.1528 H   0  0  0  0  0  0  0  0  0  0  0  0  # atno 11005 bound_to 11000
  145.7861  140.9835  143.1073 LP  0  0  0  0  0  0  0  0  0  0  0  0  # atno 17320 bound_to 7965
  144.6845  139.9625  143.7480 LP  0  0  0  0  0  0  0  0  0  0  0  0  # atno 17321 bound_to 7965
  139.4824  144.6059  151.7523 LP  0  0  0  0  0  0  0  0  0  0  0  0  # atno 17342 bound_to 10162
  140.5200  144.0894  150.6020 LP  0  0  0  0  0  0  0  0  0  0  0  0  # atno 17343 bound_to 10162
  156.3674  130.7513  151.2492 LP  0  0  0  0  0  0  0  0  0  0  0  0  # atno 17370 bound_to 10713
  157.7495  131.0333  150.4264 LP  0  0  0  0  0  0  0  0  0  0  0  0  # atno 17371 bound_to 10713
  140.0036  135.0018  157.0243 LP  0  0  0  0  0  0  0  0  0  0  0  0  # atno 17394 bound_to 11000
  140.4722  134.1375  155.7204 LP  0  0  0  0  0  0  0  0  0  0  0  0  # atno 17395 bound_to 11000

$$$$
