AV-unprocessed.smi:3350|AV-procd|sdf|12943|dock3
  -GOLD-   2272019373D 1   1.00000     0.00000
 Structure written by MMmdl.
 41 42  0  0  0  0  0  0  0  0  1 V2000
  144.1950  136.8714  152.5693 C   0  0  0  0  0  0  0  0  0  0  0  0
  144.8711  135.7988  151.7045 C   0  0  2  0  0  0  0  0  0  0  0  0
  144.0842  134.4701  151.7385 C   0  0  0  0  0  0  0  0  0  0  0  0
  144.5911  133.4911  150.7923 N   0  0  0  0  0  0  0  0  0  0  0  0
  143.9428  132.9198  149.7168 C   0  0  0  0  0  0  0  0  0  0  0  0
  144.8145  132.0447  149.1350 C   0  0  0  0  0  0  0  0  0  0  0  0
  145.9858  132.1531  149.9353 C   0  0  0  0  0  0  0  0  0  0  0  0
  145.8508  133.0227  150.9235 N   0  0  0  0  0  0  0  0  0  0  0  0
  146.2402  135.5997  152.1783 N   0  0  0  0  0  0  0  0  0  0  0  0
  146.5873  135.0296  153.3411 C   0  0  0  0  0  0  0  0  0  0  0  0
  145.7852  134.5362  154.1340 O   0  0  0  0  0  0  0  0  0  0  0  0
  147.9116  135.0992  153.5460 N   0  0  0  0  0  0  0  0  0  0  0  0
  148.6445  134.6929  154.7472 C   0  0  2  0  0  0  0  0  0  0  0  0
  149.2708  135.9080  155.4572 C   0  0  0  0  0  0  0  0  0  0  0  0
  149.6690  133.5764  154.4396 C   0  0  1  0  0  0  0  0  0  0  0  0
  150.4992  133.1243  155.6432 C   0  0  0  0  0  0  0  0  0  0  0  0
  150.8443  131.6753  155.3293 C   0  0  0  0  0  0  0  0  0  0  0  0
  149.9754  131.3368  154.1164 C   0  0  0  0  0  0  0  0  0  0  0  0
  149.0100  132.3759  154.0640 O   0  0  0  0  0  0  0  0  0  0  0  0
  143.1780  137.0664  152.2274 H   0  0  0  0  0  0  0  0  0  0  0  0
  144.7416  137.8140  152.5247 H   0  0  0  0  0  0  0  0  0  0  0  0
  144.1413  136.5651  153.6147 H   0  0  0  0  0  0  0  0  0  0  0  0
  144.8845  136.1744  150.6796 H   0  0  0  0  0  0  0  0  0  0  0  0
  144.1089  134.0352  152.7386 H   0  0  0  0  0  0  0  0  0  0  0  0
  143.0337  134.6503  151.5056 H   0  0  0  0  0  0  0  0  0  0  0  0
  142.9241  133.1736  149.4635 H   0  0  0  0  0  0  0  0  0  0  0  0
  144.6413  131.4206  148.2711 H   0  0  0  0  0  0  0  0  0  0  0  0
  146.9245  131.6301  149.8271 H   0  0  0  0  0  0  0  0  0  0  0  0
  146.9773  135.9720  151.5978 H   0  0  0  0  0  0  0  0  0  0  0  0
  148.4661  135.5283  152.8198 H   0  0  0  0  0  0  0  0  0  0  0  0
  147.8903  134.2778  155.4167 H   0  0  0  0  0  0  0  0  0  0  0  0
  149.6910  135.6256  156.4227 H   0  0  0  0  0  0  0  0  0  0  0  0
  148.5254  136.6820  155.6415 H   0  0  0  0  0  0  0  0  0  0  0  0
  150.0744  136.3522  154.8696 H   0  0  0  0  0  0  0  0  0  0  0  0
  150.3409  133.8723  153.6319 H   0  0  0  0  0  0  0  0  0  0  0  0
  151.3830  133.7447  155.7943 H   0  0  0  0  0  0  0  0  0  0  0  0
  149.9020  133.1652  156.5553 H   0  0  0  0  0  0  0  0  0  0  0  0
  151.9024  131.5486  155.0983 H   0  0  0  0  0  0  0  0  0  0  0  0
  150.6063  131.0341  156.1788 H   0  0  0  0  0  0  0  0  0  0  0  0
  150.5710  131.3540  153.2029 H   0  0  0  0  0  0  0  0  0  0  0  0
  149.5024  130.3579  154.1962 H   0  0  0  0  0  0  0  0  0  0  0  0
  1  2  1  0  0  0  0
  1 20  1  0  0  0  0
  1 21  1  0  0  0  0
  1 22  1  0  0  0  0
  2  3  1  0  0  0  0
  2  9  1  0  0  0  0
  2 23  1  0  0  0  0
  3  4  1  0  0  0  0
  3 24  1  0  0  0  0
  3 25  1  0  0  0  0
  4  8  1  0  0  0  0
  4  5  1  0  0  0  0
  5  6  2  0  0  0  0
  5 26  1  0  0  0  0
  6  7  1  0  0  0  0
  6 27  1  0  0  0  0
  7  8  2  0  0  0  0
  7 28  1  0  0  0  0
  9 10  1  0  0  0  0
  9 29  1  0  0  0  0
 10 11  2  0  0  0  0
 10 12  1  0  0  0  0
 12 13  1  0  0  0  0
 12 30  1  0  0  0  0
 13 14  1  0  0  0  0
 13 15  1  0  0  0  0
 13 31  1  0  0  0  0
 14 32  1  0  0  0  0
 14 33  1  0  0  0  0
 14 34  1  0  0  0  0
 15 19  1  0  0  0  0
 15 16  1  0  0  0  0
 15 35  1  0  0  0  0
 16 17  1  0  0  0  0
 16 36  1  0  0  0  0
 16 37  1  0  0  0  0
 17 18  1  0  0  0  0
 17 38  1  0  0  0  0
 17 39  1  0  0  0  0
 18 19  1  0  0  0  0
 18 40  1  0  0  0  0
 18 41  1  0  0  0  0
M  END
> <s_m_source_file>
AV-unprocessed.smi

> <i_m_source_file_index>
3350

> <i_lp_mmshare_version>
43012

> <i_f3d_flags>
0

> <s_epik_input>
bjFbY0hdW2NIXVtjSF1uMVtDSDJdW0NAQEhdKFtDSDNdKVtOSF1DKD1PKVtOSF1bQ0BIXShbQ0gzXSlbQ0BASF0yW0NIMl1bQ0gyXVtDSDJdTzI=

> <s_epik_cmdline>
J2VwaWtfcHl0aG9uJywgJy1waCcsICc3LjAnLCAnLXRuJywgJzgnLCAnLW1hJywgJzIwMCcsICctbWV0YWxfYmluZGluZycsICctaW1hZScsICc8aW5maWxlLm1hZT4nLCAnLW9tYWUnLCAnPG91dGZpbGUubWFlPic=

> <r_lp_tautomer_probability>
1

> <r_epik_Ionization_Penalty>
6.42349e-05

> <r_epik_Ionization_Penalty_Charging>
0

> <r_epik_Ionization_Penalty_Neutral>
6.42349e-05

> <r_epik_State_Penalty>
-0

> <r_epik_Charging_Adjusted_Penalty>
0

> <i_epik_Tot_Q>
0

> <i_epik_Tot_abs_Q>
0

> <r_epik_Metal_State_Penalty>
-0

> <b_epik_Metal_Only>
0

> <s_lp_Force_Field>
OPLS_2005

> <r_lp_Energy>
15.1483

> <b_lp_Chiralities_Consistent>
1

> <s_lp_Variant>
AV-unprocessed.smi:3350-5

> <Gold.Version>
5.8.1

> <Gold.Id.Protein>
6NUR|6NUR_protein|mol2

> <Gold.PLP.Fitness>
42.6613

> <Gold.PLP.PLP>
-31.2315

> <Gold.PLP.part.hbond>
-2.0000

> <Gold.PLP.part.metal>
0.0000

> <Gold.PLP.part.buried>
-3.4418

> <Gold.PLP.part.nonpolar>
-26.1144

> <Gold.PLP.part.repulsive>
0.2993

> <Gold.PLP.ligand.clash>
0.0000

> <Gold.PLP.ligand.torsion>
0.1935

> <Gold.PLP.Chemscore.Hbond>
1.8960

> <Gold.PLP.Chemscore.CHOScore>
2.0000

> <Gold.PLP.Chemscore.Metal>
0.0000

> <Gold.Chemscore.Hbonds>
donor molecule, donor type, donor heavy atom, donor atom, acceptor molecule, acceptor atom, score
      L1  H     9    29       P1  7948  0.70
      L1  H    12    30       P1  7948  0.32
      L1  C     5    26       P1 10186  1.00
      L1  C     7    28       P1 10747  1.00

> <Gold.PLP.Chemscore.Internal.Correction>
0.1287

> <Gold.Rescore>
     Score         DG    S(hbond)    S(metal)    S(lipo)     H(rot)  DE(clash)    DE(int)     intcor
     14.63     -16.02       1.88        0.00      76.34       1.82       0.03       1.36       ----

> <Gold.Chemscore.Fitness>
14.6311

> <Gold.Chemscore.DG>
-16.0213

> <Gold.Chemscore.ZeroCoef>
-5.4800

> <Gold.Chemscore.Hbond>
1.8767

> <Gold.Chemscore.Metal>
0.0000

> <Gold.Chemscore.Lipo>
76.3373

> <Gold.Chemscore.Internal_Hbond>
0.0000

> <Gold.Chemscore.DEClash>
0.0340

> <Gold.Chemscore.DEInternal>
1.3562

> <Gold.Chemscore.Rot>
1.8197

> <Gold.Chemscore.Internal.Correction>
   9.000000E+99

> <Gold.Chemscore.Hbonds>
donor molecule, donor type, donor heavy atom, donor atom, acceptor molecule, acceptor atom, score
      L1  H     9    29       P1  7948  0.68
      L1  H    12    30       P1  7948  0.33

> <Gold.Chemscore.Hbond.Weighted>
-6.2682

> <Gold.Chemscore.Metal.Weighted>
-0.0000

> <Gold.Chemscore.Lipo.Weighted>
-8.9315

> <Gold.Chemscore.Internal_Hbond.Weighted>
0.0000

> <Gold.Chemscore.DEClash.Weighted>
0.0340

> <Gold.Chemscore.DEInternal.Weighted>
1.3562

> <Gold.Chemscore.Rot.Weighted>
4.6583

> <Gold.Chemscore.Internal.Correction.Weighted>
   9.000000E+99

> <Gold.Protein.RotatedTorsions>
[ 6907 6896 6895 6894 ] final  -31.16 input  -60.11 | X-H torsion
[ 7974 7965 7964 7962 ] final -102.93 input  175.53 | X-H torsion
[ 8008 7997 7996 7995 ] final  133.30 input   59.86 | X-H torsion
[ 10167 10162 10161 10158 ] final  -46.17 input  -65.29 | X-H torsion
[ 10718 10713 10712 10709 ] final   64.70 input   66.30 | X-H torsion
[ 10763 10752 10751 10750 ] final  -64.47 input  -60.55 | X-H torsion
[ 11005 11000 10999 10996 ] final  -39.10 input  -57.11 | X-H torsion

> <Gold.Protein.ActiveResidues>
 VAL166  LYS551  ARG553  GLY616  TRP617  ASP618  TYR619  PRO620  LYS621  CYS622 
 ASP623  PHE694  ASN695  SER759  ASP760  ASP761  ALA762  ILE779  LEU786  VAL792 
 PHE793  MET794  SER795  GLU796  ALA797  LYS798  CYS799  TRP800  GLU811  SER814 

> <Gold.Protein.RotatedAtoms>
  151.0958  134.9943  159.8424 H   0  0  0  0  0  0  0  0  0  0  0  0  # atno 6907 bound_to 6896
  152.5433  134.2010  159.8722 H   0  0  0  0  0  0  0  0  0  0  0  0  # atno 6908 bound_to 6896
  151.2049  133.4545  159.2630 H   0  0  0  0  0  0  0  0  0  0  0  0  # atno 6909 bound_to 6896
  145.2624  140.9273  143.3033 H   0  0  0  0  0  0  0  0  0  0  0  0  # atno 7974 bound_to 7965
  156.2991  140.2525  156.3230 H   0  0  0  0  0  0  0  0  0  0  0  0  # atno 8008 bound_to 7997
  154.9217  140.0400  157.2020 H   0  0  0  0  0  0  0  0  0  0  0  0  # atno 8009 bound_to 7997
  154.8304  140.2875  155.5730 H   0  0  0  0  0  0  0  0  0  0  0  0  # atno 8010 bound_to 7997
  140.6828  143.2844  151.3745 H   0  0  0  0  0  0  0  0  0  0  0  0  # atno 10167 bound_to 10162
  157.6057  130.9174  149.9880 H   0  0  0  0  0  0  0  0  0  0  0  0  # atno 10718 bound_to 10713
  154.3305  135.6177  153.5549 H   0  0  0  0  0  0  0  0  0  0  0  0  # atno 10763 bound_to 10752
  152.9812  135.5746  154.4967 H   0  0  0  0  0  0  0  0  0  0  0  0  # atno 10764 bound_to 10752
  154.4652  135.2857  155.1660 H   0  0  0  0  0  0  0  0  0  0  0  0  # atno 10765 bound_to 10752
  141.0077  133.6923  156.2142 H   0  0  0  0  0  0  0  0  0  0  0  0  # atno 11005 bound_to 11000
  144.9407  139.4193  143.6450 LP  0  0  0  0  0  0  0  0  0  0  0  0  # atno 17320 bound_to 7965
  146.3271  139.8365  142.8898 LP  0  0  0  0  0  0  0  0  0  0  0  0  # atno 17321 bound_to 7965
  139.6163  144.0996  152.2349 LP  0  0  0  0  0  0  0  0  0  0  0  0  # atno 17342 bound_to 10162
  140.0426  144.5995  150.7399 LP  0  0  0  0  0  0  0  0  0  0  0  0  # atno 17343 bound_to 10162
  156.1143  130.3648  149.9996 LP  0  0  0  0  0  0  0  0  0  0  0  0  # atno 17370 bound_to 10713
  156.8088  130.9317  151.3644 LP  0  0  0  0  0  0  0  0  0  0  0  0  # atno 17371 bound_to 10713
  140.6785  134.4792  157.5588 LP  0  0  0  0  0  0  0  0  0  0  0  0  # atno 17394 bound_to 11000
  139.9072  134.8422  156.1660 LP  0  0  0  0  0  0  0  0  0  0  0  0  # atno 17395 bound_to 11000

$$$$
