AV-unprocessed.smi:3335|AV-procd|sdf|12850|dock5
  -GOLD-   2272019243D 1   1.00000     0.00000
 Structure written by MMmdl.
 46 47  0  0  0  0  0  0  0  0  1 V2000
  142.6579  135.5671  153.0071 C   0  0  0  0  0  0  0  0  0  0  0  0
  144.0857  136.0293  153.0514 C   0  0  0  0  0  0  0  0  0  0  0  0
  145.1815  135.4229  153.7272 C   0  0  0  0  0  0  0  0  0  0  0  0
  146.3160  136.0805  153.5579 N   0  0  0  0  0  0  0  0  0  0  0  0
  145.9893  137.1358  152.7776 N   0  0  0  0  0  0  0  0  0  0  0  0
  147.0087  138.0890  152.3424 C   0  0  1  0  0  0  0  0  0  0  0  0
  146.5170  138.9866  151.1894 C   0  0  0  0  0  0  0  0  0  0  0  0
  147.6393  138.8876  153.5162 C   0  0  2  0  0  0  0  0  0  0  0  0
  147.1629  140.3546  153.5296 C   0  0  0  0  0  0  0  0  0  0  0  0
  149.0999  138.7804  153.4488 N   0  0  0  0  0  0  0  0  0  0  0  0
  149.8478  139.0191  154.6964 C   0  0  1  0  0  0  0  0  0  0  0  0
  151.2448  138.3909  154.5787 C   0  0  0  0  0  0  0  0  0  0  0  0
  149.9894  140.5207  155.0237 C   0  0  0  0  0  0  0  0  0  0  0  0
  149.6484  141.3460  154.1744 O   0  0  0  0  0  0  0  0  0  0  0  0
  150.4704  140.8979  156.2282 N   0  0  0  0  0  0  0  0  0  0  0  0
  150.5934  142.2967  156.6352 C   0  0  0  0  0  0  0  0  0  0  0  0
  150.9222  142.2692  158.1275 C   0  0  0  0  0  0  0  0  0  0  0  0
  151.5935  140.9195  158.3339 C   0  0  0  0  0  0  0  0  0  0  0  0
  150.9346  140.0119  157.2953 C   0  0  0  0  0  0  0  0  0  0  0  0
  144.6479  137.1208  152.4527 C   0  0  0  0  0  0  0  0  0  0  0  0
  142.5203  134.6235  153.5355 H   0  0  0  0  0  0  0  0  0  0  0  0
  142.3169  135.4141  151.9833 H   0  0  0  0  0  0  0  0  0  0  0  0
  141.9866  136.2929  153.4660 H   0  0  0  0  0  0  0  0  0  0  0  0
  145.1870  134.5262  154.3292 H   0  0  0  0  0  0  0  0  0  0  0  0
  147.8120  137.4864  151.9155 H   0  0  0  0  0  0  0  0  0  0  0  0
  147.3240  139.6181  150.8167 H   0  0  0  0  0  0  0  0  0  0  0  0
  145.7026  139.6423  151.4981 H   0  0  0  0  0  0  0  0  0  0  0  0
  146.1583  138.3861  150.3532 H   0  0  0  0  0  0  0  0  0  0  0  0
  147.3060  138.4157  154.4416 H   0  0  0  0  0  0  0  0  0  0  0  0
  146.0801  140.4125  153.4179 H   0  0  0  0  0  0  0  0  0  0  0  0
  147.6097  140.9339  152.7210 H   0  0  0  0  0  0  0  0  0  0  0  0
  147.4018  140.8479  154.4707 H   0  0  0  0  0  0  0  0  0  0  0  0
  149.4747  139.2990  152.6664 H   0  0  0  0  0  0  0  0  0  0  0  0
  149.3279  138.4946  155.4966 H   0  0  0  0  0  0  0  0  0  0  0  0
  151.8187  138.5246  155.4966 H   0  0  0  0  0  0  0  0  0  0  0  0
  151.8174  138.8319  153.7613 H   0  0  0  0  0  0  0  0  0  0  0  0
  151.1758  137.3188  154.3919 H   0  0  0  0  0  0  0  0  0  0  0  0
  151.4041  142.7608  156.0718 H   0  0  0  0  0  0  0  0  0  0  0  0
  149.6797  142.8615  156.4435 H   0  0  0  0  0  0  0  0  0  0  0  0
  151.5480  143.1062  158.4382 H   0  0  0  0  0  0  0  0  0  0  0  0
  149.9984  142.3089  158.7061 H   0  0  0  0  0  0  0  0  0  0  0  0
  152.6596  141.0065  158.1199 H   0  0  0  0  0  0  0  0  0  0  0  0
  151.4868  140.5447  159.3521 H   0  0  0  0  0  0  0  0  0  0  0  0
  150.0764  139.4983  157.7312 H   0  0  0  0  0  0  0  0  0  0  0  0
  151.6376  139.2611  156.9320 H   0  0  0  0  0  0  0  0  0  0  0  0
  144.2088  137.8799  151.8224 H   0  0  0  0  0  0  0  0  0  0  0  0
  1  2  1  0  0  0  0
  1 21  1  0  0  0  0
  1 22  1  0  0  0  0
  1 23  1  0  0  0  0
  2 20  2  0  0  0  0
  2  3  1  0  0  0  0
  3  4  2  0  0  0  0
  3 24  1  0  0  0  0
  4  5  1  0  0  0  0
  5  6  1  0  0  0  0
  5 20  1  0  0  0  0
  6  7  1  0  0  0  0
  6  8  1  0  0  0  0
  6 25  1  0  0  0  0
  7 26  1  0  0  0  0
  7 27  1  0  0  0  0
  7 28  1  0  0  0  0
  8  9  1  0  0  0  0
  8 10  1  0  0  0  0
  8 29  1  0  0  0  0
  9 30  1  0  0  0  0
  9 31  1  0  0  0  0
  9 32  1  0  0  0  0
 10 11  1  0  0  0  0
 10 33  1  0  0  0  0
 11 12  1  0  0  0  0
 11 13  1  0  0  0  0
 11 34  1  0  0  0  0
 12 35  1  0  0  0  0
 12 36  1  0  0  0  0
 12 37  1  0  0  0  0
 13 14  2  0  0  0  0
 13 15  1  0  0  0  0
 15 19  1  0  0  0  0
 15 16  1  0  0  0  0
 16 17  1  0  0  0  0
 16 38  1  0  0  0  0
 16 39  1  0  0  0  0
 17 18  1  0  0  0  0
 17 40  1  0  0  0  0
 17 41  1  0  0  0  0
 18 19  1  0  0  0  0
 18 42  1  0  0  0  0
 18 43  1  0  0  0  0
 19 44  1  0  0  0  0
 19 45  1  0  0  0  0
 20 46  1  0  0  0  0
M  END
> <s_m_source_file>
AV-unprocessed.smi

> <i_m_source_file_index>
3335

> <i_lp_mmshare_version>
43012

> <i_f3d_flags>
0

> <s_epik_input>
W0NIM11jMVtjSF1ubihbY0hdMSlbQ0BIXShbQ0gzXSlbQ0BIXShbQ0gzXSlbTkhdW0NASF0oW0NIM10pQyg9TylOMltDSDJdW0NIMl1bQ0gyXVtDSDJdMg==

> <s_epik_cmdline>
J2VwaWtfcHl0aG9uJywgJy1waCcsICc3LjAnLCAnLXRuJywgJzgnLCAnLW1hJywgJzIwMCcsICctbWV0YWxfYmluZGluZycsICctaW1hZScsICc8aW5maWxlLm1hZT4nLCAnLW9tYWUnLCAnPG91dGZpbGUubWFlPic=

> <r_lp_tautomer_probability>
1

> <r_epik_Ionization_Penalty>
0.918803

> <r_epik_Ionization_Penalty_Charging>
0

> <r_epik_Ionization_Penalty_Neutral>
0.918803

> <r_epik_State_Penalty>
0.958258

> <r_epik_Charging_Adjusted_Penalty>
0.958258

> <i_epik_Tot_Q>
0

> <i_epik_Tot_abs_Q>
0

> <r_epik_Metal_State_Penalty>
0.956786

> <b_epik_Metal_Only>
0

> <s_lp_Force_Field>
OPLS_2005

> <r_lp_Energy>
40.2433

> <b_lp_Chiralities_Consistent>
1

> <s_lp_Variant>
AV-unprocessed.smi:3335-14

> <Gold.Version>
5.8.1

> <Gold.Id.Protein>
6NUR|6NUR_protein|mol2

> <Gold.PLP.Fitness>
41.1844

> <Gold.PLP.PLP>
-33.8757

> <Gold.PLP.part.hbond>
-4.0000

> <Gold.PLP.part.metal>
0.0000

> <Gold.PLP.part.buried>
4.5809

> <Gold.PLP.part.nonpolar>
-34.3709

> <Gold.PLP.part.repulsive>
0.2907

> <Gold.PLP.ligand.clash>
0.0000

> <Gold.PLP.ligand.torsion>
1.9540

> <Gold.PLP.Chemscore.Hbond>
1.6628

> <Gold.PLP.Chemscore.CHOScore>
1.9949

> <Gold.PLP.Chemscore.Metal>
0.0000

> <Gold.Chemscore.Hbonds>
donor molecule, donor type, donor heavy atom, donor atom, acceptor molecule, acceptor atom, score
      L1  H    10    33       P1  7957  1.00
      P1  H  7989  7998       L1    14  0.01
      P1  H  8011  8017       L1    14  0.51
      L1  C    20    46       P1 10171  1.00
      L1  C    20    46       P1 10175  0.59

> <Gold.PLP.Chemscore.Internal.Correction>
0.2435

> <Gold.Rescore>
     Score         DG    S(hbond)    S(metal)    S(lipo)     H(rot)  DE(clash)    DE(int)     intcor
     10.76     -16.59       1.59        0.00      85.03       1.62       2.25       3.58       ----

> <Gold.Chemscore.Fitness>
10.7584

> <Gold.Chemscore.DG>
-16.5887

> <Gold.Chemscore.ZeroCoef>
-5.4800

> <Gold.Chemscore.Hbond>
1.5893

> <Gold.Chemscore.Metal>
0.0000

> <Gold.Chemscore.Lipo>
85.0305

> <Gold.Chemscore.Internal_Hbond>
0.0000

> <Gold.Chemscore.DEClash>
2.2505

> <Gold.Chemscore.DEInternal>
3.5797

> <Gold.Chemscore.Rot>
1.6204

> <Gold.Chemscore.Internal.Correction>
   9.000000E+99

> <Gold.Chemscore.Hbonds>
donor molecule, donor type, donor heavy atom, donor atom, acceptor molecule, acceptor atom, score
      L1  H    10    33       P1  7957  0.99
      P1  H  8011  8017       L1    14  0.51

> <Gold.Chemscore.Hbond.Weighted>
-5.3083

> <Gold.Chemscore.Metal.Weighted>
-0.0000

> <Gold.Chemscore.Lipo.Weighted>
-9.9486

> <Gold.Chemscore.Internal_Hbond.Weighted>
0.0000

> <Gold.Chemscore.DEClash.Weighted>
2.2505

> <Gold.Chemscore.DEInternal.Weighted>
3.5797

> <Gold.Chemscore.Rot.Weighted>
4.1482

> <Gold.Chemscore.Internal.Correction.Weighted>
   9.000000E+99

> <Gold.Protein.RotatedTorsions>
[ 6907 6896 6895 6894 ] final -179.37 input  -60.11 | X-H torsion
[ 7974 7965 7964 7962 ] final -171.76 input  175.53 | X-H torsion
[ 8008 7997 7996 7995 ] final -159.05 input   59.86 | X-H torsion
[ 10167 10162 10161 10158 ] final -154.75 input  -65.29 | X-H torsion
[ 10718 10713 10712 10709 ] final -174.96 input   66.30 | X-H torsion
[ 10763 10752 10751 10750 ] final -101.87 input  -60.55 | X-H torsion
[ 11005 11000 10999 10996 ] final -131.31 input  -57.11 | X-H torsion

> <Gold.Protein.ActiveResidues>
 VAL166  LYS551  ARG553  GLY616  TRP617  ASP618  TYR619  PRO620  LYS621  CYS622 
 ASP623  PHE694  ASN695  SER759  ASP760  ASP761  ALA762  ILE779  LEU786  VAL792 
 PHE793  MET794  SER795  GLU796  ALA797  LYS798  CYS799  TRP800  GLU811  SER814 

> <Gold.Protein.RotatedAtoms>
  151.6523  133.3320  159.3154 H   0  0  0  0  0  0  0  0  0  0  0  0  # atno 6907 bound_to 6896
  150.7954  134.7013  159.6561 H   0  0  0  0  0  0  0  0  0  0  0  0  # atno 6908 bound_to 6896
  152.4040  134.6242  160.0110 H   0  0  0  0  0  0  0  0  0  0  0  0  # atno 6909 bound_to 6896
  144.7153  140.1874  143.6352 H   0  0  0  0  0  0  0  0  0  0  0  0  # atno 7974 bound_to 7965
  155.7567  140.0834  157.2175 H   0  0  0  0  0  0  0  0  0  0  0  0  # atno 8008 bound_to 7997
  154.4007  140.1550  156.2842 H   0  0  0  0  0  0  0  0  0  0  0  0  # atno 8009 bound_to 7997
  155.8878  140.3417  155.5937 H   0  0  0  0  0  0  0  0  0  0  0  0  # atno 8010 bound_to 7997
  139.6988  143.9298  152.2419 H   0  0  0  0  0  0  0  0  0  0  0  0  # atno 10167 bound_to 10162
  156.7928  130.9524  151.3120 H   0  0  0  0  0  0  0  0  0  0  0  0  # atno 10718 bound_to 10713
  154.7690  135.4882  153.9612 H   0  0  0  0  0  0  0  0  0  0  0  0  # atno 10763 bound_to 10752
  153.1344  135.6759  153.9134 H   0  0  0  0  0  0  0  0  0  0  0  0  # atno 10764 bound_to 10752
  153.8827  135.3130  155.3424 H   0  0  0  0  0  0  0  0  0  0  0  0  # atno 10765 bound_to 10752
  140.9270  134.1370  157.4267 H   0  0  0  0  0  0  0  0  0  0  0  0  # atno 11005 bound_to 11000
  145.8800  139.2317  143.1611 LP  0  0  0  0  0  0  0  0  0  0  0  0  # atno 17320 bound_to 7965
  146.0004  140.8525  143.0021 LP  0  0  0  0  0  0  0  0  0  0  0  0  # atno 17321 bound_to 7965
  139.9134  144.6843  150.8538 LP  0  0  0  0  0  0  0  0  0  0  0  0  # atno 17342 bound_to 10162
  140.7704  143.3426  151.2175 LP  0  0  0  0  0  0  0  0  0  0  0  0  # atno 17343 bound_to 10162
  157.6592  130.8951  149.9793 LP  0  0  0  0  0  0  0  0  0  0  0  0  # atno 17370 bound_to 10713
  156.1148  130.3648  149.9986 LP  0  0  0  0  0  0  0  0  0  0  0  0  # atno 17371 bound_to 10713
  139.8787  134.9991  156.5939 LP  0  0  0  0  0  0  0  0  0  0  0  0  # atno 17394 bound_to 11000
  140.7913  133.8580  155.8648 LP  0  0  0  0  0  0  0  0  0  0  0  0  # atno 17395 bound_to 11000

$$$$
