AV-unprocessed.smi:3155|AV-procd|sdf|12027|dock3
  -GOLD-   2272017443D 1   1.00000     0.00000
 Structure written by MMmdl.
 37 38  0  0  0  0  0  0  0  0  1 V2000
  153.1483  142.0240  161.8313 C   0  0  0  0  0  0  0  0  0  0  0  0
  153.3091  141.6583  160.3488 C   0  0  2  0  0  0  0  0  0  0  0  0
  153.6120  142.9203  159.5069 C   0  0  0  0  0  0  0  0  0  0  0  0
  152.4864  143.8293  159.3778 N   0  0  0  0  0  0  0  0  0  0  0  0
  151.9553  144.6742  160.3297 C   0  0  0  0  0  0  0  0  0  0  0  0
  150.9168  145.3423  159.7478 C   0  0  0  0  0  0  0  0  0  0  0  0
  150.9011  144.8460  158.4144 C   0  0  0  0  0  0  0  0  0  0  0  0
  151.8471  143.9478  158.1935 N   0  0  0  0  0  0  0  0  0  0  0  0
  152.0585  141.0325  159.9277 N   0  0  0  0  0  0  0  0  0  0  0  0
  151.8547  141.0729  158.4739 C   0  0  0  0  0  0  0  0  0  0  0  0
  152.5482  139.8990  157.7745 C   0  0  0  0  0  0  0  0  0  0  0  0
  153.5319  139.3888  158.3111 O   0  0  0  0  0  0  0  0  0  0  0  0
  152.0637  139.4614  156.5926 N   0  0  0  0  0  0  0  0  0  0  0  0
  152.6619  138.3645  155.8343 C   0  0  0  0  0  0  0  0  0  0  0  0
  151.9812  138.3878  154.4657 C   0  0  0  0  0  0  0  0  0  0  0  0
  150.6295  139.0337  154.7346 C   0  0  0  0  0  0  0  0  0  0  0  0
  150.8989  139.9981  155.8894 C   0  0  0  0  0  0  0  0  0  0  0  0
  154.0588  142.4794  162.2219 H   0  0  0  0  0  0  0  0  0  0  0  0
  152.9411  141.1401  162.4358 H   0  0  0  0  0  0  0  0  0  0  0  0
  152.3326  142.7316  161.9842 H   0  0  0  0  0  0  0  0  0  0  0  0
  154.1367  140.9500  160.2801 H   0  0  0  0  0  0  0  0  0  0  0  0
  154.4571  143.4663  159.9289 H   0  0  0  0  0  0  0  0  0  0  0  0
  153.9098  142.6280  158.4989 H   0  0  0  0  0  0  0  0  0  0  0  0
  152.3518  144.7240  161.3332 H   0  0  0  0  0  0  0  0  0  0  0  0
  150.2698  146.0772  160.2033 H   0  0  0  0  0  0  0  0  0  0  0  0
  150.2371  145.1125  157.6054 H   0  0  0  0  0  0  0  0  0  0  0  0
  151.2865  141.4451  160.4311 H   0  0  0  0  0  0  0  0  0  0  0  0
  150.7937  141.0765  158.2298 H   0  0  0  0  0  0  0  0  0  0  0  0
  152.2666  142.0016  158.0759 H   0  0  0  0  0  0  0  0  0  0  0  0
  153.7438  138.4710  155.7400 H   0  0  0  0  0  0  0  0  0  0  0  0
  152.4571  137.4248  156.3493 H   0  0  0  0  0  0  0  0  0  0  0  0
  152.5555  139.0155  153.7831 H   0  0  0  0  0  0  0  0  0  0  0  0
  151.8967  137.3973  154.0177 H   0  0  0  0  0  0  0  0  0  0  0  0
  150.2145  139.5303  153.8572 H   0  0  0  0  0  0  0  0  0  0  0  0
  149.9186  138.2706  155.0541 H   0  0  0  0  0  0  0  0  0  0  0  0
  150.0262  140.0806  156.5376 H   0  0  0  0  0  0  0  0  0  0  0  0
  151.1387  140.9913  155.5072 H   0  0  0  0  0  0  0  0  0  0  0  0
  1  2  1  0  0  0  0
  1 18  1  0  0  0  0
  1 19  1  0  0  0  0
  1 20  1  0  0  0  0
  2  3  1  0  0  0  0
  2  9  1  0  0  0  0
  2 21  1  0  0  0  0
  3  4  1  0  0  0  0
  3 22  1  0  0  0  0
  3 23  1  0  0  0  0
  4  8  1  0  0  0  0
  4  5  1  0  0  0  0
  5  6  2  0  0  0  0
  5 24  1  0  0  0  0
  6  7  1  0  0  0  0
  6 25  1  0  0  0  0
  7  8  2  0  0  0  0
  7 26  1  0  0  0  0
  9 10  1  0  0  0  0
  9 27  1  0  0  0  0
 10 11  1  0  0  0  0
 10 28  1  0  0  0  0
 10 29  1  0  0  0  0
 11 12  2  0  0  0  0
 11 13  1  0  0  0  0
 13 17  1  0  0  0  0
 13 14  1  0  0  0  0
 14 15  1  0  0  0  0
 14 30  1  0  0  0  0
 14 31  1  0  0  0  0
 15 16  1  0  0  0  0
 15 32  1  0  0  0  0
 15 33  1  0  0  0  0
 16 17  1  0  0  0  0
 16 34  1  0  0  0  0
 16 35  1  0  0  0  0
 17 36  1  0  0  0  0
 17 37  1  0  0  0  0
M  END
> <s_m_source_file>
AV-unprocessed.smi

> <i_m_source_file_index>
3155

> <i_lp_mmshare_version>
43012

> <i_f3d_flags>
0

> <s_epik_input>
bjFbY0hdW2NIXVtjSF1uMVtDSDJdW0NAQEhdKFtDSDNdKVtOSF1bQ0gyXUMoPU8pTjJbQ0gyXVtDSDJdW0NIMl1bQ0gyXTI=

> <s_epik_cmdline>
J2VwaWtfcHl0aG9uJywgJy1waCcsICc3LjAnLCAnLXRuJywgJzgnLCAnLW1hJywgJzIwMCcsICctbWV0YWxfYmluZGluZycsICctaW1hZScsICc8aW5maWxlLm1hZT4nLCAnLW9tYWUnLCAnPG91dGZpbGUubWFlPic=

> <r_lp_tautomer_probability>
1

> <r_epik_Ionization_Penalty>
1.00455

> <r_epik_Ionization_Penalty_Charging>
0

> <r_epik_Ionization_Penalty_Neutral>
1.00455

> <r_epik_State_Penalty>
1.05336

> <r_epik_Charging_Adjusted_Penalty>
1.05336

> <i_epik_Tot_Q>
0

> <i_epik_Tot_abs_Q>
0

> <r_epik_Metal_State_Penalty>
1.05331

> <b_epik_Metal_Only>
0

> <s_lp_Force_Field>
OPLS_2005

> <r_lp_Energy>
30.8586

> <b_lp_Chiralities_Consistent>
1

> <s_lp_Variant>
AV-unprocessed.smi:3155-3

> <Gold.Version>
5.8.1

> <Gold.Id.Protein>
6NUR|6NUR_protein|mol2

> <Gold.PLP.Fitness>
46.9790

> <Gold.PLP.PLP>
-43.3631

> <Gold.PLP.part.hbond>
-1.0000

> <Gold.PLP.part.metal>
0.0000

> <Gold.PLP.part.buried>
-5.4924

> <Gold.PLP.part.nonpolar>
-36.9248

> <Gold.PLP.part.repulsive>
0.0700

> <Gold.PLP.ligand.clash>
0.0000

> <Gold.PLP.ligand.torsion>
0.9142

> <Gold.PLP.Chemscore.Hbond>
1.0000

> <Gold.PLP.Chemscore.CHOScore>
0.7879

> <Gold.PLP.Chemscore.Metal>
0.0000

> <Gold.Chemscore.Hbonds>
donor molecule, donor type, donor heavy atom, donor atom, acceptor molecule, acceptor atom, score
      P1  H  7997  8010       L1    12  1.00
      L1  C     7    26       P1  8028  0.55
      L1  C     7    26       P1  8029  0.26

> <Gold.PLP.Chemscore.Internal.Correction>
0.0805

> <Gold.Rescore>
     Score         DG    S(hbond)    S(metal)    S(lipo)     H(rot)  DE(clash)    DE(int)     intcor
     14.62     -15.66       0.83        0.00     102.05       1.77       0.22       0.83       ----

> <Gold.Chemscore.Fitness>
14.6152

> <Gold.Chemscore.DG>
-15.6644

> <Gold.Chemscore.ZeroCoef>
-5.4800

> <Gold.Chemscore.Hbond>
0.8305

> <Gold.Chemscore.Metal>
0.0000

> <Gold.Chemscore.Lipo>
102.0503

> <Gold.Chemscore.Internal_Hbond>
0.0000

> <Gold.Chemscore.DEClash>
0.2197

> <Gold.Chemscore.DEInternal>
0.8295

> <Gold.Chemscore.Rot>
1.7693

> <Gold.Chemscore.Internal.Correction>
   9.000000E+99

> <Gold.Chemscore.Hbonds>
donor molecule, donor type, donor heavy atom, donor atom, acceptor molecule, acceptor atom, score
      P1  H  7997  8010       L1    12  0.25

> <Gold.Chemscore.Hbond.Weighted>
-2.7738

> <Gold.Chemscore.Metal.Weighted>
-0.0000

> <Gold.Chemscore.Lipo.Weighted>
-11.9399

> <Gold.Chemscore.Internal_Hbond.Weighted>
0.0000

> <Gold.Chemscore.DEClash.Weighted>
0.2197

> <Gold.Chemscore.DEInternal.Weighted>
0.8295

> <Gold.Chemscore.Rot.Weighted>
4.5294

> <Gold.Chemscore.Internal.Correction.Weighted>
   9.000000E+99

> <Gold.Protein.RotatedTorsions>
[ 6907 6896 6895 6894 ] final -131.36 input  -60.11 | X-H torsion
[ 7974 7965 7964 7962 ] final -128.50 input  175.53 | X-H torsion
[ 8008 7997 7996 7995 ] final   15.94 input   59.86 | X-H torsion
[ 10167 10162 10161 10158 ] final -143.96 input  -65.29 | X-H torsion
[ 10718 10713 10712 10709 ] final -174.51 input   66.30 | X-H torsion
[ 10763 10752 10751 10750 ] final -165.07 input  -60.55 | X-H torsion
[ 11005 11000 10999 10996 ] final  105.84 input  -57.11 | X-H torsion

> <Gold.Protein.ActiveResidues>
 VAL166  LYS551  ARG553  GLY616  TRP617  ASP618  TYR619  PRO620  LYS621  CYS622 
 ASP623  PHE694  ASN695  SER759  ASP760  ASP761  ALA762  ILE779  LEU786  VAL792 
 PHE793  MET794  SER795  GLU796  ALA797  LYS798  CYS799  TRP800  GLU811  SER814 

> <Gold.Protein.RotatedAtoms>
  150.9501  133.6559  159.2773 H   0  0  0  0  0  0  0  0  0  0  0  0  # atno 6907 bound_to 6896
  151.3918  135.0956  159.9538 H   0  0  0  0  0  0  0  0  0  0  0  0  # atno 6908 bound_to 6896
  152.5106  133.9013  159.7497 H   0  0  0  0  0  0  0  0  0  0  0  0  # atno 6909 bound_to 6896
  144.9665  140.7501  143.4697 H   0  0  0  0  0  0  0  0  0  0  0  0  # atno 7974 bound_to 7965
  154.8699  140.2957  155.5488 H   0  0  0  0  0  0  0  0  0  0  0  0  # atno 8008 bound_to 7997
  156.3021  140.2462  156.3619 H   0  0  0  0  0  0  0  0  0  0  0  0  # atno 8009 bound_to 7997
  154.8828  140.0397  157.1782 H   0  0  0  0  0  0  0  0  0  0  0  0  # atno 8010 bound_to 7997
  139.7944  143.7921  152.2653 H   0  0  0  0  0  0  0  0  0  0  0  0  # atno 10167 bound_to 10162
  156.7861  130.9501  151.3120 H   0  0  0  0  0  0  0  0  0  0  0  0  # atno 10718 bound_to 10713
  154.6967  135.2980  154.9400 H   0  0  0  0  0  0  0  0  0  0  0  0  # atno 10763 bound_to 10752
  154.0346  135.6665  153.4788 H   0  0  0  0  0  0  0  0  0  0  0  0  # atno 10764 bound_to 10752
  153.0651  135.5093  154.8089 H   0  0  0  0  0  0  0  0  0  0  0  0  # atno 10765 bound_to 10752
  139.8807  134.9349  156.5576 H   0  0  0  0  0  0  0  0  0  0  0  0  # atno 11005 bound_to 11000
  145.2622  139.1987  143.4886 LP  0  0  0  0  0  0  0  0  0  0  0  0  # atno 17320 bound_to 7965
  146.3369  140.2554  142.8600 LP  0  0  0  0  0  0  0  0  0  0  0  0  # atno 17321 bound_to 7965
  139.8022  144.7369  150.9810 LP  0  0  0  0  0  0  0  0  0  0  0  0  # atno 17342 bound_to 10162
  140.7820  143.4334  151.0660 LP  0  0  0  0  0  0  0  0  0  0  0  0  # atno 17343 bound_to 10162
  157.6623  130.8977  149.9856 LP  0  0  0  0  0  0  0  0  0  0  0  0  # atno 17370 bound_to 10713
  156.1188  130.3646  149.9923 LP  0  0  0  0  0  0  0  0  0  0  0  0  # atno 17371 bound_to 10713
  140.8193  133.8366  155.8881 LP  0  0  0  0  0  0  0  0  0  0  0  0  # atno 17394 bound_to 11000
  140.9433  134.1873  157.4782 LP  0  0  0  0  0  0  0  0  0  0  0  0  # atno 17395 bound_to 11000

$$$$
