#       Name:                AV-unprocessed.smi:3116
#       Creating user name   scv26
#       Creation time:       Fri Mar 27 17:25:10 2020


#       File generated by GOLD software.
#

@<TRIPOS>MOLECULE
AV-unprocessed.smi:3116
    37    37     1
SMALL
NO_CHARGES


@<TRIPOS>ATOM
      1 ****        -0.9419   2.5521  -0.7896 C.3            1 S1                 0.0000
      2 ****        -1.1621   1.8128   0.5433 C.3            1 S1                 0.0000
      3 ****        -0.6382   0.4296   0.4780 N.4            1 S1                 1.0000
      4 ****         0.8362   0.2858   0.4948 C.3            1 S1                 0.0000
      5 ****         1.2581  -0.3949   1.8092 C.3            1 S1                 0.0000
      6 ****         1.3155  -0.4319  -0.7954 C.3            1 S1                 0.0000
      7 ****         2.8396  -0.3279  -1.0016 C.3            1 S1                 0.0000
      8 ****         0.8464  -1.8128  -0.8862 N.pl3          1 S1                 0.0000
      9 ****        -0.2940  -2.2783  -1.5097 C.2            1 S1                 0.0000
     10 ****        -0.3499  -3.6279  -1.3127 C.2            1 S1                 0.0000
     11 ****         0.8125  -3.9048  -0.5417 C.2            1 S1                 0.0000
     12 ****         1.5211  -2.8183  -0.2826 N.2            1 S1                 0.0000
     13 ****        -2.6542   1.8005   0.8971 C.2            1 S1                 0.0000
     14 ****        -3.1289   2.8536   1.5676 N.am           1 S1                 0.0000
     15 ****        -3.3749   0.8623   0.5603 O.2            1 S1                 0.0000
     16 ****        -1.3405   3.5668  -0.7508 H              1 S1                 0.0000
     17 ****        -1.4307   2.0360  -1.6173 H              1 S1                 0.0000
     18 ****         0.1170   2.6352  -1.0337 H              1 S1                 0.0000
     19 ****        -0.6366   2.3376   1.3433 H              1 S1                 0.0000
     20 ****        -0.9992  -0.0728   1.2766 H              1 S1                 0.0000
     21 ****         1.2845   1.2803   0.4960 H              1 S1                 0.0000
     22 ****         2.3384  -0.5255   1.8660 H              1 S1                 0.0000
     23 ****         0.7949  -1.3746   1.9272 H              1 S1                 0.0000
     24 ****         0.9613   0.2077   2.6680 H              1 S1                 0.0000
     25 ****         0.8697   0.0964  -1.6399 H              1 S1                 0.0000
     26 ****         3.1596   0.7137  -1.0323 H              1 S1                 0.0000
     27 ****         3.1378  -0.7875  -1.9446 H              1 S1                 0.0000
     28 ****         3.3991  -0.8198  -0.2061 H              1 S1                 0.0000
     29 ****        -0.9660  -1.6173  -2.0372 H              1 S1                 0.0000
     30 ****        -1.1065  -4.3134  -1.6649 H              1 S1                 0.0000
     31 ****         1.1581  -4.8552  -0.1626 H              1 S1                 0.0000
     32 ****        -4.1037   2.8935   1.8294 H              1 S1                 0.0000
     33 ****        -2.5070   3.6098   1.8166 H              1 S1                 0.0000
     34 ****        -1.0025  -0.0096  -0.3551 H              1 S1                 0.0000
     35 ****         2.3690  -2.7542   0.2436 LP             1 S1                 0.0000
     36 ****        -2.9895   0.0942   0.0489 LP             1 S1                 0.0000
     37 ****        -4.3463   0.8676   0.7978 LP             1 S1                 0.0000
@<TRIPOS>BOND
    1    1    2 1     
    2    1   16 1     
    3    1   17 1     
    4    1   18 1     
    5    2    3 1     
    6    2   13 1     
    7    2   19 1     
    8    3    4 1     
    9    3   20 1     
   10    3   34 1     
   11    4    5 1     
   12    4    6 1     
   13    4   21 1     
   14    5   22 1     
   15    5   23 1     
   16    5   24 1     
   17    6    7 1     
   18    6    8 1     
   19    6   25 1     
   20    7   26 1     
   21    7   27 1     
   22    7   28 1     
   23    8   12 1     
   24    8    9 1     
   25    9   10 2     
   26    9   29 1     
   27   10   11 1     
   28   10   30 1     
   29   11   12 2     
   30   11   31 1     
   31   13   14 am    
   32   13   15 2     
   33   14   32 1     
   34   14   33 1     
   35   12   35 1     
   36   15   36 1     
   37   15   37 1     
@<TRIPOS>SUBSTRUCTURE
      1 S1             1
@<TRIPOS>SET
LONE_PAIRS      STATIC     ATOMS    <user>   **** ""
3 35 36 37
DONOR_HYDROGENS      STATIC     ATOMS    <user>   **** ""
4 20 34 32 33
ATOM$BLUE        STATIC     ATOMS    COLORGROUP SYSTEM
3 35 36 37
ATOM$RED        STATIC     ATOMS    COLORGROUP SYSTEM
4 20 34 32 33
