AV-unprocessed.smi:1679|AV-procd|sdf|6731|dock2
  -GOLD-   22720 7473D 1   1.00000     0.00000
 Structure written by MMmdl.
 45 46  0  0  0  0  0  0  0  0  1 V2000
  153.1501  141.4529  159.9689 C   0  0  0  0  0  0  0  0  0  0  0  0
  152.8451  142.9330  159.6914 C   0  0  2  0  0  0  0  0  0  0  0  0
  151.9980  143.5646  160.8167 C   0  0  0  0  0  0  0  0  0  0  0  0
  151.7264  145.0543  160.5539 C   0  0  0  0  0  0  0  0  0  0  0  0
  151.0872  145.2708  159.1746 C   0  0  0  0  0  0  0  0  0  0  0  0
  151.9369  144.6443  158.0586 C   0  0  0  0  0  0  0  0  0  0  0  0
  152.1780  143.1405  158.3129 C   0  0  2  0  0  0  0  0  0  0  0  0
  150.9501  142.4219  158.3157 O   0  0  0  0  0  0  0  0  0  0  0  0
  150.9827  141.1324  157.7239 C   0  0  0  0  0  0  0  0  0  0  0  0
  150.5410  141.2506  156.2563 C   0  0  0  0  0  0  0  0  0  0  0  0
  149.1294  140.9168  156.0874 N   0  0  0  0  0  0  0  0  0  0  0  0
  148.4061  141.1516  154.9808 C   0  0  0  0  0  0  0  0  0  0  0  0
  148.8608  141.7246  153.9906 O   0  0  0  0  0  0  0  0  0  0  0  0
  146.9413  140.6920  155.0037 C   0  0  0  0  0  0  0  0  0  0  0  0
  146.0041  141.8203  154.8973 N   0  0  0  0  0  0  0  0  0  0  0  0
  146.0564  142.6584  153.7922 C   0  0  0  0  0  0  0  0  0  0  0  0
  145.2551  143.7382  153.6338 C   0  0  0  0  0  0  0  0  0  0  0  0
  144.2673  144.0799  154.6509 C   0  0  0  0  0  0  0  0  0  0  0  0
  143.5039  145.0415  154.6033 O   0  0  0  0  0  0  0  0  0  0  0  0
  144.2369  143.2085  155.7424 N   0  0  0  0  0  0  0  0  0  0  0  0
  145.0568  142.0913  155.9098 C   0  0  0  0  0  0  0  0  0  0  0  0
  144.9419  141.3878  156.9124 O   0  0  0  0  0  0  0  0  0  0  0  0
  143.5672  143.4032  156.4724 H   0  0  0  0  0  0  0  0  0  0  0  0
  152.2372  140.8586  160.0173 H   0  0  0  0  0  0  0  0  0  0  0  0
  153.6734  141.3327  160.9175 H   0  0  0  0  0  0  0  0  0  0  0  0
  153.7820  141.0296  159.1879 H   0  0  0  0  0  0  0  0  0  0  0  0
  153.8036  143.4540  159.6728 H   0  0  0  0  0  0  0  0  0  0  0  0
  151.0494  143.0345  160.9112 H   0  0  0  0  0  0  0  0  0  0  0  0
  152.5065  143.4522  161.7746 H   0  0  0  0  0  0  0  0  0  0  0  0
  151.0763  145.4555  161.3318 H   0  0  0  0  0  0  0  0  0  0  0  0
  152.6617  145.6120  160.6138 H   0  0  0  0  0  0  0  0  0  0  0  0
  150.0948  144.8221  159.1611 H   0  0  0  0  0  0  0  0  0  0  0  0
  150.9497  146.3363  158.9901 H   0  0  0  0  0  0  0  0  0  0  0  0
  151.4628  144.8107  157.0923 H   0  0  0  0  0  0  0  0  0  0  0  0
  152.8979  145.1580  158.0084 H   0  0  0  0  0  0  0  0  0  0  0  0
  152.8333  142.7378  157.5387 H   0  0  0  0  0  0  0  0  0  0  0  0
  151.9766  140.6887  157.7766 H   0  0  0  0  0  0  0  0  0  0  0  0
  150.3016  140.4728  158.2629 H   0  0  0  0  0  0  0  0  0  0  0  0
  150.6776  142.2783  155.9196 H   0  0  0  0  0  0  0  0  0  0  0  0
  151.1674  140.6297  155.6137 H   0  0  0  0  0  0  0  0  0  0  0  0
  148.6752  140.4542  156.8613 H   0  0  0  0  0  0  0  0  0  0  0  0
  146.7581  139.9781  154.1983 H   0  0  0  0  0  0  0  0  0  0  0  0
  146.7672  140.1306  155.9232 H   0  0  0  0  0  0  0  0  0  0  0  0
  146.7818  142.4518  153.0182 H   0  0  0  0  0  0  0  0  0  0  0  0
  145.3512  144.3571  152.7534 H   0  0  0  0  0  0  0  0  0  0  0  0
  1  2  1  0  0  0  0
  1 24  1  0  0  0  0
  1 25  1  0  0  0  0
  1 26  1  0  0  0  0
  2  7  1  0  0  0  0
  2  3  1  0  0  0  0
  2 27  1  0  0  0  0
  3  4  1  0  0  0  0
  3 28  1  0  0  0  0
  3 29  1  0  0  0  0
  4  5  1  0  0  0  0
  4 30  1  0  0  0  0
  4 31  1  0  0  0  0
  5  6  1  0  0  0  0
  5 32  1  0  0  0  0
  5 33  1  0  0  0  0
  6  7  1  0  0  0  0
  6 34  1  0  0  0  0
  6 35  1  0  0  0  0
  7  8  1  0  0  0  0
  7 36  1  0  0  0  0
  8  9  1  0  0  0  0
  9 10  1  0  0  0  0
  9 37  1  0  0  0  0
  9 38  1  0  0  0  0
 10 11  1  0  0  0  0
 10 39  1  0  0  0  0
 10 40  1  0  0  0  0
 11 12  1  0  0  0  0
 11 41  1  0  0  0  0
 12 13  2  0  0  0  0
 12 14  1  0  0  0  0
 14 15  1  0  0  0  0
 14 42  1  0  0  0  0
 14 43  1  0  0  0  0
 15 21  1  0  0  0  0
 15 16  1  0  0  0  0
 16 17  2  0  0  0  0
 16 44  1  0  0  0  0
 17 18  1  0  0  0  0
 17 45  1  0  0  0  0
 18 19  2  0  0  0  0
 18 20  1  0  0  0  0
 20 23  1  0  0  0  0
 20 21  1  0  0  0  0
 21 22  2  0  0  0  0
M  END
> <s_m_source_file>
AV-unprocessed.smi

> <i_m_source_file_index>
1679

> <i_lp_mmshare_version>
43012

> <i_f3d_flags>
0

> <s_epik_input>
W0NIM11bQ0BASF0xW0NIMl1bQ0gyXVtDSDJdW0NIMl1bQ0BIXTFPW0NIMl1bQ0gyXVtOSF1DKD1PKVtDSDJdbjJbY0hdW2NIXWMoPU8pW25IXWMyPU8=

> <s_epik_cmdline>
J2VwaWtfcHl0aG9uJywgJy1waCcsICc3LjAnLCAnLXRuJywgJzgnLCAnLW1hJywgJzIwMCcsICctbWV0YWxfYmluZGluZycsICctaW1hZScsICc8aW5maWxlLm1hZT4nLCAnLW9tYWUnLCAnPG91dGZpbGUubWFlPic=

> <r_lp_tautomer_probability>
0.999537

> <r_epik_Ionization_Penalty>
0.0033132

> <r_epik_Ionization_Penalty_Charging>
0.00331317

> <r_epik_Ionization_Penalty_Neutral>
2.78599e-08

> <r_epik_State_Penalty>
0.002342

> <r_epik_Charging_Adjusted_Penalty>
0.00565517

> <i_epik_Tot_Q>
0

> <i_epik_Tot_abs_Q>
0

> <r_epik_Metal_State_Penalty>
0.365595

> <b_epik_Metal_Only>
0

> <s_lp_Force_Field>
OPLS_2005

> <r_lp_Energy>
9.94053

> <b_lp_Chiralities_Consistent>
1

> <s_lp_Variant>
AV-unprocessed.smi:1679-3

> <Gold.Version>
5.8.1

> <Gold.Id.Protein>
6NUR|6NUR_protein|mol2

> <Gold.PLP.Fitness>
49.8067

> <Gold.PLP.PLP>
-50.1667

> <Gold.PLP.part.hbond>
-1.3017

> <Gold.PLP.part.metal>
0.0000

> <Gold.PLP.part.buried>
-9.1658

> <Gold.PLP.part.nonpolar>
-40.3737

> <Gold.PLP.part.repulsive>
0.3759

> <Gold.PLP.ligand.clash>
0.0000

> <Gold.PLP.ligand.torsion>
1.0866

> <Gold.PLP.Chemscore.Hbond>
0.5760

> <Gold.PLP.Chemscore.CHOScore>
0.0000

> <Gold.PLP.Chemscore.Metal>
0.0000

> <Gold.Chemscore.Hbonds>
donor molecule, donor type, donor heavy atom, donor atom, acceptor molecule, acceptor atom, score
      P1  H  8011  8017       L1    13  0.58

> <Gold.PLP.Chemscore.Internal.Correction>
0.0851

> <Gold.Rescore>
     Score         DG    S(hbond)    S(metal)    S(lipo)     H(rot)  DE(clash)    DE(int)     intcor
     12.50     -14.66       0.67        0.00     114.37       2.52       0.09       2.07       ----

> <Gold.Chemscore.Fitness>
12.4983

> <Gold.Chemscore.DG>
-14.6603

> <Gold.Chemscore.ZeroCoef>
-5.4800

> <Gold.Chemscore.Hbond>
0.6724

> <Gold.Chemscore.Metal>
0.0000

> <Gold.Chemscore.Lipo>
114.3724

> <Gold.Chemscore.Internal_Hbond>
0.0000

> <Gold.Chemscore.DEClash>
0.0914

> <Gold.Chemscore.DEInternal>
2.0706

> <Gold.Chemscore.Rot>
2.5185

> <Gold.Chemscore.Internal.Correction>
   9.000000E+99

> <Gold.Chemscore.Hbonds>
donor molecule, donor type, donor heavy atom, donor atom, acceptor molecule, acceptor atom, score
      P1  H  8011  8017       L1    13  0.53

> <Gold.Chemscore.Hbond.Weighted>
-2.2459

> <Gold.Chemscore.Metal.Weighted>
-0.0000

> <Gold.Chemscore.Lipo.Weighted>
-13.3816

> <Gold.Chemscore.Internal_Hbond.Weighted>
0.0000

> <Gold.Chemscore.DEClash.Weighted>
0.0914

> <Gold.Chemscore.DEInternal.Weighted>
2.0706

> <Gold.Chemscore.Rot.Weighted>
6.4472

> <Gold.Chemscore.Internal.Correction.Weighted>
   9.000000E+99

> <Gold.Protein.RotatedTorsions>
[ 6907 6896 6895 6894 ] final  -84.03 input  -60.11 | X-H torsion
[ 7974 7965 7964 7962 ] final   39.03 input  175.53 | X-H torsion
[ 8008 7997 7996 7995 ] final -102.43 input   59.86 | X-H torsion
[ 10167 10162 10161 10158 ] final  161.28 input  -65.29 | X-H torsion
[ 10718 10713 10712 10709 ] final  -94.23 input   66.30 | X-H torsion
[ 10763 10752 10751 10750 ] final   20.83 input  -60.55 | X-H torsion
[ 11005 11000 10999 10996 ] final    1.68 input  -57.11 | X-H torsion

> <Gold.Protein.ActiveResidues>
 VAL166  LYS551  ARG553  GLY616  TRP617  ASP618  TYR619  PRO620  LYS621  CYS622 
 ASP623  PHE694  ASN695  SER759  ASP760  ASP761  ALA762  ILE779  LEU786  VAL792 
 PHE793  MET794  SER795  GLU796  ALA797  LYS798  CYS799  TRP800  GLU811  SER814 

> <Gold.Protein.RotatedAtoms>
  150.6880  134.3421  159.4872 H   0  0  0  0  0  0  0  0  0  0  0  0  # atno 6907 bound_to 6896
  152.1273  134.9158  160.0569 H   0  0  0  0  0  0  0  0  0  0  0  0  # atno 6908 bound_to 6896
  152.0342  133.3915  159.4346 H   0  0  0  0  0  0  0  0  0  0  0  0  # atno 6909 bound_to 6896
  146.1016  139.5700  142.9411 H   0  0  0  0  0  0  0  0  0  0  0  0  # atno 7974 bound_to 7965
  154.8566  140.0428  157.1638 H   0  0  0  0  0  0  0  0  0  0  0  0  # atno 8008 bound_to 7997
  154.8885  140.2983  155.5364 H   0  0  0  0  0  0  0  0  0  0  0  0  # atno 8009 bound_to 7997
  156.2997  140.2398  156.3897 H   0  0  0  0  0  0  0  0  0  0  0  0  # atno 8010 bound_to 7997
  139.4848  144.4552  151.8778 H   0  0  0  0  0  0  0  0  0  0  0  0  # atno 10167 bound_to 10162
  156.0024  130.5059  150.5895 H   0  0  0  0  0  0  0  0  0  0  0  0  # atno 10718 bound_to 10713
  153.1045  135.6681  153.9612 H   0  0  0  0  0  0  0  0  0  0  0  0  # atno 10763 bound_to 10752
  153.9173  135.3018  155.3449 H   0  0  0  0  0  0  0  0  0  0  0  0  # atno 10764 bound_to 10752
  154.7466  135.5054  153.9291 H   0  0  0  0  0  0  0  0  0  0  0  0  # atno 10765 bound_to 10752
  140.6128  133.9733  155.8186 H   0  0  0  0  0  0  0  0  0  0  0  0  # atno 11005 bound_to 11000
  145.5844  141.0378  143.2104 LP  0  0  0  0  0  0  0  0  0  0  0  0  # atno 17320 bound_to 7965
  144.7437  139.7378  143.7301 LP  0  0  0  0  0  0  0  0  0  0  0  0  # atno 17321 bound_to 7965
  140.4010  144.2492  150.5893 LP  0  0  0  0  0  0  0  0  0  0  0  0  # atno 17342 bound_to 10162
  140.5056  143.2305  151.8612 LP  0  0  0  0  0  0  0  0  0  0  0  0  # atno 17343 bound_to 10162
  157.3762  131.0773  151.1516 LP  0  0  0  0  0  0  0  0  0  0  0  0  # atno 17370 bound_to 10713
  157.2253  130.6500  149.5827 LP  0  0  0  0  0  0  0  0  0  0  0  0  # atno 17371 bound_to 10713
  141.0796  134.0082  157.3406 LP  0  0  0  0  0  0  0  0  0  0  0  0  # atno 17394 bound_to 11000
  139.9185  135.0199  156.7974 LP  0  0  0  0  0  0  0  0  0  0  0  0  # atno 17395 bound_to 11000

$$$$
