AV-unprocessed.smi:2845|AV-procd|sdf|10944|dock10
  -GOLD-   2272015393D 1   1.00000     0.00000
 Structure written by MMmdl.
 42 44  0  0  0  0  0  0  0  0  1 V2000
  151.2671  144.6250  158.3245 C   0  0  0  0  0  0  0  0  0  0  0  0
  151.4782  143.1564  158.0015 C   0  0  0  0  0  0  0  0  0  0  0  0
  151.0082  142.6489  156.7684 C   0  0  0  0  0  0  0  0  0  0  0  0
  151.1844  141.2889  156.4303 C   0  0  0  0  0  0  0  0  0  0  0  0
  150.8113  140.5848  155.2974 N   0  0  0  0  0  0  0  0  0  0  0  0
  151.2563  139.3632  155.5805 C   0  0  0  0  0  0  0  0  0  0  0  0
  151.8713  139.1936  156.7665 N   0  0  0  0  0  0  0  0  0  0  0  0
  152.4428  137.9754  157.3054 C   0  0  0  0  0  0  0  0  0  0  0  0
  151.3757  137.0917  157.9863 C   0  0  1  0  0  0  0  0  0  0  0  0
  151.8484  136.6756  159.2513 O   0  0  0  0  0  0  0  0  0  0  0  0
  150.0124  137.7916  158.1615 C   0  0  0  0  0  0  0  0  0  0  0  0
  149.0624  136.9866  158.9110 N   0  0  0  0  0  0  0  0  0  0  0  0
  148.5548  135.7771  158.6554 C   0  0  0  0  0  0  0  0  0  0  0  0
  147.7140  135.3373  159.5835 N   0  0  0  0  0  0  0  0  0  0  0  0
  147.7478  136.4101  160.4262 C   0  0  0  0  0  0  0  0  0  0  0  0
  146.8197  136.4236  161.9921 S   0  0  1  0  0  0  0  0  0  0  0  0
  147.0661  134.6240  162.3683 C   0  0  0  0  0  0  0  0  0  0  0  0
  147.6731  137.2074  162.9917 O   0  0  0  0  0  0  0  0  0  0  0  0
  148.5161  137.4351  160.0666 N   0  0  0  0  0  0  0  0  0  0  0  0
  151.8494  140.4464  157.3673 C   0  0  0  0  0  0  0  0  0  0  0  0
  152.3209  140.9384  158.5968 C   0  0  0  0  0  0  0  0  0  0  0  0
  152.1361  142.2984  158.9193 C   0  0  0  0  0  0  0  0  0  0  0  0
  152.6472  142.8175  160.2516 C   0  0  0  0  0  0  0  0  0  0  0  0
  150.7356  145.1372  157.5218 H   0  0  0  0  0  0  0  0  0  0  0  0
  152.2250  145.1264  158.4648 H   0  0  0  0  0  0  0  0  0  0  0  0
  150.6807  144.7355  159.2369 H   0  0  0  0  0  0  0  0  0  0  0  0
  150.5066  143.3022  156.0698 H   0  0  0  0  0  0  0  0  0  0  0  0
  151.1270  138.5445  154.8877 H   0  0  0  0  0  0  0  0  0  0  0  0
  152.9500  137.4300  156.5082 H   0  0  0  0  0  0  0  0  0  0  0  0
  153.2159  138.2723  158.0143 H   0  0  0  0  0  0  0  0  0  0  0  0
  151.2237  136.1896  157.3919 H   0  0  0  0  0  0  0  0  0  0  0  0
  152.7219  137.0164  159.3711 H   0  0  0  0  0  0  0  0  0  0  0  0
  150.1367  138.7419  158.6824 H   0  0  0  0  0  0  0  0  0  0  0  0
  149.5779  138.0190  157.1869 H   0  0  0  0  0  0  0  0  0  0  0  0
  148.8183  135.1996  157.7813 H   0  0  0  0  0  0  0  0  0  0  0  0
  146.2183  134.0450  162.0025 H   0  0  0  0  0  0  0  0  0  0  0  0
  147.1486  134.4741  163.4445 H   0  0  0  0  0  0  0  0  0  0  0  0
  147.9740  134.2439  161.8996 H   0  0  0  0  0  0  0  0  0  0  0  0
  152.8176  140.2734  159.2877 H   0  0  0  0  0  0  0  0  0  0  0  0
  153.1260  142.0262  160.8288 H   0  0  0  0  0  0  0  0  0  0  0  0
  151.8256  143.2143  160.8480 H   0  0  0  0  0  0  0  0  0  0  0  0
  153.3800  143.6098  160.0980 H   0  0  0  0  0  0  0  0  0  0  0  0
  1  2  1  0  0  0  0
  1 24  1  0  0  0  0
  1 25  1  0  0  0  0
  1 26  1  0  0  0  0
  2 22  1  0  0  0  0
  2  3  2  0  0  0  0
  3  4  1  0  0  0  0
  3 27  1  0  0  0  0
  4 20  2  0  0  0  0
  4  5  1  0  0  0  0
  5  6  2  0  0  0  0
  6  7  1  0  0  0  0
  6 28  1  0  0  0  0
  7  8  1  0  0  0  0
  7 20  1  0  0  0  0
  8  9  1  0  0  0  0
  8 29  1  0  0  0  0
  8 30  1  0  0  0  0
  9 10  1  0  0  0  0
  9 11  1  0  0  0  0
  9 31  1  0  0  0  0
 10 32  1  0  0  0  0
 11 12  1  0  0  0  0
 11 33  1  0  0  0  0
 11 34  1  0  0  0  0
 12 19  1  0  0  0  0
 12 13  1  0  0  0  0
 13 14  2  0  0  0  0
 13 35  1  0  0  0  0
 14 15  1  0  0  0  0
 15 16  1  0  0  0  0
 15 19  2  0  0  0  0
 16 17  1  0  0  0  0
 16 18  2  0  0  0  0
 17 36  1  0  0  0  0
 17 37  1  0  0  0  0
 17 38  1  0  0  0  0
 20 21  1  0  0  0  0
 21 22  2  0  0  0  0
 21 39  1  0  0  0  0
 22 23  1  0  0  0  0
 23 40  1  0  0  0  0
 23 41  1  0  0  0  0
 23 42  1  0  0  0  0
M  END
> <s_m_source_file>
AV-unprocessed.smi

> <i_m_source_file_index>
2845

> <i_lp_mmshare_version>
43012

> <i_f3d_flags>
0

> <s_epik_input>
W0NIM11jKFtjSF0xKWMoW0NIM10pW2NIXWMoYzEyKW4oW2NIXW4yKVtDSDJdW0NASF0oW09IXSlbQ0gyXW4zW2NIXW5jKG4zKVtTQF0oPU8pW0NIM10=

> <s_epik_cmdline>
J2VwaWtfcHl0aG9uJywgJy1waCcsICc3LjAnLCAnLXRuJywgJzgnLCAnLW1hJywgJzIwMCcsICctbWV0YWxfYmluZGluZycsICctaW1hZScsICc8aW5maWxlLm1hZT4nLCAnLW9tYWUnLCAnPG91dGZpbGUubWFlPic=

> <r_lp_tautomer_probability>
1

> <r_epik_Ionization_Penalty>
0.0968684

> <r_epik_Ionization_Penalty_Charging>
0

> <r_epik_Ionization_Penalty_Neutral>
0.0968684

> <r_epik_State_Penalty>
0.0870047

> <r_epik_Charging_Adjusted_Penalty>
0.0870047

> <i_epik_Tot_Q>
0

> <i_epik_Tot_abs_Q>
0

> <r_epik_Metal_State_Penalty>
0.0746849

> <b_epik_Metal_Only>
0

> <s_lp_Force_Field>
OPLS_2005

> <r_lp_Energy>
8.02323

> <b_lp_Chiralities_Consistent>
1

> <s_lp_Variant>
AV-unprocessed.smi:2845-2

> <Gold.Version>
5.8.1

> <Gold.Id.Protein>
6NUR|6NUR_protein|mol2

> <Gold.PLP.Fitness>
52.4983

> <Gold.PLP.PLP>
-46.4964

> <Gold.PLP.part.hbond>
-5.0000

> <Gold.PLP.part.metal>
0.0000

> <Gold.PLP.part.buried>
-6.3955

> <Gold.PLP.part.nonpolar>
-35.3212

> <Gold.PLP.part.repulsive>
0.0685

> <Gold.PLP.ligand.clash>
0.0000

> <Gold.PLP.ligand.torsion>
1.5391

> <Gold.PLP.Chemscore.Hbond>
2.6788

> <Gold.PLP.Chemscore.CHOScore>
0.0000

> <Gold.PLP.Chemscore.Metal>
0.0000

> <Gold.Chemscore.Hbonds>
donor molecule, donor type, donor heavy atom, donor atom, acceptor molecule, acceptor atom, score
      P1  H  6896  6907       L1    10  1.00
      P1  H  6931  6943       L1    18  0.67
      P1  H  6934  6947       L1    19  0.19
      P1  H  7989  7998       L1     5  0.94

> <Gold.PLP.Chemscore.Internal.Correction>
1.0438

> <Gold.Rescore>
     Score         DG    S(hbond)    S(metal)    S(lipo)     H(rot)  DE(clash)    DE(int)     intcor
     15.90     -17.45       2.37        0.00      94.07       2.71       0.02       1.53       ----

> <Gold.Chemscore.Fitness>
15.9048

> <Gold.Chemscore.DG>
-17.4542

> <Gold.Chemscore.ZeroCoef>
-5.4800

> <Gold.Chemscore.Hbond>
2.3676

> <Gold.Chemscore.Metal>
0.0000

> <Gold.Chemscore.Lipo>
94.0694

> <Gold.Chemscore.Internal_Hbond>
0.0000

> <Gold.Chemscore.DEClash>
0.0154

> <Gold.Chemscore.DEInternal>
1.5339

> <Gold.Chemscore.Rot>
2.7108

> <Gold.Chemscore.Internal.Correction>
   9.000000E+99

> <Gold.Chemscore.Hbonds>
donor molecule, donor type, donor heavy atom, donor atom, acceptor molecule, acceptor atom, score
      P1  H  6896  6907       L1    10  0.85
      P1  H  6931  6943       L1    18  0.43
      P1  H  6934  6947       L1    19  0.03
      P1  H  7989  7998       L1     5  0.26

> <Gold.Chemscore.Hbond.Weighted>
-7.9077

> <Gold.Chemscore.Metal.Weighted>
-0.0000

> <Gold.Chemscore.Lipo.Weighted>
-11.0061

> <Gold.Chemscore.Internal_Hbond.Weighted>
0.0000

> <Gold.Chemscore.DEClash.Weighted>
0.0154

> <Gold.Chemscore.DEInternal.Weighted>
1.5339

> <Gold.Chemscore.Rot.Weighted>
6.9396

> <Gold.Chemscore.Internal.Correction.Weighted>
   9.000000E+99

> <Gold.Protein.RotatedTorsions>
[ 6907 6896 6895 6894 ] final    1.61 input  -60.11 | X-H torsion
[ 7974 7965 7964 7962 ] final  -84.68 input  175.53 | X-H torsion
[ 8008 7997 7996 7995 ] final  -11.36 input   59.86 | X-H torsion
[ 10167 10162 10161 10158 ] final -155.99 input  -65.29 | X-H torsion
[ 10718 10713 10712 10709 ] final  118.64 input   66.30 | X-H torsion
[ 10763 10752 10751 10750 ] final -154.39 input  -60.55 | X-H torsion
[ 11005 11000 10999 10996 ] final  174.90 input  -57.11 | X-H torsion

> <Gold.Protein.ActiveResidues>
 VAL166  LYS551  ARG553  GLY616  TRP617  ASP618  TYR619  PRO620  LYS621  CYS622 
 ASP623  PHE694  ASN695  SER759  ASP760  ASP761  ALA762  ILE779  LEU786  VAL792 
 PHE793  MET794  SER795  GLU796  ALA797  LYS798  CYS799  TRP800  GLU811  SER814 

> <Gold.Protein.RotatedAtoms>
  151.5955  135.1051  160.0048 H   0  0  0  0  0  0  0  0  0  0  0  0  # atno 6907 bound_to 6896
  152.4284  133.7231  159.6555 H   0  0  0  0  0  0  0  0  0  0  0  0  # atno 6908 bound_to 6896
  150.8175  133.8240  159.3176 H   0  0  0  0  0  0  0  0  0  0  0  0  # atno 6909 bound_to 6896
  145.5034  140.9545  143.1747 H   0  0  0  0  0  0  0  0  0  0  0  0  # atno 7974 bound_to 7965
  154.5472  140.2304  155.8544 H   0  0  0  0  0  0  0  0  0  0  0  0  # atno 8008 bound_to 7997
  156.1914  140.3076  155.9301 H   0  0  0  0  0  0  0  0  0  0  0  0  # atno 8009 bound_to 7997
  155.3141  140.0437  157.3027 H   0  0  0  0  0  0  0  0  0  0  0  0  # atno 8010 bound_to 7997
  139.6886  143.9459  152.2374 H   0  0  0  0  0  0  0  0  0  0  0  0  # atno 10167 bound_to 10162
  157.6016  131.1050  150.7784 H   0  0  0  0  0  0  0  0  0  0  0  0  # atno 10718 bound_to 10713
  154.7862  135.3191  154.7881 H   0  0  0  0  0  0  0  0  0  0  0  0  # atno 10763 bound_to 10752
  153.8581  135.6856  153.4790 H   0  0  0  0  0  0  0  0  0  0  0  0  # atno 10764 bound_to 10752
  153.1514  135.4698  154.9581 H   0  0  0  0  0  0  0  0  0  0  0  0  # atno 10765 bound_to 10752
  140.3563  134.7151  157.4301 H   0  0  0  0  0  0  0  0  0  0  0  0  # atno 11005 bound_to 11000
  144.7767  139.6614  143.7172 LP  0  0  0  0  0  0  0  0  0  0  0  0  # atno 17320 bound_to 7965
  146.2212  139.5638  142.9617 LP  0  0  0  0  0  0  0  0  0  0  0  0  # atno 17321 bound_to 7965
  139.9269  144.6765  150.8403 LP  0  0  0  0  0  0  0  0  0  0  0  0  # atno 17342 bound_to 10162
  140.7675  143.3336  151.2357 LP  0  0  0  0  0  0  0  0  0  0  0  0  # atno 17343 bound_to 10162
  156.8182  130.4975  149.5346 LP  0  0  0  0  0  0  0  0  0  0  0  0  # atno 17370 bound_to 10713
  156.1091  130.6027  151.0019 LP  0  0  0  0  0  0  0  0  0  0  0  0  # atno 17371 bound_to 10713
  140.0662  134.5926  155.8692 LP  0  0  0  0  0  0  0  0  0  0  0  0  # atno 17394 bound_to 11000
  141.1997  133.6608  156.5859 LP  0  0  0  0  0  0  0  0  0  0  0  0  # atno 17395 bound_to 11000

$$$$
