AV-unprocessed.smi:2568|AV-procd|sdf|10088|dock7
  -GOLD-   2272014113D 1   1.00000     0.00000
 Structure written by MMmdl.
 25 26  0  0  0  0  0  0  0  0  2 V2000
  146.8064  139.6668  153.0206 C   0  0  0  0  0  0  0  0  0  0  0  0
  146.4833  138.2415  152.7240 C   0  0  0  0  0  0  0  0  0  0  0  0
  146.4516  137.3084  153.6771 N   0  0  0  0  0  0  0  0  0  0  0  0
  146.1389  136.1169  153.1250 N   0  0  0  0  0  0  0  0  0  0  0  0
  145.9833  136.4369  151.8409 C   0  0  0  0  0  0  0  0  0  0  0  0
  145.6663  135.3847  150.8243 C   0  0  2  0  0  0  0  0  0  0  0  0
  144.1813  135.3991  150.4153 C   0  0  0  0  0  0  0  0  0  0  0  0
  143.9066  134.2852  149.4873 N   0  3  0  0  0  0  0  0  0  0  0  0
  144.3157  132.9886  150.0632 C   0  0  0  0  0  0  0  0  0  0  0  0
  145.7895  133.0434  150.5044 C   0  0  0  0  0  0  0  0  0  0  0  0
  145.9827  134.1241  151.4115 O   0  0  0  0  0  0  0  0  0  0  0  0
  146.2040  137.7497  151.5218 N   0  0  0  0  0  0  0  0  0  0  0  0
  146.6340  137.4300  154.6633 H   0  0  0  0  0  0  0  0  0  0  0  0
  146.7592  140.2665  152.1110 H   0  0  0  0  0  0  0  0  0  0  0  0
  147.8107  139.7439  153.4376 H   0  0  0  0  0  0  0  0  0  0  0  0
  146.0945  140.0703  153.7411 H   0  0  0  0  0  0  0  0  0  0  0  0
  146.3002  135.5418  149.9490 H   0  0  0  0  0  0  0  0  0  0  0  0
  143.5420  135.2972  151.2935 H   0  0  0  0  0  0  0  0  0  0  0  0
  143.9216  136.3430  149.9349 H   0  0  0  0  0  0  0  0  0  0  0  0
  142.9198  134.2619  149.2723 H   0  0  0  0  0  0  0  0  0  0  0  0
  143.6756  132.7578  150.9158 H   0  0  0  0  0  0  0  0  0  0  0  0
  144.1648  132.2009  149.3250 H   0  0  0  0  0  0  0  0  0  0  0  0
  146.0684  132.1127  150.9984 H   0  0  0  0  0  0  0  0  0  0  0  0
  146.4500  133.1562  149.6433 H   0  0  0  0  0  0  0  0  0  0  0  0
  144.4259  134.4394  148.6344 H   0  0  0  0  0  0  0  0  0  0  0  0
  1 14  1  0  0  0  0
  1 15  1  0  0  0  0
  1 16  1  0  0  0  0
  1  2  1  0  0  0  0
  2 12  2  0  0  0  0
  2  3  1  0  0  0  0
  3  4  1  0  0  0  0
  3 13  1  0  0  0  0
  4  5  2  0  0  0  0
  5 12  1  0  0  0  0
  5  6  1  0  0  0  0
  6 11  1  0  0  0  0
  6  7  1  0  0  0  0
  6 17  1  0  0  0  0
  7  8  1  0  0  0  0
  7 18  1  0  0  0  0
  7 19  1  0  0  0  0
  8  9  1  0  0  0  0
  8 20  1  0  0  0  0
  8 25  1  0  0  0  0
  9 10  1  0  0  0  0
  9 21  1  0  0  0  0
  9 22  1  0  0  0  0
 10 11  1  0  0  0  0
 10 23  1  0  0  0  0
 10 24  1  0  0  0  0
M  CHG  1   8   1
M  END
> <s_m_source_file>
AV-unprocessed.smi

> <i_m_source_file_index>
2568

> <i_lp_mmshare_version>
43012

> <i_f3d_flags>
0

> <s_epik_input>
W0NIM11jMW5bbkhdYyhuMSlbQ0BASF0yW0NIMl1bTkhdW0NIMl1bQ0gyXU8y

> <s_epik_cmdline>
J2VwaWtfcHl0aG9uJywgJy1waCcsICc3LjAnLCAnLXRuJywgJzgnLCAnLW1hJywgJzIwMCcsICctbWV0YWxfYmluZGluZycsICctaW1hZScsICc8aW5maWxlLm1hZT4nLCAnLW9tYWUnLCAnPG91dGZpbGUubWFlPic=

> <r_lp_tautomer_probability>
0.948284

> <r_epik_Ionization_Penalty>
0.107151

> <r_epik_Ionization_Penalty_Charging>
0.100865

> <r_epik_Ionization_Penalty_Neutral>
0.00628602

> <r_epik_State_Penalty>
0.200426

> <r_epik_Charging_Adjusted_Penalty>
0.30129

> <i_epik_Tot_Q>
1

> <i_epik_Tot_abs_Q>
1

> <r_epik_Metal_State_Penalty>
0.501686

> <b_epik_Metal_Only>
0

> <s_lp_Force_Field>
OPLS_2005

> <r_lp_Energy>
11.0041

> <b_lp_Chiralities_Consistent>
1

> <s_lp_Variant>
AV-unprocessed.smi:2568-1

> <Gold.Version>
5.8.1

> <Gold.Id.Protein>
6NUR|6NUR_protein|mol2

> <Gold.PLP.Fitness>
25.9919

> <Gold.PLP.PLP>
-18.0200

> <Gold.PLP.part.hbond>
-2.1854

> <Gold.PLP.part.metal>
0.0000

> <Gold.PLP.part.buried>
-2.0206

> <Gold.PLP.part.nonpolar>
-15.9765

> <Gold.PLP.part.repulsive>
1.7743

> <Gold.PLP.ligand.clash>
0.0000

> <Gold.PLP.ligand.torsion>
0.5212

> <Gold.PLP.Chemscore.Hbond>
3.0000

> <Gold.PLP.Chemscore.CHOScore>
0.0000

> <Gold.PLP.Chemscore.Metal>
0.0000

> <Gold.Chemscore.Hbonds>
donor molecule, donor type, donor heavy atom, donor atom, acceptor molecule, acceptor atom, score
      L1  H     8    20       P1 10186  2.00
      L1  H     8    25       P1  7921  1.00

> <Gold.PLP.Chemscore.Internal.Correction>
0.0143

> <Gold.Rescore>
     Score         DG    S(hbond)    S(metal)    S(lipo)     H(rot)  DE(clash)    DE(int)     intcor
     12.90     -13.56       1.90        0.00      36.72       1.00       0.14       0.52       ----

> <Gold.Chemscore.Fitness>
12.9015

> <Gold.Chemscore.DG>
-13.5631

> <Gold.Chemscore.ZeroCoef>
-5.4800

> <Gold.Chemscore.Hbond>
1.9001

> <Gold.Chemscore.Metal>
0.0000

> <Gold.Chemscore.Lipo>
36.7244

> <Gold.Chemscore.Internal_Hbond>
0.0000

> <Gold.Chemscore.DEClash>
0.1405

> <Gold.Chemscore.DEInternal>
0.5212

> <Gold.Chemscore.Rot>
1.0000

> <Gold.Chemscore.Internal.Correction>
   9.000000E+99

> <Gold.Chemscore.Hbonds>
donor molecule, donor type, donor heavy atom, donor atom, acceptor molecule, acceptor atom, score
      L1  H     8    20       P1 10186  0.99
      L1  H     8    25       P1  7921  0.92

> <Gold.Chemscore.Hbond.Weighted>
-6.3464

> <Gold.Chemscore.Metal.Weighted>
-0.0000

> <Gold.Chemscore.Lipo.Weighted>
-4.2968

> <Gold.Chemscore.Internal_Hbond.Weighted>
0.0000

> <Gold.Chemscore.DEClash.Weighted>
0.1405

> <Gold.Chemscore.DEInternal.Weighted>
0.5212

> <Gold.Chemscore.Rot.Weighted>
2.5600

> <Gold.Chemscore.Internal.Correction.Weighted>
   9.000000E+99

> <Gold.Protein.RotatedTorsions>
[ 6907 6896 6895 6894 ] final  164.02 input  -60.11 | X-H torsion
[ 7974 7965 7964 7962 ] final   -9.29 input  175.53 | X-H torsion
[ 8008 7997 7996 7995 ] final  -57.12 input   59.86 | X-H torsion
[ 10167 10162 10161 10158 ] final -170.49 input  -65.29 | X-H torsion
[ 10718 10713 10712 10709 ] final    9.07 input   66.30 | X-H torsion
[ 10763 10752 10751 10750 ] final  125.56 input  -60.55 | X-H torsion
[ 11005 11000 10999 10996 ] final   81.56 input  -57.11 | X-H torsion

> <Gold.Protein.ActiveResidues>
 VAL166  LYS551  ARG553  GLY616  TRP617  ASP618  TYR619  PRO620  LYS621  CYS622 
 ASP623  PHE694  ASN695  SER759  ASP760  ASP761  ALA762  ILE779  LEU786  VAL792 
 PHE793  MET794  SER795  GLU796  ALA797  LYS798  CYS799  TRP800  GLU811  SER814 

> <Gold.Protein.RotatedAtoms>
  151.9163  133.3574  159.3880 H   0  0  0  0  0  0  0  0  0  0  0  0  # atno 6907 bound_to 6896
  150.7047  134.4681  159.5421 H   0  0  0  0  0  0  0  0  0  0  0  0  # atno 6908 bound_to 6896
  152.2296  134.8335  160.0526 H   0  0  0  0  0  0  0  0  0  0  0  0  # atno 6909 bound_to 6896
  146.2256  140.2595  142.8351 H   0  0  0  0  0  0  0  0  0  0  0  0  # atno 7974 bound_to 7965
  154.4256  140.1114  156.5746 H   0  0  0  0  0  0  0  0  0  0  0  0  # atno 8008 bound_to 7997
  155.6176  140.3495  155.4623 H   0  0  0  0  0  0  0  0  0  0  0  0  # atno 8009 bound_to 7997
  156.0050  140.1207  157.0500 H   0  0  0  0  0  0  0  0  0  0  0  0  # atno 8010 bound_to 7997
  139.5858  144.1321  152.1574 H   0  0  0  0  0  0  0  0  0  0  0  0  # atno 10167 bound_to 10162
  156.9609  130.5932  149.5662 H   0  0  0  0  0  0  0  0  0  0  0  0  # atno 10718 bound_to 10713
  153.6793  135.3317  155.3174 H   0  0  0  0  0  0  0  0  0  0  0  0  # atno 10763 bound_to 10752
  154.8470  135.4405  154.1624 H   0  0  0  0  0  0  0  0  0  0  0  0  # atno 10764 bound_to 10752
  153.2635  135.6993  153.7630 H   0  0  0  0  0  0  0  0  0  0  0  0  # atno 10765 bound_to 10752
  139.9094  134.8006  156.2058 H   0  0  0  0  0  0  0  0  0  0  0  0  # atno 11005 bound_to 11000
  144.9350  140.8017  143.5665 LP  0  0  0  0  0  0  0  0  0  0  0  0  # atno 17320 bound_to 7965
  145.2542  139.2019  143.4926 LP  0  0  0  0  0  0  0  0  0  0  0  0  # atno 17321 bound_to 7965
  140.0884  144.5641  150.7072 LP  0  0  0  0  0  0  0  0  0  0  0  0  # atno 17342 bound_to 10162
  140.7130  143.2521  151.4522 LP  0  0  0  0  0  0  0  0  0  0  0  0  # atno 17343 bound_to 10162
  156.0323  130.5413  150.8565 LP  0  0  0  0  0  0  0  0  0  0  0  0  # atno 17370 bound_to 10713
  157.5658  131.0946  150.9491 LP  0  0  0  0  0  0  0  0  0  0  0  0  # atno 17371 bound_to 10713
  141.0496  133.6895  156.1747 LP  0  0  0  0  0  0  0  0  0  0  0  0  # atno 17394 bound_to 11000
  140.6831  134.4746  157.5589 LP  0  0  0  0  0  0  0  0  0  0  0  0  # atno 17395 bound_to 11000

$$$$
