AV-unprocessed.smi:2106|AV-procd|sdf|8598|dock1
  -GOLD-   2272011333D 1   1.00000     0.00000
 Structure written by MMmdl.
 48 49  0  0  0  0  0  0  0  0  2 V2000
  154.5539  140.1808  159.9629 C   0  0  0  0  0  0  0  0  0  0  0  0
  153.6456  141.3532  159.7377 C   0  0  0  0  0  0  0  0  0  0  0  0
  153.4414  142.4834  160.5774 C   0  0  0  0  0  0  0  0  0  0  0  0
  152.5232  143.2413  159.9071 C   0  0  0  0  0  0  0  0  0  0  0  0
  151.9037  144.5496  160.2740 C   0  0  0  0  0  0  0  0  0  0  0  0
  152.2226  142.5655  158.7375 N   0  0  0  0  0  0  0  0  0  0  0  0
  151.3127  142.9421  157.6676 C   0  0  0  0  0  0  0  0  0  0  0  0
  150.0958  142.0163  157.6293 C   0  0  0  0  0  0  0  0  0  0  0  0
  150.2496  140.7982  157.5410 O   0  0  0  0  0  0  0  0  0  0  0  0
  148.8919  142.6057  157.6983 N   0  0  0  0  0  0  0  0  0  0  0  0
  147.6135  141.9043  157.7078 C   0  0  0  0  0  0  0  0  0  0  0  0
  146.4503  142.8407  158.0915 C   0  0  0  0  0  0  0  0  0  0  0  0
  146.6199  143.4417  159.4381 N   0  3  1  0  0  0  0  0  0  0  0  0
  145.3703  144.0634  159.9352 C   0  0  0  0  0  0  0  0  0  0  0  0
  145.6110  144.7634  161.2851 C   0  0  1  0  0  0  0  0  0  0  0  0
  144.3159  145.3306  161.8768 C   0  0  0  0  0  0  0  0  0  0  0  0
  146.1423  143.8269  162.2187 O   0  0  0  0  0  0  0  0  0  0  0  0
  147.3547  143.1947  161.8101 C   0  0  2  0  0  0  0  0  0  0  0  0
  148.5549  144.1582  161.8421 C   0  0  0  0  0  0  0  0  0  0  0  0
  147.1603  142.4987  160.4486 C   0  0  0  0  0  0  0  0  0  0  0  0
  152.9134  141.4082  158.6371 N   0  0  0  0  0  0  0  0  0  0  0  0
  155.0654  140.2583  160.9224 H   0  0  0  0  0  0  0  0  0  0  0  0
  155.3154  140.1190  159.1852 H   0  0  0  0  0  0  0  0  0  0  0  0
  153.9955  139.2442  159.9602 H   0  0  0  0  0  0  0  0  0  0  0  0
  153.9012  142.7051  161.5292 H   0  0  0  0  0  0  0  0  0  0  0  0
  152.3048  144.9186  161.2179 H   0  0  0  0  0  0  0  0  0  0  0  0
  150.8238  144.4508  160.3849 H   0  0  0  0  0  0  0  0  0  0  0  0
  152.1003  145.3023  159.5105 H   0  0  0  0  0  0  0  0  0  0  0  0
  150.9974  143.9776  157.8077 H   0  0  0  0  0  0  0  0  0  0  0  0
  151.8414  142.9007  156.7148 H   0  0  0  0  0  0  0  0  0  0  0  0
  148.8635  143.6125  157.7767 H   0  0  0  0  0  0  0  0  0  0  0  0
  147.4571  141.4503  156.7291 H   0  0  0  0  0  0  0  0  0  0  0  0
  147.6835  141.0852  158.4240 H   0  0  0  0  0  0  0  0  0  0  0  0
  146.4003  143.6394  157.3499 H   0  0  0  0  0  0  0  0  0  0  0  0
  145.4934  142.3184  158.0467 H   0  0  0  0  0  0  0  0  0  0  0  0
  145.0061  144.7907  159.2085 H   0  0  0  0  0  0  0  0  0  0  0  0
  144.5988  143.2979  160.0364 H   0  0  0  0  0  0  0  0  0  0  0  0
  146.3107  145.5887  161.1510 H   0  0  0  0  0  0  0  0  0  0  0  0
  143.8651  146.0638  161.2074 H   0  0  0  0  0  0  0  0  0  0  0  0
  144.5065  145.8243  162.8301 H   0  0  0  0  0  0  0  0  0  0  0  0
  143.5834  144.5422  162.0521 H   0  0  0  0  0  0  0  0  0  0  0  0
  147.5541  142.4208  162.5521 H   0  0  0  0  0  0  0  0  0  0  0  0
  149.4859  143.6212  161.6587 H   0  0  0  0  0  0  0  0  0  0  0  0
  148.6404  144.6396  162.8166 H   0  0  0  0  0  0  0  0  0  0  0  0
  148.4803  144.9411  161.0878 H   0  0  0  0  0  0  0  0  0  0  0  0
  146.4673  141.6633  160.5612 H   0  0  0  0  0  0  0  0  0  0  0  0
  148.1096  142.0760  160.1216 H   0  0  0  0  0  0  0  0  0  0  0  0
  147.2918  144.1894  159.3397 H   0  0  0  0  0  0  0  0  0  0  0  0
  1  2  1  0  0  0  0
  1 22  1  0  0  0  0
  1 23  1  0  0  0  0
  1 24  1  0  0  0  0
  2 21  2  0  0  0  0
  2  3  1  0  0  0  0
  3  4  2  0  0  0  0
  3 25  1  0  0  0  0
  4  5  1  0  0  0  0
  4  6  1  0  0  0  0
  5 26  1  0  0  0  0
  5 27  1  0  0  0  0
  5 28  1  0  0  0  0
  6  7  1  0  0  0  0
  6 21  1  0  0  0  0
  7  8  1  0  0  0  0
  7 29  1  0  0  0  0
  7 30  1  0  0  0  0
  8  9  2  0  0  0  0
  8 10  1  0  0  0  0
 10 11  1  0  0  0  0
 10 31  1  0  0  0  0
 11 12  1  0  0  0  0
 11 32  1  0  0  0  0
 11 33  1  0  0  0  0
 12 13  1  0  0  0  0
 12 34  1  0  0  0  0
 12 35  1  0  0  0  0
 13 20  1  0  0  0  0
 13 14  1  0  0  0  0
 13 48  1  0  0  0  0
 14 15  1  0  0  0  0
 14 36  1  0  0  0  0
 14 37  1  0  0  0  0
 15 16  1  0  0  0  0
 15 17  1  0  0  0  0
 15 38  1  0  0  0  0
 16 39  1  0  0  0  0
 16 40  1  0  0  0  0
 16 41  1  0  0  0  0
 17 18  1  0  0  0  0
 18 19  1  0  0  0  0
 18 20  1  0  0  0  0
 18 42  1  0  0  0  0
 19 43  1  0  0  0  0
 19 44  1  0  0  0  0
 19 45  1  0  0  0  0
 20 46  1  0  0  0  0
 20 47  1  0  0  0  0
M  CHG  1  13   1
M  END
> <s_m_source_file>
AV-unprocessed.smi

> <i_m_source_file_index>
2106

> <i_lp_mmshare_version>
43012

> <i_f3d_flags>
0

> <s_epik_input>
W0NIM11jMVtjSF1jKFtDSDNdKW4objEpW0NIMl1DKD1PKVtOSF1bQ0gyXVtDSDJdTjJbQ0gyXVtDQEBIXShbQ0gzXSlPW0NAQEhdKFtDSDNdKVtDSDJdMg==

> <s_epik_cmdline>
J2VwaWtfcHl0aG9uJywgJy1waCcsICc3LjAnLCAnLXRuJywgJzgnLCAnLW1hJywgJzIwMCcsICctbWV0YWxfYmluZGluZycsICctaW1hZScsICc8aW5maWxlLm1hZT4nLCAnLW9tYWUnLCAnPG91dGZpbGUubWFlPic=

> <r_lp_tautomer_probability>
1

> <r_epik_Ionization_Penalty>
0.748586

> <r_epik_Ionization_Penalty_Charging>
0.748396

> <r_epik_Ionization_Penalty_Neutral>
0.000189656

> <r_epik_State_Penalty>
0.775162

> <r_epik_Charging_Adjusted_Penalty>
1.52356

> <i_epik_Tot_Q>
1

> <i_epik_Tot_abs_Q>
1

> <r_epik_Metal_State_Penalty>
0.775295

> <b_epik_Metal_Only>
0

> <s_lp_Force_Field>
OPLS_2005

> <r_lp_Energy>
15.4858

> <b_lp_Chiralities_Consistent>
1

> <s_lp_Variant>
AV-unprocessed.smi:2106-6

> <Gold.Version>
5.8.1

> <Gold.Id.Protein>
6NUR|6NUR_protein|mol2

> <Gold.PLP.Fitness>
49.3774

> <Gold.PLP.PLP>
-41.3312

> <Gold.PLP.part.hbond>
-2.0000

> <Gold.PLP.part.metal>
0.0000

> <Gold.PLP.part.buried>
-7.4866

> <Gold.PLP.part.nonpolar>
-31.3610

> <Gold.PLP.part.repulsive>
0.1955

> <Gold.PLP.ligand.clash>
0.0000

> <Gold.PLP.ligand.torsion>
0.3060

> <Gold.PLP.Chemscore.Hbond>
2.8640

> <Gold.PLP.Chemscore.CHOScore>
0.0000

> <Gold.PLP.Chemscore.Metal>
0.0000

> <Gold.Chemscore.Hbonds>
donor molecule, donor type, donor heavy atom, donor atom, acceptor molecule, acceptor atom, score
      L1  H    10    31       P1  8028  0.03

> <Gold.PLP.Chemscore.Internal.Correction>
0.0661

> <Gold.Rescore>
     Score         DG    S(hbond)    S(metal)    S(lipo)     H(rot)  DE(clash)    DE(int)     intcor
     14.50     -16.16       1.24        0.00      93.89       1.73       0.03       1.63       ----

> <Gold.Chemscore.Fitness>
14.4978

> <Gold.Chemscore.DG>
-16.1583

> <Gold.Chemscore.ZeroCoef>
-5.4800

> <Gold.Chemscore.Hbond>
1.2355

> <Gold.Chemscore.Metal>
0.0000

> <Gold.Chemscore.Lipo>
93.8875

> <Gold.Chemscore.Internal_Hbond>
0.0000

> <Gold.Chemscore.DEClash>
0.0299

> <Gold.Chemscore.DEInternal>
1.6307

> <Gold.Chemscore.Rot>
1.7316

> <Gold.Chemscore.Internal.Correction>
   9.000000E+99

> <Gold.Chemscore.Hbond.Weighted>
-4.1265

> <Gold.Chemscore.Metal.Weighted>
-0.0000

> <Gold.Chemscore.Lipo.Weighted>
-10.9848

> <Gold.Chemscore.Internal_Hbond.Weighted>
0.0000

> <Gold.Chemscore.DEClash.Weighted>
0.0299

> <Gold.Chemscore.DEInternal.Weighted>
1.6307

> <Gold.Chemscore.Rot.Weighted>
4.4330

> <Gold.Chemscore.Internal.Correction.Weighted>
   9.000000E+99

> <Gold.Protein.RotatedTorsions>
[ 6907 6896 6895 6894 ] final   14.74 input  -60.11 | X-H torsion
[ 7974 7965 7964 7962 ] final  -49.48 input  175.53 | X-H torsion
[ 8008 7997 7996 7995 ] final   21.84 input   59.86 | X-H torsion
[ 10167 10162 10161 10158 ] final -142.92 input  -65.29 | X-H torsion
[ 10718 10713 10712 10709 ] final  -45.87 input   66.30 | X-H torsion
[ 10763 10752 10751 10750 ] final   52.20 input  -60.55 | X-H torsion
[ 11005 11000 10999 10996 ] final   -0.11 input  -57.11 | X-H torsion

> <Gold.Protein.ActiveResidues>
 VAL166  LYS551  ARG553  GLY616  TRP617  ASP618  TYR619  PRO620  LYS621  CYS622 
 ASP623  PHE694  ASN695  SER759  ASP760  ASP761  ALA762  ILE779  LEU786  VAL792 
 PHE793  MET794  SER795  GLU796  ALA797  LYS798  CYS799  TRP800  GLU811  SER814 

> <Gold.Protein.RotatedAtoms>
  151.8070  135.0692  160.0407 H   0  0  0  0  0  0  0  0  0  0  0  0  # atno 6907 bound_to 6896
  152.3048  133.5687  159.5650 H   0  0  0  0  0  0  0  0  0  0  0  0  # atno 6908 bound_to 6896
  150.7291  134.0155  159.3726 H   0  0  0  0  0  0  0  0  0  0  0  0  # atno 6909 bound_to 6896
  145.9401  140.7670  142.9556 H   0  0  0  0  0  0  0  0  0  0  0  0  # atno 7974 bound_to 7965
  154.9566  140.3072  155.5050 H   0  0  0  0  0  0  0  0  0  0  0  0  # atno 8008 bound_to 7997
  156.2981  140.2309  156.4586 H   0  0  0  0  0  0  0  0  0  0  0  0  # atno 8009 bound_to 7997
  154.8004  140.0434  157.1257 H   0  0  0  0  0  0  0  0  0  0  0  0  # atno 8010 bound_to 7997
  139.8042  143.7791  152.2660 H   0  0  0  0  0  0  0  0  0  0  0  0  # atno 10167 bound_to 10162
  156.2240  130.4168  149.8957 H   0  0  0  0  0  0  0  0  0  0  0  0  # atno 10718 bound_to 10713
  152.9788  135.5820  154.4541 H   0  0  0  0  0  0  0  0  0  0  0  0  # atno 10763 bound_to 10752
  154.4125  135.2770  155.2029 H   0  0  0  0  0  0  0  0  0  0  0  0  # atno 10764 bound_to 10752
  154.3813  135.6146  153.5846 H   0  0  0  0  0  0  0  0  0  0  0  0  # atno 10765 bound_to 10752
  140.6326  133.9561  155.8282 H   0  0  0  0  0  0  0  0  0  0  0  0  # atno 11005 bound_to 11000
  144.6778  140.2266  143.7360 LP  0  0  0  0  0  0  0  0  0  0  0  0  # atno 17320 bound_to 7965
  145.8311  139.2086  143.1882 LP  0  0  0  0  0  0  0  0  0  0  0  0  # atno 17321 bound_to 7965
  139.7920  144.7406  150.9942 LP  0  0  0  0  0  0  0  0  0  0  0  0  # atno 17342 bound_to 10162
  140.7819  143.4432  151.0521 LP  0  0  0  0  0  0  0  0  0  0  0  0  # atno 17343 bound_to 10162
  156.6593  130.8776  151.3545 LP  0  0  0  0  0  0  0  0  0  0  0  0  # atno 17370 bound_to 10713
  157.7101  130.9431  150.1062 LP  0  0  0  0  0  0  0  0  0  0  0  0  # atno 17371 bound_to 10713
  141.0664  134.0270  157.3587 LP  0  0  0  0  0  0  0  0  0  0  0  0  # atno 17394 bound_to 11000
  139.9110  135.0190  156.7691 LP  0  0  0  0  0  0  0  0  0  0  0  0  # atno 17395 bound_to 11000

$$$$
