#       Name:                AV-unprocessed.smi:3208
#       Creating user name   scv26
#       Creation time:       Fri Mar 27 18:09:44 2020


#       File generated by GOLD software.
#

@<TRIPOS>MOLECULE
AV-unprocessed.smi:3208
    37    37     1
SMALL
NO_CHARGES


@<TRIPOS>ATOM
      1 ****        -4.4108   0.4384   2.3277 C.2            1 S1                 0.0000
      2 ****        -3.7449  -0.1373   1.3155 C.2            1 S1                 0.0000
      3 ****        -2.2379  -0.1771   1.1928 C.3            1 S1                 0.0000
      4 ****        -1.7842  -1.5243   1.1406 O.3            1 S1                 0.0000
      5 ****        -0.3688  -1.6963   1.1330 C.3            1 S1                 0.0000
      6 ****        -0.0814  -3.1835   1.3888 C.3            1 S1                 0.0000
      7 ****         0.2216  -1.2315  -0.2084 C.2            1 S1                 0.0000
      8 ****        -0.0007  -1.8804  -1.2312 O.2            1 S1                 0.0000
      9 ****         0.9501  -0.1006  -0.1626 N.am           1 S1                 0.0000
     10 ****         1.6038   0.5780  -1.2278 C.ar           1 S1                 0.0000
     11 ****         1.5929   0.1301  -2.5086 N.ar           1 S1                 0.0000
     12 ****         2.2373   0.8341  -3.4621 C.ar           1 S1                 0.0000
     13 ****         2.9330   2.0275  -3.1993 C.ar           1 S1                 0.0000
     14 ****         2.9539   2.5040  -1.8770 C.ar           1 S1                 0.0000
     15 ****         2.2824   1.7730  -0.8764 C.ar           1 S1                 0.0000
     16 ****         2.2980   2.2316   0.4120 O.3            1 S1                 0.0000
     17 ****        -3.8893   0.9221   3.1406 H              1 S1                 0.0000
     18 ****        -5.4904   0.4322   2.3552 H              1 S1                 0.0000
     19 ****        -4.3003  -0.6112   0.5194 H              1 S1                 0.0000
     20 ****        -1.9586   0.3664   0.2898 H              1 S1                 0.0000
     21 ****        -1.7864   0.3389   2.0416 H              1 S1                 0.0000
     22 ****         0.0695  -1.1200   1.9504 H              1 S1                 0.0000
     23 ****         0.9898  -3.3881   1.3789 H              1 S1                 0.0000
     24 ****        -0.5518  -3.8189   0.6375 H              1 S1                 0.0000
     25 ****        -0.4653  -3.4885   2.3625 H              1 S1                 0.0000
     26 ****         1.0450   0.3335   0.7442 H              1 S1                 0.0000
     27 ****         2.1968   0.4333  -4.4642 H              1 S1                 0.0000
     28 ****         3.4364   2.5623  -3.9912 H              1 S1                 0.0000
     29 ****         3.4774   3.4175  -1.6355 H              1 S1                 0.0000
     30 ****         2.7837   3.0361   0.5129 H              1 S1                 0.0000
     31 ****        -2.1494  -1.9402   0.3078 LP             1 S1                 0.0000
     32 ****        -2.1483  -2.0031   1.9395 LP             1 S1                 0.0000
     33 ****        -0.5633  -2.7061  -1.1871 LP             1 S1                 0.0000
     34 ****         0.3813  -1.5818  -2.1057 LP             1 S1                 0.0000
     35 ****         1.1115  -0.7143  -2.7436 LP             1 S1                 0.0000
     36 ****         2.7148   1.5330   0.9936 LP             1 S1                 0.0000
     37 ****         1.3551   2.3900   0.7050 LP             1 S1                 0.0000
@<TRIPOS>BOND
    1    1    2 2     
    2    1   17 1     
    3    1   18 1     
    4    2    3 1     
    5    2   19 1     
    6    3    4 1     
    7    3   20 1     
    8    3   21 1     
    9    4    5 1     
   10    5    6 1     
   11    5    7 1     
   12    5   22 1     
   13    6   23 1     
   14    6   24 1     
   15    6   25 1     
   16    7    8 2     
   17    7    9 am    
   18    9   10 1     
   19    9   26 1     
   20   10   15 ar    
   21   10   11 ar    
   22   11   12 ar    
   23   12   13 ar    
   24   12   27 1     
   25   13   14 ar    
   26   13   28 1     
   27   14   15 ar    
   28   14   29 1     
   29   15   16 1     
   30   16   30 1     
   31    4   31 1     
   32    4   32 1     
   33    8   33 1     
   34    8   34 1     
   35   11   35 1     
   36   16   36 1     
   37   16   37 1     
@<TRIPOS>SUBSTRUCTURE
      1 S1             1
@<TRIPOS>SET
LONE_PAIRS      STATIC     ATOMS    <user>   **** ""
7 31 32 33 34 35 36 37
DONOR_HYDROGENS      STATIC     ATOMS    <user>   **** ""
2 26 30
ATOM$BLUE        STATIC     ATOMS    COLORGROUP SYSTEM
7 31 32 33 34 35 36 37
ATOM$RED        STATIC     ATOMS    COLORGROUP SYSTEM
2 26 30
