AV-unprocessed.smi:2226|AV-procd|sdf|9014|dock5
  -GOLD-   2272012213D 1   1.00000     0.00000
 Structure written by MMmdl.
 40 42  0  0  0  0  0  0  0  0  2 V2000
  145.8516  143.1445  153.9153 C   0  0  0  0  0  0  0  0  0  0  0  0
  146.0131  141.6730  153.9925 N   0  3  2  0  0  0  0  0  0  0  0  0
  145.8363  141.0965  155.3477 C   0  0  1  0  0  0  0  0  0  0  0  0
  145.5973  139.5738  155.2170 C   0  0  0  0  0  0  0  0  0  0  0  0
  146.6775  138.8413  154.3951 C   0  0  0  0  0  0  0  0  0  0  0  0
  147.0925  139.6287  153.1355 C   0  0  0  0  0  0  0  0  0  0  0  0
  147.2548  141.1485  153.3733 C   0  0  2  0  0  0  0  0  0  0  0  0
  148.5057  141.5475  154.1956 C   0  0  0  0  0  0  0  0  0  0  0  0
  148.4140  141.2294  155.7060 C   0  0  1  0  0  0  0  0  0  0  0  0
  149.3871  142.0491  156.4267 N   0  0  0  0  0  0  0  0  0  0  0  0
  150.3904  141.6078  157.2012 C   0  0  0  0  0  0  0  0  0  0  0  0
  150.5916  140.4031  157.3838 O   0  0  0  0  0  0  0  0  0  0  0  0
  151.0965  142.6874  157.7124 N   0  0  0  0  0  0  0  0  0  0  0  0
  151.7840  142.5597  158.8060 C   0  0  0  0  0  0  0  0  0  0  0  0
  152.0025  141.4921  159.6730 N   0  0  0  0  0  0  0  0  0  0  0  0
  152.8205  141.9215  160.6803 C   0  0  0  0  0  0  0  0  0  0  0  0
  153.1066  143.2012  160.4612 C   0  0  0  0  0  0  0  0  0  0  0  0
  152.4868  143.6192  159.3220 O   0  0  0  0  0  0  0  0  0  0  0  0
  147.0046  141.4926  156.2847 C   0  0  0  0  0  0  0  0  0  0  0  0
  146.6179  143.6756  154.4793 H   0  0  0  0  0  0  0  0  0  0  0  0
  144.8784  143.4412  154.3072 H   0  0  0  0  0  0  0  0  0  0  0  0
  145.9040  143.4787  152.8788 H   0  0  0  0  0  0  0  0  0  0  0  0
  144.9232  141.5168  155.7717 H   0  0  0  0  0  0  0  0  0  0  0  0
  145.5026  139.1164  156.2024 H   0  0  0  0  0  0  0  0  0  0  0  0
  144.6356  139.4217  154.7252 H   0  0  0  0  0  0  0  0  0  0  0  0
  147.5456  138.6280  155.0130 H   0  0  0  0  0  0  0  0  0  0  0  0
  146.3060  137.8589  154.1022 H   0  0  0  0  0  0  0  0  0  0  0  0
  148.0070  139.2084  152.7157 H   0  0  0  0  0  0  0  0  0  0  0  0
  146.3230  139.4838  152.3759 H   0  0  0  0  0  0  0  0  0  0  0  0
  147.3543  141.6062  152.3881 H   0  0  0  0  0  0  0  0  0  0  0  0
  149.3957  141.0785  153.7743 H   0  0  0  0  0  0  0  0  0  0  0  0
  148.6622  142.6197  154.0692 H   0  0  0  0  0  0  0  0  0  0  0  0
  148.6547  140.1799  155.8515 H   0  0  0  0  0  0  0  0  0  0  0  0
  149.2909  143.0496  156.3290 H   0  0  0  0  0  0  0  0  0  0  0  0
  151.6421  140.5505  159.6099 H   0  0  0  0  0  0  0  0  0  0  0  0
  153.1190  141.2461  161.4685 H   0  0  0  0  0  0  0  0  0  0  0  0
  153.7078  143.9205  160.9972 H   0  0  0  0  0  0  0  0  0  0  0  0
  146.9082  142.5556  156.5102 H   0  0  0  0  0  0  0  0  0  0  0  0
  146.9014  140.9876  157.2458 H   0  0  0  0  0  0  0  0  0  0  0  0
  145.2545  141.3025  153.4377 H   0  0  0  0  0  0  0  0  0  0  0  0
  1  2  1  0  0  0  0
  1 20  1  0  0  0  0
  1 21  1  0  0  0  0
  1 22  1  0  0  0  0
  2  7  1  0  0  0  0
  2  3  1  0  0  0  0
  2 40  1  0  0  0  0
  3 19  1  0  0  0  0
  3  4  1  0  0  0  0
  3 23  1  0  0  0  0
  4  5  1  0  0  0  0
  4 24  1  0  0  0  0
  4 25  1  0  0  0  0
  5  6  1  0  0  0  0
  5 26  1  0  0  0  0
  5 27  1  0  0  0  0
  6  7  1  0  0  0  0
  6 28  1  0  0  0  0
  6 29  1  0  0  0  0
  7  8  1  0  0  0  0
  7 30  1  0  0  0  0
  8  9  1  0  0  0  0
  8 31  1  0  0  0  0
  8 32  1  0  0  0  0
  9 10  1  0  0  0  0
  9 19  1  0  0  0  0
  9 33  1  0  0  0  0
 10 34  1  0  0  0  0
 10 11  1  0  0  0  0
 11 13  1  0  0  0  0
 11 12  2  0  0  0  0
 13 14  2  0  0  0  0
 14 18  1  0  0  0  0
 14 15  1  0  0  0  0
 15 35  1  0  0  0  0
 15 16  1  0  0  0  0
 16 36  1  0  0  0  0
 16 17  2  0  0  0  0
 17 37  1  0  0  0  0
 17 18  1  0  0  0  0
 19 38  1  0  0  0  0
 19 39  1  0  0  0  0
M  CHG  1   2   1
M  END
> <s_m_source_file>
AV-unprocessed.smi

> <i_m_source_file_index>
2226

> <i_lp_mmshare_version>
43012

> <i_f3d_flags>
0

> <s_epik_input>
W0NIMl0xW0NIMl1bQ0gyXVtDQEhdKE4oW0NIM10pW0NIXTEyKVtDSDJdW0NASF0oW0NIMl0yKVtOSF1DKD1PKVtOSF1jM25bY0hdW2NIXW8z

> <s_epik_cmdline>
J2VwaWtfcHl0aG9uJywgJy1waCcsICc3LjAnLCAnLXRuJywgJzgnLCAnLW1hJywgJzIwMCcsICctbWV0YWxfYmluZGluZycsICctaW1hZScsICc8aW5maWxlLm1hZT4nLCAnLW9tYWUnLCAnPG91dGZpbGUubWFlPic=

> <r_lp_tautomer_probability>
0.107061

> <r_epik_Ionization_Penalty>
1.08307

> <r_epik_Ionization_Penalty_Charging>
1.08272

> <r_epik_Ionization_Penalty_Neutral>
0.000345913

> <r_epik_State_Penalty>
2.5744

> <r_epik_Charging_Adjusted_Penalty>
3.65713

> <i_epik_Tot_Q>
1

> <i_epik_Tot_abs_Q>
1

> <r_epik_Metal_State_Penalty>
3.72133

> <b_epik_Metal_Only>
0

> <s_lp_Force_Field>
OPLS_2005

> <r_lp_Energy>
58.9785

> <b_lp_Chiralities_Consistent>
1

> <s_lp_Variant>
AV-unprocessed.smi:2226-14

> <Gold.Version>
5.8.1

> <Gold.Id.Protein>
6NUR|6NUR_protein|mol2

> <Gold.PLP.Fitness>
39.9548

> <Gold.PLP.PLP>
-31.2140

> <Gold.PLP.part.hbond>
-2.0000

> <Gold.PLP.part.metal>
0.0000

> <Gold.PLP.part.buried>
-6.1982

> <Gold.PLP.part.nonpolar>
-23.4801

> <Gold.PLP.part.repulsive>
0.3094

> <Gold.PLP.ligand.clash>
0.0000

> <Gold.PLP.ligand.torsion>
0.1325

> <Gold.PLP.Chemscore.Hbond>
3.0000

> <Gold.PLP.Chemscore.CHOScore>
0.0000

> <Gold.PLP.Chemscore.Metal>
0.0000

> <Gold.Chemscore.Hbonds>
donor molecule, donor type, donor heavy atom, donor atom, acceptor molecule, acceptor atom, score
      L1  H     2    40       P1 10175  2.00
      L1  H    10    34       P1  8028  1.00

> <Gold.PLP.Chemscore.Internal.Correction>
0.0058

> <Gold.Rescore>
     Score         DG    S(hbond)    S(metal)    S(lipo)     H(rot)  DE(clash)    DE(int)     intcor
     16.66     -16.93       1.90        0.00      65.36       1.00       0.15       0.12       ----

> <Gold.Chemscore.Fitness>
16.6579

> <Gold.Chemscore.DG>
-16.9295

> <Gold.Chemscore.ZeroCoef>
-5.4800

> <Gold.Chemscore.Hbond>
1.9049

> <Gold.Chemscore.Metal>
0.0000

> <Gold.Chemscore.Lipo>
65.3599

> <Gold.Chemscore.Internal_Hbond>
0.0000

> <Gold.Chemscore.DEClash>
0.1478

> <Gold.Chemscore.DEInternal>
0.1237

> <Gold.Chemscore.Rot>
1.0000

> <Gold.Chemscore.Internal.Correction>
   9.000000E+99

> <Gold.Chemscore.Hbonds>
donor molecule, donor type, donor heavy atom, donor atom, acceptor molecule, acceptor atom, score
      L1  H     2    40       P1 10175  0.25
      L1  H    10    34       P1  8028  1.00

> <Gold.Chemscore.Hbond.Weighted>
-6.3624

> <Gold.Chemscore.Metal.Weighted>
-0.0000

> <Gold.Chemscore.Lipo.Weighted>
-7.6471

> <Gold.Chemscore.Internal_Hbond.Weighted>
0.0000

> <Gold.Chemscore.DEClash.Weighted>
0.1478

> <Gold.Chemscore.DEInternal.Weighted>
0.1237

> <Gold.Chemscore.Rot.Weighted>
2.5600

> <Gold.Chemscore.Internal.Correction.Weighted>
   9.000000E+99

> <Gold.Protein.RotatedTorsions>
[ 6907 6896 6895 6894 ] final  -76.64 input  -60.11 | X-H torsion
[ 7974 7965 7964 7962 ] final -113.84 input  175.53 | X-H torsion
[ 8008 7997 7996 7995 ] final  151.35 input   59.86 | X-H torsion
[ 10167 10162 10161 10158 ] final -173.32 input  -65.29 | X-H torsion
[ 10718 10713 10712 10709 ] final -164.95 input   66.30 | X-H torsion
[ 10763 10752 10751 10750 ] final  137.90 input  -60.55 | X-H torsion
[ 11005 11000 10999 10996 ] final  115.88 input  -57.11 | X-H torsion

> <Gold.Protein.ActiveResidues>
 VAL166  LYS551  ARG553  GLY616  TRP617  ASP618  TYR619  PRO620  LYS621  CYS622 
 ASP623  PHE694  ASN695  SER759  ASP760  ASP761  ALA762  ILE779  LEU786  VAL792 
 PHE793  MET794  SER795  GLU796  ALA797  LYS798  CYS799  TRP800  GLU811  SER814 

> <Gold.Protein.RotatedAtoms>
  150.7021  134.4542  159.5350 H   0  0  0  0  0  0  0  0  0  0  0  0  # atno 6907 bound_to 6896
  152.2229  134.8393  160.0493 H   0  0  0  0  0  0  0  0  0  0  0  0  # atno 6908 bound_to 6896
  151.9237  133.3557  159.3943 H   0  0  0  0  0  0  0  0  0  0  0  0  # atno 6909 bound_to 6896
  145.1272  140.8703  143.3779 H   0  0  0  0  0  0  0  0  0  0  0  0  # atno 7974 bound_to 7965
  156.2677  140.2050  156.6162 H   0  0  0  0  0  0  0  0  0  0  0  0  # atno 8008 bound_to 7997
  154.6792  140.0542  157.0272 H   0  0  0  0  0  0  0  0  0  0  0  0  # atno 8009 bound_to 7997
  155.1025  140.3207  155.4546 H   0  0  0  0  0  0  0  0  0  0  0  0  # atno 8010 bound_to 7997
  139.5695  144.1676  152.1362 H   0  0  0  0  0  0  0  0  0  0  0  0  # atno 10167 bound_to 10162
  156.6464  130.8990  151.3005 H   0  0  0  0  0  0  0  0  0  0  0  0  # atno 10718 bound_to 10713
  153.8808  135.3044  155.3445 H   0  0  0  0  0  0  0  0  0  0  0  0  # atno 10763 bound_to 10752
  154.7762  135.4860  153.9753 H   0  0  0  0  0  0  0  0  0  0  0  0  # atno 10764 bound_to 10752
  153.1353  135.6812  153.9210 H   0  0  0  0  0  0  0  0  0  0  0  0  # atno 10765 bound_to 10752
  139.9023  134.9590  156.7112 H   0  0  0  0  0  0  0  0  0  0  0  0  # atno 11005 bound_to 11000
  145.0675  139.3057  143.5849 LP  0  0  0  0  0  0  0  0  0  0  0  0  # atno 17320 bound_to 7965
  146.3517  140.0138  142.8664 LP  0  0  0  0  0  0  0  0  0  0  0  0  # atno 17321 bound_to 7965
  140.1206  144.5377  150.6865 LP  0  0  0  0  0  0  0  0  0  0  0  0  # atno 17342 bound_to 10162
  140.6979  143.2415  151.4949 LP  0  0  0  0  0  0  0  0  0  0  0  0  # atno 17343 bound_to 10162
  157.7155  130.9491  150.1239 LP  0  0  0  0  0  0  0  0  0  0  0  0  # atno 17370 bound_to 10713
  156.2118  130.3667  149.8661 LP  0  0  0  0  0  0  0  0  0  0  0  0  # atno 17371 bound_to 10713
  140.7074  133.9253  155.8062 LP  0  0  0  0  0  0  0  0  0  0  0  0  # atno 17394 bound_to 11000
  141.0326  134.0735  157.3996 LP  0  0  0  0  0  0  0  0  0  0  0  0  # atno 17395 bound_to 11000

$$$$
