#       Name:                AV-unprocessed.smi:2429
#       Creating user name   scv26
#       Creation time:       Fri Mar 27 13:21:37 2020


#       File generated by GOLD software.
#

@<TRIPOS>MOLECULE
AV-unprocessed.smi:2429
    39    40     1
SMALL
NO_CHARGES


@<TRIPOS>ATOM
      1 ****        -2.4268   1.4415  -1.0459 C.3            1 S1                 0.0000
      2 ****        -1.9132   0.0058  -0.8036 C.3            1 S1                 0.0000
      3 ****        -0.4501   0.0147  -0.6526 N.am           1 S1                 0.0000
      4 ****         0.2916   0.6276   0.2854 C.2            1 S1                 0.0000
      5 ****        -0.1772   1.3017   1.2018 O.2            1 S1                 0.0000
      6 ****         1.5992   0.3850   0.0926 N.am           1 S1                 0.0000
      7 ****         2.7134   0.8501   0.8431 C.ar           1 S1                 0.0000
      8 ****         2.6893   1.9931   1.6787 C.ar           1 S1                 0.0000
      9 ****         3.8700   2.3586   2.3561 C.ar           1 S1                 0.0000
     10 ****         5.0321   1.6805   2.2454 N.ar           1 S1                 0.0000
     11 ****         5.0551   0.6004   1.4364 C.ar           1 S1                 0.0000
     12 ****         3.9316   0.1500   0.7146 C.ar           1 S1                 0.0000
     13 ****         4.0248  -0.9402  -0.0849 F              1 S1                 0.0000
     14 ****        -2.6132  -0.6280   0.4234 C.3            1 S1                 0.0000
     15 ****        -2.2921  -2.1272   0.5592 C.3            1 S1                 0.0000
     16 ****        -2.6702  -2.8112  -0.6296 O.3            1 S1                 0.0000
     17 ****        -1.9622  -2.3602  -1.7783 C.3            1 S1                 0.0000
     18 ****        -2.2552  -0.8687  -2.0294 C.3            1 S1                 0.0000
     19 ****        -3.4984   1.4485  -1.2477 H              1 S1                 0.0000
     20 ****        -1.9307   1.9010  -1.9016 H              1 S1                 0.0000
     21 ****        -2.2627   2.0871  -0.1831 H              1 S1                 0.0000
     22 ****         0.0552  -0.5150  -1.3478 H              1 S1                 0.0000
     23 ****         1.8250  -0.2566  -0.6535 H              1 S1                 0.0000
     24 ****         1.8050   2.5984   1.8044 H              1 S1                 0.0000
     25 ****         3.8825   3.2252   3.0004 H              1 S1                 0.0000
     26 ****         5.9980   0.0793   1.3599 H              1 S1                 0.0000
     27 ****        -2.3547  -0.1068   1.3448 H              1 S1                 0.0000
     28 ****        -3.6934  -0.5176   0.3175 H              1 S1                 0.0000
     29 ****        -1.2332  -2.2883   0.7666 H              1 S1                 0.0000
     30 ****        -2.8454  -2.5516   1.3970 H              1 S1                 0.0000
     31 ****        -0.8933  -2.5382  -1.6522 H              1 S1                 0.0000
     32 ****        -2.2787  -2.9509  -2.6381 H              1 S1                 0.0000
     33 ****        -3.3136  -0.7617  -2.2718 H              1 S1                 0.0000
     34 ****        -1.7079  -0.5259  -2.9086 H              1 S1                 0.0000
     35 ****        -1.1672   1.4193   1.2802 LP             1 S1                 0.0000
     36 ****         0.4317   1.7319   1.8682 LP             1 S1                 0.0000
     37 ****         5.8484   1.9688   2.7460 LP             1 S1                 0.0000
     38 ****        -3.6483  -2.6692  -0.7817 LP             1 S1                 0.0000
     39 ****        -2.4902  -3.7872  -0.5069 LP             1 S1                 0.0000
@<TRIPOS>BOND
    1    1    2 1     
    2    1   19 1     
    3    1   20 1     
    4    1   21 1     
    5    2   18 1     
    6    2    3 1     
    7    2   14 1     
    8    3    4 am    
    9    3   22 1     
   10    4    5 2     
   11    4    6 am    
   12    6    7 1     
   13    6   23 1     
   14    7   12 ar    
   15    7    8 ar    
   16    8    9 ar    
   17    8   24 1     
   18    9   10 ar    
   19    9   25 1     
   20   10   11 ar    
   21   11   12 ar    
   22   11   26 1     
   23   12   13 1     
   24   14   15 1     
   25   14   27 1     
   26   14   28 1     
   27   15   16 1     
   28   15   29 1     
   29   15   30 1     
   30   16   17 1     
   31   17   18 1     
   32   17   31 1     
   33   17   32 1     
   34   18   33 1     
   35   18   34 1     
   36    5   35 1     
   37    5   36 1     
   38   10   37 1     
   39   16   38 1     
   40   16   39 1     
@<TRIPOS>SUBSTRUCTURE
      1 S1             1
@<TRIPOS>SET
LONE_PAIRS      STATIC     ATOMS    <user>   **** ""
5 35 36 37 38 39
DONOR_HYDROGENS      STATIC     ATOMS    <user>   **** ""
2 22 23
ATOM$BLUE        STATIC     ATOMS    COLORGROUP SYSTEM
5 35 36 37 38 39
ATOM$RED        STATIC     ATOMS    COLORGROUP SYSTEM
2 22 23
