AV-unprocessed.smi:414|AV-procd|sdf|2514|dock5
  -GOLD-   2262022463D 1   1.00000     0.00000
 Structure written by MMmdl.
 38 39  0  0  0  0  0  0  0  0  1 V2000
  154.6940  140.6131  162.0656 C   0  0  0  0  0  0  0  0  0  0  0  0
  154.0662  141.0828  160.7457 C   0  0  2  0  0  0  0  0  0  0  0  0
  153.1673  142.3162  160.9563 C   0  0  0  0  0  0  0  0  0  0  0  0
  152.5349  142.7874  159.6367 C   0  0  0  0  0  0  0  0  0  0  0  0
  151.7435  141.6562  158.9556 C   0  0  1  0  0  0  0  0  0  0  0  0
  151.2093  142.1303  157.6827 N   0  0  0  0  0  0  0  0  0  0  0  0
  150.4518  141.4094  156.8416 C   0  0  0  0  0  0  0  0  0  0  0  0
  150.1361  140.2377  157.0542 O   0  0  0  0  0  0  0  0  0  0  0  0
  150.0075  142.1219  155.5561 C   0  0  0  0  0  0  0  0  0  0  0  0
  149.0644  141.3280  154.7548 N   0  0  0  0  0  0  0  0  0  0  0  0
  147.8005  141.8231  154.4666 C   0  0  0  0  0  0  0  0  0  0  0  0
  146.8877  141.1512  153.7256 C   0  0  0  0  0  0  0  0  0  0  0  0
  147.2034  139.8354  153.1800 C   0  0  0  0  0  0  0  0  0  0  0  0
  146.4443  139.1491  152.4994 O   0  0  0  0  0  0  0  0  0  0  0  0
  148.4851  139.3728  153.4898 N   0  0  0  0  0  0  0  0  0  0  0  0
  149.4311  140.0607  154.2515 C   0  0  0  0  0  0  0  0  0  0  0  0
  150.5363  139.5623  154.4622 O   0  0  0  0  0  0  0  0  0  0  0  0
  152.6385  140.4184  158.7445 C   0  0  0  0  0  0  0  0  0  0  0  0
  153.2724  139.9515  160.0649 C   0  0  0  0  0  0  0  0  0  0  0  0
  148.7497  138.4669  153.1308 H   0  0  0  0  0  0  0  0  0  0  0  0
  153.9302  140.3103  162.7826 H   0  0  0  0  0  0  0  0  0  0  0  0
  155.2852  141.4068  162.5237 H   0  0  0  0  0  0  0  0  0  0  0  0
  155.3559  139.7617  161.9045 H   0  0  0  0  0  0  0  0  0  0  0  0
  154.8807  141.3701  160.0789 H   0  0  0  0  0  0  0  0  0  0  0  0
  152.3785  142.0803  161.6722 H   0  0  0  0  0  0  0  0  0  0  0  0
  153.7466  143.1302  161.3936 H   0  0  0  0  0  0  0  0  0  0  0  0
  151.8801  143.6385  159.8283 H   0  0  0  0  0  0  0  0  0  0  0  0
  153.3197  143.1458  158.9687 H   0  0  0  0  0  0  0  0  0  0  0  0
  150.9126  141.3842  159.6099 H   0  0  0  0  0  0  0  0  0  0  0  0
  151.4257  143.0824  157.4255 H   0  0  0  0  0  0  0  0  0  0  0  0
  149.5676  143.0905  155.8029 H   0  0  0  0  0  0  0  0  0  0  0  0
  150.8996  142.3520  154.9717 H   0  0  0  0  0  0  0  0  0  0  0  0
  147.5245  142.7966  154.8463 H   0  0  0  0  0  0  0  0  0  0  0  0
  145.9193  141.5904  153.5344 H   0  0  0  0  0  0  0  0  0  0  0  0
  152.0582  139.6022  158.3122 H   0  0  0  0  0  0  0  0  0  0  0  0
  153.4269  140.6500  158.0269 H   0  0  0  0  0  0  0  0  0  0  0  0
  153.9257  139.0995  159.8739 H   0  0  0  0  0  0  0  0  0  0  0  0
  152.4893  139.5949  160.7354 H   0  0  0  0  0  0  0  0  0  0  0  0
  1  2  1  0  0  0  0
  1 21  1  0  0  0  0
  1 22  1  0  0  0  0
  1 23  1  0  0  0  0
  2 19  1  0  0  0  0
  2  3  1  0  0  0  0
  2 24  1  0  0  0  0
  3  4  1  0  0  0  0
  3 25  1  0  0  0  0
  3 26  1  0  0  0  0
  4  5  1  0  0  0  0
  4 27  1  0  0  0  0
  4 28  1  0  0  0  0
  5  6  1  0  0  0  0
  5 18  1  0  0  0  0
  5 29  1  0  0  0  0
  6  7  1  0  0  0  0
  6 30  1  0  0  0  0
  7  8  2  0  0  0  0
  7  9  1  0  0  0  0
  9 10  1  0  0  0  0
  9 31  1  0  0  0  0
  9 32  1  0  0  0  0
 10 16  1  0  0  0  0
 10 11  1  0  0  0  0
 11 12  2  0  0  0  0
 11 33  1  0  0  0  0
 12 13  1  0  0  0  0
 12 34  1  0  0  0  0
 13 14  2  0  0  0  0
 13 15  1  0  0  0  0
 15 20  1  0  0  0  0
 15 16  1  0  0  0  0
 16 17  2  0  0  0  0
 18 19  1  0  0  0  0
 18 35  1  0  0  0  0
 18 36  1  0  0  0  0
 19 37  1  0  0  0  0
 19 38  1  0  0  0  0
M  END
> <s_m_source_file>
AV-unprocessed.smi

> <i_m_source_file_index>
414

> <i_lp_mmshare_version>
43012

> <i_f3d_flags>
0

> <s_epik_input>
W0NIM11bQ0BASF0xW0NIMl1bQ0gyXVtDQEhdKFtDSDJdW0NIMl0xKVtOSF1DKD1PKVtDSDJdbjJbY0hdW2NIXWMoPU8pW25IXWMyPU8=

> <s_epik_cmdline>
J2VwaWtfcHl0aG9uJywgJy1waCcsICc3LjAnLCAnLXRuJywgJzgnLCAnLW1hJywgJzIwMCcsICctbWV0YWxfYmluZGluZycsICctaW1hZScsICc8aW5maWxlLm1hZT4nLCAnLW9tYWUnLCAnPG91dGZpbGUubWFlPic=

> <r_lp_tautomer_probability>
0.999537

> <r_epik_Ionization_Penalty>
0.00309124

> <r_epik_Ionization_Penalty_Charging>
0.00309122

> <r_epik_Ionization_Penalty_Neutral>
1.90469e-08

> <r_epik_State_Penalty>
0.00217484

> <r_epik_Charging_Adjusted_Penalty>
0.00526606

> <i_epik_Tot_Q>
0

> <i_epik_Tot_abs_Q>
0

> <r_epik_Metal_State_Penalty>
0.362537

> <b_epik_Metal_Only>
0

> <s_lp_Force_Field>
OPLS_2005

> <r_lp_Energy>
8.30971

> <b_lp_Chiralities_Consistent>
1

> <s_lp_Variant>
AV-unprocessed.smi:414-1

> <Gold.Version>
5.8.1

> <Gold.Id.Protein>
6NUR|6NUR_protein|mol2

> <Gold.PLP.Fitness>
43.2104

> <Gold.PLP.PLP>
-37.2997

> <Gold.PLP.part.hbond>
-2.0000

> <Gold.PLP.part.metal>
0.0000

> <Gold.PLP.part.buried>
-0.1874

> <Gold.PLP.part.nonpolar>
-35.5787

> <Gold.PLP.part.repulsive>
0.5779

> <Gold.PLP.ligand.clash>
0.0000

> <Gold.PLP.ligand.torsion>
0.0470

> <Gold.PLP.Chemscore.Hbond>
1.0000

> <Gold.PLP.Chemscore.CHOScore>
1.0000

> <Gold.PLP.Chemscore.Metal>
0.0000

> <Gold.Chemscore.Hbonds>
donor molecule, donor type, donor heavy atom, donor atom, acceptor molecule, acceptor atom, score
      P1  H  7989  7998       L1    17  0.90
      L1  C    11    33       P1  8028  1.00

> <Gold.PLP.Chemscore.Internal.Correction>
0.0047

> <Gold.Rescore>
     Score         DG    S(hbond)    S(metal)    S(lipo)     H(rot)  DE(clash)    DE(int)     intcor
      9.26     -14.26       1.10        0.00      80.55       1.69       0.17       4.83       ----

> <Gold.Chemscore.Fitness>
9.2601

> <Gold.Chemscore.DG>
-14.2565

> <Gold.Chemscore.ZeroCoef>
-5.4800

> <Gold.Chemscore.Hbond>
1.0993

> <Gold.Chemscore.Metal>
0.0000

> <Gold.Chemscore.Lipo>
80.5529

> <Gold.Chemscore.Internal_Hbond>
0.0000

> <Gold.Chemscore.DEClash>
0.1658

> <Gold.Chemscore.DEInternal>
4.8306

> <Gold.Chemscore.Rot>
1.6874

> <Gold.Chemscore.Internal.Correction>
   9.000000E+99

> <Gold.Chemscore.Hbonds>
donor molecule, donor type, donor heavy atom, donor atom, acceptor molecule, acceptor atom, score
      P1  H  7989  7998       L1    17  0.18

> <Gold.Chemscore.Hbond.Weighted>
-3.6717

> <Gold.Chemscore.Metal.Weighted>
-0.0000

> <Gold.Chemscore.Lipo.Weighted>
-9.4247

> <Gold.Chemscore.Internal_Hbond.Weighted>
0.0000

> <Gold.Chemscore.DEClash.Weighted>
0.1658

> <Gold.Chemscore.DEInternal.Weighted>
4.8306

> <Gold.Chemscore.Rot.Weighted>
4.3198

> <Gold.Chemscore.Internal.Correction.Weighted>
   9.000000E+99

> <Gold.Protein.RotatedTorsions>
[ 6907 6896 6895 6894 ] final   32.42 input  -60.11 | X-H torsion
[ 7974 7965 7964 7962 ] final  -36.48 input  175.53 | X-H torsion
[ 8008 7997 7996 7995 ] final -147.79 input   59.86 | X-H torsion
[ 10167 10162 10161 10158 ] final -164.15 input  -65.29 | X-H torsion
[ 10718 10713 10712 10709 ] final  -30.26 input   66.30 | X-H torsion
[ 10763 10752 10751 10750 ] final   10.26 input  -60.55 | X-H torsion
[ 11005 11000 10999 10996 ] final   -5.64 input  -57.11 | X-H torsion

> <Gold.Protein.ActiveResidues>
 VAL166  LYS551  ARG553  GLY616  TRP617  ASP618  TYR619  PRO620  LYS621  CYS622 
 ASP623  PHE694  ASN695  SER759  ASP760  ASP761  ALA762  ILE779  LEU786  VAL792 
 PHE793  MET794  SER795  GLU796  ALA797  LYS798  CYS799  TRP800  GLU811  SER814 

> <Gold.Protein.RotatedAtoms>
  152.0742  134.9513  160.0573 H   0  0  0  0  0  0  0  0  0  0  0  0  # atno 6907 bound_to 6896
  152.0827  133.4156  159.4517 H   0  0  0  0  0  0  0  0  0  0  0  0  # atno 6908 bound_to 6896
  150.6836  134.2883  159.4699 H   0  0  0  0  0  0  0  0  0  0  0  0  # atno 6909 bound_to 6896
  146.0658  140.6284  142.8976 H   0  0  0  0  0  0  0  0  0  0  0  0  # atno 7974 bound_to 7965
  155.5813  140.0643  157.2782 H   0  0  0  0  0  0  0  0  0  0  0  0  # atno 8008 bound_to 7997
  154.4332  140.1851  156.1025 H   0  0  0  0  0  0  0  0  0  0  0  0  # atno 8009 bound_to 7997
  156.0303  140.3307  155.7136 H   0  0  0  0  0  0  0  0  0  0  0  0  # atno 8010 bound_to 7997
  139.6270  144.0512  152.1983 H   0  0  0  0  0  0  0  0  0  0  0  0  # atno 10167 bound_to 10162
  156.4021  130.4392  149.7315 H   0  0  0  0  0  0  0  0  0  0  0  0  # atno 10718 bound_to 10713
  153.2051  135.6861  153.8182 H   0  0  0  0  0  0  0  0  0  0  0  0  # atno 10763 bound_to 10752
  153.7434  135.3234  155.3309 H   0  0  0  0  0  0  0  0  0  0  0  0  # atno 10764 bound_to 10752
  154.8193  135.4664  154.0835 H   0  0  0  0  0  0  0  0  0  0  0  0  # atno 10765 bound_to 10752
  140.6933  133.9052  155.8633 H   0  0  0  0  0  0  0  0  0  0  0  0  # atno 11005 bound_to 11000
  144.7201  140.4345  143.7014 LP  0  0  0  0  0  0  0  0  0  0  0  0  # atno 17320 bound_to 7965
  145.6480  139.1560  143.2878 LP  0  0  0  0  0  0  0  0  0  0  0  0  # atno 17321 bound_to 7965
  140.0168  144.6183  150.7600 LP  0  0  0  0  0  0  0  0  0  0  0  0  # atno 17342 bound_to 10162
  140.7417  143.2822  151.3567 LP  0  0  0  0  0  0  0  0  0  0  0  0  # atno 17343 bound_to 10162
  156.4327  130.7823  151.2843 LP  0  0  0  0  0  0  0  0  0  0  0  0  # atno 17370 bound_to 10713
  157.7504  131.0149  150.3482 LP  0  0  0  0  0  0  0  0  0  0  0  0  # atno 17371 bound_to 10713
  141.0223  134.0871  157.4106 LP  0  0  0  0  0  0  0  0  0  0  0  0  # atno 17394 bound_to 11000
  139.8917  135.0120  156.6806 LP  0  0  0  0  0  0  0  0  0  0  0  0  # atno 17395 bound_to 11000

$$$$
