#       Name:                AV-unprocessed.smi:1803
#       Creating user name   scv26
#       Creation time:       Fri Mar 27 08:54:52 2020


#       File generated by GOLD software.
#

@<TRIPOS>MOLECULE
AV-unprocessed.smi:1803
    40    42     1
SMALL
NO_CHARGES


@<TRIPOS>ATOM
      1 ****        -3.1584  -2.3908   0.4922 O.2            1 S1                 0.0000
      2 ****        -1.9535  -2.5245   0.2840 C.2            1 S1                 0.0000
      3 ****        -1.3253  -3.7287   0.2486 N.pl3          1 S1                -1.0000
      4 ****        -0.0107  -3.8494  -0.0171 C.2            1 S1                 0.0000
      5 ****         0.9246  -3.8409   0.9465 N.2            1 S1                 0.0000
      6 ****         2.2171  -3.9555   0.4533 N.2            1 S1                 0.0000
      7 ****         2.2229  -4.0627  -0.8750 C.2            1 S1                 0.0000
      8 ****         0.6508  -4.0236  -1.6445 S.3            1 S1                 0.0000
      9 ****        -1.2023  -1.4265   0.0821 N.am           1 S1                 0.0000
     10 ****        -1.6660  -0.0434   0.0751 C.3            1 S1                 0.0000
     11 ****        -2.0400   0.4916   1.4749 C.3            1 S1                 0.0000
     12 ****        -1.3742   1.8683   1.5642 C.3            1 S1                 0.0000
     13 ****        -0.1790   1.7154   0.7262 N.4            1 S1                 1.0000
     14 ****         0.5818   2.9291   0.3637 C.3            1 S1                 0.0000
     15 ****         1.8650   2.5035  -0.3821 C.3            1 S1                 0.0000
     16 ****         1.5654   1.5650  -1.5726 C.3            1 S1                 0.0000
     17 ****         0.6719   0.3800  -1.1499 C.3            1 S1                 0.0000
     18 ****        -0.5858   0.9262  -0.4484 C.3            1 S1                 0.0000
     19 ****         3.1585  -4.1643  -1.4046 H              1 S1                 0.0000
     20 ****        -0.2171  -1.5727  -0.0828 H              1 S1                 0.0000
     21 ****        -2.5329   0.0207  -0.5854 H              1 S1                 0.0000
     22 ****        -3.1182   0.5417   1.6286 H              1 S1                 0.0000
     23 ****        -1.6296  -0.1564   2.2512 H              1 S1                 0.0000
     24 ****        -2.0247   2.6359   1.1423 H              1 S1                 0.0000
     25 ****        -1.1235   2.1496   2.5874 H              1 S1                 0.0000
     26 ****        -0.0304   3.5835  -0.2586 H              1 S1                 0.0000
     27 ****         0.8377   3.4856   1.2658 H              1 S1                 0.0000
     28 ****         2.4061   3.3848  -0.7276 H              1 S1                 0.0000
     29 ****         2.5289   1.9905   0.3151 H              1 S1                 0.0000
     30 ****         1.0649   2.1308  -2.3595 H              1 S1                 0.0000
     31 ****         2.4967   1.1969  -2.0037 H              1 S1                 0.0000
     32 ****         0.3954  -0.2114  -2.0235 H              1 S1                 0.0000
     33 ****         1.2267  -0.2808  -0.4820 H              1 S1                 0.0000
     34 ****        -1.0894   1.6057  -1.1397 H              1 S1                 0.0000
     35 ****         0.4480   1.1251   1.2542 H              1 S1                 0.0000
     36 ****        -3.7314  -3.1955   0.6472 LP             1 S1                 0.0000
     37 ****        -3.5650  -1.4773   0.5065 LP             1 S1                 0.0000
     38 ****        -1.8587  -4.5556   0.4264 LP             1 S1                 0.0000
     39 ****         0.7116  -3.7602   1.9203 LP             1 S1                 0.0000
     40 ****         3.0393  -3.9573   1.0225 LP             1 S1                 0.0000
@<TRIPOS>BOND
    1    1    2 2     
    2    2    3 1     
    3    2    9 am    
    4    3    4 1     
    5    4    8 1     
    6    4    5 2     
    7    5    6 1     
    8    6    7 2     
    9    7    8 1     
   10    7   19 1     
   11    9   10 1     
   12    9   20 1     
   13   10   18 1     
   14   10   11 1     
   15   10   21 1     
   16   11   12 1     
   17   11   22 1     
   18   11   23 1     
   19   12   13 1     
   20   12   24 1     
   21   12   25 1     
   22   13   18 1     
   23   13   14 1     
   24   13   35 1     
   25   14   15 1     
   26   14   26 1     
   27   14   27 1     
   28   15   16 1     
   29   15   28 1     
   30   15   29 1     
   31   16   17 1     
   32   16   30 1     
   33   16   31 1     
   34   17   18 1     
   35   17   32 1     
   36   17   33 1     
   37   18   34 1     
   38    1   36 1     
   39    1   37 1     
   40    3   38 1     
   41    5   39 1     
   42    6   40 1     
@<TRIPOS>SUBSTRUCTURE
      1 S1             1
@<TRIPOS>SET
LONE_PAIRS      STATIC     ATOMS    <user>   **** ""
5 36 37 38 39 40
DONOR_HYDROGENS      STATIC     ATOMS    <user>   **** ""
2 20 35
ATOM$BLUE        STATIC     ATOMS    COLORGROUP SYSTEM
5 36 37 38 39 40
ATOM$RED        STATIC     ATOMS    COLORGROUP SYSTEM
2 20 35
