AV-unprocessed.smi:1740|AV-procd|sdf|7013|dock4
  -GOLD-   22720 8223D 1   1.00000     0.00000
 Structure written by MMmdl.
 51 53  0  0  0  0  0  0  0  0  3 V2000
  141.8367  141.5726  154.7398 N   0  5  0  0  0  0  0  0  0  0  0  0
  142.4673  141.7615  155.9162 C   0  0  0  0  0  0  0  0  0  0  0  0
  142.1256  142.4849  156.8488 O   0  0  0  0  0  0  0  0  0  0  0  0
  143.7574  140.9413  156.0257 C   0  0  0  0  0  0  0  0  0  0  0  0
  144.7346  141.3453  154.9821 N   0  3  2  0  0  0  0  0  0  0  0  0
  145.8803  140.4052  154.8907 C   0  0  0  0  0  0  0  0  0  0  0  0
  146.8079  140.7655  153.7160 C   0  0  0  0  0  0  0  0  0  0  0  0
  147.3048  142.2214  153.8012 C   0  0  2  0  0  0  0  0  0  0  0  0
  148.2356  142.4055  154.9138 N   0  0  0  0  0  0  0  0  0  0  0  0
  149.1450  141.5110  155.3256 C   0  0  0  0  0  0  0  0  0  0  0  0
  149.3194  140.4206  154.7829 O   0  0  0  0  0  0  0  0  0  0  0  0
  149.8251  141.9750  156.3871 N   0  0  0  0  0  0  0  0  0  0  0  0
  150.8890  141.3644  157.1123 C   0  0  0  0  0  0  0  0  0  0  0  0
  151.3261  140.0429  156.8459 C   0  0  0  0  0  0  0  0  0  0  0  0
  152.3376  139.4770  157.6410 C   0  0  0  0  0  0  0  0  0  0  0  0
  152.8684  140.2459  158.6894 C   0  0  0  0  0  0  0  0  0  0  0  0
  152.4556  141.4988  158.9647 N   0  0  0  0  0  0  0  0  0  0  0  0
  151.4920  142.0641  158.1970 C   0  0  0  0  0  0  0  0  0  0  0  0
  151.1091  143.3858  158.5211 N   0  0  0  0  0  0  0  0  0  0  0  0
  152.1710  144.3620  158.7478 C   0  0  0  0  0  0  0  0  0  0  0  0
  151.6854  145.2776  159.8767 C   0  0  0  0  0  0  0  0  0  0  0  0
  150.1708  145.0957  159.8639 C   0  0  0  0  0  0  0  0  0  0  0  0
  150.0227  143.6308  159.4639 C   0  0  0  0  0  0  0  0  0  0  0  0
  146.1001  143.1663  153.9470 C   0  0  0  0  0  0  0  0  0  0  0  0
  145.1848  142.7572  155.1157 C   0  0  0  0  0  0  0  0  0  0  0  0
  142.2354  141.9989  153.8944 H   0  0  0  0  0  0  0  0  0  0  0  0
  144.1971  141.0463  157.0188 H   0  0  0  0  0  0  0  0  0  0  0  0
  143.4938  139.8881  155.9127 H   0  0  0  0  0  0  0  0  0  0  0  0
  146.4349  140.4131  155.8303 H   0  0  0  0  0  0  0  0  0  0  0  0
  145.5098  139.3891  154.7516 H   0  0  0  0  0  0  0  0  0  0  0  0
  147.6504  140.0739  153.6784 H   0  0  0  0  0  0  0  0  0  0  0  0
  146.2646  140.6282  152.7801 H   0  0  0  0  0  0  0  0  0  0  0  0
  147.8240  142.4738  152.8747 H   0  0  0  0  0  0  0  0  0  0  0  0
  148.1756  143.2795  155.4154 H   0  0  0  0  0  0  0  0  0  0  0  0
  149.6103  142.9208  156.6674 H   0  0  0  0  0  0  0  0  0  0  0  0
  150.8917  139.4409  156.0636 H   0  0  0  0  0  0  0  0  0  0  0  0
  152.6883  138.4721  157.4589 H   0  0  0  0  0  0  0  0  0  0  0  0
  153.6404  139.8430  159.3281 H   0  0  0  0  0  0  0  0  0  0  0  0
  153.1197  143.8864  159.0007 H   0  0  0  0  0  0  0  0  0  0  0  0
  152.3161  144.9424  157.8364 H   0  0  0  0  0  0  0  0  0  0  0  0
  152.0868  144.9290  160.8292 H   0  0  0  0  0  0  0  0  0  0  0  0
  151.9918  146.3152  159.7431 H   0  0  0  0  0  0  0  0  0  0  0  0
  149.7034  145.3239  160.8221 H   0  0  0  0  0  0  0  0  0  0  0  0
  149.7239  145.7383  159.1039 H   0  0  0  0  0  0  0  0  0  0  0  0
  149.0512  143.4306  159.0110 H   0  0  0  0  0  0  0  0  0  0  0  0
  150.1247  143.0022  160.3495 H   0  0  0  0  0  0  0  0  0  0  0  0
  146.4392  144.1946  154.0782 H   0  0  0  0  0  0  0  0  0  0  0  0
  145.5214  143.1545  153.0221 H   0  0  0  0  0  0  0  0  0  0  0  0
  144.3236  143.4254  155.1391 H   0  0  0  0  0  0  0  0  0  0  0  0
  145.7045  142.8854  156.0664 H   0  0  0  0  0  0  0  0  0  0  0  0
  144.2343  141.2746  154.1065 H   0  0  0  0  0  0  0  0  0  0  0  0
  1  2  1  0  0  0  0
  1 26  1  0  0  0  0
  2  3  2  0  0  0  0
  2  4  1  0  0  0  0
  4  5  1  0  0  0  0
  4 27  1  0  0  0  0
  4 28  1  0  0  0  0
  5 25  1  0  0  0  0
  5  6  1  0  0  0  0
  5 51  1  0  0  0  0
  6  7  1  0  0  0  0
  6 29  1  0  0  0  0
  6 30  1  0  0  0  0
  7  8  1  0  0  0  0
  7 31  1  0  0  0  0
  7 32  1  0  0  0  0
  8  9  1  0  0  0  0
  8 24  1  0  0  0  0
  8 33  1  0  0  0  0
  9 10  1  0  0  0  0
  9 34  1  0  0  0  0
 10 11  2  0  0  0  0
 10 12  1  0  0  0  0
 12 13  1  0  0  0  0
 12 35  1  0  0  0  0
 13 18  1  0  0  0  0
 13 14  2  0  0  0  0
 14 15  1  0  0  0  0
 14 36  1  0  0  0  0
 15 16  2  0  0  0  0
 15 37  1  0  0  0  0
 16 17  1  0  0  0  0
 16 38  1  0  0  0  0
 17 18  2  0  0  0  0
 18 19  1  0  0  0  0
 19 23  1  0  0  0  0
 19 20  1  0  0  0  0
 20 21  1  0  0  0  0
 20 39  1  0  0  0  0
 20 40  1  0  0  0  0
 21 22  1  0  0  0  0
 21 41  1  0  0  0  0
 21 42  1  0  0  0  0
 22 23  1  0  0  0  0
 22 43  1  0  0  0  0
 22 44  1  0  0  0  0
 23 45  1  0  0  0  0
 23 46  1  0  0  0  0
 24 25  1  0  0  0  0
 24 47  1  0  0  0  0
 24 48  1  0  0  0  0
 25 49  1  0  0  0  0
 25 50  1  0  0  0  0
M  CHG  1   1  -1
M  CHG  1   5   1
M  END
> <s_m_source_file>
AV-unprocessed.smi

> <i_m_source_file_index>
1740

> <i_lp_mmshare_version>
43012

> <i_f3d_flags>
0

> <s_epik_input>
W05IMl1DKD1PKVtDSDJdTjFbQ0gyXVtDSDJdW0NIXShbQ0gyXVtDSDJdMSlbTkhdQyg9TylbTkhdYzJbY0hdW2NIXVtjSF1uYzJOM1tDSDJdW0NIMl1bQ0gyXVtDSDJdMw==

> <s_epik_cmdline>
J2VwaWtfcHl0aG9uJywgJy1waCcsICc3LjAnLCAnLXRuJywgJzgnLCAnLW1hJywgJzIwMCcsICctbWV0YWxfYmluZGluZycsICctaW1hZScsICc8aW5maWxlLm1hZT4nLCAnLW9tYWUnLCAnPG91dGZpbGUubWFlPic=

> <r_lp_tautomer_probability>
1

> <r_epik_Ionization_Penalty>
5.80652

> <r_epik_Ionization_Penalty_Charging>
5.7288

> <r_epik_Ionization_Penalty_Neutral>
0.0777157

> <r_epik_State_Penalty>
6.60246

> <r_epik_Charging_Adjusted_Penalty>
12.3313

> <i_epik_Tot_Q>
0

> <i_epik_Tot_abs_Q>
2

> <r_epik_Metal_State_Penalty>
2.64988

> <b_epik_Metal_Only>
1

> <s_lp_Force_Field>
OPLS_2005

> <r_lp_Energy>
35.9305

> <b_lp_Chiralities_Consistent>
1

> <s_lp_Variant>
AV-unprocessed.smi:1740-8

> <Gold.Version>
5.8.1

> <Gold.Id.Protein>
6NUR|6NUR_protein|mol2

> <Gold.PLP.Fitness>
55.9629

> <Gold.PLP.PLP>
-43.7341

> <Gold.PLP.part.hbond>
-4.9252

> <Gold.PLP.part.metal>
0.0000

> <Gold.PLP.part.buried>
-8.0878

> <Gold.PLP.part.nonpolar>
-31.8391

> <Gold.PLP.part.repulsive>
0.4770

> <Gold.PLP.ligand.clash>
0.0000

> <Gold.PLP.ligand.torsion>
0.8797

> <Gold.PLP.Chemscore.Hbond>
4.5476

> <Gold.PLP.Chemscore.CHOScore>
0.0000

> <Gold.PLP.Chemscore.Metal>
0.0000

> <Gold.Chemscore.Hbonds>
donor molecule, donor type, donor heavy atom, donor atom, acceptor molecule, acceptor atom, score
      L1  H     1    26       P1 10174  1.00
      L1  H     5    51       P1 10175  2.00
      L1  H     9    34       P1  8028  0.91
      L1  H    12    35       P1  8028  0.44

> <Gold.PLP.Chemscore.Internal.Correction>
0.3455

> <Gold.Rescore>
     Score         DG    S(hbond)    S(metal)    S(lipo)     H(rot)  DE(clash)    DE(int)     intcor
     17.51     -21.17       2.99        0.00      96.01       2.16       0.20       3.45       ----

> <Gold.Chemscore.Fitness>
17.5145

> <Gold.Chemscore.DG>
-21.1684

> <Gold.Chemscore.ZeroCoef>
-5.4800

> <Gold.Chemscore.Hbond>
2.9867

> <Gold.Chemscore.Metal>
0.0000

> <Gold.Chemscore.Lipo>
96.0051

> <Gold.Chemscore.Internal_Hbond>
0.0000

> <Gold.Chemscore.DEClash>
0.2025

> <Gold.Chemscore.DEInternal>
3.4515

> <Gold.Chemscore.Rot>
2.1562

> <Gold.Chemscore.Internal.Correction>
   9.000000E+99

> <Gold.Chemscore.Hbonds>
donor molecule, donor type, donor heavy atom, donor atom, acceptor molecule, acceptor atom, score
      L1  H     1    26       P1 10174  0.30
      L1  H     5    51       P1 10175  0.50
      L1  H     9    34       P1  8028  0.77
      L1  H    12    35       P1  8028  0.43

> <Gold.Chemscore.Hbond.Weighted>
-9.9756

> <Gold.Chemscore.Metal.Weighted>
-0.0000

> <Gold.Chemscore.Lipo.Weighted>
-11.2326

> <Gold.Chemscore.Internal_Hbond.Weighted>
0.0000

> <Gold.Chemscore.DEClash.Weighted>
0.2025

> <Gold.Chemscore.DEInternal.Weighted>
3.4515

> <Gold.Chemscore.Rot.Weighted>
5.5198

> <Gold.Chemscore.Internal.Correction.Weighted>
   9.000000E+99

> <Gold.Protein.RotatedTorsions>
[ 6907 6896 6895 6894 ] final  -36.24 input  -60.11 | X-H torsion
[ 7974 7965 7964 7962 ] final   74.92 input  175.53 | X-H torsion
[ 8008 7997 7996 7995 ] final   73.42 input   59.86 | X-H torsion
[ 10167 10162 10161 10158 ] final  104.50 input  -65.29 | X-H torsion
[ 10718 10713 10712 10709 ] final  168.26 input   66.30 | X-H torsion
[ 10763 10752 10751 10750 ] final   41.35 input  -60.55 | X-H torsion
[ 11005 11000 10999 10996 ] final -141.95 input  -57.11 | X-H torsion

> <Gold.Protein.ActiveResidues>
 VAL166  LYS551  ARG553  GLY616  TRP617  ASP618  TYR619  PRO620  LYS621  CYS622 
 ASP623  PHE694  ASN695  SER759  ASP760  ASP761  ALA762  ILE779  LEU786  VAL792 
 PHE793  MET794  SER795  GLU796  ALA797  LYS798  CYS799  TRP800  GLU811  SER814 

> <Gold.Protein.RotatedAtoms>
  151.0297  134.9530  159.8103 H   0  0  0  0  0  0  0  0  0  0  0  0  # atno 6907 bound_to 6896
  152.5343  134.2796  159.9012 H   0  0  0  0  0  0  0  0  0  0  0  0  # atno 6908 bound_to 6896
  151.2805  133.4169  159.2660 H   0  0  0  0  0  0  0  0  0  0  0  0  # atno 6909 bound_to 6896
  145.7221  139.2652  143.1590 H   0  0  0  0  0  0  0  0  0  0  0  0  # atno 7974 bound_to 7965
  155.7834  140.3481  155.5310 H   0  0  0  0  0  0  0  0  0  0  0  0  # atno 8008 bound_to 7997
  155.8706  140.0986  157.1573 H   0  0  0  0  0  0  0  0  0  0  0  0  # atno 8009 bound_to 7997
  154.4017  140.1341  156.4060 H   0  0  0  0  0  0  0  0  0  0  0  0  # atno 8010 bound_to 7997
  139.7172  144.7066  151.0931 H   0  0  0  0  0  0  0  0  0  0  0  0  # atno 10167 bound_to 10162
  157.0396  131.0283  151.2718 H   0  0  0  0  0  0  0  0  0  0  0  0  # atno 10718 bound_to 10713
  152.9911  135.6164  154.2773 H   0  0  0  0  0  0  0  0  0  0  0  0  # atno 10763 bound_to 10752
  154.2503  135.2785  155.2821 H   0  0  0  0  0  0  0  0  0  0  0  0  # atno 10764 bound_to 10752
  154.5293  135.5792  153.6803 H   0  0  0  0  0  0  0  0  0  0  0  0  # atno 10765 bound_to 10752
  140.8273  134.2559  157.4873 H   0  0  0  0  0  0  0  0  0  0  0  0  # atno 11005 bound_to 11000
  146.0616  140.7965  142.9732 LP  0  0  0  0  0  0  0  0  0  0  0  0  # atno 17320 bound_to 7965
  144.6914  140.3205  143.7233 LP  0  0  0  0  0  0  0  0  0  0  0  0  # atno 17321 bound_to 7965
  140.7746  143.5214  150.9532 LP  0  0  0  0  0  0  0  0  0  0  0  0  # atno 17342 bound_to 10162
  139.8900  143.6965  152.3146 LP  0  0  0  0  0  0  0  0  0  0  0  0  # atno 17343 bound_to 10162
  157.5115  130.7941  149.7710 LP  0  0  0  0  0  0  0  0  0  0  0  0  # atno 17370 bound_to 10713
  156.0042  130.3864  150.2491 LP  0  0  0  0  0  0  0  0  0  0  0  0  # atno 17371 bound_to 10713
  139.8706  134.9567  156.4247 LP  0  0  0  0  0  0  0  0  0  0  0  0  # atno 17394 bound_to 11000
  140.9035  133.7762  155.9708 LP  0  0  0  0  0  0  0  0  0  0  0  0  # atno 17395 bound_to 11000

$$$$
