AV-unprocessed.smi:2532|AV-procd|sdf|9970|dock4
  -GOLD-   2272014 13D 1   1.00000     0.00000
 Structure written by MMmdl.
 37 39  0  0  0  0  0  0  0  0  2 V2000
  153.2526  139.1400  157.2150 O   0  0  0  0  0  0  0  0  0  0  0  0
  152.7983  139.1741  158.5534 C   0  0  2  0  0  0  0  0  0  0  0  0
  153.0346  137.7906  159.1787 C   0  0  0  0  0  0  0  0  0  0  0  0
  153.5679  137.9600  160.4812 O   0  0  0  0  0  0  0  0  0  0  0  0
  153.4244  136.8023  161.2887 C   0  0  0  0  0  0  0  0  0  0  0  0
  154.0105  137.0970  162.6340 C   0  0  0  0  0  0  0  0  0  0  0  0
  154.7850  138.1782  162.9708 C   0  0  0  0  0  0  0  0  0  0  0  0
  155.1807  138.1853  164.3408 C   0  0  0  0  0  0  0  0  0  0  0  0
  154.6983  137.1104  165.0384 C   0  0  0  0  0  0  0  0  0  0  0  0
  153.7430  136.0661  164.0227 S   0  0  0  0  0  0  0  0  0  0  0  0
  151.3077  139.5670  158.5760 C   0  0  0  0  0  0  0  0  0  0  0  0
  151.0755  140.9573  158.1577 N   0  0  0  0  0  0  0  0  0  0  0  0
  150.3645  141.4367  157.1011 C   0  0  0  0  0  0  0  0  0  0  0  0
  150.4464  142.7957  157.1316 N   0  3  0  0  0  0  0  0  0  0  0  0
  151.2196  143.1919  158.2247 C   0  0  0  0  0  0  0  0  0  0  0  0
  151.5838  144.4588  158.6706 C   0  0  0  0  0  0  0  0  0  0  0  0
  152.3841  144.5158  159.8305 C   0  0  0  0  0  0  0  0  0  0  0  0
  152.7902  143.3436  160.5007 C   0  0  0  0  0  0  0  0  0  0  0  0
  152.4161  142.0645  160.0389 C   0  0  0  0  0  0  0  0  0  0  0  0
  151.6265  142.0158  158.8903 C   0  0  0  0  0  0  0  0  0  0  0  0
  152.5108  139.2808  156.6460 H   0  0  0  0  0  0  0  0  0  0  0  0
  153.3698  139.9248  159.1009 H   0  0  0  0  0  0  0  0  0  0  0  0
  152.0855  137.2591  159.2648 H   0  0  0  0  0  0  0  0  0  0  0  0
  153.6908  137.1814  158.5544 H   0  0  0  0  0  0  0  0  0  0  0  0
  152.3708  136.5372  161.3874 H   0  0  0  0  0  0  0  0  0  0  0  0
  153.9422  135.9558  160.8357 H   0  0  0  0  0  0  0  0  0  0  0  0
  155.0797  138.9588  162.2851 H   0  0  0  0  0  0  0  0  0  0  0  0
  155.7950  138.9681  164.7607 H   0  0  0  0  0  0  0  0  0  0  0  0
  154.8422  136.8705  166.0817 H   0  0  0  0  0  0  0  0  0  0  0  0
  150.7105  138.8973  157.9567 H   0  0  0  0  0  0  0  0  0  0  0  0
  150.9164  139.4727  159.5897 H   0  0  0  0  0  0  0  0  0  0  0  0
  149.8321  140.8458  156.3698 H   0  0  0  0  0  0  0  0  0  0  0  0
  151.2720  145.3585  158.1605 H   0  0  0  0  0  0  0  0  0  0  0  0
  152.6910  145.4777  160.2147 H   0  0  0  0  0  0  0  0  0  0  0  0
  153.4001  143.4267  161.3887 H   0  0  0  0  0  0  0  0  0  0  0  0
  152.7278  141.1741  160.5644 H   0  0  0  0  0  0  0  0  0  0  0  0
  150.0051  143.4054  156.4552 H   0  0  0  0  0  0  0  0  0  0  0  0
  1  2  1  0  0  0  0
  1 21  1  0  0  0  0
  2  3  1  0  0  0  0
  2 11  1  0  0  0  0
  2 22  1  0  0  0  0
  3  4  1  0  0  0  0
  3 23  1  0  0  0  0
  3 24  1  0  0  0  0
  4  5  1  0  0  0  0
  5  6  1  0  0  0  0
  5 25  1  0  0  0  0
  5 26  1  0  0  0  0
  6 10  1  0  0  0  0
  6  7  2  0  0  0  0
  7  8  1  0  0  0  0
  7 27  1  0  0  0  0
  8  9  2  0  0  0  0
  8 28  1  0  0  0  0
  9 10  1  0  0  0  0
  9 29  1  0  0  0  0
 11 12  1  0  0  0  0
 11 30  1  0  0  0  0
 11 31  1  0  0  0  0
 12 20  1  0  0  0  0
 12 13  1  0  0  0  0
 13 14  2  0  0  0  0
 13 32  1  0  0  0  0
 14 15  1  0  0  0  0
 14 37  1  0  0  0  0
 15 20  2  0  0  0  0
 15 16  1  0  0  0  0
 16 17  2  0  0  0  0
 16 33  1  0  0  0  0
 17 18  1  0  0  0  0
 17 34  1  0  0  0  0
 18 19  2  0  0  0  0
 18 35  1  0  0  0  0
 19 20  1  0  0  0  0
 19 36  1  0  0  0  0
M  CHG  1  14   1
M  END
> <s_m_source_file>
AV-unprocessed.smi

> <i_m_source_file_index>
2532

> <i_lp_mmshare_version>
43012

> <i_f3d_flags>
0

> <s_epik_input>
W2NIXTFbY0hdW2NIXVtjSF1jKGMxMiluKFtjSF1uMilbQ0gyXVtDQEhdKFtPSF0pW0NIMl1PW0NIMl1jM1tjSF1bY0hdW2NIXXMz

> <s_epik_cmdline>
J2VwaWtfcHl0aG9uJywgJy1waCcsICc3LjAnLCAnLXRuJywgJzgnLCAnLW1hJywgJzIwMCcsICctbWV0YWxfYmluZGluZycsICctaW1hZScsICc8aW5maWxlLm1hZT4nLCAnLW9tYWUnLCAnPG91dGZpbGUubWFlPic=

> <r_epik_Ionization_Penalty>
1.31758

> <r_epik_Ionization_Penalty_Charging>
1.31758

> <r_epik_Ionization_Penalty_Neutral>
1.26231e-06

> <r_epik_State_Penalty>
1.39289

> <r_epik_Charging_Adjusted_Penalty>
2.71047

> <i_epik_Tot_Q>
1

> <i_epik_Tot_abs_Q>
1

> <r_epik_Metal_State_Penalty>
5.42637

> <b_epik_Metal_Only>
0

> <s_lp_Force_Field>
OPLS_2005

> <r_lp_Energy>
15.3098

> <b_lp_Chiralities_Consistent>
1

> <s_lp_Variant>
AV-unprocessed.smi:2532-3

> <Gold.Version>
5.8.1

> <Gold.Id.Protein>
6NUR|6NUR_protein|mol2

> <Gold.PLP.Fitness>
54.0280

> <Gold.PLP.PLP>
-46.7413

> <Gold.PLP.part.hbond>
-2.0000

> <Gold.PLP.part.metal>
0.0000

> <Gold.PLP.part.buried>
-6.1368

> <Gold.PLP.part.nonpolar>
-39.3252

> <Gold.PLP.part.repulsive>
0.0340

> <Gold.PLP.ligand.clash>
0.0000

> <Gold.PLP.ligand.torsion>
0.8782

> <Gold.PLP.Chemscore.Hbond>
2.9840

> <Gold.PLP.Chemscore.CHOScore>
0.0000

> <Gold.PLP.Chemscore.Metal>
0.0000

> <Gold.Chemscore.Hbonds>
donor molecule, donor type, donor heavy atom, donor atom, acceptor molecule, acceptor atom, score
      L1  H    14    37       P1  8028  2.00
      P1  H  7997  8009       L1     1  1.00

> <Gold.PLP.Chemscore.Internal.Correction>
0.0912

> <Gold.Rescore>
     Score         DG    S(hbond)    S(metal)    S(lipo)     H(rot)  DE(clash)    DE(int)     intcor
     19.13     -20.07       1.84        0.00     125.95       2.46       0.14       0.81       ----

> <Gold.Chemscore.Fitness>
19.1261

> <Gold.Chemscore.DG>
-20.0748

> <Gold.Chemscore.ZeroCoef>
-5.4800

> <Gold.Chemscore.Hbond>
1.8439

> <Gold.Chemscore.Metal>
0.0000

> <Gold.Chemscore.Lipo>
125.9476

> <Gold.Chemscore.Internal_Hbond>
0.0000

> <Gold.Chemscore.DEClash>
0.1374

> <Gold.Chemscore.DEInternal>
0.8113

> <Gold.Chemscore.Rot>
2.4608

> <Gold.Chemscore.Internal.Correction>
   9.000000E+99

> <Gold.Chemscore.Hbonds>
donor molecule, donor type, donor heavy atom, donor atom, acceptor molecule, acceptor atom, score
      L1  H    14    37       P1  8028  1.00
      P1  H  7997  8009       L1     1  0.79

> <Gold.Chemscore.Hbond.Weighted>
-6.1586

> <Gold.Chemscore.Metal.Weighted>
-0.0000

> <Gold.Chemscore.Lipo.Weighted>
-14.7359

> <Gold.Chemscore.Internal_Hbond.Weighted>
0.0000

> <Gold.Chemscore.DEClash.Weighted>
0.1374

> <Gold.Chemscore.DEInternal.Weighted>
0.8113

> <Gold.Chemscore.Rot.Weighted>
6.2996

> <Gold.Chemscore.Internal.Correction.Weighted>
   9.000000E+99

> <Gold.Protein.RotatedTorsions>
[ 6907 6896 6895 6894 ] final -107.30 input  -60.11 | X-H torsion
[ 7974 7965 7964 7962 ] final   45.85 input  175.53 | X-H torsion
[ 8008 7997 7996 7995 ] final  155.94 input   59.86 | X-H torsion
[ 10167 10162 10161 10158 ] final   -8.12 input  -65.29 | X-H torsion
[ 10718 10713 10712 10709 ] final  -48.06 input   66.30 | X-H torsion
[ 10763 10752 10751 10750 ] final -110.85 input  -60.55 | X-H torsion
[ 11005 11000 10999 10996 ] final    5.87 input  -57.11 | X-H torsion

> <Gold.Protein.ActiveResidues>
 VAL166  LYS551  ARG553  GLY616  TRP617  ASP618  TYR619  PRO620  LYS621  CYS622 
 ASP623  PHE694  ASN695  SER759  ASP760  ASP761  ALA762  ILE779  LEU786  VAL792 
 PHE793  MET794  SER795  GLU796  ALA797  LYS798  CYS799  TRP800  GLU811  SER814 

> <Gold.Protein.RotatedAtoms>
  150.7436  133.9847  159.3587 H   0  0  0  0  0  0  0  0  0  0  0  0  # atno 6907 bound_to 6896
  151.7790  135.0764  160.0380 H   0  0  0  0  0  0  0  0  0  0  0  0  # atno 6908 bound_to 6896
  152.3287  133.5897  159.5830 H   0  0  0  0  0  0  0  0  0  0  0  0  # atno 6909 bound_to 6896
  146.0443  139.4919  142.9758 H   0  0  0  0  0  0  0  0  0  0  0  0  # atno 7974 bound_to 7965
  156.2450  140.1926  156.6879 H   0  0  0  0  0  0  0  0  0  0  0  0  # atno 8008 bound_to 7997
  154.6273  140.0600  156.9715 H   0  0  0  0  0  0  0  0  0  0  0  0  # atno 8009 bound_to 7997
  155.1766  140.3273  155.4385 H   0  0  0  0  0  0  0  0  0  0  0  0  # atno 8010 bound_to 7997
  140.7050  143.6004  150.8804 H   0  0  0  0  0  0  0  0  0  0  0  0  # atno 10167 bound_to 10162
  156.2024  130.4157  149.9223 H   0  0  0  0  0  0  0  0  0  0  0  0  # atno 10718 bound_to 10713
  154.8270  135.4549  154.0949 H   0  0  0  0  0  0  0  0  0  0  0  0  # atno 10763 bound_to 10752
  153.2255  135.6899  153.7957 H   0  0  0  0  0  0  0  0  0  0  0  0  # atno 10764 bound_to 10752
  153.7359  135.3320  155.3271 H   0  0  0  0  0  0  0  0  0  0  0  0  # atno 10765 bound_to 10752
  140.5658  134.0149  155.7989 H   0  0  0  0  0  0  0  0  0  0  0  0  # atno 11005 bound_to 11000
  145.6832  141.0185  143.1595 LP  0  0  0  0  0  0  0  0  0  0  0  0  # atno 17320 bound_to 7965
  144.7090  139.8446  143.7421 LP  0  0  0  0  0  0  0  0  0  0  0  0  # atno 17321 bound_to 7965
  139.9728  143.6037  152.2968 LP  0  0  0  0  0  0  0  0  0  0  0  0  # atno 17342 bound_to 10162
  139.6630  144.7662  151.1926 LP  0  0  0  0  0  0  0  0  0  0  0  0  # atno 17343 bound_to 10162
  156.6928  130.8902  151.3590 LP  0  0  0  0  0  0  0  0  0  0  0  0  # atno 17370 bound_to 10713
  157.6993  130.9316  150.0737 LP  0  0  0  0  0  0  0  0  0  0  0  0  # atno 17371 bound_to 10713
  141.1086  133.9653  157.2951 LP  0  0  0  0  0  0  0  0  0  0  0  0  # atno 17394 bound_to 11000
  139.9385  135.0194  156.8634 LP  0  0  0  0  0  0  0  0  0  0  0  0  # atno 17395 bound_to 11000

$$$$
