AV-unprocessed.smi:3056|AV-procd|sdf|11658|dock1
  -GOLD-   2272017 63D 1   1.00000     0.00000
 Structure written by MMmdl.
 47 48  0  0  0  0  0  0  0  0  1 V2000
  151.7105  143.8098  158.5089 C   0  0  0  0  0  0  0  0  0  0  0  0
  151.4133  142.4932  157.8513 C   0  0  0  0  0  0  0  0  0  0  0  0
  150.9670  142.2612  156.5198 C   0  0  0  0  0  0  0  0  0  0  0  0
  150.8028  140.9770  156.2501 N   0  0  0  0  0  0  0  0  0  0  0  0
  151.1284  140.3401  157.3980 N   0  0  0  0  0  0  0  0  0  0  0  0
  151.0944  138.8814  157.4810 C   0  0  1  0  0  0  0  0  0  0  0  0
  152.0442  138.2172  156.4644 C   0  0  0  0  0  0  0  0  0  0  0  0
  151.2705  138.3404  158.9264 C   0  0  2  0  0  0  0  0  0  0  0  0
  152.7493  138.3053  159.3640 C   0  0  0  0  0  0  0  0  0  0  0  0
  150.6873  137.0051  159.0338 N   0  0  0  0  0  0  0  0  0  0  0  0
  149.2190  137.0152  159.0428 C   0  0  0  0  0  0  0  0  0  0  0  0
  148.6499  135.6227  159.3370 C   0  0  0  0  0  0  0  0  0  0  0  0
  149.0355  134.6871  158.6354 O   0  0  0  0  0  0  0  0  0  0  0  0
  147.7517  135.4581  160.3391 N   0  0  0  0  0  0  0  0  0  0  0  0
  147.1473  134.1924  160.7668 C   0  0  0  0  0  0  0  0  0  0  0  0
  147.6013  133.9020  162.2076 C   0  0  0  0  0  0  0  0  0  0  0  0
  147.2292  134.9855  163.0563 O   0  0  0  0  0  0  0  0  0  0  0  0
  147.7811  136.2375  162.6518 C   0  0  2  0  0  0  0  0  0  0  0  0
  147.3291  137.3063  163.6526 C   0  0  0  0  0  0  0  0  0  0  0  0
  147.3205  136.5517  161.2141 C   0  0  0  0  0  0  0  0  0  0  0  0
  151.5062  141.2361  158.3773 C   0  0  0  0  0  0  0  0  0  0  0  0
  151.9699  144.5769  157.7790 H   0  0  0  0  0  0  0  0  0  0  0  0
  152.5463  143.7342  159.2047 H   0  0  0  0  0  0  0  0  0  0  0  0
  150.8539  144.1783  159.0732 H   0  0  0  0  0  0  0  0  0  0  0  0
  150.7619  142.9845  155.7446 H   0  0  0  0  0  0  0  0  0  0  0  0
  150.0891  138.5933  157.1696 H   0  0  0  0  0  0  0  0  0  0  0  0
  151.9280  137.1333  156.4734 H   0  0  0  0  0  0  0  0  0  0  0  0
  153.0910  138.4375  156.6753 H   0  0  0  0  0  0  0  0  0  0  0  0
  151.8326  138.5610  155.4517 H   0  0  0  0  0  0  0  0  0  0  0  0
  150.7270  139.0159  159.5892 H   0  0  0  0  0  0  0  0  0  0  0  0
  153.2271  139.2696  159.1896 H   0  0  0  0  0  0  0  0  0  0  0  0
  153.3156  137.5522  158.8144 H   0  0  0  0  0  0  0  0  0  0  0  0
  152.8570  138.0876  160.4260 H   0  0  0  0  0  0  0  0  0  0  0  0
  151.0368  136.4393  158.2731 H   0  0  0  0  0  0  0  0  0  0  0  0
  148.8284  137.7257  159.7703 H   0  0  0  0  0  0  0  0  0  0  0  0
  148.8571  137.3443  158.0674 H   0  0  0  0  0  0  0  0  0  0  0  0
  146.0611  134.2835  160.7277 H   0  0  0  0  0  0  0  0  0  0  0  0
  147.3945  133.3451  160.1306 H   0  0  0  0  0  0  0  0  0  0  0  0
  147.1312  132.9895  162.5743 H   0  0  0  0  0  0  0  0  0  0  0  0
  148.6804  133.7461  162.2511 H   0  0  0  0  0  0  0  0  0  0  0  0
  148.8702  136.1710  162.6812 H   0  0  0  0  0  0  0  0  0  0  0  0
  147.7387  138.2832  163.3949 H   0  0  0  0  0  0  0  0  0  0  0  0
  147.6638  137.0619  164.6610 H   0  0  0  0  0  0  0  0  0  0  0  0
  146.2425  137.3933  163.6737 H   0  0  0  0  0  0  0  0  0  0  0  0
  147.7134  137.5209  160.9040 H   0  0  0  0  0  0  0  0  0  0  0  0
  146.2338  136.6398  161.1723 H   0  0  0  0  0  0  0  0  0  0  0  0
  151.8109  140.9070  159.3599 H   0  0  0  0  0  0  0  0  0  0  0  0
  1  2  1  0  0  0  0
  1 22  1  0  0  0  0
  1 23  1  0  0  0  0
  1 24  1  0  0  0  0
  2 21  2  0  0  0  0
  2  3  1  0  0  0  0
  3  4  2  0  0  0  0
  3 25  1  0  0  0  0
  4  5  1  0  0  0  0
  5  6  1  0  0  0  0
  5 21  1  0  0  0  0
  6  7  1  0  0  0  0
  6  8  1  0  0  0  0
  6 26  1  0  0  0  0
  7 27  1  0  0  0  0
  7 28  1  0  0  0  0
  7 29  1  0  0  0  0
  8  9  1  0  0  0  0
  8 10  1  0  0  0  0
  8 30  1  0  0  0  0
  9 31  1  0  0  0  0
  9 32  1  0  0  0  0
  9 33  1  0  0  0  0
 10 11  1  0  0  0  0
 10 34  1  0  0  0  0
 11 12  1  0  0  0  0
 11 35  1  0  0  0  0
 11 36  1  0  0  0  0
 12 13  2  0  0  0  0
 12 14  1  0  0  0  0
 14 20  1  0  0  0  0
 14 15  1  0  0  0  0
 15 16  1  0  0  0  0
 15 37  1  0  0  0  0
 15 38  1  0  0  0  0
 16 17  1  0  0  0  0
 16 39  1  0  0  0  0
 16 40  1  0  0  0  0
 17 18  1  0  0  0  0
 18 19  1  0  0  0  0
 18 20  1  0  0  0  0
 18 41  1  0  0  0  0
 19 42  1  0  0  0  0
 19 43  1  0  0  0  0
 19 44  1  0  0  0  0
 20 45  1  0  0  0  0
 20 46  1  0  0  0  0
 21 47  1  0  0  0  0
M  END
> <s_m_source_file>
AV-unprocessed.smi

> <i_m_source_file_index>
3056

> <i_lp_mmshare_version>
43012

> <i_f3d_flags>
0

> <s_epik_input>
W0NIM11jMVtjSF1ubihbY0hdMSlbQ0BIXShbQ0gzXSlbQ0BIXShbQ0gzXSlbTkhdW0NIMl1DKD1PKU4yW0NIMl1bQ0gyXU9bQ0BASF0oW0NIM10pW0NIMl0y

> <s_epik_cmdline>
J2VwaWtfcHl0aG9uJywgJy1waCcsICc3LjAnLCAnLXRuJywgJzgnLCAnLW1hJywgJzIwMCcsICctbWV0YWxfYmluZGluZycsICctaW1hZScsICc8aW5maWxlLm1hZT4nLCAnLW9tYWUnLCAnPG91dGZpbGUubWFlPic=

> <r_lp_tautomer_probability>
1

> <r_epik_Ionization_Penalty>
0.667689

> <r_epik_Ionization_Penalty_Charging>
0

> <r_epik_Ionization_Penalty_Neutral>
0.667689

> <r_epik_State_Penalty>
0.684601

> <r_epik_Charging_Adjusted_Penalty>
0.684601

> <i_epik_Tot_Q>
0

> <i_epik_Tot_abs_Q>
0

> <r_epik_Metal_State_Penalty>
0.681448

> <b_epik_Metal_Only>
0

> <s_lp_Force_Field>
OPLS_2005

> <r_lp_Energy>
30.4655

> <b_lp_Chiralities_Consistent>
1

> <s_lp_Variant>
AV-unprocessed.smi:3056-14

> <Gold.Version>
5.8.1

> <Gold.Id.Protein>
6NUR|6NUR_protein|mol2

> <Gold.PLP.Fitness>
44.1954

> <Gold.PLP.PLP>
-39.1438

> <Gold.PLP.part.hbond>
-1.6774

> <Gold.PLP.part.metal>
0.0000

> <Gold.PLP.part.buried>
-6.4494

> <Gold.PLP.part.nonpolar>
-31.0035

> <Gold.PLP.part.repulsive>
0.0404

> <Gold.PLP.ligand.clash>
0.0000

> <Gold.PLP.ligand.torsion>
0.5931

> <Gold.PLP.Chemscore.Hbond>
1.0000

> <Gold.PLP.Chemscore.CHOScore>
0.9984

> <Gold.PLP.Chemscore.Metal>
0.0000

> <Gold.Chemscore.Hbonds>
donor molecule, donor type, donor heavy atom, donor atom, acceptor molecule, acceptor atom, score
      P1  H  6896  6907       L1    13  1.00
      L1  C     3    25       P1  8028  0.93

> <Gold.PLP.Chemscore.Internal.Correction>
0.2426

> <Gold.Rescore>
     Score         DG    S(hbond)    S(metal)    S(lipo)     H(rot)  DE(clash)    DE(int)     intcor
     15.13     -16.22       0.94        0.00     101.76       1.68       0.35       0.73       ----

> <Gold.Chemscore.Fitness>
15.1321

> <Gold.Chemscore.DG>
-16.2203

> <Gold.Chemscore.ZeroCoef>
-5.4800

> <Gold.Chemscore.Hbond>
0.9381

> <Gold.Chemscore.Metal>
0.0000

> <Gold.Chemscore.Lipo>
101.7613

> <Gold.Chemscore.Internal_Hbond>
0.0000

> <Gold.Chemscore.DEClash>
0.3544

> <Gold.Chemscore.DEInternal>
0.7337

> <Gold.Chemscore.Rot>
1.6793

> <Gold.Chemscore.Internal.Correction>
   9.000000E+99

> <Gold.Chemscore.Hbonds>
donor molecule, donor type, donor heavy atom, donor atom, acceptor molecule, acceptor atom, score
      P1  H  6896  6907       L1    13  0.67

> <Gold.Chemscore.Hbond.Weighted>
-3.1333

> <Gold.Chemscore.Metal.Weighted>
-0.0000

> <Gold.Chemscore.Lipo.Weighted>
-11.9061

> <Gold.Chemscore.Internal_Hbond.Weighted>
0.0000

> <Gold.Chemscore.DEClash.Weighted>
0.3544

> <Gold.Chemscore.DEInternal.Weighted>
0.7337

> <Gold.Chemscore.Rot.Weighted>
4.2990

> <Gold.Chemscore.Internal.Correction.Weighted>
   9.000000E+99

> <Gold.Protein.RotatedTorsions>
[ 6907 6896 6895 6894 ] final -105.73 input  -60.11 | X-H torsion
[ 7974 7965 7964 7962 ] final   -5.06 input  175.53 | X-H torsion
[ 8008 7997 7996 7995 ] final -163.54 input   59.86 | X-H torsion
[ 10167 10162 10161 10158 ] final -142.67 input  -65.29 | X-H torsion
[ 10718 10713 10712 10709 ] final  -34.39 input   66.30 | X-H torsion
[ 10763 10752 10751 10750 ] final  131.47 input  -60.55 | X-H torsion
[ 11005 11000 10999 10996 ] final   41.61 input  -57.11 | X-H torsion

> <Gold.Protein.ActiveResidues>
 VAL166  LYS551  ARG553  GLY616  TRP617  ASP618  TYR619  PRO620  LYS621  CYS622 
 ASP623  PHE694  ASN695  SER759  ASP760  ASP761  ALA762  ILE779  LEU786  VAL792 
 PHE793  MET794  SER795  GLU796  ALA797  LYS798  CYS799  TRP800  GLU811  SER814 

> <Gold.Protein.RotatedAtoms>
  150.7352  134.0083  159.3660 H   0  0  0  0  0  0  0  0  0  0  0  0  # atno 6907 bound_to 6896
  151.8041  135.0698  160.0413 H   0  0  0  0  0  0  0  0  0  0  0  0  # atno 6908 bound_to 6896
  152.3120  133.5726  159.5723 H   0  0  0  0  0  0  0  0  0  0  0  0  # atno 6909 bound_to 6896
  146.2360  140.1964  142.8333 H   0  0  0  0  0  0  0  0  0  0  0  0  # atno 7974 bound_to 7965
  155.8227  140.0922  157.1839 H   0  0  0  0  0  0  0  0  0  0  0  0  # atno 8008 bound_to 7997
  154.3979  140.1434  156.3580 H   0  0  0  0  0  0  0  0  0  0  0  0  # atno 8009 bound_to 7997
  155.8249  140.3445  155.5539 H   0  0  0  0  0  0  0  0  0  0  0  0  # atno 8010 bound_to 7997
  139.8066  143.7760  152.2661 H   0  0  0  0  0  0  0  0  0  0  0  0  # atno 10167 bound_to 10162
  156.3511  130.4308  149.7703 H   0  0  0  0  0  0  0  0  0  0  0  0  # atno 10718 bound_to 10713
  153.7749  135.3176  155.3357 H   0  0  0  0  0  0  0  0  0  0  0  0  # atno 10763 bound_to 10752
  154.8183  135.4621  154.0708 H   0  0  0  0  0  0  0  0  0  0  0  0  # atno 10764 bound_to 10752
  153.1979  135.6918  153.8354 H   0  0  0  0  0  0  0  0  0  0  0  0  # atno 10765 bound_to 10752
  140.1818  134.4095  155.8196 H   0  0  0  0  0  0  0  0  0  0  0  0  # atno 11005 bound_to 11000
  144.9816  140.8465  143.5393 LP  0  0  0  0  0  0  0  0  0  0  0  0  # atno 17320 bound_to 7965
  145.1959  139.2277  143.5218 LP  0  0  0  0  0  0  0  0  0  0  0  0  # atno 17321 bound_to 7965
  139.7896  144.7415  150.9973 LP  0  0  0  0  0  0  0  0  0  0  0  0  # atno 17342 bound_to 10162
  140.7819  143.4456  151.0488 LP  0  0  0  0  0  0  0  0  0  0  0  0  # atno 17343 bound_to 10162
  156.4903  130.8082  151.3092 LP  0  0  0  0  0  0  0  0  0  0  0  0  # atno 17370 bound_to 10713
  157.7461  130.9977  150.2827 LP  0  0  0  0  0  0  0  0  0  0  0  0  # atno 17371 bound_to 10713
  141.2223  133.7004  156.7943 LP  0  0  0  0  0  0  0  0  0  0  0  0  # atno 17394 bound_to 11000
  140.2259  134.8722  157.3426 LP  0  0  0  0  0  0  0  0  0  0  0  0  # atno 17395 bound_to 11000

$$$$
