AV-unprocessed.smi:1750|AV-procd|sdf|7055|dock4
  -GOLD-   22720 8273D 1   1.00000     0.00000
 Structure written by MMmdl.
 35 36  0  0  0  0  0  0  0  0  2 V2000
  152.5118  143.1412  161.9524 C   0  0  0  0  0  0  0  0  0  0  0  0
  152.6399  143.4716  160.4614 C   0  0  0  0  0  0  0  0  0  0  0  0
  153.4932  142.4462  159.7016 C   0  0  0  0  0  0  0  0  0  0  0  0
  152.7379  141.2007  159.3779 C   0  0  0  0  0  0  0  0  0  0  0  0
  153.1644  139.9829  159.7225 N   0  0  0  0  0  0  0  0  0  0  0  0
  152.3054  138.9852  159.2852 N   0  0  0  0  0  0  0  0  0  0  0  0
  151.2576  139.4584  158.5955 C   0  0  0  0  0  0  0  0  0  0  0  0
  150.3082  138.6569  158.0849 N   0  5  0  0  0  0  0  0  0  0  0  0
  150.1669  137.3950  158.5505 C   0  0  0  0  0  0  0  0  0  0  0  0
  150.9210  136.4449  158.3274 O   0  0  0  0  0  0  0  0  0  0  0  0
  149.0839  137.2203  159.3192 N   0  0  0  0  0  0  0  0  0  0  0  0
  148.6883  135.9642  159.9427 C   0  0  0  0  0  0  0  0  0  0  0  0
  147.3525  136.1253  160.6810 C   0  0  1  0  0  0  0  0  0  0  0  0
  146.9861  134.9333  161.5643 C   0  0  0  0  0  0  0  0  0  0  0  0
  146.1058  135.5403  162.6471 C   0  0  0  0  0  0  0  0  0  0  0  0
  146.2882  137.0507  162.4767 C   0  0  0  0  0  0  0  0  0  0  0  0
  147.4111  137.1886  161.6187 O   0  0  0  0  0  0  0  0  0  0  0  0
  151.2465  141.2157  158.4522 S   0  0  0  0  0  0  0  0  0  0  0  0
  151.9094  143.8908  162.4657 H   0  0  0  0  0  0  0  0  0  0  0  0
  153.4893  143.1121  162.4347 H   0  0  0  0  0  0  0  0  0  0  0  0
  152.0348  142.1720  162.1005 H   0  0  0  0  0  0  0  0  0  0  0  0
  151.6444  143.5185  160.0182 H   0  0  0  0  0  0  0  0  0  0  0  0
  153.0758  144.4649  160.3483 H   0  0  0  0  0  0  0  0  0  0  0  0
  153.8660  142.8819  158.7736 H   0  0  0  0  0  0  0  0  0  0  0  0
  154.3686  142.1755  160.2926 H   0  0  0  0  0  0  0  0  0  0  0  0
  148.4925  138.0212  159.4857 H   0  0  0  0  0  0  0  0  0  0  0  0
  148.5878  135.1947  159.1757 H   0  0  0  0  0  0  0  0  0  0  0  0
  149.4702  135.6368  160.6294 H   0  0  0  0  0  0  0  0  0  0  0  0
  146.5454  136.3189  159.9712 H   0  0  0  0  0  0  0  0  0  0  0  0
  146.4880  134.1392  161.0073 H   0  0  0  0  0  0  0  0  0  0  0  0
  147.8828  134.5110  162.0199 H   0  0  0  0  0  0  0  0  0  0  0  0
  145.0593  135.2594  162.5246 H   0  0  0  0  0  0  0  0  0  0  0  0
  146.4292  135.2087  163.6343 H   0  0  0  0  0  0  0  0  0  0  0  0
  145.4139  137.4906  161.9947 H   0  0  0  0  0  0  0  0  0  0  0  0
  146.4488  137.5643  163.4248 H   0  0  0  0  0  0  0  0  0  0  0  0
  1  2  1  0  0  0  0
  1 19  1  0  0  0  0
  1 20  1  0  0  0  0
  1 21  1  0  0  0  0
  2  3  1  0  0  0  0
  2 22  1  0  0  0  0
  2 23  1  0  0  0  0
  3  4  1  0  0  0  0
  3 24  1  0  0  0  0
  3 25  1  0  0  0  0
  4 18  1  0  0  0  0
  4  5  2  0  0  0  0
  5  6  1  0  0  0  0
  6  7  2  0  0  0  0
  7  8  1  0  0  0  0
  7 18  1  0  0  0  0
  8  9  1  0  0  0  0
  9 10  2  0  0  0  0
  9 11  1  0  0  0  0
 11 12  1  0  0  0  0
 11 26  1  0  0  0  0
 12 13  1  0  0  0  0
 12 27  1  0  0  0  0
 12 28  1  0  0  0  0
 13 17  1  0  0  0  0
 13 14  1  0  0  0  0
 13 29  1  0  0  0  0
 14 15  1  0  0  0  0
 14 30  1  0  0  0  0
 14 31  1  0  0  0  0
 15 16  1  0  0  0  0
 15 32  1  0  0  0  0
 15 33  1  0  0  0  0
 16 17  1  0  0  0  0
 16 34  1  0  0  0  0
 16 35  1  0  0  0  0
M  CHG  1   8  -1
M  END
> <s_m_source_file>
AV-unprocessed.smi

> <i_m_source_file_index>
1750

> <i_lp_mmshare_version>
43012

> <i_f3d_flags>
0

> <s_epik_input>
W0NIM11bQ0gyXVtDSDJdYzFubmMoczEpW05IXUMoPU8pW05IXVtDSDJdW0NAQEhdMltDSDJdW0NIMl1bQ0gyXU8y

> <s_epik_cmdline>
J2VwaWtfcHl0aG9uJywgJy1waCcsICc3LjAnLCAnLXRuJywgJzgnLCAnLW1hJywgJzIwMCcsICctbWV0YWxfYmluZGluZycsICctaW1hZScsICc8aW5maWxlLm1hZT4nLCAnLW9tYWUnLCAnPG91dGZpbGUubWFlPic=

> <r_lp_tautomer_probability>
1

> <r_epik_Ionization_Penalty>
4.22484

> <r_epik_Ionization_Penalty_Charging>
4.21437

> <r_epik_Ionization_Penalty_Neutral>
0.0104685

> <r_epik_State_Penalty>
4.21389

> <r_epik_Charging_Adjusted_Penalty>
8.42826

> <i_epik_Tot_Q>
-1

> <i_epik_Tot_abs_Q>
1

> <r_epik_Metal_State_Penalty>
0.69377

> <b_epik_Metal_Only>
1

> <s_lp_Force_Field>
OPLS_2005

> <r_lp_Energy>
10.9062

> <b_lp_Chiralities_Consistent>
1

> <s_lp_Variant>
AV-unprocessed.smi:1750-4

> <Gold.Version>
5.8.1

> <Gold.Id.Protein>
6NUR|6NUR_protein|mol2

> <Gold.PLP.Fitness>
40.9269

> <Gold.PLP.PLP>
-35.1824

> <Gold.PLP.part.hbond>
-3.0000

> <Gold.PLP.part.metal>
0.0000

> <Gold.PLP.part.buried>
-5.9036

> <Gold.PLP.part.nonpolar>
-27.2056

> <Gold.PLP.part.repulsive>
0.2184

> <Gold.PLP.ligand.clash>
0.0000

> <Gold.PLP.ligand.torsion>
0.9105

> <Gold.PLP.Chemscore.Hbond>
2.4960

> <Gold.PLP.Chemscore.CHOScore>
0.0000

> <Gold.PLP.Chemscore.Metal>
0.0000

> <Gold.Chemscore.Hbonds>
donor molecule, donor type, donor heavy atom, donor atom, acceptor molecule, acceptor atom, score
      P1  H  6896  6907       L1    10  0.68
      P1  H  6931  6943       L1    17  0.93
      P1  H  6934  6947       L1    17  0.85

> <Gold.PLP.Chemscore.Internal.Correction>
0.0776

> <Gold.Rescore>
     Score         DG    S(hbond)    S(metal)    S(lipo)     H(rot)  DE(clash)    DE(int)     intcor
     17.22     -18.12       1.95        0.00      87.31       1.59       0.02       0.88       ----

> <Gold.Chemscore.Fitness>
17.2168

> <Gold.Chemscore.DG>
-18.1203

> <Gold.Chemscore.ZeroCoef>
-5.4800

> <Gold.Chemscore.Hbond>
1.9463

> <Gold.Chemscore.Metal>
0.0000

> <Gold.Chemscore.Lipo>
87.3131

> <Gold.Chemscore.Internal_Hbond>
0.0000

> <Gold.Chemscore.DEClash>
0.0217

> <Gold.Chemscore.DEInternal>
0.8818

> <Gold.Chemscore.Rot>
1.5922

> <Gold.Chemscore.Internal.Correction>
   9.000000E+99

> <Gold.Chemscore.Hbonds>
donor molecule, donor type, donor heavy atom, donor atom, acceptor molecule, acceptor atom, score
      P1  H  6896  6907       L1    10  0.61
      P1  H  6931  6943       L1    17  0.88
      P1  H  6934  6947       L1    17  0.28

> <Gold.Chemscore.Hbond.Weighted>
-6.5008

> <Gold.Chemscore.Metal.Weighted>
-0.0000

> <Gold.Chemscore.Lipo.Weighted>
-10.2156

> <Gold.Chemscore.Internal_Hbond.Weighted>
0.0000

> <Gold.Chemscore.DEClash.Weighted>
0.0217

> <Gold.Chemscore.DEInternal.Weighted>
0.8818

> <Gold.Chemscore.Rot.Weighted>
4.0761

> <Gold.Chemscore.Internal.Correction.Weighted>
   9.000000E+99

> <Gold.Protein.RotatedTorsions>
[ 6907 6896 6895 6894 ] final  -43.51 input  -60.11 | X-H torsion
[ 7974 7965 7964 7962 ] final   27.39 input  175.53 | X-H torsion
[ 8008 7997 7996 7995 ] final    1.78 input   59.86 | X-H torsion
[ 10167 10162 10161 10158 ] final   11.77 input  -65.29 | X-H torsion
[ 10718 10713 10712 10709 ] final  143.93 input   66.30 | X-H torsion
[ 10763 10752 10751 10750 ] final  168.84 input  -60.55 | X-H torsion
[ 11005 11000 10999 10996 ] final  103.19 input  -57.11 | X-H torsion

> <Gold.Protein.ActiveResidues>
 VAL166  LYS551  ARG553  GLY616  TRP617  ASP618  TYR619  PRO620  LYS621  CYS622 
 ASP623  PHE694  ASN695  SER759  ASP760  ASP761  ALA762  ILE779  LEU786  VAL792 
 PHE793  MET794  SER795  GLU796  ALA797  LYS798  CYS799  TRP800  GLU811  SER814 

> <Gold.Protein.RotatedAtoms>
  150.9431  134.8839  159.7624 H   0  0  0  0  0  0  0  0  0  0  0  0  # atno 6907 bound_to 6896
  152.5088  134.3913  159.9395 H   0  0  0  0  0  0  0  0  0  0  0  0  # atno 6908 bound_to 6896
  151.3933  133.3741  159.2758 H   0  0  0  0  0  0  0  0  0  0  0  0  # atno 6909 bound_to 6896
  146.1786  139.7197  142.8916 H   0  0  0  0  0  0  0  0  0  0  0  0  # atno 7974 bound_to 7965
  154.6838  140.2638  155.6882 H   0  0  0  0  0  0  0  0  0  0  0  0  # atno 8008 bound_to 7997
  156.2706  140.2805  156.1314 H   0  0  0  0  0  0  0  0  0  0  0  0  # atno 8009 bound_to 7997
  155.0994  140.0374  157.2682 H   0  0  0  0  0  0  0  0  0  0  0  0  # atno 8010 bound_to 7997
  140.6110  143.8407  150.7066 H   0  0  0  0  0  0  0  0  0  0  0  0  # atno 10167 bound_to 10162
  157.3632  131.0968  151.0896 H   0  0  0  0  0  0  0  0  0  0  0  0  # atno 10718 bound_to 10713
  154.3744  135.2753  155.2247 H   0  0  0  0  0  0  0  0  0  0  0  0  # atno 10763 bound_to 10752
  154.4381  135.5961  153.6115 H   0  0  0  0  0  0  0  0  0  0  0  0  # atno 10764 bound_to 10752
  152.9837  135.6012  154.3980 H   0  0  0  0  0  0  0  0  0  0  0  0  # atno 10765 bound_to 10752
  139.8782  134.9253  156.5171 H   0  0  0  0  0  0  0  0  0  0  0  0  # atno 11005 bound_to 11000
  145.4140  141.0399  143.3001 LP  0  0  0  0  0  0  0  0  0  0  0  0  # atno 17320 bound_to 7965
  144.8278  139.5680  143.6958 LP  0  0  0  0  0  0  0  0  0  0  0  0  # atno 17321 bound_to 7965
  140.1975  143.3986  152.1817 LP  0  0  0  0  0  0  0  0  0  0  0  0  # atno 17342 bound_to 10162
  139.5362  144.7211  151.4887 LP  0  0  0  0  0  0  0  0  0  0  0  0  # atno 17343 bound_to 10162
  157.2028  130.6402  149.5745 LP  0  0  0  0  0  0  0  0  0  0  0  0  # atno 17370 bound_to 10713
  155.9741  130.4685  150.6363 LP  0  0  0  0  0  0  0  0  0  0  0  0  # atno 17371 bound_to 10713
  140.8477  133.8156  155.9138 LP  0  0  0  0  0  0  0  0  0  0  0  0  # atno 17394 bound_to 11000
  140.9175  134.2184  157.4948 LP  0  0  0  0  0  0  0  0  0  0  0  0  # atno 17395 bound_to 11000

$$$$
