AV-unprocessed.smi:224|AV-procd|sdf|1722|dock2
  -GOLD-   2262020203D 1   1.00000     0.00000
 Structure written by MMmdl.
 56 59  0  0  0  0  0  0  0  0  2 V2000
  145.7101  132.6945  150.2078 C   0  0  0  0  0  0  0  0  0  0  0  0
  144.5695  133.7120  150.3601 C   0  0  1  0  0  0  0  0  0  0  0  0
  143.9461  133.8576  149.1014 O   0  0  0  0  0  0  0  0  0  0  0  0
  143.4996  133.2709  151.3824 C   0  0  0  0  0  0  0  0  0  0  0  0
  143.8214  133.6665  152.7848 N   0  3  1  0  0  0  0  0  0  0  0  0
  145.2921  133.6522  153.0322 C   0  0  0  0  0  0  0  0  0  0  0  0
  145.6406  134.0062  154.4846 C   0  0  0  0  0  0  0  0  0  0  0  0
  145.0570  135.2899  154.8464 N   0  0  0  0  0  0  0  0  0  0  0  0
  145.8020  136.3969  154.5801 C   0  0  0  0  0  0  0  0  0  0  0  0
  145.7420  136.9705  153.3483 N   0  0  0  0  0  0  0  0  0  0  0  0
  146.4773  138.0495  153.0653 C   0  0  0  0  0  0  0  0  0  0  0  0
  147.3241  138.7109  153.8547 N   0  0  0  0  0  0  0  0  0  0  0  0
  147.3786  138.1550  155.0983 C   0  0  0  0  0  0  0  0  0  0  0  0
  146.6595  137.0077  155.5405 C   0  0  0  0  0  0  0  0  0  0  0  0
  146.9683  136.7449  156.8702 N   0  0  0  0  0  0  0  0  0  0  0  0
  147.8278  137.6730  157.1905 C   0  0  0  0  0  0  0  0  0  0  0  0
  148.1244  138.5691  156.1886 N   0  0  0  0  0  0  0  0  0  0  0  0
  149.0388  139.6987  156.2684 C   0  0  0  0  0  0  0  0  0  0  0  0
  150.2554  139.5823  155.3190 C   0  0  2  0  0  0  0  0  0  0  0  0
  149.8995  140.0897  154.0445 O   0  0  0  0  0  0  0  0  0  0  0  0
  150.7358  138.1470  155.1462 C   0  0  0  0  0  0  0  0  0  0  0  0
  152.2180  138.3228  154.8451 C   0  0  0  0  0  0  0  0  0  0  0  0
  152.5956  139.3770  155.7139 O   0  0  0  0  0  0  0  0  0  0  0  0
  151.5257  140.3145  155.7997 C   0  0  0  0  0  0  0  0  0  0  0  0
  143.6103  135.3340  154.6572 C   0  0  0  0  0  0  0  0  0  0  0  0
  143.1876  134.9553  153.2162 C   0  0  2  0  0  0  0  0  0  0  0  0
  141.6466  134.9199  153.1631 C   0  0  0  0  0  0  0  0  0  0  0  0
  146.2592  132.5721  151.1417 H   0  0  0  0  0  0  0  0  0  0  0  0
  146.4254  133.0178  149.4506 H   0  0  0  0  0  0  0  0  0  0  0  0
  145.3335  131.7145  149.9124 H   0  0  0  0  0  0  0  0  0  0  0  0
  144.9830  134.6862  150.6171 H   0  0  0  0  0  0  0  0  0  0  0  0
  144.6120  133.9929  148.4442 H   0  0  0  0  0  0  0  0  0  0  0  0
  142.5229  133.6771  151.1133 H   0  0  0  0  0  0  0  0  0  0  0  0
  143.4069  132.1917  151.2916 H   0  0  0  0  0  0  0  0  0  0  0  0
  145.7101  132.6707  152.8167 H   0  0  0  0  0  0  0  0  0  0  0  0
  145.7790  134.3571  152.3561 H   0  0  0  0  0  0  0  0  0  0  0  0
  145.2458  133.2447  155.1582 H   0  0  0  0  0  0  0  0  0  0  0  0
  146.7218  133.9944  154.6129 H   0  0  0  0  0  0  0  0  0  0  0  0
  146.3720  138.4387  152.0633 H   0  0  0  0  0  0  0  0  0  0  0  0
  148.2689  137.7303  158.1750 H   0  0  0  0  0  0  0  0  0  0  0  0
  148.4752  140.6063  156.0476 H   0  0  0  0  0  0  0  0  0  0  0  0
  149.3763  139.7947  157.3012 H   0  0  0  0  0  0  0  0  0  0  0  0
  149.2279  140.7447  154.1590 H   0  0  0  0  0  0  0  0  0  0  0  0
  150.6267  137.5960  156.0814 H   0  0  0  0  0  0  0  0  0  0  0  0
  150.2022  137.5947  154.3714 H   0  0  0  0  0  0  0  0  0  0  0  0
  152.7988  137.4196  155.0325 H   0  0  0  0  0  0  0  0  0  0  0  0
  152.3748  138.6268  153.8091 H   0  0  0  0  0  0  0  0  0  0  0  0
  151.7472  141.1987  155.2000 H   0  0  0  0  0  0  0  0  0  0  0  0
  151.4491  140.6349  156.8381 H   0  0  0  0  0  0  0  0  0  0  0  0
  143.1659  134.6308  155.3628 H   0  0  0  0  0  0  0  0  0  0  0  0
  143.2184  136.3145  154.9319 H   0  0  0  0  0  0  0  0  0  0  0  0
  143.5335  135.7353  152.5367 H   0  0  0  0  0  0  0  0  0  0  0  0
  141.2246  135.8092  153.6325 H   0  0  0  0  0  0  0  0  0  0  0  0
  141.2497  134.0524  153.6914 H   0  0  0  0  0  0  0  0  0  0  0  0
  141.2579  134.9077  152.1461 H   0  0  0  0  0  0  0  0  0  0  0  0
  143.4232  132.9543  153.3802 H   0  0  0  0  0  0  0  0  0  0  0  0
  1  2  1  0  0  0  0
  1 28  1  0  0  0  0
  1 29  1  0  0  0  0
  1 30  1  0  0  0  0
  2  3  1  0  0  0  0
  2  4  1  0  0  0  0
  2 31  1  0  0  0  0
  3 32  1  0  0  0  0
  4  5  1  0  0  0  0
  4 33  1  0  0  0  0
  4 34  1  0  0  0  0
  5 26  1  0  0  0  0
  5  6  1  0  0  0  0
  5 56  1  0  0  0  0
  6  7  1  0  0  0  0
  6 35  1  0  0  0  0
  6 36  1  0  0  0  0
  7  8  1  0  0  0  0
  7 37  1  0  0  0  0
  7 38  1  0  0  0  0
  8  9  1  0  0  0  0
  8 25  1  0  0  0  0
  9 14  1  0  0  0  0
  9 10  2  0  0  0  0
 10 11  1  0  0  0  0
 11 12  2  0  0  0  0
 11 39  1  0  0  0  0
 12 13  1  0  0  0  0
 13 17  1  0  0  0  0
 13 14  2  0  0  0  0
 14 15  1  0  0  0  0
 15 16  2  0  0  0  0
 16 17  1  0  0  0  0
 16 40  1  0  0  0  0
 17 18  1  0  0  0  0
 18 19  1  0  0  0  0
 18 41  1  0  0  0  0
 18 42  1  0  0  0  0
 19 24  1  0  0  0  0
 19 20  1  0  0  0  0
 19 21  1  0  0  0  0
 20 43  1  0  0  0  0
 21 22  1  0  0  0  0
 21 44  1  0  0  0  0
 21 45  1  0  0  0  0
 22 23  1  0  0  0  0
 22 46  1  0  0  0  0
 22 47  1  0  0  0  0
 23 24  1  0  0  0  0
 24 48  1  0  0  0  0
 24 49  1  0  0  0  0
 25 26  1  0  0  0  0
 25 50  1  0  0  0  0
 25 51  1  0  0  0  0
 26 27  1  0  0  0  0
 26 52  1  0  0  0  0
 27 53  1  0  0  0  0
 27 54  1  0  0  0  0
 27 55  1  0  0  0  0
M  CHG  1   5   1
M  END
> <s_m_source_file>
AV-unprocessed.smi

> <i_m_source_file_index>
224

> <i_lp_mmshare_version>
43012

> <i_f3d_flags>
0

> <s_epik_input>
W0NIM11bQ0BIXShbT0hdKVtDSDJdTjFbQ0gyXVtDSDJdTihbQ0gyXVtDQEhdMVtDSDNdKWMobltjSF1uMiljKGMyMyluW2NIXW4zW0NIMl1bQ0BAXTQoW09IXSlbQ0gyXVtDSDJdT1tDSDJdNA==

> <s_epik_cmdline>
J2VwaWtfcHl0aG9uJywgJy1waCcsICc3LjAnLCAnLXRuJywgJzgnLCAnLW1hJywgJzIwMCcsICctbWV0YWxfYmluZGluZycsICctaW1hZScsICc8aW5maWxlLm1hZT4nLCAnLW9tYWUnLCAnPG91dGZpbGUubWFlPic=

> <r_lp_tautomer_probability>
1

> <r_epik_Ionization_Penalty>
0.00516958

> <r_epik_Ionization_Penalty_Charging>
0.00509693

> <r_epik_Ionization_Penalty_Neutral>
7.26542e-05

> <r_epik_State_Penalty>
-0

> <r_epik_Charging_Adjusted_Penalty>
0.00509693

> <i_epik_Tot_Q>
1

> <i_epik_Tot_abs_Q>
1

> <r_epik_Metal_State_Penalty>
-0

> <b_epik_Metal_Only>
0

> <s_lp_Force_Field>
OPLS_2005

> <r_lp_Energy>
50.435

> <b_lp_Chiralities_Consistent>
1

> <s_lp_Variant>
AV-unprocessed.smi:224-16

> <Gold.Version>
5.8.1

> <Gold.Id.Protein>
6NUR|6NUR_protein|mol2

> <Gold.PLP.Fitness>
47.4834

> <Gold.PLP.PLP>
-35.7172

> <Gold.PLP.part.hbond>
-6.0000

> <Gold.PLP.part.metal>
0.0000

> <Gold.PLP.part.buried>
-6.8521

> <Gold.PLP.part.nonpolar>
-23.8077

> <Gold.PLP.part.repulsive>
0.3726

> <Gold.PLP.ligand.clash>
0.0000

> <Gold.PLP.ligand.torsion>
1.5440

> <Gold.PLP.Chemscore.Hbond>
4.7488

> <Gold.PLP.Chemscore.CHOScore>
0.0000

> <Gold.PLP.Chemscore.Metal>
0.0000

> <Gold.Chemscore.Hbonds>
donor molecule, donor type, donor heavy atom, donor atom, acceptor molecule, acceptor atom, score
      L1  H     3    32       P1  7921  1.00
      L1  H     5    56       P1 10957  2.00
      P1  H  7989  7998       L1    20  0.86
      P1  H  7997  8010       L1    23  0.86

> <Gold.PLP.Chemscore.Internal.Correction>
0.6077

> <Gold.Rescore>
     Score         DG    S(hbond)    S(metal)    S(lipo)     H(rot)  DE(clash)    DE(int)     intcor
     13.87     -15.57       3.16        0.00      69.47       3.36       0.01       1.69       ----

> <Gold.Chemscore.Fitness>
13.8710

> <Gold.Chemscore.DG>
-15.5711

> <Gold.Chemscore.ZeroCoef>
-5.4800

> <Gold.Chemscore.Hbond>
3.1640

> <Gold.Chemscore.Metal>
0.0000

> <Gold.Chemscore.Lipo>
69.4699

> <Gold.Chemscore.Internal_Hbond>
0.0000

> <Gold.Chemscore.DEClash>
0.0149

> <Gold.Chemscore.DEInternal>
1.6853

> <Gold.Chemscore.Rot>
3.3611

> <Gold.Chemscore.Internal.Correction>
   9.000000E+99

> <Gold.Chemscore.Hbonds>
donor molecule, donor type, donor heavy atom, donor atom, acceptor molecule, acceptor atom, score
      L1  H     3    32       P1  7921  0.99
      L1  H     5    56       P1 10957  0.76
      P1  H  7989  7998       L1    20  0.21
      P1  H  7997  8010       L1    23  0.71

> <Gold.Chemscore.Hbond.Weighted>
-10.5677

> <Gold.Chemscore.Metal.Weighted>
-0.0000

> <Gold.Chemscore.Lipo.Weighted>
-8.1280

> <Gold.Chemscore.Internal_Hbond.Weighted>
0.0000

> <Gold.Chemscore.DEClash.Weighted>
0.0149

> <Gold.Chemscore.DEInternal.Weighted>
1.6853

> <Gold.Chemscore.Rot.Weighted>
8.6045

> <Gold.Chemscore.Internal.Correction.Weighted>
   9.000000E+99

> <Gold.Protein.RotatedTorsions>
[ 6907 6896 6895 6894 ] final -119.29 input  -60.11 | X-H torsion
[ 7974 7965 7964 7962 ] final  124.88 input  175.53 | X-H torsion
[ 8008 7997 7996 7995 ] final  110.06 input   59.86 | X-H torsion
[ 10167 10162 10161 10158 ] final  145.11 input  -65.29 | X-H torsion
[ 10718 10713 10712 10709 ] final   86.46 input   66.30 | X-H torsion
[ 10763 10752 10751 10750 ] final  -96.94 input  -60.55 | X-H torsion
[ 11005 11000 10999 10996 ] final -166.41 input  -57.11 | X-H torsion

> <Gold.Protein.ActiveResidues>
 VAL166  LYS551  ARG553  GLY616  TRP617  ASP618  TYR619  PRO620  LYS621  CYS622 
 ASP623  PHE694  ASN695  SER759  ASP760  ASP761  ALA762  ILE779  LEU786  VAL792 
 PHE793  MET794  SER795  GLU796  ALA797  LYS798  CYS799  TRP800  GLU811  SER814 

> <Gold.Protein.RotatedAtoms>
  150.8293  133.8119  159.3105 H   0  0  0  0  0  0  0  0  0  0  0  0  # atno 6907 bound_to 6896
  151.5854  135.1054  160.0036 H   0  0  0  0  0  0  0  0  0  0  0  0  # atno 6908 bound_to 6896
  152.4374  133.7344  159.6662 H   0  0  0  0  0  0  0  0  0  0  0  0  # atno 6909 bound_to 6896
  145.0793  139.3669  143.4917 H   0  0  0  0  0  0  0  0  0  0  0  0  # atno 7974 bound_to 7965
  156.2025  140.3046  155.9558 H   0  0  0  0  0  0  0  0  0  0  0  0  # atno 8008 bound_to 7997
  155.2919  140.0442  157.3040 H   0  0  0  0  0  0  0  0  0  0  0  0  # atno 8009 bound_to 7997
  154.5590  140.2314  155.8374 H   0  0  0  0  0  0  0  0  0  0  0  0  # atno 8010 bound_to 7997
  139.4933  144.5925  151.6651 H   0  0  0  0  0  0  0  0  0  0  0  0  # atno 10167 bound_to 10162
  157.6929  131.0216  150.2976 H   0  0  0  0  0  0  0  0  0  0  0  0  # atno 10718 bound_to 10713
  154.7284  135.5065  153.8923 H   0  0  0  0  0  0  0  0  0  0  0  0  # atno 10763 bound_to 10752
  153.0926  135.6663  153.9833 H   0  0  0  0  0  0  0  0  0  0  0  0  # atno 10764 bound_to 10752
  153.9640  135.3045  155.3411 H   0  0  0  0  0  0  0  0  0  0  0  0  # atno 10765 bound_to 10752
  140.5647  134.5297  157.5150 H   0  0  0  0  0  0  0  0  0  0  0  0  # atno 11005 bound_to 11000
  146.3530  140.0576  142.8631 LP  0  0  0  0  0  0  0  0  0  0  0  0  # atno 17320 bound_to 7965
  145.1197  140.9455  143.4608 LP  0  0  0  0  0  0  0  0  0  0  0  0  # atno 17321 bound_to 7965
  140.5555  144.0355  150.6146 LP  0  0  0  0  0  0  0  0  0  0  0  0  # atno 17342 bound_to 10162
  140.3423  143.3012  152.0575 LP  0  0  0  0  0  0  0  0  0  0  0  0  # atno 17343 bound_to 10162
  156.3497  130.3829  149.7339 LP  0  0  0  0  0  0  0  0  0  0  0  0  # atno 17370 bound_to 10713
  156.4821  130.8046  151.3060 LP  0  0  0  0  0  0  0  0  0  0  0  0  # atno 17371 bound_to 10713
  139.9390  134.7821  156.0726 LP  0  0  0  0  0  0  0  0  0  0  0  0  # atno 17394 bound_to 11000
  141.1093  133.6649  156.2939 LP  0  0  0  0  0  0  0  0  0  0  0  0  # atno 17395 bound_to 11000

$$$$
