AV-unprocessed.smi:247|AV-procd|sdf|1889|dock1
  -GOLD-   2262020543D 1   1.00000     0.00000
 Structure written by MMmdl.
 61 65  0  0  0  0  0  0  0  0  1 V2000
  147.4240  132.1777  150.7285 O   0  0  0  0  0  0  0  0  0  0  0  0
  147.5497  132.6446  152.0574 C   0  0  0  0  0  0  0  0  0  0  0  0
  147.8531  131.5168  153.0834 C   0  0  0  0  0  0  0  0  0  0  0  0
  147.8670  132.1368  154.5167 C   0  0  0  0  0  0  0  0  0  0  0  0
  148.6875  133.3305  154.6665 N   0  0  0  0  0  0  0  0  0  0  0  0
  149.9628  133.5224  154.1836 C   0  0  0  0  0  0  0  0  0  0  0  0
  150.4901  134.6863  154.4482 N   0  0  0  0  0  0  0  0  0  0  0  0
  149.4952  135.3584  155.1474 C   0  0  0  0  0  0  0  0  0  0  0  0
  149.3992  136.6495  155.7371 C   0  0  0  0  0  0  0  0  0  0  0  0
  150.4153  137.5466  155.6852 N   0  0  0  0  0  0  0  0  0  0  0  0
  151.6205  137.1565  156.3985 C   0  0  0  0  0  0  0  0  0  0  0  0
  152.6783  138.1629  155.9620 C   0  0  0  0  0  0  0  0  0  0  0  0
  152.3023  138.4514  154.5102 C   0  0  0  0  0  0  0  0  0  0  0  0
  150.7783  138.2302  154.4378 C   0  0  2  0  0  0  0  0  0  0  0  0
  149.9725  139.5409  154.2049 C   0  0  2  0  0  0  0  0  0  0  0  0
  150.1144  140.5506  155.3701 C   0  0  0  0  0  0  0  0  0  0  0  0
  149.4231  141.7601  155.0782 O   0  0  0  0  0  0  0  0  0  0  0  0
  148.0221  141.5757  154.9192 C   0  0  0  0  0  0  0  0  0  0  0  0
  147.7601  140.6592  153.7167 C   0  0  0  0  0  0  0  0  0  0  0  0
  148.4730  139.3136  153.9058 C   0  0  1  0  0  0  0  0  0  0  0  0
  148.3043  138.5500  152.7280 O   0  0  0  0  0  0  0  0  0  0  0  0
  148.2353  136.9657  156.3639 N   0  0  0  0  0  0  0  0  0  0  0  0
  147.2335  136.0835  156.4140 C   0  0  0  0  0  0  0  0  0  0  0  0
  147.1851  134.8481  155.9131 N   0  0  0  0  0  0  0  0  0  0  0  0
  148.3518  134.5224  155.2863 C   0  0  0  0  0  0  0  0  0  0  0  0
  146.7983  130.3878  152.9493 C   0  0  0  0  0  0  0  0  0  0  0  0
  147.1695  129.1389  153.7687 C   0  0  0  0  0  0  0  0  0  0  0  0
  148.4496  128.6630  153.3708 O   0  0  0  0  0  0  0  0  0  0  0  0
  149.4918  129.6024  153.6049 C   0  0  0  0  0  0  0  0  0  0  0  0
  149.2410  130.8886  152.7943 C   0  0  0  0  0  0  0  0  0  0  0  0
  148.2888  132.0938  150.3567 H   0  0  0  0  0  0  0  0  0  0  0  0
  148.3389  133.3967  152.0764 H   0  0  0  0  0  0  0  0  0  0  0  0
  146.6195  133.1553  152.3063 H   0  0  0  0  0  0  0  0  0  0  0  0
  146.8632  132.3943  154.8501 H   0  0  0  0  0  0  0  0  0  0  0  0
  148.2249  131.3959  155.2328 H   0  0  0  0  0  0  0  0  0  0  0  0
  150.4981  132.7631  153.6322 H   0  0  0  0  0  0  0  0  0  0  0  0
  151.4812  137.1761  157.4793 H   0  0  0  0  0  0  0  0  0  0  0  0
  151.9087  136.1450  156.1074 H   0  0  0  0  0  0  0  0  0  0  0  0
  152.5899  139.0725  156.5569 H   0  0  0  0  0  0  0  0  0  0  0  0
  153.6946  137.7849  156.0738 H   0  0  0  0  0  0  0  0  0  0  0  0
  152.6178  139.4437  154.1866 H   0  0  0  0  0  0  0  0  0  0  0  0
  152.8002  137.7297  153.8616 H   0  0  0  0  0  0  0  0  0  0  0  0
  150.6101  137.5751  153.5832 H   0  0  0  0  0  0  0  0  0  0  0  0
  150.3982  140.0183  153.3204 H   0  0  0  0  0  0  0  0  0  0  0  0
  149.7386  140.1332  156.3059 H   0  0  0  0  0  0  0  0  0  0  0  0
  151.1618  140.8006  155.5358 H   0  0  0  0  0  0  0  0  0  0  0  0
  147.5898  141.1593  155.8306 H   0  0  0  0  0  0  0  0  0  0  0  0
  147.5547  142.5475  154.7595 H   0  0  0  0  0  0  0  0  0  0  0  0
  146.6879  140.5056  153.5894 H   0  0  0  0  0  0  0  0  0  0  0  0
  148.1172  141.1476  152.8087 H   0  0  0  0  0  0  0  0  0  0  0  0
  147.9995  138.7842  154.7326 H   0  0  0  0  0  0  0  0  0  0  0  0
  148.6975  139.0206  152.0087 H   0  0  0  0  0  0  0  0  0  0  0  0
  146.3451  136.4138  156.9316 H   0  0  0  0  0  0  0  0  0  0  0  0
  145.8048  130.7405  153.2236 H   0  0  0  0  0  0  0  0  0  0  0  0
  146.7177  130.0800  151.9064 H   0  0  0  0  0  0  0  0  0  0  0  0
  147.1565  129.3400  154.8401 H   0  0  0  0  0  0  0  0  0  0  0  0
  146.4379  128.3505  153.5924 H   0  0  0  0  0  0  0  0  0  0  0  0
  149.5820  129.8064  154.6720 H   0  0  0  0  0  0  0  0  0  0  0  0
  150.4362  129.1526  153.2981 H   0  0  0  0  0  0  0  0  0  0  0  0
  149.3244  130.6267  151.7393 H   0  0  0  0  0  0  0  0  0  0  0  0
  150.0349  131.6112  152.9862 H   0  0  0  0  0  0  0  0  0  0  0  0
  1  2  1  0  0  0  0
  1 31  1  0  0  0  0
  2  3  1  0  0  0  0
  2 32  1  0  0  0  0
  2 33  1  0  0  0  0
  3 30  1  0  0  0  0
  3  4  1  0  0  0  0
  3 26  1  0  0  0  0
  4  5  1  0  0  0  0
  4 34  1  0  0  0  0
  4 35  1  0  0  0  0
  5 25  1  0  0  0  0
  5  6  1  0  0  0  0
  6  7  2  0  0  0  0
  6 36  1  0  0  0  0
  7  8  1  0  0  0  0
  8 25  2  0  0  0  0
  8  9  1  0  0  0  0
  9 10  1  0  0  0  0
  9 22  2  0  0  0  0
 10 14  1  0  0  0  0
 10 11  1  0  0  0  0
 11 12  1  0  0  0  0
 11 37  1  0  0  0  0
 11 38  1  0  0  0  0
 12 13  1  0  0  0  0
 12 39  1  0  0  0  0
 12 40  1  0  0  0  0
 13 14  1  0  0  0  0
 13 41  1  0  0  0  0
 13 42  1  0  0  0  0
 14 15  1  0  0  0  0
 14 43  1  0  0  0  0
 15 20  1  0  0  0  0
 15 16  1  0  0  0  0
 15 44  1  0  0  0  0
 16 17  1  0  0  0  0
 16 45  1  0  0  0  0
 16 46  1  0  0  0  0
 17 18  1  0  0  0  0
 18 19  1  0  0  0  0
 18 47  1  0  0  0  0
 18 48  1  0  0  0  0
 19 20  1  0  0  0  0
 19 49  1  0  0  0  0
 19 50  1  0  0  0  0
 20 21  1  0  0  0  0
 20 51  1  0  0  0  0
 21 52  1  0  0  0  0
 22 23  1  0  0  0  0
 23 24  2  0  0  0  0
 23 53  1  0  0  0  0
 24 25  1  0  0  0  0
 26 27  1  0  0  0  0
 26 54  1  0  0  0  0
 26 55  1  0  0  0  0
 27 28  1  0  0  0  0
 27 56  1  0  0  0  0
 27 57  1  0  0  0  0
 28 29  1  0  0  0  0
 29 30  1  0  0  0  0
 29 58  1  0  0  0  0
 29 59  1  0  0  0  0
 30 60  1  0  0  0  0
 30 61  1  0  0  0  0
M  END
> <s_m_source_file>
AV-unprocessed.smi

> <i_m_source_file_index>
247

> <i_lp_mmshare_version>
43012

> <i_f3d_flags>
0

> <s_epik_input>
W0NIMl0xW0NIMl1PW0NIMl1bQ0gyXUMxKFtDSDJdW09IXSlbQ0gyXW4oW2NIXW4yKWMoYzIzKW5bY0hdbmMzTjRbQ0gyXVtDSDJdW0NIMl1bQ0BIXTRbQ0BASF01W0NIMl1PW0NIMl1bQ0gyXVtDQEhdNVtPSF0=

> <s_epik_cmdline>
J2VwaWtfcHl0aG9uJywgJy1waCcsICc3LjAnLCAnLXRuJywgJzgnLCAnLW1hJywgJzIwMCcsICctbWV0YWxfYmluZGluZycsICctaW1hZScsICc8aW5maWxlLm1hZT4nLCAnLW9tYWUnLCAnPG91dGZpbGUubWFlPic=

> <r_lp_tautomer_probability>
1

> <r_epik_Ionization_Penalty>
0.00362597

> <r_epik_Ionization_Penalty_Charging>
0

> <r_epik_Ionization_Penalty_Neutral>
0.00362597

> <r_epik_State_Penalty>
0.00241433

> <r_epik_Charging_Adjusted_Penalty>
0.00241433

> <i_epik_Tot_Q>
0

> <i_epik_Tot_abs_Q>
0

> <r_epik_Metal_State_Penalty>
-0

> <b_epik_Metal_Only>
0

> <s_lp_Force_Field>
OPLS_2005

> <r_lp_Energy>
60.2507

> <b_lp_Chiralities_Consistent>
1

> <s_lp_Variant>
AV-unprocessed.smi:247-2

> <Gold.Version>
5.8.1

> <Gold.Id.Protein>
6NUR|6NUR_protein|mol2

> <Gold.PLP.Fitness>
43.0284

> <Gold.PLP.PLP>
-37.5574

> <Gold.PLP.part.hbond>
-3.2764

> <Gold.PLP.part.metal>
0.0000

> <Gold.PLP.part.buried>
-2.4787

> <Gold.PLP.part.nonpolar>
-31.9576

> <Gold.PLP.part.repulsive>
0.6992

> <Gold.PLP.ligand.clash>
0.0000

> <Gold.PLP.ligand.torsion>
0.4619

> <Gold.PLP.Chemscore.Hbond>
2.0000

> <Gold.PLP.Chemscore.CHOScore>
0.0000

> <Gold.PLP.Chemscore.Metal>
0.0000

> <Gold.Chemscore.Hbonds>
donor molecule, donor type, donor heavy atom, donor atom, acceptor molecule, acceptor atom, score
      L1  H     1    31       P1 10747  0.34
      L1  H    21    52       P1  7957  1.00

> <Gold.PLP.Chemscore.Internal.Correction>
0.3948

> <Gold.Rescore>
     Score         DG    S(hbond)    S(metal)    S(lipo)     H(rot)  DE(clash)    DE(int)     intcor
     13.95     -14.84       1.96        0.00      94.63       3.23       0.11       0.78       ----

> <Gold.Chemscore.Fitness>
13.9498

> <Gold.Chemscore.DG>
-14.8361

> <Gold.Chemscore.ZeroCoef>
-5.4800

> <Gold.Chemscore.Hbond>
1.9604

> <Gold.Chemscore.Metal>
0.0000

> <Gold.Chemscore.Lipo>
94.6304

> <Gold.Chemscore.Internal_Hbond>
0.0000

> <Gold.Chemscore.DEClash>
0.1101

> <Gold.Chemscore.DEInternal>
0.7761

> <Gold.Chemscore.Rot>
3.2278

> <Gold.Chemscore.Internal.Correction>
   9.000000E+99

> <Gold.Chemscore.Hbonds>
donor molecule, donor type, donor heavy atom, donor atom, acceptor molecule, acceptor atom, score
      L1  H     1    31       P1 10747  0.33
      L1  H    21    52       P1  7957  0.94

> <Gold.Chemscore.Hbond.Weighted>
-6.5476

> <Gold.Chemscore.Metal.Weighted>
-0.0000

> <Gold.Chemscore.Lipo.Weighted>
-11.0718

> <Gold.Chemscore.Internal_Hbond.Weighted>
0.0000

> <Gold.Chemscore.DEClash.Weighted>
0.1101

> <Gold.Chemscore.DEInternal.Weighted>
0.7761

> <Gold.Chemscore.Rot.Weighted>
8.2633

> <Gold.Chemscore.Internal.Correction.Weighted>
   9.000000E+99

> <Gold.Protein.RotatedTorsions>
[ 6907 6896 6895 6894 ] final   65.58 input  -60.11 | X-H torsion
[ 7974 7965 7964 7962 ] final  -40.76 input  175.53 | X-H torsion
[ 8008 7997 7996 7995 ] final  -23.97 input   59.86 | X-H torsion
[ 10167 10162 10161 10158 ] final -136.34 input  -65.29 | X-H torsion
[ 10718 10713 10712 10709 ] final -134.34 input   66.30 | X-H torsion
[ 10763 10752 10751 10750 ] final -112.94 input  -60.55 | X-H torsion
[ 11005 11000 10999 10996 ] final   78.45 input  -57.11 | X-H torsion

> <Gold.Protein.ActiveResidues>
 VAL166  LYS551  ARG553  GLY616  TRP617  ASP618  TYR619  PRO620  LYS621  CYS622 
 ASP623  PHE694  ASN695  SER759  ASP760  ASP761  ALA762  ILE779  LEU786  VAL792 
 PHE793  MET794  SER795  GLU796  ALA797  LYS798  CYS799  TRP800  GLU811  SER814 

> <Gold.Protein.RotatedAtoms>
  152.4418  134.5575  159.9884 H   0  0  0  0  0  0  0  0  0  0  0  0  # atno 6907 bound_to 6896
  151.5670  133.3389  159.2990 H   0  0  0  0  0  0  0  0  0  0  0  0  # atno 6908 bound_to 6896
  150.8326  134.7619  159.6930 H   0  0  0  0  0  0  0  0  0  0  0  0  # atno 6909 bound_to 6896
  146.0274  140.6774  142.9149 H   0  0  0  0  0  0  0  0  0  0  0  0  # atno 7974 bound_to 7965
  154.4555  140.1966  156.0392 H   0  0  0  0  0  0  0  0  0  0  0  0  # atno 8008 bound_to 7997
  156.0737  140.3281  155.7580 H   0  0  0  0  0  0  0  0  0  0  0  0  # atno 8009 bound_to 7997
  155.5222  140.0571  157.2895 H   0  0  0  0  0  0  0  0  0  0  0  0  # atno 8010 bound_to 7997
  139.8687  143.6984  152.2642 H   0  0  0  0  0  0  0  0  0  0  0  0  # atno 10167 bound_to 10162
  156.2544  130.7172  151.1084 H   0  0  0  0  0  0  0  0  0  0  0  0  # atno 10718 bound_to 10713
  154.8373  135.4472  154.1272 H   0  0  0  0  0  0  0  0  0  0  0  0  # atno 10763 bound_to 10752
  153.2492  135.6925  153.7704 H   0  0  0  0  0  0  0  0  0  0  0  0  # atno 10764 bound_to 10752
  153.7022  135.3370  155.3203 H   0  0  0  0  0  0  0  0  0  0  0  0  # atno 10765 bound_to 10752
  139.9212  134.7765  156.1652 H   0  0  0  0  0  0  0  0  0  0  0  0  # atno 11005 bound_to 11000
  144.7015  140.3675  143.7152 LP  0  0  0  0  0  0  0  0  0  0  0  0  # atno 17320 bound_to 7965
  145.7096  139.1681  143.2546 LP  0  0  0  0  0  0  0  0  0  0  0  0  # atno 17321 bound_to 7965
  139.7304  144.7583  151.0811 LP  0  0  0  0  0  0  0  0  0  0  0  0  # atno 17342 bound_to 10162
  140.7764  143.5095  150.9670 LP  0  0  0  0  0  0  0  0  0  0  0  0  # atno 17343 bound_to 10162
  157.7227  131.0671  150.6067 LP  0  0  0  0  0  0  0  0  0  0  0  0  # atno 17370 bound_to 10713
  156.6150  130.4390  149.5844 LP  0  0  0  0  0  0  0  0  0  0  0  0  # atno 17371 bound_to 10713
  141.0734  133.6786  156.2186 LP  0  0  0  0  0  0  0  0  0  0  0  0  # atno 17394 bound_to 11000
  140.6469  134.5107  157.5574 LP  0  0  0  0  0  0  0  0  0  0  0  0  # atno 17395 bound_to 11000

$$$$
