AV-unprocessed.smi:3292|AV-procd|sdf|12622|dock2
  -GOLD-   2272018553D 1   1.00000     0.00000
 Structure written by MMmdl.
 39 40  0  0  0  0  0  0  0  0  2 V2000
  151.3886  137.1754  156.0124 C   0  0  0  0  0  0  0  0  0  0  0  0
  150.1252  137.5536  155.2222 C   0  0  1  0  0  0  0  0  0  0  0  0
  150.3420  138.7493  154.2688 C   0  0  0  0  0  0  0  0  0  0  0  0
  150.4248  140.0315  154.9742 N   0  0  0  0  0  0  0  0  0  0  0  0
  151.3710  140.4109  155.8912 C   0  0  0  0  0  0  0  0  0  0  0  0
  151.0453  141.6832  156.2852 C   0  0  0  0  0  0  0  0  0  0  0  0
  149.9125  142.0244  155.5959 N   0  3  0  0  0  0  0  0  0  0  0  0
  149.5345  141.0173  154.8017 C   0  0  0  0  0  0  0  0  0  0  0  0
  149.6585  136.3886  154.4759 N   0  0  0  0  0  0  0  0  0  0  0  0
  149.5487  135.1484  154.9735 C   0  0  0  0  0  0  0  0  0  0  0  0
  149.8173  134.8481  156.1369 O   0  0  0  0  0  0  0  0  0  0  0  0
  149.1144  134.2781  154.0512 N   0  0  0  0  0  0  0  0  0  0  0  0
  148.8984  132.8516  154.2724 C   0  0  0  0  0  0  0  0  0  0  0  0
  147.5236  132.3921  153.7517 C   0  0  2  0  0  0  0  0  0  0  0  0
  147.4121  130.8938  153.5579 C   0  0  0  0  0  0  0  0  0  0  0  0
  146.1983  130.7794  152.6398 C   0  0  0  0  0  0  0  0  0  0  0  0
  146.1769  131.9759  151.8662 O   0  0  0  0  0  0  0  0  0  0  0  0
  147.1555  132.8889  152.3524 C   0  0  0  0  0  0  0  0  0  0  0  0
  151.7172  137.9911  156.6566 H   0  0  0  0  0  0  0  0  0  0  0  0
  152.2134  136.9239  155.3450 H   0  0  0  0  0  0  0  0  0  0  0  0
  151.2050  136.3129  156.6541 H   0  0  0  0  0  0  0  0  0  0  0  0
  149.3563  137.8231  155.9492 H   0  0  0  0  0  0  0  0  0  0  0  0
  151.2547  138.6153  153.6856 H   0  0  0  0  0  0  0  0  0  0  0  0
  149.5208  138.8291  153.5551 H   0  0  0  0  0  0  0  0  0  0  0  0
  152.1852  139.7640  156.1855 H   0  0  0  0  0  0  0  0  0  0  0  0
  151.5216  142.3527  156.9866 H   0  0  0  0  0  0  0  0  0  0  0  0
  148.6807  141.0057  154.1479 H   0  0  0  0  0  0  0  0  0  0  0  0
  149.4152  136.5349  153.5070 H   0  0  0  0  0  0  0  0  0  0  0  0
  148.9224  134.6260  153.1231 H   0  0  0  0  0  0  0  0  0  0  0  0
  149.6987  132.2620  153.8218 H   0  0  0  0  0  0  0  0  0  0  0  0
  148.9577  132.6719  155.3462 H   0  0  0  0  0  0  0  0  0  0  0  0
  146.7471  132.7074  154.4510 H   0  0  0  0  0  0  0  0  0  0  0  0
  148.2989  130.5087  153.0519 H   0  0  0  0  0  0  0  0  0  0  0  0
  147.2891  130.3473  154.4933 H   0  0  0  0  0  0  0  0  0  0  0  0
  146.2411  129.8946  152.0044 H   0  0  0  0  0  0  0  0  0  0  0  0
  145.2801  130.7308  153.2262 H   0  0  0  0  0  0  0  0  0  0  0  0
  146.7774  133.9115  152.3555 H   0  0  0  0  0  0  0  0  0  0  0  0
  148.0206  132.8503  151.6888 H   0  0  0  0  0  0  0  0  0  0  0  0
  149.4277  142.9095  155.6754 H   0  0  0  0  0  0  0  0  0  0  0  0
  1  2  1  0  0  0  0
  1 19  1  0  0  0  0
  1 20  1  0  0  0  0
  1 21  1  0  0  0  0
  2  3  1  0  0  0  0
  2  9  1  0  0  0  0
  2 22  1  0  0  0  0
  3  4  1  0  0  0  0
  3 23  1  0  0  0  0
  3 24  1  0  0  0  0
  4  8  1  0  0  0  0
  4  5  1  0  0  0  0
  5  6  2  0  0  0  0
  5 25  1  0  0  0  0
  6  7  1  0  0  0  0
  6 26  1  0  0  0  0
  7  8  2  0  0  0  0
  7 39  1  0  0  0  0
  8 27  1  0  0  0  0
  9 10  1  0  0  0  0
  9 28  1  0  0  0  0
 10 11  2  0  0  0  0
 10 12  1  0  0  0  0
 12 13  1  0  0  0  0
 12 29  1  0  0  0  0
 13 14  1  0  0  0  0
 13 30  1  0  0  0  0
 13 31  1  0  0  0  0
 14 18  1  0  0  0  0
 14 15  1  0  0  0  0
 14 32  1  0  0  0  0
 15 16  1  0  0  0  0
 15 33  1  0  0  0  0
 15 34  1  0  0  0  0
 16 17  1  0  0  0  0
 16 35  1  0  0  0  0
 16 36  1  0  0  0  0
 17 18  1  0  0  0  0
 18 37  1  0  0  0  0
 18 38  1  0  0  0  0
M  CHG  1   7   1
M  END
> <s_m_source_file>
AV-unprocessed.smi

> <i_m_source_file_index>
3292

> <i_lp_mmshare_version>
43012

> <i_f3d_flags>
0

> <s_epik_input>
W2NIXTFuW2NIXVtjSF1uMVtDSDJdW0NAQEhdKFtDSDNdKVtOSF1DKD1PKVtOSF1bQ0gyXVtDQEBIXTJbQ0gyXVtDSDJdT1tDSDJdMg==

> <s_epik_cmdline>
J2VwaWtfcHl0aG9uJywgJy1waCcsICc3LjAnLCAnLXRuJywgJzgnLCAnLW1hJywgJzIwMCcsICctbWV0YWxfYmluZGluZycsICctaW1hZScsICc8aW5maWxlLm1hZT4nLCAnLW9tYWUnLCAnPG91dGZpbGUubWFlPic=

> <r_lp_tautomer_probability>
1

> <r_epik_Ionization_Penalty>
0.255703

> <r_epik_Ionization_Penalty_Charging>
0

> <r_epik_Ionization_Penalty_Neutral>
0.255703

> <r_epik_State_Penalty>
0.247169

> <r_epik_Charging_Adjusted_Penalty>
0.247169

> <i_epik_Tot_Q>
1

> <i_epik_Tot_abs_Q>
1

> <r_epik_Metal_State_Penalty>
0.536791

> <b_epik_Metal_Only>
0

> <s_lp_Force_Field>
OPLS_2005

> <r_lp_Energy>
19.451

> <b_lp_Chiralities_Consistent>
1

> <s_lp_Variant>
AV-unprocessed.smi:3292-2

> <Gold.Version>
5.8.1

> <Gold.Id.Protein>
6NUR|6NUR_protein|mol2

> <Gold.PLP.Fitness>
42.5759

> <Gold.PLP.PLP>
-32.4137

> <Gold.PLP.part.hbond>
-3.0183

> <Gold.PLP.part.metal>
0.0000

> <Gold.PLP.part.buried>
-3.3686

> <Gold.PLP.part.nonpolar>
-26.7965

> <Gold.PLP.part.repulsive>
0.3400

> <Gold.PLP.ligand.clash>
0.0000

> <Gold.PLP.ligand.torsion>
0.4379

> <Gold.PLP.Chemscore.Hbond>
3.6136

> <Gold.PLP.Chemscore.CHOScore>
0.0000

> <Gold.PLP.Chemscore.Metal>
0.0000

> <Gold.Chemscore.Hbonds>
donor molecule, donor type, donor heavy atom, donor atom, acceptor molecule, acceptor atom, score
      L1  H     7    39       P1  8028  2.00
      L1  H     9    28       P1  7948  1.00
      L1  H    12    29       P1  7948  0.66

> <Gold.PLP.Chemscore.Internal.Correction>
0.1972

> <Gold.Rescore>
     Score         DG    S(hbond)    S(metal)    S(lipo)     H(rot)  DE(clash)    DE(int)     intcor
     12.78     -14.59       2.55        0.00      53.87       2.24       0.01       1.80       ----

> <Gold.Chemscore.Fitness>
12.7833

> <Gold.Chemscore.DG>
-14.5905

> <Gold.Chemscore.ZeroCoef>
-5.4800

> <Gold.Chemscore.Hbond>
2.5548

> <Gold.Chemscore.Metal>
0.0000

> <Gold.Chemscore.Lipo>
53.8731

> <Gold.Chemscore.Internal_Hbond>
0.0000

> <Gold.Chemscore.DEClash>
0.0106

> <Gold.Chemscore.DEInternal>
1.7966

> <Gold.Chemscore.Rot>
2.2367

> <Gold.Chemscore.Internal.Correction>
   9.000000E+99

> <Gold.Chemscore.Hbonds>
donor molecule, donor type, donor heavy atom, donor atom, acceptor molecule, acceptor atom, score
      L1  H     7    39       P1  8028  1.00
      L1  H     9    28       P1  7948  0.82
      L1  H    12    29       P1  7948  0.07

> <Gold.Chemscore.Hbond.Weighted>
-8.5332

> <Gold.Chemscore.Metal.Weighted>
-0.0000

> <Gold.Chemscore.Lipo.Weighted>
-6.3032

> <Gold.Chemscore.Internal_Hbond.Weighted>
0.0000

> <Gold.Chemscore.DEClash.Weighted>
0.0106

> <Gold.Chemscore.DEInternal.Weighted>
1.7966

> <Gold.Chemscore.Rot.Weighted>
5.7259

> <Gold.Chemscore.Internal.Correction.Weighted>
   9.000000E+99

> <Gold.Protein.RotatedTorsions>
[ 6907 6896 6895 6894 ] final  126.51 input  -60.11 | X-H torsion
[ 7974 7965 7964 7962 ] final   58.99 input  175.53 | X-H torsion
[ 8008 7997 7996 7995 ] final -176.21 input   59.86 | X-H torsion
[ 10167 10162 10161 10158 ] final  -44.23 input  -65.29 | X-H torsion
[ 10718 10713 10712 10709 ] final  -34.44 input   66.30 | X-H torsion
[ 10763 10752 10751 10750 ] final  -61.92 input  -60.55 | X-H torsion
[ 11005 11000 10999 10996 ] final   49.56 input  -57.11 | X-H torsion

> <Gold.Protein.ActiveResidues>
 VAL166  LYS551  ARG553  GLY616  TRP617  ASP618  TYR619  PRO620  LYS621  CYS622 
 ASP623  PHE694  ASN695  SER759  ASP760  ASP761  ALA762  ILE779  LEU786  VAL792 
 PHE793  MET794  SER795  GLU796  ALA797  LYS798  CYS799  TRP800  GLU811  SER814 

> <Gold.Protein.RotatedAtoms>
  152.3897  133.6661  159.6227 H   0  0  0  0  0  0  0  0  0  0  0  0  # atno 6907 bound_to 6896
  150.7808  133.8975  159.3340 H   0  0  0  0  0  0  0  0  0  0  0  0  # atno 6908 bound_to 6896
  151.6764  135.0970  160.0259 H   0  0  0  0  0  0  0  0  0  0  0  0  # atno 6909 bound_to 6896
  145.9121  139.3662  143.0529 H   0  0  0  0  0  0  0  0  0  0  0  0  # atno 7974 bound_to 7965
  155.9921  140.1203  157.0628 H   0  0  0  0  0  0  0  0  0  0  0  0  # atno 8008 bound_to 7997
  154.4215  140.1123  156.5648 H   0  0  0  0  0  0  0  0  0  0  0  0  # atno 8009 bound_to 7997
  155.6328  140.3473  155.4691 H   0  0  0  0  0  0  0  0  0  0  0  0  # atno 8010 bound_to 7997
  140.6904  143.2941  151.3466 H   0  0  0  0  0  0  0  0  0  0  0  0  # atno 10167 bound_to 10162
  156.3506  130.4308  149.7708 H   0  0  0  0  0  0  0  0  0  0  0  0  # atno 10718 bound_to 10713
  154.2919  135.6252  153.5389 H   0  0  0  0  0  0  0  0  0  0  0  0  # atno 10763 bound_to 10752
  152.9851  135.5658  154.5380 H   0  0  0  0  0  0  0  0  0  0  0  0  # atno 10764 bound_to 10752
  154.4993  135.2871  155.1410 H   0  0  0  0  0  0  0  0  0  0  0  0  # atno 10765 bound_to 10752
  140.1092  134.4977  155.8692 H   0  0  0  0  0  0  0  0  0  0  0  0  # atno 11005 bound_to 11000
  145.8659  140.9448  143.0676 LP  0  0  0  0  0  0  0  0  0  0  0  0  # atno 17320 bound_to 7965
  144.6744  140.0591  143.7476 LP  0  0  0  0  0  0  0  0  0  0  0  0  # atno 17321 bound_to 7965
  139.6302  144.0735  152.2469 LP  0  0  0  0  0  0  0  0  0  0  0  0  # atno 17342 bound_to 10162
  140.0208  144.6154  150.7568 LP  0  0  0  0  0  0  0  0  0  0  0  0  # atno 17343 bound_to 10162
  156.4910  130.8085  151.3094 LP  0  0  0  0  0  0  0  0  0  0  0  0  # atno 17370 bound_to 10713
  157.7460  130.9975  150.2819 LP  0  0  0  0  0  0  0  0  0  0  0  0  # atno 17371 bound_to 10713
  141.2126  133.6721  156.6672 LP  0  0  0  0  0  0  0  0  0  0  0  0  # atno 17394 bound_to 11000
  140.3114  134.8083  157.4179 LP  0  0  0  0  0  0  0  0  0  0  0  0  # atno 17395 bound_to 11000

$$$$
