#       Name:                AV-unprocessed.smi:578
#       Creating user name   scv26
#       Creation time:       Thu Mar 26 23:49:19 2020


#       File generated by GOLD software.
#

@<TRIPOS>MOLECULE
AV-unprocessed.smi:578
    40    41     1
SMALL
NO_CHARGES


@<TRIPOS>ATOM
      1 ****        -2.7724  -1.7954  -1.7057 C.3            1 S1                 0.0000
      2 ****        -2.1542  -1.0862  -0.4961 C.3            1 S1                 0.0000
      3 ****        -0.6148  -1.0773  -0.5547 C.3            1 S1                 0.0000
      4 ****        -0.0767  -0.3136   0.5632 N.3            1 S1                 0.0000
      5 ****         1.3224  -0.3554   0.6379 C.ar           1 S1                 0.0000
      6 ****         1.9392  -0.9862   1.7354 C.ar           1 S1                 0.0000
      7 ****         3.3454  -1.0168   1.7886 C.ar           1 S1                 0.0000
      8 ****         4.1349  -0.4721   0.8402 N.ar           1 S1                 0.0000
      9 ****         3.5510   0.1369  -0.2202 C.ar           1 S1                 0.0000
     10 ****         4.4539   0.7367  -1.2649 C.2            1 S1                 0.0000
     11 ****         3.9387   1.3052  -2.2541 O.co2          1 S1                 0.0000
     12 ****         5.6940   0.6509  -1.1161 O.co2          1 S1                -1.0000
     13 ****         2.1447   0.2161  -0.3584 C.ar           1 S1                 0.0000
     14 ****        -0.6184   1.0376   0.6230 C.3            1 S1                 0.0000
     15 ****        -2.1578   0.9881   0.6601 C.3            1 S1                 0.0000
     16 ****        -2.7803   2.3877   0.6268 C.3            1 S1                 0.0000
     17 ****        -2.6277   0.2592  -0.4727 O.3            1 S1                 0.0000
     18 ****        -2.4462  -2.8344  -1.7590 H              1 S1                 0.0000
     19 ****        -2.4879  -1.3067  -2.6379 H              1 S1                 0.0000
     20 ****        -3.8608  -1.7918  -1.6453 H              1 S1                 0.0000
     21 ****        -2.4839  -1.5961   0.4109 H              1 S1                 0.0000
     22 ****        -0.2313  -2.0979  -0.5201 H              1 S1                 0.0000
     23 ****        -0.2808  -0.6386  -1.4961 H              1 S1                 0.0000
     24 ****         1.3507  -1.4374   2.5207 H              1 S1                 0.0000
     25 ****         3.8507  -1.4924   2.6161 H              1 S1                 0.0000
     26 ****         1.7011   0.7058  -1.2133 H              1 S1                 0.0000
     27 ****        -0.2370   1.5468   1.5091 H              1 S1                 0.0000
     28 ****        -0.2861   1.6081  -0.2455 H              1 S1                 0.0000
     29 ****        -2.4869   0.4835   1.5704 H              1 S1                 0.0000
     30 ****        -2.4575   2.9803   1.4831 H              1 S1                 0.0000
     31 ****        -3.8688   2.3310   0.6538 H              1 S1                 0.0000
     32 ****        -2.4963   2.9249  -0.2786 H              1 S1                 0.0000
     33 ****        -0.3934  -0.7738   1.3926 LP             1 S1                 0.0000
     34 ****         5.1308  -0.5168   0.9180 LP             1 S1                 0.0000
     35 ****         4.5222   1.7097  -2.9583 LP             1 S1                 0.0000
     36 ****         2.9436   1.3548  -2.3401 LP             1 S1                 0.0000
     37 ****         6.3081   1.0440  -1.8005 LP             1 S1                 0.0000
     38 ****         6.0704   0.1893  -0.3129 LP             1 S1                 0.0000
     39 ****        -3.6274   0.2463  -0.4528 LP             1 S1                 0.0000
     40 ****        -2.3169   0.7223  -1.3027 LP             1 S1                 0.0000
@<TRIPOS>BOND
    1    1    2 1     
    2    1   18 1     
    3    1   19 1     
    4    1   20 1     
    5    2   17 1     
    6    2    3 1     
    7    2   21 1     
    8    3    4 1     
    9    3   22 1     
   10    3   23 1     
   11    4    5 1     
   12    4   14 1     
   13    5   13 ar    
   14    5    6 ar    
   15    6    7 ar    
   16    6   24 1     
   17    7    8 ar    
   18    7   25 1     
   19    8    9 ar    
   20    9   10 1     
   21    9   13 ar    
   22   10   11 ar    
   23   10   12 ar    
   24   13   26 1     
   25   14   15 1     
   26   14   27 1     
   27   14   28 1     
   28   15   16 1     
   29   15   17 1     
   30   15   29 1     
   31   16   30 1     
   32   16   31 1     
   33   16   32 1     
   34    4   33 1     
   35    8   34 1     
   36   11   35 1     
   37   11   36 1     
   38   12   37 1     
   39   12   38 1     
   40   17   39 1     
   41   17   40 1     
@<TRIPOS>SUBSTRUCTURE
      1 S1             1
@<TRIPOS>SET
LONE_PAIRS      STATIC     ATOMS    <user>   **** ""
8 33 34 35 36 37 38 39 40
ATOM$BLUE        STATIC     ATOMS    COLORGROUP SYSTEM
8 33 34 35 36 37 38 39 40
