#       Name:                AV-unprocessed.smi:758
#       Creating user name   scv26
#       Creation time:       Fri Mar 27 01:01:35 2020


#       File generated by GOLD software.
#

@<TRIPOS>MOLECULE
AV-unprocessed.smi:758
    53    54     1
SMALL
NO_CHARGES


@<TRIPOS>ATOM
      1 ****         0.0619  -3.4722  -0.7543 C.3            1 S1                 0.0000
      2 ****        -1.4508  -3.1600  -0.7511 C.3            1 S1                 0.0000
      3 ****        -2.0828  -3.8012  -2.0067 C.3            1 S1                 0.0000
      4 ****        -2.0892  -3.8540   0.4730 C.3            1 S1                 0.0000
      5 ****        -1.7414  -1.6186  -0.7161 C.3            1 S1                 0.0000
      6 ****        -1.2890  -0.8547  -1.9884 C.3            1 S1                 0.0000
      7 ****        -1.6464   0.6427  -1.9348 C.3            1 S1                 0.0000
      8 ****        -1.0940   1.3479  -0.6775 C.3            1 S1                 0.0000
      9 ****        -1.6741   2.6388  -0.6594 O.3            1 S1                 0.0000
     10 ****         0.4415   1.5549  -0.7648 C.3            1 S1                 0.0000
     11 ****         1.0086   2.0951   0.4694 N.am           1 S1                 0.0000
     12 ****         1.8628   1.4614   1.2891 C.2            1 S1                 0.0000
     13 ****         2.2900   0.3253   1.0857 O.2            1 S1                 0.0000
     14 ****         2.2974   2.2254   2.5405 C.3            1 S1                 0.0000
     15 ****         3.3207   3.2066   2.2290 N.pl3          1 S1                 0.0000
     16 ****         3.2149   4.4684   1.8077 C.2            1 S1                 0.0000
     17 ****         4.3810   5.0694   1.6176 N.2            1 S1                 0.0000
     18 ****         5.2220   4.0501   1.9652 C.2            1 S1                 0.0000
     19 ****         4.6376   2.9119   2.3394 N.2            1 S1                 0.0000
     20 ****        -1.5772   0.5871   0.5773 C.3            1 S1                 0.0000
     21 ****        -1.1855  -0.8990   0.5403 C.3            1 S1                 0.0000
     22 ****         0.2378  -4.5477  -0.7944 H              1 S1                 0.0000
     23 ****         0.5578  -3.1061   0.1443 H              1 S1                 0.0000
     24 ****         0.5687  -3.0356  -1.6143 H              1 S1                 0.0000
     25 ****        -1.5882  -3.4833  -2.9243 H              1 S1                 0.0000
     26 ****        -3.1409  -3.5515  -2.0928 H              1 S1                 0.0000
     27 ****        -2.0066  -4.8888  -1.9784 H              1 S1                 0.0000
     28 ****        -1.9992  -4.9389   0.4053 H              1 S1                 0.0000
     29 ****        -3.1516  -3.6215   0.5546 H              1 S1                 0.0000
     30 ****        -1.6120  -3.5651   1.4087 H              1 S1                 0.0000
     31 ****        -2.8268  -1.5137  -0.6722 H              1 S1                 0.0000
     32 ****        -0.2170  -0.9693  -2.1413 H              1 S1                 0.0000
     33 ****        -1.7650  -1.2706  -2.8751 H              1 S1                 0.0000
     34 ****        -1.2869   1.1392  -2.8370 H              1 S1                 0.0000
     35 ****        -2.7339   0.7339  -1.9552 H              1 S1                 0.0000
     36 ****        -1.4326   3.0873  -1.4555 H              1 S1                 0.0000
     37 ****         0.9347   0.6172  -1.0196 H              1 S1                 0.0000
     38 ****         0.6848   2.2389  -1.5788 H              1 S1                 0.0000
     39 ****         0.7085   3.0234   0.7295 H              1 S1                 0.0000
     40 ****         1.4413   2.7352   2.9845 H              1 S1                 0.0000
     41 ****         2.6803   1.5300   3.2893 H              1 S1                 0.0000
     42 ****         2.2667   4.9560   1.6345 H              1 S1                 0.0000
     43 ****         6.2973   4.1497   1.9417 H              1 S1                 0.0000
     44 ****        -1.2008   1.0496   1.4897 H              1 S1                 0.0000
     45 ****        -2.6641   0.6541   0.6448 H              1 S1                 0.0000
     46 ****        -1.5604  -1.3626   1.4512 H              1 S1                 0.0000
     47 ****        -0.1004  -0.9829   0.5787 H              1 S1                 0.0000
     48 ****        -1.3362   3.1494   0.1313 LP             1 S1                 0.0000
     49 ****        -2.6695   2.5605  -0.6050 LP             1 S1                 0.0000
     50 ****         2.0019  -0.1790   0.2716 LP             1 S1                 0.0000
     51 ****         2.9253  -0.0937   1.7345 LP             1 S1                 0.0000
     52 ****         4.5857   5.9984   1.3095 LP             1 S1                 0.0000
     53 ****         5.0647   2.0553   2.6290 LP             1 S1                 0.0000
@<TRIPOS>BOND
    1    1    2 1     
    2    1   22 1     
    3    1   23 1     
    4    1   24 1     
    5    2    3 1     
    6    2    4 1     
    7    2    5 1     
    8    3   25 1     
    9    3   26 1     
   10    3   27 1     
   11    4   28 1     
   12    4   29 1     
   13    4   30 1     
   14    5   21 1     
   15    5    6 1     
   16    5   31 1     
   17    6    7 1     
   18    6   32 1     
   19    6   33 1     
   20    7    8 1     
   21    7   34 1     
   22    7   35 1     
   23    8    9 1     
   24    8   10 1     
   25    8   20 1     
   26    9   36 1     
   27   10   11 1     
   28   10   37 1     
   29   10   38 1     
   30   11   12 am    
   31   11   39 1     
   32   12   13 2     
   33   12   14 1     
   34   14   15 1     
   35   14   40 1     
   36   14   41 1     
   37   15   19 1     
   38   15   16 1     
   39   16   17 2     
   40   16   42 1     
   41   17   18 1     
   42   18   19 2     
   43   18   43 1     
   44   20   21 1     
   45   20   44 1     
   46   20   45 1     
   47   21   46 1     
   48   21   47 1     
   49    9   48 1     
   50    9   49 1     
   51   13   50 1     
   52   13   51 1     
   53   17   52 1     
   54   19   53 1     
@<TRIPOS>SUBSTRUCTURE
      1 S1             1
@<TRIPOS>SET
LONE_PAIRS      STATIC     ATOMS    <user>   **** ""
6 48 49 50 51 52 53
DONOR_HYDROGENS      STATIC     ATOMS    <user>   **** ""
2 36 39
ATOM$BLUE        STATIC     ATOMS    COLORGROUP SYSTEM
6 48 49 50 51 52 53
ATOM$RED        STATIC     ATOMS    COLORGROUP SYSTEM
2 36 39
