AV-unprocessed.smi:2936|AV-procd|sdf|11258|dock2
  -GOLD-   2272016153D 1   1.00000     0.00000
 Structure written by MMmdl.
 24 25  0  0  0  0  0  0  0  0  1 V2000
  151.3633  138.1499  154.4715 O   0  0  0  0  0  0  0  0  0  0  0  0
  150.8848  139.2546  154.7209 C   0  0  0  0  0  0  0  0  0  0  0  0
  150.0477  139.8737  153.8547 N   0  0  0  0  0  0  0  0  0  0  0  0
  149.4530  141.1008  154.0249 N   0  0  0  0  0  0  0  0  0  0  0  0
  149.6991  141.7545  155.1083 C   0  0  0  0  0  0  0  0  0  0  0  0
  150.5764  141.2488  156.1527 C   0  0  0  0  0  0  0  0  0  0  0  0
  150.8025  142.0018  157.2948 N   0  0  0  0  0  0  0  0  0  0  0  0
  151.1952  143.4032  157.2673 C   0  0  0  0  0  0  0  0  0  0  0  0
  152.4919  143.6096  158.0701 C   0  0  0  0  0  0  0  0  0  0  0  0
  152.3175  143.1111  159.3939 O   0  0  0  0  0  0  0  0  0  0  0  0
  152.0183  141.7176  159.4106 C   0  0  0  0  0  0  0  0  0  0  0  0
  150.7083  141.4635  158.6438 C   0  0  0  0  0  0  0  0  0  0  0  0
  151.1438  140.0272  155.9441 C   0  0  0  0  0  0  0  0  0  0  0  0
  152.2020  139.3249  157.1201 Cl  0  0  0  0  0  0  0  0  0  0  0  0
  149.8132  139.4173  152.9850 H   0  0  0  0  0  0  0  0  0  0  0  0
  149.2570  142.7327  155.2994 H   0  0  0  0  0  0  0  0  0  0  0  0
  151.3331  143.7340  156.2374 H   0  0  0  0  0  0  0  0  0  0  0  0
  150.3897  144.0040  157.6909 H   0  0  0  0  0  0  0  0  0  0  0  0
  153.3351  143.1110  157.5908 H   0  0  0  0  0  0  0  0  0  0  0  0
  152.7374  144.6705  158.1193 H   0  0  0  0  0  0  0  0  0  0  0  0
  152.8440  141.1523  158.9765 H   0  0  0  0  0  0  0  0  0  0  0  0
  151.9175  141.3884  160.4449 H   0  0  0  0  0  0  0  0  0  0  0  0
  149.8721  141.9392  159.1570 H   0  0  0  0  0  0  0  0  0  0  0  0
  150.4948  140.3946  158.6072 H   0  0  0  0  0  0  0  0  0  0  0  0
  1  2  2  0  0  0  0
  2 13  1  0  0  0  0
  2  3  1  0  0  0  0
  3 15  1  0  0  0  0
  3  4  1  0  0  0  0
  4  5  2  0  0  0  0
  5  6  1  0  0  0  0
  5 16  1  0  0  0  0
  6  7  1  0  0  0  0
  6 13  2  0  0  0  0
  7 12  1  0  0  0  0
  7  8  1  0  0  0  0
  8  9  1  0  0  0  0
  8 17  1  0  0  0  0
  8 18  1  0  0  0  0
  9 10  1  0  0  0  0
  9 19  1  0  0  0  0
  9 20  1  0  0  0  0
 10 11  1  0  0  0  0
 11 12  1  0  0  0  0
 11 21  1  0  0  0  0
 11 22  1  0  0  0  0
 12 23  1  0  0  0  0
 12 24  1  0  0  0  0
 13 14  1  0  0  0  0
M  END
> <s_m_source_file>
AV-unprocessed.smi

> <i_m_source_file_index>
2936

> <i_lp_mmshare_version>
43012

> <i_f3d_flags>
0

> <s_epik_input>
Tz1jMVtuSF1uW2NIXWMoYzFDbClOMltDSDJdW0NIMl1PW0NIMl1bQ0gyXTI=

> <s_epik_cmdline>
J2VwaWtfcHl0aG9uJywgJy1waCcsICc3LjAnLCAnLXRuJywgJzgnLCAnLW1hJywgJzIwMCcsICctbWV0YWxfYmluZGluZycsICctaW1hZScsICc8aW5maWxlLm1hZT4nLCAnLW9tYWUnLCAnPG91dGZpbGUubWFlPic=

> <r_lp_tautomer_probability>
0.986175

> <r_epik_Ionization_Penalty>
0.0102925

> <r_epik_Ionization_Penalty_Charging>
0.0102925

> <r_epik_Ionization_Penalty_Neutral>
4.87729e-09

> <r_epik_State_Penalty>
1.65855

> <r_epik_Charging_Adjusted_Penalty>
1.66884

> <i_epik_Tot_Q>
0

> <i_epik_Tot_abs_Q>
0

> <r_epik_Metal_State_Penalty>
3.9956

> <b_epik_Metal_Only>
0

> <s_lp_Force_Field>
OPLS_2005

> <r_lp_Energy>
35.1147

> <b_lp_Chiralities_Consistent>
1

> <s_lp_Variant>
AV-unprocessed.smi:2936-2

> <Gold.Version>
5.8.1

> <Gold.Id.Protein>
6NUR|6NUR_protein|mol2

> <Gold.PLP.Fitness>
31.5304

> <Gold.PLP.PLP>
-24.6453

> <Gold.PLP.part.hbond>
-3.0000

> <Gold.PLP.part.metal>
0.0000

> <Gold.PLP.part.buried>
-0.9725

> <Gold.PLP.part.nonpolar>
-22.1393

> <Gold.PLP.part.repulsive>
3.6186

> <Gold.PLP.ligand.clash>
0.0000

> <Gold.PLP.ligand.torsion>
0.8632

> <Gold.PLP.Chemscore.Hbond>
1.3517

> <Gold.PLP.Chemscore.CHOScore>
1.0000

> <Gold.PLP.Chemscore.Metal>
0.0000

> <Gold.Chemscore.Hbonds>
donor molecule, donor type, donor heavy atom, donor atom, acceptor molecule, acceptor atom, score
      L1  H     3    15       P1  7957  0.69
      P1  H  8011  8017       L1     4  0.55
      L1  C     5    16       P1  8028  1.00

> <Gold.PLP.Chemscore.Internal.Correction>
1.5566

> <Gold.Rescore>
     Score         DG    S(hbond)    S(metal)    S(lipo)     H(rot)  DE(clash)    DE(int)     intcor
     13.31     -17.08       1.19        0.00      65.20       0.00       1.88       1.89       ----

> <Gold.Chemscore.Fitness>
13.3079

> <Gold.Chemscore.DG>
-17.0819

> <Gold.Chemscore.ZeroCoef>
-5.4800

> <Gold.Chemscore.Hbond>
1.1898

> <Gold.Chemscore.Metal>
0.0000

> <Gold.Chemscore.Lipo>
65.1964

> <Gold.Chemscore.Internal_Hbond>
0.0000

> <Gold.Chemscore.DEClash>
1.8799

> <Gold.Chemscore.DEInternal>
1.8941

> <Gold.Chemscore.Rot>
0.0000

> <Gold.Chemscore.Internal.Correction>
   9.000000E+99

> <Gold.Chemscore.Hbonds>
donor molecule, donor type, donor heavy atom, donor atom, acceptor molecule, acceptor atom, score
      L1  H     3    15       P1  7957  0.67
      P1  H  8011  8017       L1     4  0.29

> <Gold.Chemscore.Hbond.Weighted>
-3.9739

> <Gold.Chemscore.Metal.Weighted>
-0.0000

> <Gold.Chemscore.Lipo.Weighted>
-7.6280

> <Gold.Chemscore.Internal_Hbond.Weighted>
0.0000

> <Gold.Chemscore.DEClash.Weighted>
1.8799

> <Gold.Chemscore.DEInternal.Weighted>
1.8941

> <Gold.Chemscore.Rot.Weighted>
0.0000

> <Gold.Chemscore.Internal.Correction.Weighted>
   9.000000E+99

> <Gold.Protein.RotatedTorsions>
[ 6907 6896 6895 6894 ] final   39.08 input  -60.11 | X-H torsion
[ 7974 7965 7964 7962 ] final  153.65 input  175.53 | X-H torsion
[ 8008 7997 7996 7995 ] final  -30.50 input   59.86 | X-H torsion
[ 10167 10162 10161 10158 ] final -134.69 input  -65.29 | X-H torsion
[ 10718 10713 10712 10709 ] final  100.21 input   66.30 | X-H torsion
[ 10763 10752 10751 10750 ] final -110.74 input  -60.55 | X-H torsion
[ 11005 11000 10999 10996 ] final  136.07 input  -57.11 | X-H torsion

> <Gold.Protein.ActiveResidues>
 VAL166  LYS551  ARG553  GLY616  TRP617  ASP618  TYR619  PRO620  LYS621  CYS622 
 ASP623  PHE694  ASN695  SER759  ASP760  ASP761  ALA762  ILE779  LEU786  VAL792 
 PHE793  MET794  SER795  GLU796  ALA797  LYS798  CYS799  TRP800  GLU811  SER814 

> <Gold.Protein.RotatedAtoms>
  152.1649  134.8882  160.0538 H   0  0  0  0  0  0  0  0  0  0  0  0  # atno 6907 bound_to 6896
  151.9864  133.3770  159.4135 H   0  0  0  0  0  0  0  0  0  0  0  0  # atno 6908 bound_to 6896
  150.6893  134.3907  159.5119 H   0  0  0  0  0  0  0  0  0  0  0  0  # atno 6909 bound_to 6896
  144.8141  139.6828  143.6129 H   0  0  0  0  0  0  0  0  0  0  0  0  # atno 7974 bound_to 7965
  154.4248  140.1789  156.1417 H   0  0  0  0  0  0  0  0  0  0  0  0  # atno 8008 bound_to 7997
  155.9986  140.3362  155.6798 H   0  0  0  0  0  0  0  0  0  0  0  0  # atno 8009 bound_to 7997
  155.6274  140.0666  157.2650 H   0  0  0  0  0  0  0  0  0  0  0  0  # atno 8010 bound_to 7997
  139.8854  143.6787  152.2621 H   0  0  0  0  0  0  0  0  0  0  0  0  # atno 10167 bound_to 10162
  157.6859  131.0692  150.5066 H   0  0  0  0  0  0  0  0  0  0  0  0  # atno 10718 bound_to 10713
  154.8264  135.4553  154.0931 H   0  0  0  0  0  0  0  0  0  0  0  0  # atno 10763 bound_to 10752
  153.2242  135.6898  153.7971 H   0  0  0  0  0  0  0  0  0  0  0  0  # atno 10764 bound_to 10752
  153.7377  135.3317  155.3274 H   0  0  0  0  0  0  0  0  0  0  0  0  # atno 10765 bound_to 10752
  140.0021  134.9474  157.0096 H   0  0  0  0  0  0  0  0  0  0  0  0  # atno 11005 bound_to 11000
  146.2442  139.6064  142.9471 LP  0  0  0  0  0  0  0  0  0  0  0  0  # atno 17320 bound_to 7965
  145.5256  141.0430  143.2411 LP  0  0  0  0  0  0  0  0  0  0  0  0  # atno 17321 bound_to 7965
  139.7157  144.7612  151.1037 LP  0  0  0  0  0  0  0  0  0  0  0  0  # atno 17342 bound_to 10162
  140.7737  143.5272  150.9466 LP  0  0  0  0  0  0  0  0  0  0  0  0  # atno 17343 bound_to 10162
  156.5385  130.4202  149.6166 LP  0  0  0  0  0  0  0  0  0  0  0  0  # atno 17370 bound_to 10713
  156.3006  130.7175  151.2045 LP  0  0  0  0  0  0  0  0  0  0  0  0  # atno 17371 bound_to 10713
  140.4708  134.1388  155.7203 LP  0  0  0  0  0  0  0  0  0  0  0  0  # atno 17394 bound_to 11000
  141.1650  133.8720  157.1741 LP  0  0  0  0  0  0  0  0  0  0  0  0  # atno 17395 bound_to 11000

$$$$
