AV-unprocessed.smi:671|AV-procd|sdf|3277|dock6
  -GOLD-   22720 0233D 1   1.00000     0.00000
 Structure written by MMmdl.
 49 50  0  0  0  0  0  0  0  0  1 V2000
  152.0002  138.1200  154.1229 C   0  0  0  0  0  0  0  0  0  0  0  0
  150.9179  138.9586  154.7413 C   0  0  0  0  0  0  0  0  0  0  0  0
  150.4062  139.9581  154.0432 N   0  0  0  0  0  0  0  0  0  0  0  0
  149.4806  140.5071  154.8549 N   0  0  0  0  0  0  0  0  0  0  0  0
  148.7168  141.6496  154.3921 C   0  0  0  0  0  0  0  0  0  0  0  0
  149.4055  139.8521  156.0686 C   0  0  0  0  0  0  0  0  0  0  0  0
  148.4508  140.2717  157.1398 C   0  0  0  0  0  0  0  0  0  0  0  0
  150.3254  138.8380  156.0335 C   0  0  0  0  0  0  0  0  0  0  0  0
  150.6540  137.8215  157.0967 C   0  0  0  0  0  0  0  0  0  0  0  0
  151.8213  138.2750  158.0020 C   0  0  2  0  0  0  0  0  0  0  0  0
  151.8390  137.5390  159.3509 C   0  0  0  0  0  0  0  0  0  0  0  0
  151.7466  139.7172  158.2515 N   0  0  0  0  0  0  0  0  0  0  0  0
  152.6758  140.5125  158.8137 C   0  0  0  0  0  0  0  0  0  0  0  0
  153.7543  140.0732  159.2074 O   0  0  0  0  0  0  0  0  0  0  0  0
  152.3172  141.8039  158.9094 N   0  0  0  0  0  0  0  0  0  0  0  0
  153.1050  142.8850  159.4995 C   0  0  2  0  0  0  0  0  0  0  0  0
  153.2546  142.6505  161.0157 C   0  0  0  0  0  0  0  0  0  0  0  0
  152.4043  143.7173  161.7202 C   0  0  0  0  0  0  0  0  0  0  0  0
  151.5487  144.3602  160.6287 C   0  0  0  0  0  0  0  0  0  0  0  0
  152.4054  144.2533  159.3668 C   0  0  2  0  0  0  0  0  0  0  0  0
  151.6290  144.5036  158.0624 C   0  0  0  0  0  0  0  0  0  0  0  0
  152.2676  137.2785  154.7601 H   0  0  0  0  0  0  0  0  0  0  0  0
  152.9041  138.7063  153.9573 H   0  0  0  0  0  0  0  0  0  0  0  0
  151.6834  137.7148  153.1617 H   0  0  0  0  0  0  0  0  0  0  0  0
  147.6612  141.3842  154.3315 H   0  0  0  0  0  0  0  0  0  0  0  0
  149.0576  141.9680  153.4059 H   0  0  0  0  0  0  0  0  0  0  0  0
  148.8369  142.4780  155.0905 H   0  0  0  0  0  0  0  0  0  0  0  0
  148.4265  139.5503  157.9560 H   0  0  0  0  0  0  0  0  0  0  0  0
  147.4379  140.3582  156.7460 H   0  0  0  0  0  0  0  0  0  0  0  0
  148.7369  141.2382  157.5550 H   0  0  0  0  0  0  0  0  0  0  0  0
  149.7674  137.6366  157.7036 H   0  0  0  0  0  0  0  0  0  0  0  0
  150.8942  136.8543  156.6543 H   0  0  0  0  0  0  0  0  0  0  0  0
  152.7672  138.0560  157.5040 H   0  0  0  0  0  0  0  0  0  0  0  0
  151.9739  136.4656  159.2171 H   0  0  0  0  0  0  0  0  0  0  0  0
  150.9090  137.6918  159.8996 H   0  0  0  0  0  0  0  0  0  0  0  0
  152.6579  137.8914  159.9788 H   0  0  0  0  0  0  0  0  0  0  0  0
  150.8808  140.1622  157.9831 H   0  0  0  0  0  0  0  0  0  0  0  0
  151.4092  142.0599  158.5504 H   0  0  0  0  0  0  0  0  0  0  0  0
  154.0911  142.9267  159.0334 H   0  0  0  0  0  0  0  0  0  0  0  0
  152.9351  141.6478  161.3037 H   0  0  0  0  0  0  0  0  0  0  0  0
  154.2976  142.7450  161.3190 H   0  0  0  0  0  0  0  0  0  0  0  0
  151.7971  143.2986  162.5232 H   0  0  0  0  0  0  0  0  0  0  0  0
  153.0577  144.4701  162.1626 H   0  0  0  0  0  0  0  0  0  0  0  0
  150.6255  143.7929  160.5026 H   0  0  0  0  0  0  0  0  0  0  0  0
  151.2764  145.3889  160.8658 H   0  0  0  0  0  0  0  0  0  0  0  0
  153.1820  145.0168  159.4379 H   0  0  0  0  0  0  0  0  0  0  0  0
  150.7812  143.8261  157.9564 H   0  0  0  0  0  0  0  0  0  0  0  0
  152.2744  144.3725  157.1936 H   0  0  0  0  0  0  0  0  0  0  0  0
  151.2390  145.5213  158.0340 H   0  0  0  0  0  0  0  0  0  0  0  0
  1  2  1  0  0  0  0
  1 22  1  0  0  0  0
  1 23  1  0  0  0  0
  1 24  1  0  0  0  0
  2  8  1  0  0  0  0
  2  3  2  0  0  0  0
  3  4  1  0  0  0  0
  4  5  1  0  0  0  0
  4  6  1  0  0  0  0
  5 25  1  0  0  0  0
  5 26  1  0  0  0  0
  5 27  1  0  0  0  0
  6  7  1  0  0  0  0
  6  8  2  0  0  0  0
  7 28  1  0  0  0  0
  7 29  1  0  0  0  0
  7 30  1  0  0  0  0
  8  9  1  0  0  0  0
  9 10  1  0  0  0  0
  9 31  1  0  0  0  0
  9 32  1  0  0  0  0
 10 11  1  0  0  0  0
 10 12  1  0  0  0  0
 10 33  1  0  0  0  0
 11 34  1  0  0  0  0
 11 35  1  0  0  0  0
 11 36  1  0  0  0  0
 12 13  1  0  0  0  0
 12 37  1  0  0  0  0
 13 14  2  0  0  0  0
 13 15  1  0  0  0  0
 15 16  1  0  0  0  0
 15 38  1  0  0  0  0
 16 20  1  0  0  0  0
 16 17  1  0  0  0  0
 16 39  1  0  0  0  0
 17 18  1  0  0  0  0
 17 40  1  0  0  0  0
 17 41  1  0  0  0  0
 18 19  1  0  0  0  0
 18 42  1  0  0  0  0
 18 43  1  0  0  0  0
 19 20  1  0  0  0  0
 19 44  1  0  0  0  0
 19 45  1  0  0  0  0
 20 21  1  0  0  0  0
 20 46  1  0  0  0  0
 21 47  1  0  0  0  0
 21 48  1  0  0  0  0
 21 49  1  0  0  0  0
M  END
> <s_m_source_file>
AV-unprocessed.smi

> <i_m_source_file_index>
671

> <i_lp_mmshare_version>
43012

> <i_f3d_flags>
0

> <s_epik_input>
W0NIM11jMW5uKFtDSDNdKWMoW0NIM10pYzFbQ0gyXVtDQEhdKFtDSDNdKVtOSF1DKD1PKVtOSF1bQ0BASF0yW0NIMl1bQ0gyXVtDSDJdW0NASF0yW0NIM10=

> <s_epik_cmdline>
J2VwaWtfcHl0aG9uJywgJy1waCcsICc3LjAnLCAnLXRuJywgJzgnLCAnLW1hJywgJzIwMCcsICctbWV0YWxfYmluZGluZycsICctaW1hZScsICc8aW5maWxlLm1hZT4nLCAnLW9tYWUnLCAnPG91dGZpbGUubWFlPic=

> <r_lp_tautomer_probability>
1

> <r_epik_Ionization_Penalty>
0.0126855

> <r_epik_Ionization_Penalty_Charging>
0

> <r_epik_Ionization_Penalty_Neutral>
0.0126855

> <r_epik_State_Penalty>
0.00977547

> <r_epik_Charging_Adjusted_Penalty>
0.00977547

> <i_epik_Tot_Q>
0

> <i_epik_Tot_abs_Q>
0

> <r_epik_Metal_State_Penalty>
0.00957132

> <b_epik_Metal_Only>
0

> <s_lp_Force_Field>
OPLS_2005

> <r_lp_Energy>
22.3824

> <b_lp_Chiralities_Consistent>
1

> <s_lp_Variant>
AV-unprocessed.smi:671-5

> <Gold.Version>
5.8.1

> <Gold.Id.Protein>
6NUR|6NUR_protein|mol2

> <Gold.PLP.Fitness>
46.7268

> <Gold.PLP.PLP>
-42.9619

> <Gold.PLP.part.hbond>
-1.8840

> <Gold.PLP.part.metal>
0.0000

> <Gold.PLP.part.buried>
-6.5937

> <Gold.PLP.part.nonpolar>
-34.4470

> <Gold.PLP.part.repulsive>
1.3678

> <Gold.PLP.ligand.clash>
0.0000

> <Gold.PLP.ligand.torsion>
0.6857

> <Gold.PLP.Chemscore.Hbond>
1.6932

> <Gold.PLP.Chemscore.CHOScore>
0.0000

> <Gold.PLP.Chemscore.Metal>
0.0000

> <Gold.Chemscore.Hbonds>
donor molecule, donor type, donor heavy atom, donor atom, acceptor molecule, acceptor atom, score
      P1  H  7989  7998       L1     3  1.00
      P1  H  7997  8010       L1    14  0.42

> <Gold.PLP.Chemscore.Internal.Correction>
0.0567

> <Gold.Rescore>
     Score         DG    S(hbond)    S(metal)    S(lipo)     H(rot)  DE(clash)    DE(int)     intcor
     18.26     -19.05       0.94        0.00     120.93       1.45       0.00       0.78       ----

> <Gold.Chemscore.Fitness>
18.2633

> <Gold.Chemscore.DG>
-19.0467

> <Gold.Chemscore.ZeroCoef>
-5.4800

> <Gold.Chemscore.Hbond>
0.9371

> <Gold.Chemscore.Metal>
0.0000

> <Gold.Chemscore.Lipo>
120.9287

> <Gold.Chemscore.Internal_Hbond>
0.0000

> <Gold.Chemscore.DEClash>
0.0004

> <Gold.Chemscore.DEInternal>
0.7829

> <Gold.Chemscore.Rot>
1.4499

> <Gold.Chemscore.Internal.Correction>
   9.000000E+99

> <Gold.Chemscore.Hbonds>
donor molecule, donor type, donor heavy atom, donor atom, acceptor molecule, acceptor atom, score
      P1  H  7989  7998       L1     3  0.66
      P1  H  7997  8010       L1    14  0.09

> <Gold.Chemscore.Hbond.Weighted>
-3.1299

> <Gold.Chemscore.Metal.Weighted>
-0.0000

> <Gold.Chemscore.Lipo.Weighted>
-14.1487

> <Gold.Chemscore.Internal_Hbond.Weighted>
0.0000

> <Gold.Chemscore.DEClash.Weighted>
0.0004

> <Gold.Chemscore.DEInternal.Weighted>
0.7829

> <Gold.Chemscore.Rot.Weighted>
3.7118

> <Gold.Chemscore.Internal.Correction.Weighted>
   9.000000E+99

> <Gold.Protein.RotatedTorsions>
[ 6907 6896 6895 6894 ] final  140.32 input  -60.11 | X-H torsion
[ 7974 7965 7964 7962 ] final  173.30 input  175.53 | X-H torsion
[ 8008 7997 7996 7995 ] final   16.33 input   59.86 | X-H torsion
[ 10167 10162 10161 10158 ] final  126.14 input  -65.29 | X-H torsion
[ 10718 10713 10712 10709 ] final  167.49 input   66.30 | X-H torsion
[ 10763 10752 10751 10750 ] final   26.13 input  -60.55 | X-H torsion
[ 11005 11000 10999 10996 ] final  140.17 input  -57.11 | X-H torsion

> <Gold.Protein.ActiveResidues>
 VAL166  LYS551  ARG553  GLY616  TRP617  ASP618  TYR619  PRO620  LYS621  CYS622 
 ASP623  PHE694  ASN695  SER759  ASP760  ASP761  ALA762  ILE779  LEU786  VAL792 
 PHE793  MET794  SER795  GLU796  ALA797  LYS798  CYS799  TRP800  GLU811  SER814 

> <Gold.Protein.RotatedAtoms>
  152.2445  133.5163  159.5288 H   0  0  0  0  0  0  0  0  0  0  0  0  # atno 6907 bound_to 6896
  150.7074  134.1044  159.3986 H   0  0  0  0  0  0  0  0  0  0  0  0  # atno 6908 bound_to 6896
  151.8965  135.0395  160.0553 H   0  0  0  0  0  0  0  0  0  0  0  0  # atno 6909 bound_to 6896
  144.7247  139.9627  143.6435 H   0  0  0  0  0  0  0  0  0  0  0  0  # atno 7974 bound_to 7965
  154.8754  140.2965  155.5456 H   0  0  0  0  0  0  0  0  0  0  0  0  # atno 8008 bound_to 7997
  156.3022  140.2452  156.3683 H   0  0  0  0  0  0  0  0  0  0  0  0  # atno 8009 bound_to 7997
  154.8773  140.0399  157.1750 H   0  0  0  0  0  0  0  0  0  0  0  0  # atno 8010 bound_to 7997
  139.5647  144.6904  151.3943 H   0  0  0  0  0  0  0  0  0  0  0  0  # atno 10167 bound_to 10162
  157.0508  131.0313  151.2681 H   0  0  0  0  0  0  0  0  0  0  0  0  # atno 10718 bound_to 10713
  153.0643  135.6567  154.0389 H   0  0  0  0  0  0  0  0  0  0  0  0  # atno 10763 bound_to 10752
  154.0050  135.2933  155.3400 H   0  0  0  0  0  0  0  0  0  0  0  0  # atno 10764 bound_to 10752
  154.6995  135.5250  153.8575 H   0  0  0  0  0  0  0  0  0  0  0  0  # atno 10765 bound_to 10752
  140.0308  134.9353  157.0658 H   0  0  0  0  0  0  0  0  0  0  0  0  # atno 11005 bound_to 11000
  146.0625  139.3617  143.0573 LP  0  0  0  0  0  0  0  0  0  0  0  0  # atno 17320 bound_to 7965
  145.8074  140.9742  143.0967 LP  0  0  0  0  0  0  0  0  0  0  0  0  # atno 17321 bound_to 7965
  140.6930  143.7816  150.7284 LP  0  0  0  0  0  0  0  0  0  0  0  0  # atno 17342 bound_to 10162
  140.1304  143.4531  152.2258 LP  0  0  0  0  0  0  0  0  0  0  0  0  # atno 17343 bound_to 10162
  157.5032  130.7892  149.7626 LP  0  0  0  0  0  0  0  0  0  0  0  0  # atno 17370 bound_to 10713
  156.0008  130.3881  150.2613 LP  0  0  0  0  0  0  0  0  0  0  0  0  # atno 17371 bound_to 10713
  140.4229  134.1862  155.7165 LP  0  0  0  0  0  0  0  0  0  0  0  0  # atno 17394 bound_to 11000
  141.1830  133.8374  157.1191 LP  0  0  0  0  0  0  0  0  0  0  0  0  # atno 17395 bound_to 11000

$$$$
