#       Name:                AV-unprocessed.smi:1281
#       Creating user name   scv26
#       Creation time:       Fri Mar 27 04:49:50 2020


#       File generated by GOLD software.
#

@<TRIPOS>MOLECULE
AV-unprocessed.smi:1281
    52    53     1
SMALL
NO_CHARGES


@<TRIPOS>ATOM
      1 ****        -3.1234   2.5238  -3.4636 C.3            1 S1                 0.0000
      2 ****        -2.8705   1.1569  -3.1923 O.3            1 S1                 0.0000
      3 ****        -3.2806   0.3065  -4.2511 C.3            1 S1                 0.0000
      4 ****        -2.9662  -1.1528  -3.8847 C.3            1 S1                 0.0000
      5 ****        -1.5216  -1.4004  -3.8211 N.am           1 S1                 0.0000
      6 ****        -0.9912  -1.3090  -2.5451 N.2            1 S1                 0.0000
      7 ****         0.2737  -1.4990  -2.3509 C.2            1 S1                 0.0000
      8 ****         0.8835  -1.4020  -0.9958 C.2            1 S1                 0.0000
      9 ****         2.0777  -1.6362  -0.8019 O.2            1 S1                 0.0000
     10 ****         0.0423  -1.0411  -0.0096 N.am           1 S1                 0.0000
     11 ****         0.4092  -0.8817   1.3924 C.3            1 S1                 0.0000
     12 ****         1.1153   0.4620   1.6459 C.3            1 S1                 0.0000
     13 ****         1.5488   0.6309   3.0923 C.2            1 S1                 0.0000
     14 ****         2.8480   0.6519   3.4488 C.2            1 S1                 0.0000
     15 ****         3.3391   0.7961   4.8787 C.3            1 S1                 0.0000
     16 ****         2.2187   0.5733   5.9084 C.3            1 S1                 0.0000
     17 ****         0.9266   1.2811   5.4824 C.3            1 S1                 0.0000
     18 ****         0.4297   0.7682   4.1187 C.3            1 S1                 0.0000
     19 ****         1.1571  -1.8168  -3.4604 C.2            1 S1                 0.0000
     20 ****         0.6265  -1.8956  -4.7005 C.2            1 S1                 0.0000
     21 ****        -0.7990  -1.6742  -4.9489 C.2            1 S1                 0.0000
     22 ****        -1.3030  -1.7268  -6.0705 O.2            1 S1                 0.0000
     23 ****        -2.7902   3.1313  -2.6221 H              1 S1                 0.0000
     24 ****        -4.1888   2.7067  -3.6102 H              1 S1                 0.0000
     25 ****        -2.5847   2.8551  -4.3524 H              1 S1                 0.0000
     26 ****        -4.3541   0.4178  -4.4105 H              1 S1                 0.0000
     27 ****        -2.7844   0.5860  -5.1818 H              1 S1                 0.0000
     28 ****        -3.4358  -1.4003  -2.9309 H              1 S1                 0.0000
     29 ****        -3.4279  -1.8214  -4.6132 H              1 S1                 0.0000
     30 ****        -0.9222  -0.8650  -0.2526 H              1 S1                 0.0000
     31 ****        -0.5043  -0.9463   1.9836 H              1 S1                 0.0000
     32 ****         1.0434  -1.7122   1.7073 H              1 S1                 0.0000
     33 ****         1.9911   0.5447   1.0007 H              1 S1                 0.0000
     34 ****         0.4591   1.2904   1.3763 H              1 S1                 0.0000
     35 ****         3.6140   0.5684   2.6916 H              1 S1                 0.0000
     36 ****         4.1494   0.0879   5.0538 H              1 S1                 0.0000
     37 ****         3.7609   1.7952   4.9909 H              1 S1                 0.0000
     38 ****         2.0239  -0.4951   6.0097 H              1 S1                 0.0000
     39 ****         2.5393   0.9236   6.8898 H              1 S1                 0.0000
     40 ****         0.1517   1.1427   6.2367 H              1 S1                 0.0000
     41 ****         1.1105   2.3547   5.4227 H              1 S1                 0.0000
     42 ****        -0.3380   1.4410   3.7351 H              1 S1                 0.0000
     43 ****        -0.0394  -0.2081   4.2434 H              1 S1                 0.0000
     44 ****         2.2132  -1.9845  -3.3065 H              1 S1                 0.0000
     45 ****         1.2717  -2.1292  -5.5346 H              1 S1                 0.0000
     46 ****        -3.3657   0.8979  -2.3630 LP             1 S1                 0.0000
     47 ****        -1.8887   1.0356  -3.0458 LP             1 S1                 0.0000
     48 ****        -1.5877  -1.0955  -1.7714 LP             1 S1                 0.0000
     49 ****         2.6661  -1.8998  -1.5663 LP             1 S1                 0.0000
     50 ****         2.4584  -1.5626   0.1199 LP             1 S1                 0.0000
     51 ****        -2.2831  -1.5654  -6.1863 LP             1 S1                 0.0000
     52 ****        -0.7324  -1.9308  -6.8659 LP             1 S1                 0.0000
@<TRIPOS>BOND
    1    1    2 1     
    2    1   23 1     
    3    1   24 1     
    4    1   25 1     
    5    2    3 1     
    6    3    4 1     
    7    3   26 1     
    8    3   27 1     
    9    4    5 1     
   10    4   28 1     
   11    4   29 1     
   12    5   21 am    
   13    5    6 1     
   14    6    7 2     
   15    7    8 1     
   16    7   19 1     
   17    8    9 2     
   18    8   10 am    
   19   10   11 1     
   20   10   30 1     
   21   11   12 1     
   22   11   31 1     
   23   11   32 1     
   24   12   13 1     
   25   12   33 1     
   26   12   34 1     
   27   13   18 1     
   28   13   14 2     
   29   14   15 1     
   30   14   35 1     
   31   15   16 1     
   32   15   36 1     
   33   15   37 1     
   34   16   17 1     
   35   16   38 1     
   36   16   39 1     
   37   17   18 1     
   38   17   40 1     
   39   17   41 1     
   40   18   42 1     
   41   18   43 1     
   42   19   20 2     
   43   19   44 1     
   44   20   21 1     
   45   20   45 1     
   46   21   22 2     
   47    2   46 1     
   48    2   47 1     
   49    6   48 1     
   50    9   49 1     
   51    9   50 1     
   52   22   51 1     
   53   22   52 1     
@<TRIPOS>SUBSTRUCTURE
      1 S1             1
@<TRIPOS>SET
LONE_PAIRS      STATIC     ATOMS    <user>   **** ""
7 46 47 48 49 50 51 52
DONOR_HYDROGENS      STATIC     ATOMS    <user>   **** ""
1 30
ATOM$BLUE        STATIC     ATOMS    COLORGROUP SYSTEM
7 46 47 48 49 50 51 52
ATOM$RED        STATIC     ATOMS    COLORGROUP SYSTEM
1 30
