AV-unprocessed.smi:648|AV-procd|sdf|3175|dock10
  -GOLD-   22720 0103D 1   1.00000     0.00000
 Structure written by MMmdl.
 45 46  0  0  0  0  0  0  0  0  1 V2000
  142.9454  138.3613  155.3616 C   0  0  0  0  0  0  0  0  0  0  0  0
  144.3602  138.5058  154.7815 C   0  0  1  0  0  0  0  0  0  0  0  0
  145.3823  138.8197  155.8907 C   0  0  0  0  0  0  0  0  0  0  0  0
  146.8291  138.9957  155.3729 C   0  0  0  0  0  0  0  0  0  0  0  0
  147.0054  140.3777  154.7018 C   0  0  0  0  0  0  0  0  0  0  0  0
  147.7850  138.9784  156.5863 C   0  0  0  0  0  0  0  0  0  0  0  0
  147.2212  137.8073  154.4409 C   0  0  0  0  0  0  0  0  0  0  0  0
  146.1860  137.3358  153.3702 C   0  0  1  0  0  0  0  0  0  0  0  0
  146.1753  138.3012  152.1531 C   0  0  0  0  0  0  0  0  0  0  0  0
  147.3845  138.2503  151.4192 O   0  0  0  0  0  0  0  0  0  0  0  0
  146.6171  136.0307  152.8179 N   0  0  0  0  0  0  0  0  0  0  0  0
  145.7907  135.3549  151.8102 C   0  0  0  0  0  0  0  0  0  0  0  0
  146.4101  134.0043  151.4273 C   0  0  0  0  0  0  0  0  0  0  0  0
  145.4215  133.0983  150.8770 N   0  0  0  0  0  0  0  0  0  0  0  0
  145.5699  131.9345  150.2420 C   0  0  0  0  0  0  0  0  0  0  0  0
  144.4250  131.3737  149.8774 N   0  0  0  0  0  0  0  0  0  0  0  0
  143.5511  132.3105  150.3532 C   0  0  0  0  0  0  0  0  0  0  0  0
  144.0967  133.3635  150.9623 N   0  0  0  0  0  0  0  0  0  0  0  0
  144.7822  137.2301  154.0309 C   0  0  0  0  0  0  0  0  0  0  0  0
  142.8913  137.5412  156.0783 H   0  0  0  0  0  0  0  0  0  0  0  0
  142.2168  138.1640  154.5750 H   0  0  0  0  0  0  0  0  0  0  0  0
  142.6362  139.2724  155.8746 H   0  0  0  0  0  0  0  0  0  0  0  0
  144.3258  139.3368  154.0785 H   0  0  0  0  0  0  0  0  0  0  0  0
  145.0753  139.7135  156.4359 H   0  0  0  0  0  0  0  0  0  0  0  0
  145.3574  138.0067  156.6182 H   0  0  0  0  0  0  0  0  0  0  0  0
  147.9459  140.4396  154.1536 H   0  0  0  0  0  0  0  0  0  0  0  0
  147.0153  141.1746  155.4465 H   0  0  0  0  0  0  0  0  0  0  0  0
  146.1997  140.6343  154.0202 H   0  0  0  0  0  0  0  0  0  0  0  0
  148.8221  139.1106  156.2758 H   0  0  0  0  0  0  0  0  0  0  0  0
  147.7268  138.0378  157.1356 H   0  0  0  0  0  0  0  0  0  0  0  0
  147.5503  139.7754  157.2929 H   0  0  0  0  0  0  0  0  0  0  0  0
  148.1786  138.0146  153.9608 H   0  0  0  0  0  0  0  0  0  0  0  0
  147.4244  136.9691  155.1040 H   0  0  0  0  0  0  0  0  0  0  0  0
  145.3870  138.0728  151.4464 H   0  0  0  0  0  0  0  0  0  0  0  0
  146.0087  139.3292  152.4780 H   0  0  0  0  0  0  0  0  0  0  0  0
  147.8769  139.0369  151.5983 H   0  0  0  0  0  0  0  0  0  0  0  0
  147.5705  136.1118  152.4781 H   0  0  0  0  0  0  0  0  0  0  0  0
  144.7765  135.1905  152.1692 H   0  0  0  0  0  0  0  0  0  0  0  0
  145.7173  135.9616  150.9082 H   0  0  0  0  0  0  0  0  0  0  0  0
  147.1994  134.1435  150.6870 H   0  0  0  0  0  0  0  0  0  0  0  0
  146.8686  133.5318  152.2972 H   0  0  0  0  0  0  0  0  0  0  0  0
  146.5336  131.4893  150.0420 H   0  0  0  0  0  0  0  0  0  0  0  0
  142.4806  132.2128  150.2483 H   0  0  0  0  0  0  0  0  0  0  0  0
  144.7695  136.4231  154.7628 H   0  0  0  0  0  0  0  0  0  0  0  0
  144.0285  136.9653  153.2886 H   0  0  0  0  0  0  0  0  0  0  0  0
  1  2  1  0  0  0  0
  1 20  1  0  0  0  0
  1 21  1  0  0  0  0
  1 22  1  0  0  0  0
  2 19  1  0  0  0  0
  2  3  1  0  0  0  0
  2 23  1  0  0  0  0
  3  4  1  0  0  0  0
  3 24  1  0  0  0  0
  3 25  1  0  0  0  0
  4  5  1  0  0  0  0
  4  6  1  0  0  0  0
  4  7  1  0  0  0  0
  5 26  1  0  0  0  0
  5 27  1  0  0  0  0
  5 28  1  0  0  0  0
  6 29  1  0  0  0  0
  6 30  1  0  0  0  0
  6 31  1  0  0  0  0
  7  8  1  0  0  0  0
  7 32  1  0  0  0  0
  7 33  1  0  0  0  0
  8  9  1  0  0  0  0
  8 11  1  0  0  0  0
  8 19  1  0  0  0  0
  9 10  1  0  0  0  0
  9 34  1  0  0  0  0
  9 35  1  0  0  0  0
 10 36  1  0  0  0  0
 11 12  1  0  0  0  0
 11 37  1  0  0  0  0
 12 13  1  0  0  0  0
 12 38  1  0  0  0  0
 12 39  1  0  0  0  0
 13 14  1  0  0  0  0
 13 40  1  0  0  0  0
 13 41  1  0  0  0  0
 14 18  1  0  0  0  0
 14 15  1  0  0  0  0
 15 16  2  0  0  0  0
 15 42  1  0  0  0  0
 16 17  1  0  0  0  0
 17 18  2  0  0  0  0
 17 43  1  0  0  0  0
 19 44  1  0  0  0  0
 19 45  1  0  0  0  0
M  END
> <s_m_source_file>
AV-unprocessed.smi

> <i_m_source_file_index>
648

> <i_lp_mmshare_version>
43012

> <i_f3d_flags>
0

> <s_epik_input>
W0NIM11DMShbQ0gzXSlbQ0gyXVtDQEBIXShbQ0gzXSlbQ0gyXVtDQF0oW0NIMl0xKShbQ0gyXVtPSF0pW05IXVtDSDJdW0NIMl1uMltjSF1uW2NIXW4y

> <s_epik_cmdline>
J2VwaWtfcHl0aG9uJywgJy1waCcsICc3LjAnLCAnLXRuJywgJzgnLCAnLW1hJywgJzIwMCcsICctbWV0YWxfYmluZGluZycsICctaW1hZScsICc8aW5maWxlLm1hZT4nLCAnLW9tYWUnLCAnPG91dGZpbGUubWFlPic=

> <r_lp_tautomer_probability>
1

> <r_epik_Ionization_Penalty>
2.45849

> <r_epik_Ionization_Penalty_Charging>
0

> <r_epik_Ionization_Penalty_Neutral>
2.45849

> <r_epik_State_Penalty>
2.62037

> <r_epik_Charging_Adjusted_Penalty>
2.62037

> <i_epik_Tot_Q>
0

> <i_epik_Tot_abs_Q>
0

> <r_epik_Metal_State_Penalty>
2.62024

> <b_epik_Metal_Only>
0

> <s_lp_Force_Field>
OPLS_2005

> <r_lp_Energy>
36.0578

> <b_lp_Chiralities_Consistent>
1

> <s_lp_Variant>
AV-unprocessed.smi:648-6

> <Gold.Version>
5.8.1

> <Gold.Id.Protein>
6NUR|6NUR_protein|mol2

> <Gold.PLP.Fitness>
39.4294

> <Gold.PLP.PLP>
-22.7504

> <Gold.PLP.part.hbond>
-5.0000

> <Gold.PLP.part.metal>
0.0000

> <Gold.PLP.part.buried>
-1.5763

> <Gold.PLP.part.nonpolar>
-17.6764

> <Gold.PLP.part.repulsive>
0.3184

> <Gold.PLP.ligand.clash>
0.0000

> <Gold.PLP.ligand.torsion>
0.3091

> <Gold.PLP.Chemscore.Hbond>
3.2800

> <Gold.PLP.Chemscore.CHOScore>
2.4750

> <Gold.PLP.Chemscore.Metal>
0.0000

> <Gold.Chemscore.Hbonds>
donor molecule, donor type, donor heavy atom, donor atom, acceptor molecule, acceptor atom, score
      L1  H    10    36       P1  7957  0.85
      L1  H    11    37       P1  7948  0.94
      P1  H  7954  7966       L1    10  0.80
      P1  H 10785 10796       L1    16  0.43
      L1  C    15    42       P1 10747  1.00
      L1  C    17    43       P1 10186  0.39
      L1  C    17    43       P1 10952  0.88

> <Gold.PLP.Chemscore.Internal.Correction>
0.0323

> <Gold.Rescore>
     Score         DG    S(hbond)    S(metal)    S(lipo)     H(rot)  DE(clash)    DE(int)     intcor
     11.36     -11.76       3.05        0.00      34.97       3.12       0.04       0.36       ----

> <Gold.Chemscore.Fitness>
11.3618

> <Gold.Chemscore.DG>
-11.7626

> <Gold.Chemscore.ZeroCoef>
-5.4800

> <Gold.Chemscore.Hbond>
3.0462

> <Gold.Chemscore.Metal>
0.0000

> <Gold.Chemscore.Lipo>
34.9678

> <Gold.Chemscore.Internal_Hbond>
0.0000

> <Gold.Chemscore.DEClash>
0.0387

> <Gold.Chemscore.DEInternal>
0.3621

> <Gold.Chemscore.Rot>
3.1183

> <Gold.Chemscore.Internal.Correction>
   9.000000E+99

> <Gold.Chemscore.Hbonds>
donor molecule, donor type, donor heavy atom, donor atom, acceptor molecule, acceptor atom, score
      L1  H    10    36       P1  7957  0.73
      L1  H    11    37       P1  7948  0.90
      P1  H  7954  7966       L1    10  0.12
      P1  H 10785 10796       L1    16  0.18

> <Gold.Chemscore.Hbond.Weighted>
-10.1743

> <Gold.Chemscore.Metal.Weighted>
-0.0000

> <Gold.Chemscore.Lipo.Weighted>
-4.0912

> <Gold.Chemscore.Internal_Hbond.Weighted>
0.0000

> <Gold.Chemscore.DEClash.Weighted>
0.0387

> <Gold.Chemscore.DEInternal.Weighted>
0.3621

> <Gold.Chemscore.Rot.Weighted>
7.9829

> <Gold.Chemscore.Internal.Correction.Weighted>
   9.000000E+99

> <Gold.Protein.RotatedTorsions>
[ 6907 6896 6895 6894 ] final   -5.95 input  -60.11 | X-H torsion
[ 7974 7965 7964 7962 ] final   25.07 input  175.53 | X-H torsion
[ 8008 7997 7996 7995 ] final  127.47 input   59.86 | X-H torsion
[ 10167 10162 10161 10158 ] final  133.74 input  -65.29 | X-H torsion
[ 10718 10713 10712 10709 ] final   77.89 input   66.30 | X-H torsion
[ 10763 10752 10751 10750 ] final  161.71 input  -60.55 | X-H torsion
[ 11005 11000 10999 10996 ] final  -13.62 input  -57.11 | X-H torsion

> <Gold.Protein.ActiveResidues>
 VAL166  LYS551  ARG553  GLY616  TRP617  ASP618  TYR619  PRO620  LYS621  CYS622 
 ASP623  PHE694  ASN695  SER759  ASP760  ASP761  ALA762  ILE779  LEU786  VAL792 
 PHE793  MET794  SER795  GLU796  ALA797  LYS798  CYS799  TRP800  GLU811  SER814 

> <Gold.Protein.RotatedAtoms>
  151.4733  135.1047  159.9757 H   0  0  0  0  0  0  0  0  0  0  0  0  # atno 6907 bound_to 6896
  152.4808  133.8245  159.7081 H   0  0  0  0  0  0  0  0  0  0  0  0  # atno 6908 bound_to 6896
  150.8878  133.7223  159.2940 H   0  0  0  0  0  0  0  0  0  0  0  0  # atno 6909 bound_to 6896
  146.1907  139.7517  142.8834 H   0  0  0  0  0  0  0  0  0  0  0  0  # atno 7974 bound_to 7965
  156.2891  140.2668  156.2279 H   0  0  0  0  0  0  0  0  0  0  0  0  # atno 8008 bound_to 7997
  155.0102  140.0387  157.2414 H   0  0  0  0  0  0  0  0  0  0  0  0  # atno 8009 bound_to 7997
  154.7524  140.2745  155.6286 H   0  0  0  0  0  0  0  0  0  0  0  0  # atno 8010 bound_to 7997
  139.5285  144.6601  151.5039 H   0  0  0  0  0  0  0  0  0  0  0  0  # atno 10167 bound_to 10162
  157.6726  130.9842  150.1706 H   0  0  0  0  0  0  0  0  0  0  0  0  # atno 10718 bound_to 10713
  154.2672  135.2767  155.2753 H   0  0  0  0  0  0  0  0  0  0  0  0  # atno 10763 bound_to 10752
  154.5333  135.5723  153.6780 H   0  0  0  0  0  0  0  0  0  0  0  0  # atno 10764 bound_to 10752
  152.9951  135.6233  154.2825 H   0  0  0  0  0  0  0  0  0  0  0  0  # atno 10765 bound_to 10752
  140.7780  133.8386  155.9266 H   0  0  0  0  0  0  0  0  0  0  0  0  # atno 11005 bound_to 11000
  145.3802  141.0357  143.3181 LP  0  0  0  0  0  0  0  0  0  0  0  0  # atno 17320 bound_to 7965
  144.8481  139.5365  143.6869 LP  0  0  0  0  0  0  0  0  0  0  0  0  # atno 17321 bound_to 7965
  140.6446  143.8821  150.6724 LP  0  0  0  0  0  0  0  0  0  0  0  0  # atno 17342 bound_to 10162
  140.2166  143.3841  152.1676 LP  0  0  0  0  0  0  0  0  0  0  0  0  # atno 17343 bound_to 10162
  156.2461  130.3696  149.8283 LP  0  0  0  0  0  0  0  0  0  0  0  0  # atno 17370 bound_to 10713
  156.6069  130.8570  151.3445 LP  0  0  0  0  0  0  0  0  0  0  0  0  # atno 17371 bound_to 10713
  140.9510  134.1778  157.4727 LP  0  0  0  0  0  0  0  0  0  0  0  0  # atno 17394 bound_to 11000
  139.8746  134.9909  156.5524 LP  0  0  0  0  0  0  0  0  0  0  0  0  # atno 17395 bound_to 11000

$$$$
