AV-unprocessed.smi:2855|AV-procd|sdf|10992|dock5
  -GOLD-   2272015443D 1   1.00000     0.00000
 Structure written by MMmdl.
 46 47  0  0  0  0  0  0  0  0  2 V2000
  144.7568  133.1177  151.2567 C   0  0  0  0  0  0  0  0  0  0  0  0
  145.5716  134.3295  151.7304 C   0  0  1  0  0  0  0  0  0  0  0  0
  145.3634  135.5438  150.8124 C   0  0  0  0  0  0  0  0  0  0  0  0
  146.1757  136.7602  151.2833 C   0  0  0  0  0  0  0  0  0  0  0  0
  145.8542  137.1624  152.7459 C   0  0  2  0  0  0  0  0  0  0  0  0
  146.6656  138.4162  153.2006 C   0  0  0  0  0  0  0  0  0  0  0  0
  146.0966  139.0704  154.4746 C   0  0  0  0  0  0  0  0  0  0  0  0
  146.7651  139.4865  152.0964 C   0  0  0  0  0  0  0  0  0  0  0  0
  146.0267  135.9302  153.6803 C   0  0  2  0  0  0  0  0  0  0  0  0
  147.4413  135.6023  153.8313 N   0  0  0  0  0  0  0  0  0  0  0  0
  148.1728  135.6871  154.9539 C   0  0  0  0  0  0  0  0  0  0  0  0
  147.7007  136.0289  156.0376 O   0  0  0  0  0  0  0  0  0  0  0  0
  149.6682  135.3391  154.8552 C   0  0  0  0  0  0  0  0  0  0  0  0
  150.5733  136.4546  155.1917 N   0  0  0  0  0  0  0  0  0  0  0  0
  150.5727  137.5730  154.3395 C   0  0  0  0  0  0  0  0  0  0  0  0
  151.3347  138.6553  154.5873 C   0  0  0  0  0  0  0  0  0  0  0  0
  152.1774  138.6487  155.7765 C   0  0  0  0  0  0  0  0  0  0  0  0
  152.8782  139.6291  156.0195 O   0  0  0  0  0  0  0  0  0  0  0  0
  152.1438  137.5398  156.5721 N   0  5  0  0  0  0  0  0  0  0  0  0
  151.3611  136.4476  156.3100 C   0  0  0  0  0  0  0  0  0  0  0  0
  151.3320  135.4647  157.0508 O   0  0  0  0  0  0  0  0  0  0  0  0
  145.2260  134.7083  153.1815 C   0  0  0  0  0  0  0  0  0  0  0  0
  143.6871  133.3286  151.2693 H   0  0  0  0  0  0  0  0  0  0  0  0
  144.9336  132.2528  151.8967 H   0  0  0  0  0  0  0  0  0  0  0  0
  145.0292  132.8354  150.2394 H   0  0  0  0  0  0  0  0  0  0  0  0
  146.6253  134.0496  151.6892 H   0  0  0  0  0  0  0  0  0  0  0  0
  145.6491  135.2907  149.7909 H   0  0  0  0  0  0  0  0  0  0  0  0
  144.3049  135.8060  150.7802 H   0  0  0  0  0  0  0  0  0  0  0  0
  147.2413  136.5478  151.1826 H   0  0  0  0  0  0  0  0  0  0  0  0
  145.9640  137.5817  150.6009 H   0  0  0  0  0  0  0  0  0  0  0  0
  144.7980  137.4345  152.7789 H   0  0  0  0  0  0  0  0  0  0  0  0
  147.6852  138.1036  153.4304 H   0  0  0  0  0  0  0  0  0  0  0  0
  145.0460  139.3341  154.3503 H   0  0  0  0  0  0  0  0  0  0  0  0
  146.6402  139.9819  154.7243 H   0  0  0  0  0  0  0  0  0  0  0  0
  146.1816  138.4156  155.3416 H   0  0  0  0  0  0  0  0  0  0  0  0
  145.7776  139.7887  151.7467 H   0  0  0  0  0  0  0  0  0  0  0  0
  147.3366  139.1385  151.2371 H   0  0  0  0  0  0  0  0  0  0  0  0
  147.2733  140.3796  152.4611 H   0  0  0  0  0  0  0  0  0  0  0  0
  145.6304  136.1846  154.6640 H   0  0  0  0  0  0  0  0  0  0  0  0
  147.9242  135.3175  152.9912 H   0  0  0  0  0  0  0  0  0  0  0  0
  149.8702  134.4798  155.4968 H   0  0  0  0  0  0  0  0  0  0  0  0
  149.8675  134.9892  153.8413 H   0  0  0  0  0  0  0  0  0  0  0  0
  149.9136  137.5006  153.4867 H   0  0  0  0  0  0  0  0  0  0  0  0
  151.3192  139.5086  153.9253 H   0  0  0  0  0  0  0  0  0  0  0  0
  144.1607  134.9321  153.2509 H   0  0  0  0  0  0  0  0  0  0  0  0
  145.3949  133.8558  153.8405 H   0  0  0  0  0  0  0  0  0  0  0  0
  1  2  1  0  0  0  0
  1 23  1  0  0  0  0
  1 24  1  0  0  0  0
  1 25  1  0  0  0  0
  2 22  1  0  0  0  0
  2  3  1  0  0  0  0
  2 26  1  0  0  0  0
  3  4  1  0  0  0  0
  3 27  1  0  0  0  0
  3 28  1  0  0  0  0
  4  5  1  0  0  0  0
  4 29  1  0  0  0  0
  4 30  1  0  0  0  0
  5  6  1  0  0  0  0
  5  9  1  0  0  0  0
  5 31  1  0  0  0  0
  6  7  1  0  0  0  0
  6  8  1  0  0  0  0
  6 32  1  0  0  0  0
  7 33  1  0  0  0  0
  7 34  1  0  0  0  0
  7 35  1  0  0  0  0
  8 36  1  0  0  0  0
  8 37  1  0  0  0  0
  8 38  1  0  0  0  0
  9 10  1  0  0  0  0
  9 22  1  0  0  0  0
  9 39  1  0  0  0  0
 10 11  1  0  0  0  0
 10 40  1  0  0  0  0
 11 12  2  0  0  0  0
 11 13  1  0  0  0  0
 13 14  1  0  0  0  0
 13 41  1  0  0  0  0
 13 42  1  0  0  0  0
 14 20  1  0  0  0  0
 14 15  1  0  0  0  0
 15 16  2  0  0  0  0
 15 43  1  0  0  0  0
 16 17  1  0  0  0  0
 16 44  1  0  0  0  0
 17 18  2  0  0  0  0
 17 19  1  0  0  0  0
 19 20  1  0  0  0  0
 20 21  2  0  0  0  0
 22 45  1  0  0  0  0
 22 46  1  0  0  0  0
M  CHG  1  19  -1
M  END
> <s_m_source_file>
AV-unprocessed.smi

> <i_m_source_file_index>
2855

> <i_lp_mmshare_version>
43012

> <i_f3d_flags>
0

> <s_epik_input>
W0NIM11bQ0BASF0xW0NIMl1bQ0gyXVtDQEBIXShbQ0hdKFtDSDNdKVtDSDNdKVtDQEhdKFtDSDJdMSlbTkhdQyg9TylbQ0gyXW4yW2NIXVtjSF1jKD1PKVtuSF1jMj1P

> <s_epik_cmdline>
J2VwaWtfcHl0aG9uJywgJy1waCcsICc3LjAnLCAnLXRuJywgJzgnLCAnLW1hJywgJzIwMCcsICctbWV0YWxfYmluZGluZycsICctaW1hZScsICc8aW5maWxlLm1hZT4nLCAnLW9tYWUnLCAnPG91dGZpbGUubWFlPic=

> <r_lp_tautomer_probability>
0.999537

> <r_epik_Ionization_Penalty>
3.12102

> <r_epik_Ionization_Penalty_Charging>
2.9581e-08

> <r_epik_Ionization_Penalty_Neutral>
3.12102

> <r_epik_State_Penalty>
3.12011

> <r_epik_Charging_Adjusted_Penalty>
3.12011

> <i_epik_Tot_Q>
-1

> <i_epik_Tot_abs_Q>
1

> <r_epik_Metal_State_Penalty>
0.463583

> <b_epik_Metal_Only>
1

> <s_lp_Force_Field>
OPLS_2005

> <r_lp_Energy>
20.8659

> <b_lp_Chiralities_Consistent>
1

> <s_lp_Variant>
AV-unprocessed.smi:2855-16

> <Gold.Version>
5.8.1

> <Gold.Id.Protein>
6NUR|6NUR_protein|mol2

> <Gold.PLP.Fitness>
37.2311

> <Gold.PLP.PLP>
-29.7864

> <Gold.PLP.part.hbond>
-2.8424

> <Gold.PLP.part.metal>
0.0000

> <Gold.PLP.part.buried>
0.4723

> <Gold.PLP.part.nonpolar>
-28.0721

> <Gold.PLP.part.repulsive>
0.0295

> <Gold.PLP.ligand.clash>
0.0000

> <Gold.PLP.ligand.torsion>
0.3045

> <Gold.PLP.Chemscore.Hbond>
1.6720

> <Gold.PLP.Chemscore.CHOScore>
1.0000

> <Gold.PLP.Chemscore.Metal>
0.0000

> <Gold.Chemscore.Hbonds>
donor molecule, donor type, donor heavy atom, donor atom, acceptor molecule, acceptor atom, score
      L1  H    10    40       P1  7948  0.66
      P1  H  7997  8009       L1    18  1.00
      L1  C    15    43       P1  7948  1.00

> <Gold.PLP.Chemscore.Internal.Correction>
0.0378

> <Gold.Rescore>
     Score         DG    S(hbond)    S(metal)    S(lipo)     H(rot)  DE(clash)    DE(int)     intcor
     14.17     -15.31       1.85        0.00      70.89       1.81       0.81       0.32       ----

> <Gold.Chemscore.Fitness>
14.1744

> <Gold.Chemscore.DG>
-15.3094

> <Gold.Chemscore.ZeroCoef>
-5.4800

> <Gold.Chemscore.Hbond>
1.8471

> <Gold.Chemscore.Metal>
0.0000

> <Gold.Chemscore.Lipo>
70.8861

> <Gold.Chemscore.Internal_Hbond>
0.0000

> <Gold.Chemscore.DEClash>
0.8129

> <Gold.Chemscore.DEInternal>
0.3220

> <Gold.Chemscore.Rot>
1.8100

> <Gold.Chemscore.Internal.Correction>
   9.000000E+99

> <Gold.Chemscore.Hbonds>
donor molecule, donor type, donor heavy atom, donor atom, acceptor molecule, acceptor atom, score
      L1  H    10    40       P1  7948  0.66
      P1  H  7997  8009       L1    18  0.97

> <Gold.Chemscore.Hbond.Weighted>
-6.1692

> <Gold.Chemscore.Metal.Weighted>
-0.0000

> <Gold.Chemscore.Lipo.Weighted>
-8.2937

> <Gold.Chemscore.Internal_Hbond.Weighted>
0.0000

> <Gold.Chemscore.DEClash.Weighted>
0.8129

> <Gold.Chemscore.DEInternal.Weighted>
0.3220

> <Gold.Chemscore.Rot.Weighted>
4.6335

> <Gold.Chemscore.Internal.Correction.Weighted>
   9.000000E+99

> <Gold.Protein.RotatedTorsions>
[ 6907 6896 6895 6894 ] final  146.22 input  -60.11 | X-H torsion
[ 7974 7965 7964 7962 ] final   69.65 input  175.53 | X-H torsion
[ 8008 7997 7996 7995 ] final -149.44 input   59.86 | X-H torsion
[ 10167 10162 10161 10158 ] final   41.32 input  -65.29 | X-H torsion
[ 10718 10713 10712 10709 ] final  -37.58 input   66.30 | X-H torsion
[ 10763 10752 10751 10750 ] final -167.95 input  -60.55 | X-H torsion
[ 11005 11000 10999 10996 ] final  -33.13 input  -57.11 | X-H torsion

> <Gold.Protein.ActiveResidues>
 VAL166  LYS551  ARG553  GLY616  TRP617  ASP618  TYR619  PRO620  LYS621  CYS622 
 ASP623  PHE694  ASN695  SER759  ASP760  ASP761  ALA762  ILE779  LEU786  VAL792 
 PHE793  MET794  SER795  GLU796  ALA797  LYS798  CYS799  TRP800  GLU811  SER814 

> <Gold.Protein.RotatedAtoms>
  152.1707  133.4642  159.4907 H   0  0  0  0  0  0  0  0  0  0  0  0  # atno 6907 bound_to 6896
  150.6919  134.1956  159.4311 H   0  0  0  0  0  0  0  0  0  0  0  0  # atno 6908 bound_to 6896
  151.9863  135.0002  160.0610 H   0  0  0  0  0  0  0  0  0  0  0  0  # atno 6909 bound_to 6896
  145.7879  139.2919  143.1228 H   0  0  0  0  0  0  0  0  0  0  0  0  # atno 7974 bound_to 7965
  155.6076  140.0668  157.2715 H   0  0  0  0  0  0  0  0  0  0  0  0  # atno 8008 bound_to 7997
  154.4262  140.1807  156.1286 H   0  0  0  0  0  0  0  0  0  0  0  0  # atno 8009 bound_to 7997
  156.0110  140.3326  155.6944 H   0  0  0  0  0  0  0  0  0  0  0  0  # atno 8010 bound_to 7997
  140.3655  144.2173  150.6135 H   0  0  0  0  0  0  0  0  0  0  0  0  # atno 10167 bound_to 10162
  156.3136  130.4256  149.8027 H   0  0  0  0  0  0  0  0  0  0  0  0  # atno 10718 bound_to 10713
  154.6679  135.2934  154.9781 H   0  0  0  0  0  0  0  0  0  0  0  0  # atno 10763 bound_to 10752
  154.0819  135.6603  153.4843 H   0  0  0  0  0  0  0  0  0  0  0  0  # atno 10764 bound_to 10752
  153.0468  135.5199  154.7660 H   0  0  0  0  0  0  0  0  0  0  0  0  # atno 10765 bound_to 10752
  140.9609  133.7165  156.1368 H   0  0  0  0  0  0  0  0  0  0  0  0  # atno 11005 bound_to 11000
  146.0007  140.8522  143.0020 LP  0  0  0  0  0  0  0  0  0  0  0  0  # atno 17320 bound_to 7965
  144.6786  140.2349  143.7351 LP  0  0  0  0  0  0  0  0  0  0  0  0  # atno 17321 bound_to 7965
  140.5085  143.2297  151.8571 LP  0  0  0  0  0  0  0  0  0  0  0  0  # atno 17342 bound_to 10162
  139.4809  144.4977  151.9102 LP  0  0  0  0  0  0  0  0  0  0  0  0  # atno 17343 bound_to 10162
  156.5361  130.8279  151.3253 LP  0  0  0  0  0  0  0  0  0  0  0  0  # atno 17370 bound_to 10713
  157.7396  130.9835  150.2327 LP  0  0  0  0  0  0  0  0  0  0  0  0  # atno 17371 bound_to 10713
  140.7468  134.4089  157.5547 LP  0  0  0  0  0  0  0  0  0  0  0  0  # atno 17394 bound_to 11000
  139.8878  134.8873  156.2510 LP  0  0  0  0  0  0  0  0  0  0  0  0  # atno 17395 bound_to 11000

$$$$
