AV-unprocessed.smi:1830|AV-procd|sdf|7432|dock5
  -GOLD-   22720 9113D 1   1.00000     0.00000
 Structure written by MMmdl.
 53 56  0  0  0  0  0  0  0  0  2 V2000
  151.3992  135.5287  155.2527 O   0  0  0  0  0  0  0  0  0  0  0  0
  150.5506  135.8917  154.4381 C   0  0  0  0  0  0  0  0  0  0  0  0
  150.5125  137.1162  153.8951 N   0  0  0  0  0  0  0  0  0  0  0  0
  151.5573  138.1265  154.0375 C   0  0  0  0  0  0  0  0  0  0  0  0
  151.0158  139.4419  154.6371 C   0  0  2  0  0  0  0  0  0  0  0  0
  151.8012  139.9112  155.8908 C   0  0  0  0  0  0  0  0  0  0  0  0
  151.1208  141.0859  156.4643 N   0  3  2  0  0  0  0  0  0  0  0  0
  151.6942  141.6994  157.6757 C   0  0  0  0  0  0  0  0  0  0  0  0
  150.5037  142.3775  158.3835 C   0  0  0  0  0  0  0  0  0  0  0  0
  149.2636  142.0216  157.5459 C   0  0  0  0  0  0  0  0  0  0  0  0
  149.7214  140.7879  156.7766 C   0  0  1  0  0  0  0  0  0  0  0  0
  148.9899  140.4284  155.4789 C   0  0  0  0  0  0  0  0  0  0  0  0
  149.6252  139.2703  154.9377 O   0  0  0  0  0  0  0  0  0  0  0  0
  149.5808  135.1088  153.9413 N   0  0  0  0  0  0  0  0  0  0  0  0
  149.5344  133.6942  154.0432 C   0  0  0  0  0  0  0  0  0  0  0  0
  150.4981  133.0069  154.8175 C   0  0  0  0  0  0  0  0  0  0  0  0
  150.3974  131.6127  154.9610 C   0  0  0  0  0  0  0  0  0  0  0  0
  149.3239  130.9577  154.3344 C   0  0  0  0  0  0  0  0  0  0  0  0
  148.3934  131.6018  153.6009 N   0  0  0  0  0  0  0  0  0  0  0  0
  148.4842  132.9450  153.4380 C   0  0  0  0  0  0  0  0  0  0  0  0
  147.4935  133.5558  152.6320 N   0  0  0  0  0  0  0  0  0  0  0  0
  146.5382  134.4939  153.2128 C   0  0  0  0  0  0  0  0  0  0  0  0
  145.4302  134.6321  152.1715 C   0  0  0  0  0  0  0  0  0  0  0  0
  145.3664  133.2309  151.5727 C   0  0  0  0  0  0  0  0  0  0  0  0
  146.8232  132.7616  151.6070 C   0  0  0  0  0  0  0  0  0  0  0  0
  149.7599  137.3277  153.2565 H   0  0  0  0  0  0  0  0  0  0  0  0
  152.3255  137.7170  154.6937 H   0  0  0  0  0  0  0  0  0  0  0  0
  152.0435  138.3150  153.0789 H   0  0  0  0  0  0  0  0  0  0  0  0
  151.0895  140.2153  153.8706 H   0  0  0  0  0  0  0  0  0  0  0  0
  151.8508  139.1268  156.6459 H   0  0  0  0  0  0  0  0  0  0  0  0
  152.8266  140.1711  155.6263 H   0  0  0  0  0  0  0  0  0  0  0  0
  152.1273  140.9326  158.3194 H   0  0  0  0  0  0  0  0  0  0  0  0
  152.4815  142.4065  157.4135 H   0  0  0  0  0  0  0  0  0  0  0  0
  150.4047  141.9879  159.3974 H   0  0  0  0  0  0  0  0  0  0  0  0
  150.6337  143.4576  158.4576 H   0  0  0  0  0  0  0  0  0  0  0  0
  148.3788  141.8359  158.1557 H   0  0  0  0  0  0  0  0  0  0  0  0
  149.0344  142.8343  156.8552 H   0  0  0  0  0  0  0  0  0  0  0  0
  149.6859  139.9320  157.4542 H   0  0  0  0  0  0  0  0  0  0  0  0
  147.9425  140.2016  155.6780 H   0  0  0  0  0  0  0  0  0  0  0  0
  149.0178  141.2493  154.7607 H   0  0  0  0  0  0  0  0  0  0  0  0
  148.9972  135.5166  153.2255 H   0  0  0  0  0  0  0  0  0  0  0  0
  151.2985  133.5383  155.3110 H   0  0  0  0  0  0  0  0  0  0  0  0
  151.1187  131.0615  155.5459 H   0  0  0  0  0  0  0  0  0  0  0  0
  149.2068  129.8880  154.4256 H   0  0  0  0  0  0  0  0  0  0  0  0
  146.1195  134.0924  154.1366 H   0  0  0  0  0  0  0  0  0  0  0  0
  147.0069  135.4527  153.4356 H   0  0  0  0  0  0  0  0  0  0  0  0
  144.4825  134.9585  152.6001 H   0  0  0  0  0  0  0  0  0  0  0  0
  145.7243  135.3516  151.4061 H   0  0  0  0  0  0  0  0  0  0  0  0
  144.7576  132.5872  152.2089 H   0  0  0  0  0  0  0  0  0  0  0  0
  144.9389  133.2143  150.5700 H   0  0  0  0  0  0  0  0  0  0  0  0
  147.2993  132.9664  150.6486 H   0  0  0  0  0  0  0  0  0  0  0  0
  146.8919  131.6907  151.8024 H   0  0  0  0  0  0  0  0  0  0  0  0
  151.1080  141.8057  155.7560 H   0  0  0  0  0  0  0  0  0  0  0  0
  1  2  2  0  0  0  0
  2  3  1  0  0  0  0
  2 14  1  0  0  0  0
  3  4  1  0  0  0  0
  3 26  1  0  0  0  0
  4  5  1  0  0  0  0
  4 27  1  0  0  0  0
  4 28  1  0  0  0  0
  5 13  1  0  0  0  0
  5  6  1  0  0  0  0
  5 29  1  0  0  0  0
  6  7  1  0  0  0  0
  6 30  1  0  0  0  0
  6 31  1  0  0  0  0
  7 11  1  0  0  0  0
  7  8  1  0  0  0  0
  7 53  1  0  0  0  0
  8  9  1  0  0  0  0
  8 32  1  0  0  0  0
  8 33  1  0  0  0  0
  9 10  1  0  0  0  0
  9 34  1  0  0  0  0
  9 35  1  0  0  0  0
 10 11  1  0  0  0  0
 10 36  1  0  0  0  0
 10 37  1  0  0  0  0
 11 12  1  0  0  0  0
 11 38  1  0  0  0  0
 12 13  1  0  0  0  0
 12 39  1  0  0  0  0
 12 40  1  0  0  0  0
 14 15  1  0  0  0  0
 14 41  1  0  0  0  0
 15 20  1  0  0  0  0
 15 16  2  0  0  0  0
 16 17  1  0  0  0  0
 16 42  1  0  0  0  0
 17 18  2  0  0  0  0
 17 43  1  0  0  0  0
 18 19  1  0  0  0  0
 18 44  1  0  0  0  0
 19 20  2  0  0  0  0
 20 21  1  0  0  0  0
 21 25  1  0  0  0  0
 21 22  1  0  0  0  0
 22 23  1  0  0  0  0
 22 45  1  0  0  0  0
 22 46  1  0  0  0  0
 23 24  1  0  0  0  0
 23 47  1  0  0  0  0
 23 48  1  0  0  0  0
 24 25  1  0  0  0  0
 24 49  1  0  0  0  0
 24 50  1  0  0  0  0
 25 51  1  0  0  0  0
 25 52  1  0  0  0  0
M  CHG  1   7   1
M  END
> <s_m_source_file>
AV-unprocessed.smi

> <i_m_source_file_index>
1830

> <i_lp_mmshare_version>
43012

> <i_f3d_flags>
0

> <s_epik_input>
W0NIMl0xW0NIMl1bQ0gyXVtDQEhdKE4xMilbQ0gyXU9bQ0BASF0oW0NIMl0yKVtDSDJdW05IXUMoPU8pW05IXWMzW2NIXVtjSF1bY0hdbmMzTjRbQ0gyXVtDSDJdW0NIMl1bQ0gyXTQ=

> <s_epik_cmdline>
J2VwaWtfcHl0aG9uJywgJy1waCcsICc3LjAnLCAnLXRuJywgJzgnLCAnLW1hJywgJzIwMCcsICctbWV0YWxfYmluZGluZycsICctaW1hZScsICc8aW5maWxlLm1hZT4nLCAnLW9tYWUnLCAnPG91dGZpbGUubWFlPic=

> <r_lp_tautomer_probability>
1

> <r_epik_Ionization_Penalty>
0.193547

> <r_epik_Ionization_Penalty_Charging>
0.10673

> <r_epik_Ionization_Penalty_Neutral>
0.0868166

> <r_epik_State_Penalty>
0.173595

> <r_epik_Charging_Adjusted_Penalty>
0.280326

> <i_epik_Tot_Q>
1

> <i_epik_Tot_abs_Q>
1

> <r_epik_Metal_State_Penalty>
0.164683

> <b_epik_Metal_Only>
0

> <s_lp_Force_Field>
OPLS_2005

> <r_lp_Energy>
64.1667

> <b_lp_Chiralities_Consistent>
1

> <s_lp_Variant>
AV-unprocessed.smi:1830-1

> <Gold.Version>
5.8.1

> <Gold.Id.Protein>
6NUR|6NUR_protein|mol2

> <Gold.PLP.Fitness>
44.0721

> <Gold.PLP.PLP>
-38.9593

> <Gold.PLP.part.hbond>
-4.2431

> <Gold.PLP.part.metal>
0.0000

> <Gold.PLP.part.buried>
-2.1706

> <Gold.PLP.part.nonpolar>
-32.9155

> <Gold.PLP.part.repulsive>
0.6123

> <Gold.PLP.ligand.clash>
1.3342

> <Gold.PLP.ligand.torsion>
1.1429

> <Gold.PLP.Chemscore.Hbond>
2.7520

> <Gold.PLP.Chemscore.CHOScore>
0.0000

> <Gold.PLP.Chemscore.Metal>
0.0000

> <Gold.Chemscore.Hbonds>
donor molecule, donor type, donor heavy atom, donor atom, acceptor molecule, acceptor atom, score
      L1  H     3    26       P1  7948  0.59
      L1  H    14    41       P1  7948  0.84
      P1  H 10752 10763       L1     1  1.00

> <Gold.PLP.Chemscore.Internal.Correction>
0.4769

> <Gold.Rescore>
     Score         DG    S(hbond)    S(metal)    S(lipo)     H(rot)  DE(clash)    DE(int)     intcor
     15.45     -18.40       1.89        0.00      87.19       1.41       0.36       2.58       ----

> <Gold.Chemscore.Fitness>
15.4546

> <Gold.Chemscore.DG>
-18.4029

> <Gold.Chemscore.ZeroCoef>
-5.4800

> <Gold.Chemscore.Hbond>
1.8930

> <Gold.Chemscore.Metal>
0.0000

> <Gold.Chemscore.Lipo>
87.1919

> <Gold.Chemscore.Internal_Hbond>
0.0000

> <Gold.Chemscore.DEClash>
0.3638

> <Gold.Chemscore.DEInternal>
2.5846

> <Gold.Chemscore.Rot>
1.4067

> <Gold.Chemscore.Internal.Correction>
   9.000000E+99

> <Gold.Chemscore.Hbonds>
donor molecule, donor type, donor heavy atom, donor atom, acceptor molecule, acceptor atom, score
      L1  H     3    26       P1  7948  0.35
      L1  H    14    41       P1  7948  0.52
      P1  H 10752 10763       L1     1  0.96

> <Gold.Chemscore.Hbond.Weighted>
-6.3226

> <Gold.Chemscore.Metal.Weighted>
-0.0000

> <Gold.Chemscore.Lipo.Weighted>
-10.2014

> <Gold.Chemscore.Internal_Hbond.Weighted>
0.0000

> <Gold.Chemscore.DEClash.Weighted>
0.3638

> <Gold.Chemscore.DEInternal.Weighted>
2.5846

> <Gold.Chemscore.Rot.Weighted>
3.6011

> <Gold.Chemscore.Internal.Correction.Weighted>
   9.000000E+99

> <Gold.Protein.RotatedTorsions>
[ 6907 6896 6895 6894 ] final  -87.76 input  -60.11 | X-H torsion
[ 7974 7965 7964 7962 ] final  -31.86 input  175.53 | X-H torsion
[ 8008 7997 7996 7995 ] final   75.54 input   59.86 | X-H torsion
[ 10167 10162 10161 10158 ] final -101.21 input  -65.29 | X-H torsion
[ 10718 10713 10712 10709 ] final  -69.41 input   66.30 | X-H torsion
[ 10763 10752 10751 10750 ] final   78.38 input  -60.55 | X-H torsion
[ 11005 11000 10999 10996 ] final  112.07 input  -57.11 | X-H torsion

> <Gold.Protein.ActiveResidues>
 VAL166  LYS551  ARG553  GLY616  TRP617  ASP618  TYR619  PRO620  LYS621  CYS622 
 ASP623  PHE694  ASN695  SER759  ASP760  ASP761  ALA762  ILE779  LEU786  VAL792 
 PHE793  MET794  SER795  GLU796  ALA797  LYS798  CYS799  TRP800  GLU811  SER814 

> <Gold.Protein.RotatedAtoms>
  150.6867  134.2846  159.4641 H   0  0  0  0  0  0  0  0  0  0  0  0  # atno 6907 bound_to 6896
  152.0757  134.9502  160.0583 H   0  0  0  0  0  0  0  0  0  0  0  0  # atno 6908 bound_to 6896
  152.0874  133.4148  159.4565 H   0  0  0  0  0  0  0  0  0  0  0  0  # atno 6909 bound_to 6896
  146.1035  140.5720  142.8810 H   0  0  0  0  0  0  0  0  0  0  0  0  # atno 7974 bound_to 7965
  155.8144  140.3472  155.5477 H   0  0  0  0  0  0  0  0  0  0  0  0  # atno 8008 bound_to 7997
  155.8407  140.0941  157.1756 H   0  0  0  0  0  0  0  0  0  0  0  0  # atno 8009 bound_to 7997
  154.4005  140.1395  156.3712 H   0  0  0  0  0  0  0  0  0  0  0  0  # atno 8010 bound_to 7997
  140.2437  143.3521  152.0778 H   0  0  0  0  0  0  0  0  0  0  0  0  # atno 10167 bound_to 10162
  156.0457  130.4312  150.2143 H   0  0  0  0  0  0  0  0  0  0  0  0  # atno 10718 bound_to 10713
  153.0870  135.4879  154.8616 H   0  0  0  0  0  0  0  0  0  0  0  0  # atno 10763 bound_to 10752
  154.7222  135.3042  154.9030 H   0  0  0  0  0  0  0  0  0  0  0  0  # atno 10764 bound_to 10752
  153.9691  135.6803  153.4800 H   0  0  0  0  0  0  0  0  0  0  0  0  # atno 10765 bound_to 10752
  139.8918  134.9522  156.6530 H   0  0  0  0  0  0  0  0  0  0  0  0  # atno 11005 bound_to 11000
  144.7451  140.5047  143.6841 LP  0  0  0  0  0  0  0  0  0  0  0  0  # atno 17320 bound_to 7965
  145.5808  139.1489  143.3236 LP  0  0  0  0  0  0  0  0  0  0  0  0  # atno 17321 bound_to 7965
  139.5069  144.6822  151.5980 LP  0  0  0  0  0  0  0  0  0  0  0  0  # atno 17342 bound_to 10162
  140.6094  143.9464  150.6442 LP  0  0  0  0  0  0  0  0  0  0  0  0  # atno 17343 bound_to 10162
  157.0233  130.9986  151.3333 LP  0  0  0  0  0  0  0  0  0  0  0  0  # atno 17370 bound_to 10713
  157.5329  130.8070  149.7937 LP  0  0  0  0  0  0  0  0  0  0  0  0  # atno 17371 bound_to 10713
  140.7506  133.8900  155.8344 LP  0  0  0  0  0  0  0  0  0  0  0  0  # atno 17394 bound_to 11000
  141.0004  134.1158  157.4323 LP  0  0  0  0  0  0  0  0  0  0  0  0  # atno 17395 bound_to 11000

$$$$
