AV-unprocessed.smi:2007|AV-procd|sdf|8134|dock1
  -GOLD-   2272010363D 1   1.00000     0.00000
 Structure written by MMmdl.
 36 37  0  0  0  0  0  0  0  0  1 V2000
  147.4204  141.9119  155.0802 C   0  0  0  0  0  0  0  0  0  0  0  0
  148.7349  141.3858  154.4886 C   0  0  1  0  0  0  0  0  0  0  0  0
  149.5835  140.6743  155.5654 C   0  0  0  0  0  0  0  0  0  0  0  0
  150.6429  139.7985  155.0626 N   0  0  0  0  0  0  0  0  0  0  0  0
  151.7972  139.7376  155.9571 C   0  0  0  0  0  0  0  0  0  0  0  0
  152.8926  138.8044  155.4129 C   0  0  0  0  0  0  0  0  0  0  0  0
  152.3504  137.5057  155.1961 O   0  0  0  0  0  0  0  0  0  0  0  0
  151.2465  137.5149  154.2968 C   0  0  0  0  0  0  0  0  0  0  0  0
  150.1477  138.4449  154.8399 C   0  0  0  0  0  0  0  0  0  0  0  0
  148.4277  140.4654  153.3947 N   0  0  0  0  0  0  0  0  0  0  0  0
  147.5072  139.4899  153.4240 C   0  0  0  0  0  0  0  0  0  0  0  0
  146.8134  139.2345  154.4087 O   0  0  0  0  0  0  0  0  0  0  0  0
  147.4485  138.8448  152.2459 N   0  0  0  0  0  0  0  0  0  0  0  0
  146.5941  137.7744  151.8728 C   0  0  0  0  0  0  0  0  0  0  0  0
  146.4909  137.2879  150.6303 N   0  0  0  0  0  0  0  0  0  0  0  0
  145.5768  136.2341  150.5540 C   0  0  0  0  0  0  0  0  0  0  0  0
  144.9886  135.9293  151.7563 C   0  0  0  0  0  0  0  0  0  0  0  0
  145.5627  136.9600  153.0399 S   0  0  0  0  0  0  0  0  0  0  0  0
  147.6101  142.6201  155.8872 H   0  0  0  0  0  0  0  0  0  0  0  0
  146.8128  141.1018  155.4850 H   0  0  0  0  0  0  0  0  0  0  0  0
  146.8281  142.4277  154.3236 H   0  0  0  0  0  0  0  0  0  0  0  0
  149.2744  142.2542  154.1097 H   0  0  0  0  0  0  0  0  0  0  0  0
  150.0199  141.4198  156.2318 H   0  0  0  0  0  0  0  0  0  0  0  0
  148.9051  140.0865  156.1857 H   0  0  0  0  0  0  0  0  0  0  0  0
  152.2256  140.7288  156.0970 H   0  0  0  0  0  0  0  0  0  0  0  0
  151.4842  139.3911  156.9430 H   0  0  0  0  0  0  0  0  0  0  0  0
  153.3031  139.1960  154.4809 H   0  0  0  0  0  0  0  0  0  0  0  0
  153.7174  138.7335  156.1219 H   0  0  0  0  0  0  0  0  0  0  0  0
  151.5755  137.8416  153.3090 H   0  0  0  0  0  0  0  0  0  0  0  0
  150.8655  136.4995  154.1891 H   0  0  0  0  0  0  0  0  0  0  0  0
  149.7566  138.0356  155.7727 H   0  0  0  0  0  0  0  0  0  0  0  0
  149.3156  138.4659  154.1353 H   0  0  0  0  0  0  0  0  0  0  0  0
  148.9466  140.5970  152.5391 H   0  0  0  0  0  0  0  0  0  0  0  0
  148.0826  139.1632  151.5281 H   0  0  0  0  0  0  0  0  0  0  0  0
  145.4054  135.7560  149.6010 H   0  0  0  0  0  0  0  0  0  0  0  0
  144.2557  135.1637  151.9635 H   0  0  0  0  0  0  0  0  0  0  0  0
  1  2  1  0  0  0  0
  1 19  1  0  0  0  0
  1 20  1  0  0  0  0
  1 21  1  0  0  0  0
  2  3  1  0  0  0  0
  2 10  1  0  0  0  0
  2 22  1  0  0  0  0
  3  4  1  0  0  0  0
  3 23  1  0  0  0  0
  3 24  1  0  0  0  0
  4  9  1  0  0  0  0
  4  5  1  0  0  0  0
  5  6  1  0  0  0  0
  5 25  1  0  0  0  0
  5 26  1  0  0  0  0
  6  7  1  0  0  0  0
  6 27  1  0  0  0  0
  6 28  1  0  0  0  0
  7  8  1  0  0  0  0
  8  9  1  0  0  0  0
  8 29  1  0  0  0  0
  8 30  1  0  0  0  0
  9 31  1  0  0  0  0
  9 32  1  0  0  0  0
 10 11  1  0  0  0  0
 10 33  1  0  0  0  0
 11 12  2  0  0  0  0
 11 13  1  0  0  0  0
 13 14  1  0  0  0  0
 13 34  1  0  0  0  0
 14 18  1  0  0  0  0
 14 15  2  0  0  0  0
 15 16  1  0  0  0  0
 16 17  2  0  0  0  0
 16 35  1  0  0  0  0
 17 18  1  0  0  0  0
 17 36  1  0  0  0  0
M  END
> <s_m_source_file>
AV-unprocessed.smi

> <i_m_source_file_index>
2007

> <i_lp_mmshare_version>
43012

> <i_f3d_flags>
0

> <s_epik_input>
W0NIMl0xW0NIMl1PW0NIMl1bQ0gyXU4xW0NIMl1bQ0BASF0oW0NIM10pW05IXUMoPU8pW05IXWMybltjSF1bY0hdczI=

> <s_epik_cmdline>
J2VwaWtfcHl0aG9uJywgJy1waCcsICc3LjAnLCAnLXRuJywgJzgnLCAnLW1hJywgJzIwMCcsICctbWV0YWxfYmluZGluZycsICctaW1hZScsICc8aW5maWxlLm1hZT4nLCAnLW9tYWUnLCAnPG91dGZpbGUubWFlPic=

> <r_lp_tautomer_probability>
0.999

> <r_epik_Ionization_Penalty>
0.219197

> <r_epik_Ionization_Penalty_Charging>
0

> <r_epik_Ionization_Penalty_Neutral>
0.219197

> <r_epik_State_Penalty>
0.209349

> <r_epik_Charging_Adjusted_Penalty>
0.209349

> <i_epik_Tot_Q>
0

> <i_epik_Tot_abs_Q>
0

> <r_epik_Metal_State_Penalty>
0.254604

> <b_epik_Metal_Only>
0

> <s_lp_Force_Field>
OPLS_2005

> <r_lp_Energy>
23.7512

> <b_lp_Chiralities_Consistent>
1

> <s_lp_Variant>
AV-unprocessed.smi:2007-2

> <Gold.Version>
5.8.1

> <Gold.Id.Protein>
6NUR|6NUR_protein|mol2

> <Gold.PLP.Fitness>
43.6950

> <Gold.PLP.PLP>
-28.8931

> <Gold.PLP.part.hbond>
-5.4225

> <Gold.PLP.part.metal>
0.0000

> <Gold.PLP.part.buried>
4.8326

> <Gold.PLP.part.nonpolar>
-31.4313

> <Gold.PLP.part.repulsive>
2.9172

> <Gold.PLP.ligand.clash>
0.0000

> <Gold.PLP.ligand.torsion>
0.7378

> <Gold.PLP.Chemscore.Hbond>
4.4213

> <Gold.PLP.Chemscore.CHOScore>
1.0000

> <Gold.PLP.Chemscore.Metal>
0.0000

> <Gold.Chemscore.Hbonds>
donor molecule, donor type, donor heavy atom, donor atom, acceptor molecule, acceptor atom, score
      L1  H    10    33       P1  7957  1.00
      L1  H    13    34       P1  7957  0.96
      P1  H  7954  7966       L1    15  0.98
      P1  H  7989  7998       L1     4  0.59
      P1  H 10752 10763       L1     7  0.49
      L1  C    16    35       P1  7921  1.00

> <Gold.PLP.Chemscore.Internal.Correction>
0.0137

> <Gold.Rescore>
     Score         DG    S(hbond)    S(metal)    S(lipo)     H(rot)  DE(clash)    DE(int)     intcor
     11.67     -19.46       3.33        0.00      58.96       1.58       3.73       4.06       ----

> <Gold.Chemscore.Fitness>
11.6693

> <Gold.Chemscore.DG>
-19.4629

> <Gold.Chemscore.ZeroCoef>
-5.4800

> <Gold.Chemscore.Hbond>
3.3340

> <Gold.Chemscore.Metal>
0.0000

> <Gold.Chemscore.Lipo>
58.9620

> <Gold.Chemscore.Internal_Hbond>
0.0000

> <Gold.Chemscore.DEClash>
3.7307

> <Gold.Chemscore.DEInternal>
4.0629

> <Gold.Chemscore.Rot>
1.5825

> <Gold.Chemscore.Internal.Correction>
   9.000000E+99

> <Gold.Chemscore.Hbonds>
donor molecule, donor type, donor heavy atom, donor atom, acceptor molecule, acceptor atom, score
      L1  H    10    33       P1  7957  0.96
      L1  H    13    34       P1  7957  0.84
      P1  H  7954  7966       L1    15  0.28
      P1  H  7989  7998       L1     4  0.05
      P1  H 10752 10763       L1     7  0.10

> <Gold.Chemscore.Hbond.Weighted>
-11.1356

> <Gold.Chemscore.Metal.Weighted>
-0.0000

> <Gold.Chemscore.Lipo.Weighted>
-6.8986

> <Gold.Chemscore.Internal_Hbond.Weighted>
0.0000

> <Gold.Chemscore.DEClash.Weighted>
3.7307

> <Gold.Chemscore.DEInternal.Weighted>
4.0629

> <Gold.Chemscore.Rot.Weighted>
4.0512

> <Gold.Chemscore.Internal.Correction.Weighted>
   9.000000E+99

> <Gold.Protein.RotatedTorsions>
[ 6907 6896 6895 6894 ] final  -19.97 input  -60.11 | X-H torsion
[ 7974 7965 7964 7962 ] final -178.55 input  175.53 | X-H torsion
[ 8008 7997 7996 7995 ] final -128.13 input   59.86 | X-H torsion
[ 10167 10162 10161 10158 ] final  174.08 input  -65.29 | X-H torsion
[ 10718 10713 10712 10709 ] final -147.89 input   66.30 | X-H torsion
[ 10763 10752 10751 10750 ] final   74.07 input  -60.55 | X-H torsion
[ 11005 11000 10999 10996 ] final -143.85 input  -57.11 | X-H torsion

> <Gold.Protein.ActiveResidues>
 VAL166  LYS551  ARG553  GLY616  TRP617  ASP618  TYR619  PRO620  LYS621  CYS622 
 ASP623  PHE694  ASN695  SER759  ASP760  ASP761  ALA762  ILE779  LEU786  VAL792 
 PHE793  MET794  SER795  GLU796  ALA797  LYS798  CYS799  TRP800  GLU811  SER814 

> <Gold.Protein.RotatedAtoms>
  151.2552  135.0635  159.9076 H   0  0  0  0  0  0  0  0  0  0  0  0  # atno 6907 bound_to 6896
  152.5374  134.0290  159.8026 H   0  0  0  0  0  0  0  0  0  0  0  0  # atno 6908 bound_to 6896
  151.0504  133.5579  159.2674 H   0  0  0  0  0  0  0  0  0  0  0  0  # atno 6909 bound_to 6896
  144.7131  140.0852  143.6424 H   0  0  0  0  0  0  0  0  0  0  0  0  # atno 7974 bound_to 7965
  155.2575  140.0434  157.2993 H   0  0  0  0  0  0  0  0  0  0  0  0  # atno 8008 bound_to 7997
  154.5731  140.2379  155.8132 H   0  0  0  0  0  0  0  0  0  0  0  0  # atno 8009 bound_to 7997
  156.2137  140.2991  155.9799 H   0  0  0  0  0  0  0  0  0  0  0  0  # atno 8010 bound_to 7997
  139.5130  144.3187  152.0223 H   0  0  0  0  0  0  0  0  0  0  0  0  # atno 10167 bound_to 10162
  156.4133  130.7992  151.2211 H   0  0  0  0  0  0  0  0  0  0  0  0  # atno 10718 bound_to 10713
  153.0563  135.5039  154.7988 H   0  0  0  0  0  0  0  0  0  0  0  0  # atno 10763 bound_to 10752
  154.6811  135.2968  154.9613 H   0  0  0  0  0  0  0  0  0  0  0  0  # atno 10764 bound_to 10752
  154.0399  135.6718  153.4841 H   0  0  0  0  0  0  0  0  0  0  0  0  # atno 10765 bound_to 10752
  140.8084  134.2774  157.4951 H   0  0  0  0  0  0  0  0  0  0  0  0  # atno 11005 bound_to 11000
  145.9668  139.2840  143.1123 LP  0  0  0  0  0  0  0  0  0  0  0  0  # atno 17320 bound_to 7965
  145.9161  140.9147  143.0429 LP  0  0  0  0  0  0  0  0  0  0  0  0  # atno 17321 bound_to 7965
  140.2629  144.4047  150.6179 LP  0  0  0  0  0  0  0  0  0  0  0  0  # atno 17342 bound_to 10162
  140.6144  143.2171  151.6822 LP  0  0  0  0  0  0  0  0  0  0  0  0  # atno 17343 bound_to 10162
  157.7507  131.0251  150.3904 LP  0  0  0  0  0  0  0  0  0  0  0  0  # atno 17370 bound_to 10713
  156.4206  130.3952  149.6827 LP  0  0  0  0  0  0  0  0  0  0  0  0  # atno 17371 bound_to 10713
  139.8716  134.9469  156.3952 LP  0  0  0  0  0  0  0  0  0  0  0  0  # atno 17394 bound_to 11000
  140.9223  133.7636  155.9922 LP  0  0  0  0  0  0  0  0  0  0  0  0  # atno 17395 bound_to 11000

$$$$
