AV-unprocessed.smi:1308|AV-procd|sdf|5442|dock2
  -GOLD-   22720 5 13D 1   1.00000     0.00000
 Structure written by MMmdl.
 44 44  0  0  0  0  0  0  0  0  2 V2000
  147.9834  134.0342  157.9115 C   0  0  0  0  0  0  0  0  0  0  0  0
  148.8996  134.9805  157.1652 C   0  0  0  0  0  0  0  0  0  0  0  0
  148.3917  135.8564  156.3846 N   0  0  0  0  0  0  0  0  0  0  0  0
  149.2378  136.7337  155.6856 C   0  0  0  0  0  0  0  0  0  0  0  0
  148.5498  137.7340  154.7731 C   0  0  0  0  0  0  0  0  0  0  0  0
  150.5924  136.6704  155.8278 C   0  0  0  0  0  0  0  0  0  0  0  0
  151.5567  137.5916  155.0782 C   0  0  0  0  0  0  0  0  0  0  0  0
  151.4146  139.0876  155.3700 C   0  0  0  0  0  0  0  0  0  0  0  0
  152.0548  139.9045  154.7085 O   0  0  0  0  0  0  0  0  0  0  0  0
  150.5643  139.4288  156.3518 N   0  0  0  0  0  0  0  0  0  0  0  0
  150.2810  140.7824  156.8213 C   0  0  2  0  0  0  0  0  0  0  0  0
  149.9765  141.6740  155.6098 C   0  0  0  0  0  0  0  0  0  0  0  0
  151.4617  141.3291  157.6473 C   0  0  0  0  0  0  0  0  0  0  0  0
  151.2463  142.7662  158.1602 C   0  0  0  0  0  0  0  0  0  0  0  0
  152.4535  143.3529  158.9190 C   0  0  0  0  0  0  0  0  0  0  0  0
  152.8396  142.5118  160.1476 C   0  0  0  0  0  0  0  0  0  0  0  0
  152.1788  144.8073  159.3302 C   0  0  0  0  0  0  0  0  0  0  0  0
  151.1380  135.6452  156.7355 C   0  0  0  0  0  0  0  0  0  0  0  0
  152.3541  135.5326  156.8845 O   0  0  0  0  0  0  0  0  0  0  0  0
  150.2517  134.8338  157.3793 N   0  5  0  0  0  0  0  0  0  0  0  0
  146.9528  134.1319  157.5677 H   0  0  0  0  0  0  0  0  0  0  0  0
  148.0103  134.2483  158.9804 H   0  0  0  0  0  0  0  0  0  0  0  0
  148.2969  133.0012  157.7569 H   0  0  0  0  0  0  0  0  0  0  0  0
  148.7301  138.7518  155.1190 H   0  0  0  0  0  0  0  0  0  0  0  0
  147.4713  137.5729  154.7521 H   0  0  0  0  0  0  0  0  0  0  0  0
  148.9208  137.6424  153.7522 H   0  0  0  0  0  0  0  0  0  0  0  0
  152.5773  137.2932  155.3194 H   0  0  0  0  0  0  0  0  0  0  0  0
  151.4750  137.4437  154.0012 H   0  0  0  0  0  0  0  0  0  0  0  0
  150.0809  138.6786  156.8256 H   0  0  0  0  0  0  0  0  0  0  0  0
  149.3925  140.7821  157.4549 H   0  0  0  0  0  0  0  0  0  0  0  0
  149.7350  142.6906  155.9205 H   0  0  0  0  0  0  0  0  0  0  0  0
  149.1248  141.2910  155.0464 H   0  0  0  0  0  0  0  0  0  0  0  0
  150.8282  141.7261  154.9305 H   0  0  0  0  0  0  0  0  0  0  0  0
  151.6502  140.6596  158.4869 H   0  0  0  0  0  0  0  0  0  0  0  0
  152.3614  141.3062  157.0316 H   0  0  0  0  0  0  0  0  0  0  0  0
  151.0255  143.4045  157.3036 H   0  0  0  0  0  0  0  0  0  0  0  0
  150.3640  142.8059  158.8000 H   0  0  0  0  0  0  0  0  0  0  0  0
  153.3070  143.3657  158.2399 H   0  0  0  0  0  0  0  0  0  0  0  0
  152.0057  142.4224  160.8445 H   0  0  0  0  0  0  0  0  0  0  0  0
  153.6731  142.9646  160.6851 H   0  0  0  0  0  0  0  0  0  0  0  0
  153.1496  141.5058  159.8665 H   0  0  0  0  0  0  0  0  0  0  0  0
  151.3296  144.8720  160.0113 H   0  0  0  0  0  0  0  0  0  0  0  0
  151.9564  145.4278  158.4616 H   0  0  0  0  0  0  0  0  0  0  0  0
  153.0424  145.2450  159.8317 H   0  0  0  0  0  0  0  0  0  0  0  0
  1  2  1  0  0  0  0
  1 21  1  0  0  0  0
  1 22  1  0  0  0  0
  1 23  1  0  0  0  0
  2 20  1  0  0  0  0
  2  3  2  0  0  0  0
  3  4  1  0  0  0  0
  4  5  1  0  0  0  0
  4  6  2  0  0  0  0
  5 24  1  0  0  0  0
  5 25  1  0  0  0  0
  5 26  1  0  0  0  0
  6  7  1  0  0  0  0
  6 18  1  0  0  0  0
  7  8  1  0  0  0  0
  7 27  1  0  0  0  0
  7 28  1  0  0  0  0
  8  9  2  0  0  0  0
  8 10  1  0  0  0  0
 10 11  1  0  0  0  0
 10 29  1  0  0  0  0
 11 12  1  0  0  0  0
 11 13  1  0  0  0  0
 11 30  1  0  0  0  0
 12 31  1  0  0  0  0
 12 32  1  0  0  0  0
 12 33  1  0  0  0  0
 13 14  1  0  0  0  0
 13 34  1  0  0  0  0
 13 35  1  0  0  0  0
 14 15  1  0  0  0  0
 14 36  1  0  0  0  0
 14 37  1  0  0  0  0
 15 16  1  0  0  0  0
 15 17  1  0  0  0  0
 15 38  1  0  0  0  0
 16 39  1  0  0  0  0
 16 40  1  0  0  0  0
 16 41  1  0  0  0  0
 17 42  1  0  0  0  0
 17 43  1  0  0  0  0
 17 44  1  0  0  0  0
 18 19  2  0  0  0  0
 18 20  1  0  0  0  0
M  CHG  1  20  -1
M  END
> <s_m_source_file>
AV-unprocessed.smi

> <i_m_source_file_index>
1308

> <i_lp_mmshare_version>
43012

> <i_f3d_flags>
0

> <s_epik_input>
W0NIM11jMW5jKFtDSDNdKWMoYyg9TylbbkhdMSlbQ0gyXUMoPU8pW05IXVtDQEhdKFtDSDNdKVtDSDJdW0NIMl1bQ0hdKFtDSDNdKVtDSDNd

> <s_epik_cmdline>
J2VwaWtfcHl0aG9uJywgJy1waCcsICc3LjAnLCAnLXRuJywgJzgnLCAnLW1hJywgJzIwMCcsICctbWV0YWxfYmluZGluZycsICctaW1hZScsICc8aW5maWxlLm1hZT4nLCAnLW9tYWUnLCAnPG91dGZpbGUubWFlPic=

> <r_lp_tautomer_probability>
0.839158

> <r_epik_Ionization_Penalty>
6.61719

> <r_epik_Ionization_Penalty_Charging>
7.20681e-08

> <r_epik_Ionization_Penalty_Neutral>
6.61719

> <r_epik_State_Penalty>
4.43758

> <r_epik_Charging_Adjusted_Penalty>
4.43758

> <i_epik_Tot_Q>
-1

> <i_epik_Tot_abs_Q>
1

> <r_epik_Metal_State_Penalty>
0.801586

> <b_epik_Metal_Only>
1

> <s_lp_Force_Field>
OPLS_2005

> <r_lp_Energy>
8.43775

> <b_lp_Chiralities_Consistent>
1

> <s_lp_Variant>
AV-unprocessed.smi:1308-5

> <Gold.Version>
5.8.1

> <Gold.Id.Protein>
6NUR|6NUR_protein|mol2

> <Gold.PLP.Fitness>
43.2094

> <Gold.PLP.PLP>
-33.7852

> <Gold.PLP.part.hbond>
-2.8537

> <Gold.PLP.part.metal>
0.0000

> <Gold.PLP.part.buried>
-4.4532

> <Gold.PLP.part.nonpolar>
-27.3789

> <Gold.PLP.part.repulsive>
0.1151

> <Gold.PLP.ligand.clash>
0.0000

> <Gold.PLP.ligand.torsion>
0.1923

> <Gold.PLP.Chemscore.Hbond>
3.2400

> <Gold.PLP.Chemscore.CHOScore>
0.0000

> <Gold.PLP.Chemscore.Metal>
0.0000

> <Gold.Chemscore.Hbonds>
donor molecule, donor type, donor heavy atom, donor atom, acceptor molecule, acceptor atom, score
      P1  H  6896  6909       L1    20  1.03
      P1  H  7989  7998       L1     9  0.83
      P1  H 10752 10765       L1    19  1.00

> <Gold.PLP.Chemscore.Internal.Correction>
0.0887

> <Gold.Rescore>
     Score         DG    S(hbond)    S(metal)    S(lipo)     H(rot)  DE(clash)    DE(int)     intcor
     17.06     -18.60       2.39        0.00      85.85       1.91       0.07       1.47       ----

> <Gold.Chemscore.Fitness>
17.0623

> <Gold.Chemscore.DG>
-18.6032

> <Gold.Chemscore.ZeroCoef>
-5.4800

> <Gold.Chemscore.Hbond>
2.3872

> <Gold.Chemscore.Metal>
0.0000

> <Gold.Chemscore.Lipo>
85.8475

> <Gold.Chemscore.Internal_Hbond>
0.0000

> <Gold.Chemscore.DEClash>
0.0664

> <Gold.Chemscore.DEInternal>
1.4745

> <Gold.Chemscore.Rot>
1.9118

> <Gold.Chemscore.Internal.Correction>
   9.000000E+99

> <Gold.Chemscore.Hbonds>
donor molecule, donor type, donor heavy atom, donor atom, acceptor molecule, acceptor atom, score
      P1  H  6896  6909       L1    20  0.40
      P1  H  7989  7998       L1     9  0.81
      P1  H 10752 10765       L1    19  0.90

> <Gold.Chemscore.Hbond.Weighted>
-7.9734

> <Gold.Chemscore.Metal.Weighted>
-0.0000

> <Gold.Chemscore.Lipo.Weighted>
-10.0442

> <Gold.Chemscore.Internal_Hbond.Weighted>
0.0000

> <Gold.Chemscore.DEClash.Weighted>
0.0664

> <Gold.Chemscore.DEInternal.Weighted>
1.4745

> <Gold.Chemscore.Rot.Weighted>
4.8943

> <Gold.Chemscore.Internal.Correction.Weighted>
   9.000000E+99

> <Gold.Protein.RotatedTorsions>
[ 6907 6896 6895 6894 ] final   26.40 input  -60.11 | X-H torsion
[ 7974 7965 7964 7962 ] final  -53.40 input  175.53 | X-H torsion
[ 8008 7997 7996 7995 ] final  -51.32 input   59.86 | X-H torsion
[ 10167 10162 10161 10158 ] final   78.13 input  -65.29 | X-H torsion
[ 10718 10713 10712 10709 ] final   14.62 input   66.30 | X-H torsion
[ 10763 10752 10751 10750 ] final -134.02 input  -60.55 | X-H torsion
[ 11005 11000 10999 10996 ] final -105.57 input  -57.11 | X-H torsion

> <Gold.Protein.ActiveResidues>
 VAL166  LYS551  ARG553  GLY616  TRP617  ASP618  TYR619  PRO620  LYS621  CYS622 
 ASP623  PHE694  ASN695  SER759  ASP760  ASP761  ALA762  ILE779  LEU786  VAL792 
 PHE793  MET794  SER795  GLU796  ALA797  LYS798  CYS799  TRP800  GLU811  SER814 

> <Gold.Protein.RotatedAtoms>
  151.9868  135.0000  160.0559 H   0  0  0  0  0  0  0  0  0  0  0  0  # atno 6907 bound_to 6896
  152.1645  133.4598  159.4886 H   0  0  0  0  0  0  0  0  0  0  0  0  # atno 6908 bound_to 6896
  150.6892  134.1948  159.4342 H   0  0  0  0  0  0  0  0  0  0  0  0  # atno 6909 bound_to 6896
  145.8972  140.8023  142.9761 H   0  0  0  0  0  0  0  0  0  0  0  0  # atno 7974 bound_to 7965
  154.4080  140.1251  156.4810 H   0  0  0  0  0  0  0  0  0  0  0  0  # atno 8008 bound_to 7997
  155.7085  140.3494  155.4944 H   0  0  0  0  0  0  0  0  0  0  0  0  # atno 8009 bound_to 7997
  155.9321  140.1071  157.1114 H   0  0  0  0  0  0  0  0  0  0  0  0  # atno 8010 bound_to 7997
  139.9742  144.5872  150.7958 H   0  0  0  0  0  0  0  0  0  0  0  0  # atno 10167 bound_to 10162
  157.0418  130.6234  149.5752 H   0  0  0  0  0  0  0  0  0  0  0  0  # atno 10718 bound_to 10713
  154.8725  135.3747  154.4667 H   0  0  0  0  0  0  0  0  0  0  0  0  # atno 10763 bound_to 10752
  153.5331  135.7027  153.5678 H   0  0  0  0  0  0  0  0  0  0  0  0  # atno 10764 bound_to 10752
  153.3874  135.3981  155.1864 H   0  0  0  0  0  0  0  0  0  0  0  0  # atno 10765 bound_to 10752
  141.1047  133.8819  157.1751 H   0  0  0  0  0  0  0  0  0  0  0  0  # atno 11005 bound_to 11000
  144.6733  140.1621  143.7421 LP  0  0  0  0  0  0  0  0  0  0  0  0  # atno 17320 bound_to 7965
  145.8835  139.2336  143.1591 LP  0  0  0  0  0  0  0  0  0  0  0  0  # atno 17321 bound_to 7965
  140.7511  143.2967  151.3186 LP  0  0  0  0  0  0  0  0  0  0  0  0  # atno 17342 bound_to 10162
  139.6458  144.0454  152.2589 LP  0  0  0  0  0  0  0  0  0  0  0  0  # atno 17343 bound_to 10162
  156.0036  130.5119  150.7750 LP  0  0  0  0  0  0  0  0  0  0  0  0  # atno 17370 bound_to 10713
  157.5099  131.0924  151.0211 LP  0  0  0  0  0  0  0  0  0  0  0  0  # atno 17371 bound_to 10713
  139.9912  135.0064  156.9978 LP  0  0  0  0  0  0  0  0  0  0  0  0  # atno 17394 bound_to 11000
  140.4933  134.1171  155.7237 LP  0  0  0  0  0  0  0  0  0  0  0  0  # atno 17395 bound_to 11000

$$$$
