AV-unprocessed.smi:148|AV-procd|sdf|1220|dock5
  -GOLD-   2262018413D 1   1.00000     0.00000
 Structure written by MMmdl.
 63 67  0  0  0  0  0  0  0  0  1 V2000
  150.0721  137.7125  154.1398 O   0  0  0  0  0  0  0  0  0  0  0  0
  149.0459  137.9988  155.0671 C   0  0  0  0  0  0  0  0  0  0  0  0
  148.7765  139.5204  155.1596 C   0  0  2  0  0  0  0  0  0  0  0  0
  147.9082  140.0235  153.9765 C   0  0  0  0  0  0  0  0  0  0  0  0
  146.8363  139.1069  153.6305 N   0  0  0  0  0  0  0  0  0  0  0  0
  146.7772  138.2981  152.5179 C   0  0  0  0  0  0  0  0  0  0  0  0
  145.7106  137.5512  152.4286 N   0  0  0  0  0  0  0  0  0  0  0  0
  144.9803  137.8715  153.5658 C   0  0  0  0  0  0  0  0  0  0  0  0
  143.7321  137.4424  154.0889 C   0  0  0  0  0  0  0  0  0  0  0  0
  142.9814  136.5030  153.4650 N   0  0  0  0  0  0  0  0  0  0  0  0
  143.7975  135.3007  153.2808 C   0  0  0  0  0  0  0  0  0  0  0  0
  143.0965  134.2637  152.3956 C   0  0  0  0  0  0  0  0  0  0  0  0
  141.7152  133.9321  152.9651 C   0  0  0  0  0  0  0  0  0  0  0  0
  140.8929  135.2198  153.0907 C   0  0  0  0  0  0  0  0  0  0  0  0
  141.6094  136.2836  153.9656 C   0  0  2  0  0  0  0  0  0  0  0  0
  140.7819  137.6044  154.1097 C   0  0  2  0  0  0  0  0  0  0  0  0
  139.4637  137.4564  154.8937 C   0  0  0  0  0  0  0  0  0  0  0  0
  138.5080  138.5320  154.3510 C   0  0  0  0  0  0  0  0  0  0  0  0
  139.2912  139.3053  153.2864 C   0  0  0  0  0  0  0  0  0  0  0  0
  140.3671  138.3274  152.8160 C   0  0  1  0  0  0  0  0  0  0  0  0
  141.4364  139.0150  152.2008 O   0  0  0  0  0  0  0  0  0  0  0  0
  143.3233  137.9750  155.2717 N   0  0  0  0  0  0  0  0  0  0  0  0
  144.0785  138.8883  155.8898 C   0  0  0  0  0  0  0  0  0  0  0  0
  145.2568  139.3910  155.5140 N   0  0  0  0  0  0  0  0  0  0  0  0
  145.6748  138.8450  154.3359 C   0  0  0  0  0  0  0  0  0  0  0  0
  150.0944  140.3239  155.3472 C   0  0  1  0  0  0  0  0  0  0  0  0
  149.9759  141.7056  155.9907 C   0  0  0  0  0  0  0  0  0  0  0  0
  151.2018  141.7992  156.9040 C   0  0  0  0  0  0  0  0  0  0  0  0
  152.0423  140.7264  156.5048 O   0  0  0  0  0  0  0  0  0  0  0  0
  151.1938  139.6427  156.1671 C   0  0  0  0  0  0  0  0  0  0  0  0
  149.7634  137.0446  153.5466 H   0  0  0  0  0  0  0  0  0  0  0  0
  148.1413  137.4602  154.7835 H   0  0  0  0  0  0  0  0  0  0  0  0
  149.3673  137.5946  156.0262 H   0  0  0  0  0  0  0  0  0  0  0  0
  148.1879  139.6802  156.0646 H   0  0  0  0  0  0  0  0  0  0  0  0
  147.4428  140.9800  154.2068 H   0  0  0  0  0  0  0  0  0  0  0  0
  148.5166  140.1859  153.0873 H   0  0  0  0  0  0  0  0  0  0  0  0
  147.5566  138.2796  151.7698 H   0  0  0  0  0  0  0  0  0  0  0  0
  144.7569  135.5621  152.8316 H   0  0  0  0  0  0  0  0  0  0  0  0
  144.0146  134.8627  154.2564 H   0  0  0  0  0  0  0  0  0  0  0  0
  142.9963  134.6525  151.3813 H   0  0  0  0  0  0  0  0  0  0  0  0
  143.7026  133.3601  152.3257 H   0  0  0  0  0  0  0  0  0  0  0  0
  141.2032  133.2194  152.3182 H   0  0  0  0  0  0  0  0  0  0  0  0
  141.8162  133.4566  153.9416 H   0  0  0  0  0  0  0  0  0  0  0  0
  140.7236  135.6052  152.0859 H   0  0  0  0  0  0  0  0  0  0  0  0
  139.9132  134.9712  153.4949 H   0  0  0  0  0  0  0  0  0  0  0  0
  141.7106  135.8579  154.9652 H   0  0  0  0  0  0  0  0  0  0  0  0
  141.3569  138.3238  154.6927 H   0  0  0  0  0  0  0  0  0  0  0  0
  139.0104  136.4758  154.7590 H   0  0  0  0  0  0  0  0  0  0  0  0
  139.6342  137.5771  155.9641 H   0  0  0  0  0  0  0  0  0  0  0  0
  137.6381  138.0543  153.8984 H   0  0  0  0  0  0  0  0  0  0  0  0
  138.1438  139.1925  155.1383 H   0  0  0  0  0  0  0  0  0  0  0  0
  138.6579  139.6583  152.4720 H   0  0  0  0  0  0  0  0  0  0  0  0
  139.7555  140.1791  153.7472 H   0  0  0  0  0  0  0  0  0  0  0  0
  139.9200  137.6403  152.0992 H   0  0  0  0  0  0  0  0  0  0  0  0
  141.0804  139.7052  151.6627 H   0  0  0  0  0  0  0  0  0  0  0  0
  143.6821  139.2695  156.8194 H   0  0  0  0  0  0  0  0  0  0  0  0
  150.5350  140.4797  154.3615 H   0  0  0  0  0  0  0  0  0  0  0  0
  149.9955  142.4811  155.2241 H   0  0  0  0  0  0  0  0  0  0  0  0
  149.0621  141.8427  156.5667 H   0  0  0  0  0  0  0  0  0  0  0  0
  151.7152  142.7574  156.8216 H   0  0  0  0  0  0  0  0  0  0  0  0
  150.9127  141.6565  157.9462 H   0  0  0  0  0  0  0  0  0  0  0  0
  150.8238  139.1906  157.0864 H   0  0  0  0  0  0  0  0  0  0  0  0
  151.7265  138.8786  155.6007 H   0  0  0  0  0  0  0  0  0  0  0  0
  1  2  1  0  0  0  0
  1 31  1  0  0  0  0
  2  3  1  0  0  0  0
  2 32  1  0  0  0  0
  2 33  1  0  0  0  0
  3  4  1  0  0  0  0
  3 26  1  0  0  0  0
  3 34  1  0  0  0  0
  4  5  1  0  0  0  0
  4 35  1  0  0  0  0
  4 36  1  0  0  0  0
  5 25  1  0  0  0  0
  5  6  1  0  0  0  0
  6  7  2  0  0  0  0
  6 37  1  0  0  0  0
  7  8  1  0  0  0  0
  8 25  2  0  0  0  0
  8  9  1  0  0  0  0
  9 10  1  0  0  0  0
  9 22  2  0  0  0  0
 10 15  1  0  0  0  0
 10 11  1  0  0  0  0
 11 12  1  0  0  0  0
 11 38  1  0  0  0  0
 11 39  1  0  0  0  0
 12 13  1  0  0  0  0
 12 40  1  0  0  0  0
 12 41  1  0  0  0  0
 13 14  1  0  0  0  0
 13 42  1  0  0  0  0
 13 43  1  0  0  0  0
 14 15  1  0  0  0  0
 14 44  1  0  0  0  0
 14 45  1  0  0  0  0
 15 16  1  0  0  0  0
 15 46  1  0  0  0  0
 16 20  1  0  0  0  0
 16 17  1  0  0  0  0
 16 47  1  0  0  0  0
 17 18  1  0  0  0  0
 17 48  1  0  0  0  0
 17 49  1  0  0  0  0
 18 19  1  0  0  0  0
 18 50  1  0  0  0  0
 18 51  1  0  0  0  0
 19 20  1  0  0  0  0
 19 52  1  0  0  0  0
 19 53  1  0  0  0  0
 20 21  1  0  0  0  0
 20 54  1  0  0  0  0
 21 55  1  0  0  0  0
 22 23  1  0  0  0  0
 23 24  2  0  0  0  0
 23 56  1  0  0  0  0
 24 25  1  0  0  0  0
 26 30  1  0  0  0  0
 26 27  1  0  0  0  0
 26 57  1  0  0  0  0
 27 28  1  0  0  0  0
 27 58  1  0  0  0  0
 27 59  1  0  0  0  0
 28 29  1  0  0  0  0
 28 60  1  0  0  0  0
 28 61  1  0  0  0  0
 29 30  1  0  0  0  0
 30 62  1  0  0  0  0
 30 63  1  0  0  0  0
M  END
> <s_m_source_file>
AV-unprocessed.smi

> <i_m_source_file_index>
148

> <i_lp_mmshare_version>
43012

> <i_f3d_flags>
0

> <s_epik_input>
W0NIMl0xT1tDSDJdW0NIMl1bQ0BIXTFbQ0BIXShbQ0gyXVtPSF0pW0NIMl1uKFtjSF1uMiljKGMyMyluW2NIXW5jM040W0NIMl1bQ0gyXVtDSDJdW0NIMl1bQ0BIXTRbQ0BASF01W0NIMl1bQ0gyXVtDSDJdW0NASF01W09IXQ==

> <s_epik_cmdline>
J2VwaWtfcHl0aG9uJywgJy1waCcsICc3LjAnLCAnLXRuJywgJzgnLCAnLW1hJywgJzIwMCcsICctbWV0YWxfYmluZGluZycsICctaW1hZScsICc8aW5maWxlLm1hZT4nLCAnLW9tYWUnLCAnPG91dGZpbGUubWFlPic=

> <r_lp_tautomer_probability>
1

> <r_epik_Ionization_Penalty>
0.00556303

> <r_epik_Ionization_Penalty_Charging>
0

> <r_epik_Ionization_Penalty_Neutral>
0.00556303

> <r_epik_State_Penalty>
0.00401767

> <r_epik_Charging_Adjusted_Penalty>
0.00401767

> <i_epik_Tot_Q>
0

> <i_epik_Tot_abs_Q>
0

> <r_epik_Metal_State_Penalty>
-0

> <b_epik_Metal_Only>
0

> <s_lp_Force_Field>
OPLS_2005

> <r_lp_Energy>
68.7494

> <b_lp_Chiralities_Consistent>
1

> <s_lp_Variant>
AV-unprocessed.smi:148-19

> <Gold.Version>
5.8.1

> <Gold.Id.Protein>
6NUR|6NUR_protein|mol2

> <Gold.PLP.Fitness>
46.5996

> <Gold.PLP.PLP>
-35.3603

> <Gold.PLP.part.hbond>
-4.8025

> <Gold.PLP.part.metal>
0.0000

> <Gold.PLP.part.buried>
2.3447

> <Gold.PLP.part.nonpolar>
-32.7604

> <Gold.PLP.part.repulsive>
0.4475

> <Gold.PLP.ligand.clash>
0.0000

> <Gold.PLP.ligand.torsion>
0.9942

> <Gold.PLP.Chemscore.Hbond>
3.0000

> <Gold.PLP.Chemscore.CHOScore>
1.1901

> <Gold.PLP.Chemscore.Metal>
0.0000

> <Gold.Chemscore.Hbonds>
donor molecule, donor type, donor heavy atom, donor atom, acceptor molecule, acceptor atom, score
      L1  H     1    31       P1  7948  1.00
      L1  H    21    55       P1 10160  0.36
      P1  H  7997  8008       L1    29  0.14
      L1  C     6    37       P1  7948  0.69
      L1  C     6    37       P1  7957  0.50

> <Gold.PLP.Chemscore.Internal.Correction>
0.6573

> <Gold.Rescore>
     Score         DG    S(hbond)    S(metal)    S(lipo)     H(rot)  DE(clash)    DE(int)     intcor
     13.49     -17.12       2.65        0.00      96.38       3.32       1.63       2.01       ----

> <Gold.Chemscore.Fitness>
13.4879

> <Gold.Chemscore.DG>
-17.1207

> <Gold.Chemscore.ZeroCoef>
-5.4800

> <Gold.Chemscore.Hbond>
2.6539

> <Gold.Chemscore.Metal>
0.0000

> <Gold.Chemscore.Lipo>
96.3832

> <Gold.Chemscore.Internal_Hbond>
0.0000

> <Gold.Chemscore.DEClash>
1.6276

> <Gold.Chemscore.DEInternal>
2.0052

> <Gold.Chemscore.Rot>
3.3203

> <Gold.Chemscore.Internal.Correction>
   9.000000E+99

> <Gold.Chemscore.Hbonds>
donor molecule, donor type, donor heavy atom, donor atom, acceptor molecule, acceptor atom, score
      L1  H     1    31       P1  7948  0.57
      L1  H    21    55       P1 10160  0.37
      P1  H  7997  8008       L1    29  0.13

> <Gold.Chemscore.Hbond.Weighted>
-8.8639

> <Gold.Chemscore.Metal.Weighted>
-0.0000

> <Gold.Chemscore.Lipo.Weighted>
-11.2768

> <Gold.Chemscore.Internal_Hbond.Weighted>
0.0000

> <Gold.Chemscore.DEClash.Weighted>
1.6276

> <Gold.Chemscore.DEInternal.Weighted>
2.0052

> <Gold.Chemscore.Rot.Weighted>
8.5000

> <Gold.Chemscore.Internal.Correction.Weighted>
   9.000000E+99

> <Gold.Protein.RotatedTorsions>
[ 6907 6896 6895 6894 ] final   -8.81 input  -60.11 | X-H torsion
[ 7974 7965 7964 7962 ] final -144.40 input  175.53 | X-H torsion
[ 8008 7997 7996 7995 ] final  -44.45 input   59.86 | X-H torsion
[ 10167 10162 10161 10158 ] final    0.37 input  -65.29 | X-H torsion
[ 10718 10713 10712 10709 ] final -110.95 input   66.30 | X-H torsion
[ 10763 10752 10751 10750 ] final  121.10 input  -60.55 | X-H torsion
[ 11005 11000 10999 10996 ] final  -50.38 input  -57.11 | X-H torsion

> <Gold.Protein.ActiveResidues>
 VAL166  LYS551  ARG553  GLY616  TRP617  ASP618  TYR619  PRO620  LYS621  CYS622 
 ASP623  PHE694  ASN695  SER759  ASP760  ASP761  ALA762  ILE779  LEU786  VAL792 
 PHE793  MET794  SER795  GLU796  ALA797  LYS798  CYS799  TRP800  GLU811  SER814 

> <Gold.Protein.RotatedAtoms>
  151.4278  135.1006  159.9632 H   0  0  0  0  0  0  0  0  0  0  0  0  # atno 6907 bound_to 6896
  152.4966  133.8646  159.7278 H   0  0  0  0  0  0  0  0  0  0  0  0  # atno 6908 bound_to 6896
  150.9177  133.6861  159.2867 H   0  0  0  0  0  0  0  0  0  0  0  0  # atno 6909 bound_to 6896
  144.8300  140.5715  143.5521 H   0  0  0  0  0  0  0  0  0  0  0  0  # atno 7974 bound_to 7965
  154.3997  140.1422  156.3685 H   0  0  0  0  0  0  0  0  0  0  0  0  # atno 8008 bound_to 7997
  155.8115  140.3472  155.5439 H   0  0  0  0  0  0  0  0  0  0  0  0  # atno 8009 bound_to 7997
  155.8382  140.0922  157.1741 H   0  0  0  0  0  0  0  0  0  0  0  0  # atno 8010 bound_to 7997
  140.6732  143.6991  150.7966 H   0  0  0  0  0  0  0  0  0  0  0  0  # atno 10167 bound_to 10162
  156.0619  130.5842  150.8307 H   0  0  0  0  0  0  0  0  0  0  0  0  # atno 10718 bound_to 10713
  153.6088  135.3434  155.2971 H   0  0  0  0  0  0  0  0  0  0  0  0  # atno 10763 bound_to 10752
  154.8622  135.4245  154.2332 H   0  0  0  0  0  0  0  0  0  0  0  0  # atno 10764 bound_to 10752
  153.3178  135.7036  153.7129 H   0  0  0  0  0  0  0  0  0  0  0  0  # atno 10765 bound_to 10752
  141.0813  133.6653  156.3723 H   0  0  0  0  0  0  0  0  0  0  0  0  # atno 11005 bound_to 11000
  145.4916  139.1488  143.3706 LP  0  0  0  0  0  0  0  0  0  0  0  0  # atno 17320 bound_to 7965
  146.2604  140.5054  142.8856 LP  0  0  0  0  0  0  0  0  0  0  0  0  # atno 17321 bound_to 7965
  140.0679  143.5089  152.2594 LP  0  0  0  0  0  0  0  0  0  0  0  0  # atno 17342 bound_to 10162
  139.6010  144.7582  151.3172 LP  0  0  0  0  0  0  0  0  0  0  0  0  # atno 17343 bound_to 10162
  157.5634  131.0946  150.9525 LP  0  0  0  0  0  0  0  0  0  0  0  0  # atno 17370 bound_to 10713
  156.9757  130.5508  149.5293 LP  0  0  0  0  0  0  0  0  0  0  0  0  # atno 17371 bound_to 10713
  140.5463  134.6071  157.5394 LP  0  0  0  0  0  0  0  0  0  0  0  0  # atno 17394 bound_to 11000
  139.9627  134.7425  156.0203 LP  0  0  0  0  0  0  0  0  0  0  0  0  # atno 17395 bound_to 11000

$$$$
