AV-unprocessed.smi:630|AV-procd|sdf|3117|dock6
  -GOLD-   22720 0 43D 1   1.00000     0.00000
 Structure written by MMmdl.
 37 38  0  0  0  0  0  0  0  0  1 V2000
  148.7677  136.2737  154.5284 N   0  0  0  0  0  0  0  0  0  0  0  0
  148.8657  137.4448  155.1633 C   0  0  0  0  0  0  0  0  0  0  0  0
  149.1120  137.5157  156.3658 O   0  0  0  0  0  0  0  0  0  0  0  0
  148.6551  138.7224  154.3280 C   0  0  2  0  0  0  0  0  0  0  0  0
  148.9553  139.9567  155.2128 C   0  0  0  0  0  0  0  0  0  0  0  0
  149.2313  141.2331  154.4013 C   0  0  0  0  0  0  0  0  0  0  0  0
  147.9867  142.0649  154.0515 C   0  0  0  0  0  0  0  0  0  0  0  0
  146.7186  141.2703  153.6980 C   0  0  0  0  0  0  0  0  0  0  0  0
  146.9459  140.0149  152.8403 C   0  0  0  0  0  0  0  0  0  0  0  0
  147.2446  138.7446  153.6712 C   0  0  1  0  0  0  0  0  0  0  0  0
  147.0839  137.5705  152.8085 N   0  0  0  0  0  0  0  0  0  0  0  0
  145.9631  136.8454  152.6754 C   0  0  0  0  0  0  0  0  0  0  0  0
  144.9061  137.1145  153.2468 O   0  0  0  0  0  0  0  0  0  0  0  0
  146.1557  135.8043  151.8470 N   0  0  0  0  0  0  0  0  0  0  0  0
  145.2271  134.7993  151.4691 C   0  0  0  0  0  0  0  0  0  0  0  0
  145.5278  133.7410  150.7073 N   0  0  0  0  0  0  0  0  0  0  0  0
  144.4202  132.9169  150.4935 C   0  0  0  0  0  0  0  0  0  0  0  0
  143.2759  133.3655  151.1050 C   0  0  0  0  0  0  0  0  0  0  0  0
  143.5458  134.8498  151.9789 S   0  0  0  0  0  0  0  0  0  0  0  0
  148.9035  135.4148  155.0418 H   0  0  0  0  0  0  0  0  0  0  0  0
  148.5631  136.2493  153.5403 H   0  0  0  0  0  0  0  0  0  0  0  0
  149.3951  138.7030  153.5254 H   0  0  0  0  0  0  0  0  0  0  0  0
  148.1581  140.1251  155.9383 H   0  0  0  0  0  0  0  0  0  0  0  0
  149.8497  139.7546  155.8049 H   0  0  0  0  0  0  0  0  0  0  0  0
  149.9120  141.8722  154.9648 H   0  0  0  0  0  0  0  0  0  0  0  0
  149.7712  140.9780  153.4888 H   0  0  0  0  0  0  0  0  0  0  0  0
  147.7506  142.7237  154.8881 H   0  0  0  0  0  0  0  0  0  0  0  0
  148.2400  142.7259  153.2219 H   0  0  0  0  0  0  0  0  0  0  0  0
  146.1891  140.9956  154.6111 H   0  0  0  0  0  0  0  0  0  0  0  0
  146.0419  141.9423  153.1691 H   0  0  0  0  0  0  0  0  0  0  0  0
  146.0277  139.8469  152.2753 H   0  0  0  0  0  0  0  0  0  0  0  0
  147.7217  140.1884  152.0934 H   0  0  0  0  0  0  0  0  0  0  0  0
  146.5028  138.6832  154.4704 H   0  0  0  0  0  0  0  0  0  0  0  0
  147.9000  137.2756  152.2933 H   0  0  0  0  0  0  0  0  0  0  0  0
  147.0786  135.7123  151.4497 H   0  0  0  0  0  0  0  0  0  0  0  0
  144.5362  132.0280  149.8913 H   0  0  0  0  0  0  0  0  0  0  0  0
  142.2948  132.9146  151.0942 H   0  0  0  0  0  0  0  0  0  0  0  0
  1  2  1  0  0  0  0
  1 20  1  0  0  0  0
  1 21  1  0  0  0  0
  2  3  2  0  0  0  0
  2  4  1  0  0  0  0
  4 10  1  0  0  0  0
  4  5  1  0  0  0  0
  4 22  1  0  0  0  0
  5  6  1  0  0  0  0
  5 23  1  0  0  0  0
  5 24  1  0  0  0  0
  6  7  1  0  0  0  0
  6 25  1  0  0  0  0
  6 26  1  0  0  0  0
  7  8  1  0  0  0  0
  7 27  1  0  0  0  0
  7 28  1  0  0  0  0
  8  9  1  0  0  0  0
  8 29  1  0  0  0  0
  8 30  1  0  0  0  0
  9 10  1  0  0  0  0
  9 31  1  0  0  0  0
  9 32  1  0  0  0  0
 10 11  1  0  0  0  0
 10 33  1  0  0  0  0
 11 12  1  0  0  0  0
 11 34  1  0  0  0  0
 12 13  2  0  0  0  0
 12 14  1  0  0  0  0
 14 15  1  0  0  0  0
 14 35  1  0  0  0  0
 15 19  1  0  0  0  0
 15 16  2  0  0  0  0
 16 17  1  0  0  0  0
 17 18  2  0  0  0  0
 17 36  1  0  0  0  0
 18 19  1  0  0  0  0
 18 37  1  0  0  0  0
M  END
> <s_m_source_file>
AV-unprocessed.smi

> <i_m_source_file_index>
630

> <i_lp_mmshare_version>
43012

> <i_f3d_flags>
0

> <s_epik_input>
W05IMl1DKD1PKVtDQEBIXTFbQ0gyXVtDSDJdW0NIMl1bQ0gyXVtDSDJdW0NASF0xW05IXUMoPU8pW05IXWMybltjSF1bY0hdczI=

> <s_epik_cmdline>
J2VwaWtfcHl0aG9uJywgJy1waCcsICc3LjAnLCAnLXRuJywgJzgnLCAnLW1hJywgJzIwMCcsICctbWV0YWxfYmluZGluZycsICctaW1hZScsICc8aW5maWxlLm1hZT4nLCAnLW9tYWUnLCAnPG91dGZpbGUubWFlPic=

> <r_lp_tautomer_probability>
0.999

> <r_epik_Ionization_Penalty>
0.000342689

> <r_epik_Ionization_Penalty_Charging>
0

> <r_epik_Ionization_Penalty_Neutral>
0.000342689

> <r_epik_State_Penalty>
0.000177984

> <r_epik_Charging_Adjusted_Penalty>
0.000177984

> <i_epik_Tot_Q>
0

> <i_epik_Tot_abs_Q>
0

> <r_epik_Metal_State_Penalty>
0.00743087

> <b_epik_Metal_Only>
0

> <s_lp_Force_Field>
OPLS_2005

> <r_lp_Energy>
11.5687

> <b_lp_Chiralities_Consistent>
1

> <s_lp_Variant>
AV-unprocessed.smi:630-1

> <Gold.Version>
5.8.1

> <Gold.Id.Protein>
6NUR|6NUR_protein|mol2

> <Gold.PLP.Fitness>
36.0274

> <Gold.PLP.PLP>
-26.9065

> <Gold.PLP.part.hbond>
-2.8388

> <Gold.PLP.part.metal>
0.0000

> <Gold.PLP.part.buried>
0.3109

> <Gold.PLP.part.nonpolar>
-24.2580

> <Gold.PLP.part.repulsive>
0.4270

> <Gold.PLP.ligand.clash>
0.0000

> <Gold.PLP.ligand.torsion>
0.3722

> <Gold.PLP.Chemscore.Hbond>
2.8160

> <Gold.PLP.Chemscore.CHOScore>
0.4524

> <Gold.PLP.Chemscore.Metal>
0.0000

> <Gold.Chemscore.Hbonds>
donor molecule, donor type, donor heavy atom, donor atom, acceptor molecule, acceptor atom, score
      L1  H     1    21       P1  7948  1.00
      L1  H    11    34       P1  7948  0.99
      L1  H    14    35       P1  7948  0.82
      L1  C    18    37       P1 10186  0.47

> <Gold.PLP.Chemscore.Internal.Correction>
0.0601

> <Gold.Rescore>
     Score         DG    S(hbond)    S(metal)    S(lipo)     H(rot)  DE(clash)    DE(int)     intcor
     15.21     -18.88       2.88        0.00      65.69       1.52       0.63       3.05       ----

> <Gold.Chemscore.Fitness>
15.2079

> <Gold.Chemscore.DG>
-18.8847

> <Gold.Chemscore.ZeroCoef>
-5.4800

> <Gold.Chemscore.Hbond>
2.8760

> <Gold.Chemscore.Metal>
0.0000

> <Gold.Chemscore.Lipo>
65.6940

> <Gold.Chemscore.Internal_Hbond>
0.0000

> <Gold.Chemscore.DEClash>
0.6302

> <Gold.Chemscore.DEInternal>
3.0467

> <Gold.Chemscore.Rot>
1.5184

> <Gold.Chemscore.Internal.Correction>
   9.000000E+99

> <Gold.Chemscore.Hbonds>
donor molecule, donor type, donor heavy atom, donor atom, acceptor molecule, acceptor atom, score
      L1  H     1    21       P1  7948  0.98
      L1  H    11    34       P1  7948  0.91
      L1  H    14    35       P1  7948  0.80

> <Gold.Chemscore.Hbond.Weighted>
-9.6057

> <Gold.Chemscore.Metal.Weighted>
-0.0000

> <Gold.Chemscore.Lipo.Weighted>
-7.6862

> <Gold.Chemscore.Internal_Hbond.Weighted>
0.0000

> <Gold.Chemscore.DEClash.Weighted>
0.6302

> <Gold.Chemscore.DEInternal.Weighted>
3.0467

> <Gold.Chemscore.Rot.Weighted>
3.8872

> <Gold.Chemscore.Internal.Correction.Weighted>
   9.000000E+99

> <Gold.Protein.RotatedTorsions>
[ 6907 6896 6895 6894 ] final  -52.86 input  -60.11 | X-H torsion
[ 7974 7965 7964 7962 ] final  136.84 input  175.53 | X-H torsion
[ 8008 7997 7996 7995 ] final    2.84 input   59.86 | X-H torsion
[ 10167 10162 10161 10158 ] final -139.74 input  -65.29 | X-H torsion
[ 10718 10713 10712 10709 ] final   88.08 input   66.30 | X-H torsion
[ 10763 10752 10751 10750 ] final -139.56 input  -60.55 | X-H torsion
[ 11005 11000 10999 10996 ] final -141.07 input  -57.11 | X-H torsion

> <Gold.Protein.ActiveResidues>
 VAL166  LYS551  ARG553  GLY616  TRP617  ASP618  TYR619  PRO620  LYS621  CYS622 
 ASP623  PHE694  ASN695  SER759  ASP760  ASP761  ALA762  ILE779  LEU786  VAL792 
 PHE793  MET794  SER795  GLU796  ALA797  LYS798  CYS799  TRP800  GLU811  SER814 

> <Gold.Protein.RotatedAtoms>
  150.8479  134.7794  159.6984 H   0  0  0  0  0  0  0  0  0  0  0  0  # atno 6907 bound_to 6896
  152.4551  134.5305  159.9819 H   0  0  0  0  0  0  0  0  0  0  0  0  # atno 6908 bound_to 6896
  151.5432  133.3391  159.2975 H   0  0  0  0  0  0  0  0  0  0  0  0  # atno 6909 bound_to 6896
  144.9526  139.4801  143.5518 H   0  0  0  0  0  0  0  0  0  0  0  0  # atno 7974 bound_to 7965
  154.6964  140.2664  155.6762 H   0  0  0  0  0  0  0  0  0  0  0  0  # atno 8008 bound_to 7997
  156.2750  140.2781  156.1483 H   0  0  0  0  0  0  0  0  0  0  0  0  # atno 8009 bound_to 7997
  155.0825  140.0372  157.2633 H   0  0  0  0  0  0  0  0  0  0  0  0  # atno 8010 bound_to 7997
  139.8350  143.7397  152.2665 H   0  0  0  0  0  0  0  0  0  0  0  0  # atno 10167 bound_to 10162
  157.6946  131.0280  150.3220 H   0  0  0  0  0  0  0  0  0  0  0  0  # atno 10718 bound_to 10713
  154.8605  135.3579  154.5566 H   0  0  0  0  0  0  0  0  0  0  0  0  # atno 10763 bound_to 10752
  153.6182  135.7007  153.5325 H   0  0  0  0  0  0  0  0  0  0  0  0  # atno 10764 bound_to 10752
  153.3151  135.4167  155.1329 H   0  0  0  0  0  0  0  0  0  0  0  0  # atno 10765 bound_to 10752
  140.8361  134.2458  157.4833 H   0  0  0  0  0  0  0  0  0  0  0  0  # atno 11005 bound_to 11000
  146.3326  139.8622  142.8854 LP  0  0  0  0  0  0  0  0  0  0  0  0  # atno 17320 bound_to 7965
  145.2821  141.0142  143.3711 LP  0  0  0  0  0  0  0  0  0  0  0  0  # atno 17321 bound_to 7965
  139.7616  144.7504  151.0355 LP  0  0  0  0  0  0  0  0  0  0  0  0  # atno 17342 bound_to 10162
  140.7803  143.4744  151.0102 LP  0  0  0  0  0  0  0  0  0  0  0  0  # atno 17343 bound_to 10162
  156.3706  130.3863  149.7179 LP  0  0  0  0  0  0  0  0  0  0  0  0  # atno 17370 bound_to 10713
  156.4595  130.7945  151.2965 LP  0  0  0  0  0  0  0  0  0  0  0  0  # atno 17371 bound_to 10713
  139.8704  134.9611  156.4386 LP  0  0  0  0  0  0  0  0  0  0  0  0  # atno 17394 bound_to 11000
  140.8946  133.7823  155.9610 LP  0  0  0  0  0  0  0  0  0  0  0  0  # atno 17395 bound_to 11000

$$$$
