AV-unprocessed.smi:1178|AV-procd|sdf|4956|dock1
  -GOLD-   22720 3543D 1   1.00000     0.00000
 Structure written by MMmdl.
 33 34  0  0  0  0  0  0  0  0  1 V2000
  150.2311  140.0585  154.1619 O   0  0  0  0  0  0  0  0  0  0  0  0
  149.3280  140.8003  154.5513 C   0  0  0  0  0  0  0  0  0  0  0  0
  147.9304  140.7302  153.9201 C   0  0  0  0  0  0  0  0  0  0  0  0
  147.0189  141.7559  154.4473 N   0  0  0  0  0  0  0  0  0  0  0  0
  146.6299  142.8243  153.6516 C   0  0  0  0  0  0  0  0  0  0  0  0
  145.7758  143.7900  154.0657 C   0  0  0  0  0  0  0  0  0  0  0  0
  145.2082  143.7476  155.4091 C   0  0  0  0  0  0  0  0  0  0  0  0
  144.4258  144.5731  155.8749 O   0  0  0  0  0  0  0  0  0  0  0  0
  145.6240  142.6582  156.1789 N   0  0  0  0  0  0  0  0  0  0  0  0
  146.5039  141.6598  155.7585 C   0  0  0  0  0  0  0  0  0  0  0  0
  146.8033  140.7402  156.5187 O   0  0  0  0  0  0  0  0  0  0  0  0
  149.4954  141.7143  155.5190 N   0  0  0  0  0  0  0  0  0  0  0  0
  150.7288  141.9359  156.2660 C   0  0  0  0  0  0  0  0  0  0  0  0
  150.7726  141.1152  157.5722 C   0  0  0  0  0  0  0  0  0  0  0  0
  151.7981  141.6127  158.4998 N   0  0  0  0  0  0  0  0  0  0  0  0
  151.7614  142.8567  159.0307 C   0  0  0  0  0  0  0  0  0  0  0  0
  150.8856  143.6915  158.8072 O   0  0  0  0  0  0  0  0  0  0  0  0
  152.9333  143.1832  159.9639 C   0  0  0  0  0  0  0  0  0  0  0  0
  153.9465  141.7020  159.9680 S   0  0  0  0  0  0  0  0  0  0  0  0
  152.8641  140.8847  158.8740 C   0  0  0  0  0  0  0  0  0  0  0  0
  153.0964  139.7377  158.4931 O   0  0  0  0  0  0  0  0  0  0  0  0
  145.2558  142.5857  157.1162 H   0  0  0  0  0  0  0  0  0  0  0  0
  148.0056  140.8167  152.8341 H   0  0  0  0  0  0  0  0  0  0  0  0
  147.5259  139.7338  154.1025 H   0  0  0  0  0  0  0  0  0  0  0  0
  147.0205  142.8933  152.6463 H   0  0  0  0  0  0  0  0  0  0  0  0
  145.5087  144.5968  153.3985 H   0  0  0  0  0  0  0  0  0  0  0  0
  148.7019  142.2855  155.7711 H   0  0  0  0  0  0  0  0  0  0  0  0
  151.5748  141.6598  155.6346 H   0  0  0  0  0  0  0  0  0  0  0  0
  150.8410  143.0015  156.4675 H   0  0  0  0  0  0  0  0  0  0  0  0
  149.7910  141.0777  158.0479 H   0  0  0  0  0  0  0  0  0  0  0  0
  150.9969  140.0759  157.3261 H   0  0  0  0  0  0  0  0  0  0  0  0
  153.5003  144.0349  159.5880 H   0  0  0  0  0  0  0  0  0  0  0  0
  152.5760  143.4069  160.9692 H   0  0  0  0  0  0  0  0  0  0  0  0
  1  2  2  0  0  0  0
  2  3  1  0  0  0  0
  2 12  1  0  0  0  0
  3  4  1  0  0  0  0
  3 23  1  0  0  0  0
  3 24  1  0  0  0  0
  4 10  1  0  0  0  0
  4  5  1  0  0  0  0
  5  6  2  0  0  0  0
  5 25  1  0  0  0  0
  6  7  1  0  0  0  0
  6 26  1  0  0  0  0
  7  8  2  0  0  0  0
  7  9  1  0  0  0  0
  9 22  1  0  0  0  0
  9 10  1  0  0  0  0
 10 11  2  0  0  0  0
 12 13  1  0  0  0  0
 12 27  1  0  0  0  0
 13 14  1  0  0  0  0
 13 28  1  0  0  0  0
 13 29  1  0  0  0  0
 14 15  1  0  0  0  0
 14 30  1  0  0  0  0
 14 31  1  0  0  0  0
 15 20  1  0  0  0  0
 15 16  1  0  0  0  0
 16 17  2  0  0  0  0
 16 18  1  0  0  0  0
 18 19  1  0  0  0  0
 18 32  1  0  0  0  0
 18 33  1  0  0  0  0
 19 20  1  0  0  0  0
 20 21  2  0  0  0  0
M  END
> <s_m_source_file>
AV-unprocessed.smi

> <i_m_source_file_index>
1178

> <i_lp_mmshare_version>
43012

> <i_f3d_flags>
0

> <s_epik_input>
Tz1jMVtuSF1jKD1PKVtjSF1bY0hdbjFbQ0gyXUMoPU8pW05IXVtDSDJdW0NIMl1OMkMoPU8pW0NIMl1TQzI9Tw==

> <s_epik_cmdline>
J2VwaWtfcHl0aG9uJywgJy1waCcsICc3LjAnLCAnLXRuJywgJzgnLCAnLW1hJywgJzIwMCcsICctbWV0YWxfYmluZGluZycsICctaW1hZScsICc8aW5maWxlLm1hZT4nLCAnLW9tYWUnLCAnPG91dGZpbGUubWFlPic=

> <r_lp_tautomer_probability>
0.999537

> <r_epik_Ionization_Penalty>
0.00339795

> <r_epik_Ionization_Penalty_Charging>
0.0033979

> <r_epik_Ionization_Penalty_Neutral>
5.48861e-08

> <r_epik_State_Penalty>
0.00240602

> <r_epik_Charging_Adjusted_Penalty>
0.00580392

> <i_epik_Tot_Q>
0

> <i_epik_Tot_abs_Q>
0

> <r_epik_Metal_State_Penalty>
0.366682

> <b_epik_Metal_Only>
0

> <s_lp_Force_Field>
OPLS_2005

> <r_lp_Energy>
11.0957

> <b_lp_Chiralities_Consistent>
1

> <s_lp_Variant>
AV-unprocessed.smi:1178-1

> <Gold.Version>
5.8.1

> <Gold.Id.Protein>
6NUR|6NUR_protein|mol2

> <Gold.PLP.Fitness>
45.0201

> <Gold.PLP.PLP>
-39.7747

> <Gold.PLP.part.hbond>
-2.7690

> <Gold.PLP.part.metal>
0.0000

> <Gold.PLP.part.buried>
-6.7461

> <Gold.PLP.part.nonpolar>
-31.0687

> <Gold.PLP.part.repulsive>
0.5222

> <Gold.PLP.ligand.clash>
0.0000

> <Gold.PLP.ligand.torsion>
0.3949

> <Gold.PLP.Chemscore.Hbond>
2.0000

> <Gold.PLP.Chemscore.CHOScore>
0.0000

> <Gold.PLP.Chemscore.Metal>
0.0000

> <Gold.Chemscore.Hbonds>
donor molecule, donor type, donor heavy atom, donor atom, acceptor molecule, acceptor atom, score
      P1  H  7989  7998       L1     1  1.00
      P1  H  7997  8008       L1    21  0.71

> <Gold.PLP.Chemscore.Internal.Correction>
0.0352

> <Gold.Rescore>
     Score         DG    S(hbond)    S(metal)    S(lipo)     H(rot)  DE(clash)    DE(int)     intcor
      9.43     -10.78       1.91        0.00      55.71       2.97       0.06       1.29       ----

> <Gold.Chemscore.Fitness>
9.4281

> <Gold.Chemscore.DG>
-10.7818

> <Gold.Chemscore.ZeroCoef>
-5.4800

> <Gold.Chemscore.Hbond>
1.9102

> <Gold.Chemscore.Metal>
0.0000

> <Gold.Chemscore.Lipo>
55.7083

> <Gold.Chemscore.Internal_Hbond>
0.0000

> <Gold.Chemscore.DEClash>
0.0637

> <Gold.Chemscore.DEInternal>
1.2900

> <Gold.Chemscore.Rot>
2.9672

> <Gold.Chemscore.Internal.Correction>
   9.000000E+99

> <Gold.Chemscore.Hbonds>
donor molecule, donor type, donor heavy atom, donor atom, acceptor molecule, acceptor atom, score
      L1  H    12    27       P1  8028  0.03
      P1  H  7989  7998       L1     1  0.87
      P1  H  7997  8008       L1    21  0.24

> <Gold.Chemscore.Hbond.Weighted>
-6.3800

> <Gold.Chemscore.Metal.Weighted>
-0.0000

> <Gold.Chemscore.Lipo.Weighted>
-6.5179

> <Gold.Chemscore.Internal_Hbond.Weighted>
0.0000

> <Gold.Chemscore.DEClash.Weighted>
0.0637

> <Gold.Chemscore.DEInternal.Weighted>
1.2900

> <Gold.Chemscore.Rot.Weighted>
7.5960

> <Gold.Chemscore.Internal.Correction.Weighted>
   9.000000E+99

> <Gold.Protein.RotatedTorsions>
[ 6907 6896 6895 6894 ] final  173.17 input  -60.11 | X-H torsion
[ 7974 7965 7964 7962 ] final   83.85 input  175.53 | X-H torsion
[ 8008 7997 7996 7995 ] final -100.62 input   59.86 | X-H torsion
[ 10167 10162 10161 10158 ] final  -46.05 input  -65.29 | X-H torsion
[ 10718 10713 10712 10709 ] final   24.64 input   66.30 | X-H torsion
[ 10763 10752 10751 10750 ] final  131.97 input  -60.55 | X-H torsion
[ 11005 11000 10999 10996 ] final   45.54 input  -57.11 | X-H torsion

> <Gold.Protein.ActiveResidues>
 VAL166  LYS551  ARG553  GLY616  TRP617  ASP618  TYR619  PRO620  LYS621  CYS622 
 ASP623  PHE694  ASN695  SER759  ASP760  ASP761  ALA762  ILE779  LEU786  VAL792 
 PHE793  MET794  SER795  GLU796  ALA797  LYS798  CYS799  TRP800  GLU811  SER814 

> <Gold.Protein.RotatedAtoms>
  151.7726  133.3342  159.3448 H   0  0  0  0  0  0  0  0  0  0  0  0  # atno 6907 bound_to 6896
  150.7456  134.6004  159.6043 H   0  0  0  0  0  0  0  0  0  0  0  0  # atno 6908 bound_to 6896
  152.3330  134.7236  160.0336 H   0  0  0  0  0  0  0  0  0  0  0  0  # atno 6909 bound_to 6896
  145.6065  139.2361  143.2216 H   0  0  0  0  0  0  0  0  0  0  0  0  # atno 7974 bound_to 7965
  154.8311  140.0440  157.1477 H   0  0  0  0  0  0  0  0  0  0  0  0  # atno 8008 bound_to 7997
  154.9151  140.3019  155.5225 H   0  0  0  0  0  0  0  0  0  0  0  0  # atno 8009 bound_to 7997
  156.2987  140.2351  156.4195 H   0  0  0  0  0  0  0  0  0  0  0  0  # atno 8010 bound_to 7997
  140.6833  143.2850  151.3726 H   0  0  0  0  0  0  0  0  0  0  0  0  # atno 10167 bound_to 10162
  157.1825  130.6809  149.6118 H   0  0  0  0  0  0  0  0  0  0  0  0  # atno 10718 bound_to 10713
  153.7831  135.3165  155.3368 H   0  0  0  0  0  0  0  0  0  0  0  0  # atno 10763 bound_to 10752
  154.8154  135.4640  154.0632 H   0  0  0  0  0  0  0  0  0  0  0  0  # atno 10764 bound_to 10752
  153.1927  135.6911  153.8418 H   0  0  0  0  0  0  0  0  0  0  0  0  # atno 10765 bound_to 10752
  140.1450  134.4534  155.8422 H   0  0  0  0  0  0  0  0  0  0  0  0  # atno 11005 bound_to 11000
  146.1537  140.6889  142.9310 LP  0  0  0  0  0  0  0  0  0  0  0  0  # atno 17320 bound_to 7965
  144.7288  140.4607  143.6953 LP  0  0  0  0  0  0  0  0  0  0  0  0  # atno 17321 bound_to 7965
  139.6172  144.0979  152.2357 LP  0  0  0  0  0  0  0  0  0  0  0  0  # atno 17342 bound_to 10162
  140.0412  144.6006  150.7410 LP  0  0  0  0  0  0  0  0  0  0  0  0  # atno 17343 bound_to 10162
  155.9722  130.4642  150.6209 LP  0  0  0  0  0  0  0  0  0  0  0  0  # atno 17370 bound_to 10713
  157.3939  131.0800  151.1369 LP  0  0  0  0  0  0  0  0  0  0  0  0  # atno 17371 bound_to 10713
  141.2191  133.6849  156.7317 LP  0  0  0  0  0  0  0  0  0  0  0  0  # atno 17394 bound_to 11000
  140.2675  134.8418  157.3816 LP  0  0  0  0  0  0  0  0  0  0  0  0  # atno 17395 bound_to 11000

$$$$
