#       Name:                AV-unprocessed.smi:283
#       Creating user name   scv26
#       Creation time:       Thu Mar 26 21:48:50 2020


#       File generated by GOLD software.
#

@<TRIPOS>MOLECULE
AV-unprocessed.smi:283
    59    62     1
SMALL
NO_CHARGES


@<TRIPOS>ATOM
      1 ****        -5.2887  -0.5450  -0.6881 C.3            1 S1                 0.0000
      2 ****        -3.7816  -0.5761  -0.3992 C.3            1 S1                 0.0000
      3 ****        -3.1653   0.6600  -0.8759 N.pl3          1 S1                 0.0000
      4 ****        -1.8347   0.8746  -0.7712 C.ar           1 S1                 0.0000
      5 ****        -1.4540   2.1739  -0.7908 N.ar           1 S1                 0.0000
      6 ****        -0.1640   2.4960  -0.6732 C.ar           1 S1                 0.0000
      7 ****         0.8863   1.6876  -0.5304 N.ar           1 S1                 0.0000
      8 ****         0.5189   0.3731  -0.5257 C.ar           1 S1                 0.0000
      9 ****        -0.8151  -0.1159  -0.6449 C.ar           1 S1                 0.0000
     10 ****        -0.7981  -1.5051  -0.6115 N.2            1 S1                 0.0000
     11 ****         0.4605  -1.8116  -0.4622 C.2            1 S1                 0.0000
     12 ****         1.3256  -0.7435  -0.4016 N.pl3          1 S1                 0.0000
     13 ****         2.8169  -0.8025  -0.2395 C.3            1 S1                 0.0000
     14 ****         3.2475   0.3631   0.3959 O.3            1 S1                 0.0000
     15 ****         4.3815   0.9018  -0.2771 C.3            1 S1                 0.0000
     16 ****         4.5052   2.4169  -0.0344 C.3            1 S1                 0.0000
     17 ****         5.1428   2.6637   1.2008 O.3            1 S1                 0.0000
     18 ****         4.1848   0.4781  -1.7401 C.3            1 S1                 0.0000
     19 ****         3.3482   1.3834  -2.4397 O.3            1 S1                 0.0000
     20 ****         3.5594  -0.9034  -1.5879 C.3            1 S1                 0.0000
     21 ****         2.7731  -1.2968  -2.7005 O.3            1 S1                 0.0000
     22 ****        -3.5303  -0.8928   1.0784 C.ar           1 S1                 0.0000
     23 ****        -3.4546   0.1569   2.0238 C.ar           1 S1                 0.0000
     24 ****        -3.2159  -0.1164   3.3836 C.ar           1 S1                 0.0000
     25 ****        -3.0598  -1.4452   3.8164 C.ar           1 S1                 0.0000
     26 ****        -3.1494  -2.4988   2.8884 C.ar           1 S1                 0.0000
     27 ****        -3.3883  -2.2310   1.5255 C.ar           1 S1                 0.0000
     28 ****        -3.5033  -3.5670   0.4338 Cl             1 S1                 0.0000
     29 ****         2.9806  -1.6711   0.3996 H              1 S1                 0.0000
     30 ****         5.2691   0.3901   0.1003 H              1 S1                 0.0000
     31 ****         5.1364   0.4295  -2.2705 H              1 S1                 0.0000
     32 ****         4.3579  -1.6348  -1.4567 H              1 S1                 0.0000
     33 ****        -5.7590  -1.4935  -0.4264 H              1 S1                 0.0000
     34 ****        -5.4825  -0.3641  -1.7457 H              1 S1                 0.0000
     35 ****        -5.7858   0.2411  -0.1185 H              1 S1                 0.0000
     36 ****        -3.3605  -1.3736  -1.0091 H              1 S1                 0.0000
     37 ****        -3.8132   1.4159  -1.0434 H              1 S1                 0.0000
     38 ****         0.0594   3.5524  -0.6938 H              1 S1                 0.0000
     39 ****         0.7970  -2.8360  -0.3992 H              1 S1                 0.0000
     40 ****         5.1188   2.8734  -0.8117 H              1 S1                 0.0000
     41 ****         3.5305   2.9054  -0.0597 H              1 S1                 0.0000
     42 ****         6.0023   2.2717   1.1805 H              1 S1                 0.0000
     43 ****         3.7366   2.2438  -2.4052 H              1 S1                 0.0000
     44 ****         3.3019  -1.2298  -3.4805 H              1 S1                 0.0000
     45 ****        -3.5746   1.1835   1.7103 H              1 S1                 0.0000
     46 ****        -3.1517   0.6944   4.0942 H              1 S1                 0.0000
     47 ****        -2.8758  -1.6568   4.8594 H              1 S1                 0.0000
     48 ****        -3.0354  -3.5185   3.2255 H              1 S1                 0.0000
     49 ****        -2.1406   2.8936  -0.8936 LP             1 S1                 0.0000
     50 ****         1.8298   2.0059  -0.4379 LP             1 S1                 0.0000
     51 ****        -1.5760  -2.1292  -0.6854 LP             1 S1                 0.0000
     52 ****         3.4947   0.1515   1.3415 LP             1 S1                 0.0000
     53 ****         2.5081   1.0362   0.3872 LP             1 S1                 0.0000
     54 ****         4.6066   2.2614   1.9428 LP             1 S1                 0.0000
     55 ****         5.2256   3.6496   1.3459 LP             1 S1                 0.0000
     56 ****         2.4443   1.4049  -2.0125 LP             1 S1                 0.0000
     57 ****         3.2597   1.0922  -3.3923 LP             1 S1                 0.0000
     58 ****         1.9772  -0.6966  -2.7802 LP             1 S1                 0.0000
     59 ****         2.4675  -2.2414  -2.5804 LP             1 S1                 0.0000
@<TRIPOS>BOND
    1    1    2 1     
    2    1   33 1     
    3    1   34 1     
    4    1   35 1     
    5    2    3 1     
    6    2   22 1     
    7    2   36 1     
    8    3    4 1     
    9    3   37 1     
   10    4    9 ar    
   11    4    5 ar    
   12    5    6 ar    
   13    6    7 ar    
   14    6   38 1     
   15    7    8 ar    
   16    8   12 1     
   17    8    9 ar    
   18    9   10 1     
   19   10   11 2     
   20   11   12 1     
   21   11   39 1     
   22   12   13 1     
   23   13   29 1     
   24   13   20 1     
   25   13   14 1     
   26   14   15 1     
   27   15   30 1     
   28   15   16 1     
   29   15   18 1     
   30   16   17 1     
   31   16   40 1     
   32   16   41 1     
   33   17   42 1     
   34   18   31 1     
   35   18   19 1     
   36   18   20 1     
   37   19   43 1     
   38   20   32 1     
   39   20   21 1     
   40   21   44 1     
   41   22   27 ar    
   42   22   23 ar    
   43   23   24 ar    
   44   23   45 1     
   45   24   25 ar    
   46   24   46 1     
   47   25   26 ar    
   48   25   47 1     
   49   26   27 ar    
   50   26   48 1     
   51   27   28 1     
   52    5   49 1     
   53    7   50 1     
   54   10   51 1     
   55   14   52 1     
   56   14   53 1     
   57   17   54 1     
   58   17   55 1     
   59   19   56 1     
   60   19   57 1     
   61   21   58 1     
   62   21   59 1     
@<TRIPOS>SUBSTRUCTURE
      1 S1             1
@<TRIPOS>SET
LONE_PAIRS      STATIC     ATOMS    <user>   **** ""
11 49 50 51 52 53 54 55 56 57 58 59
DONOR_HYDROGENS      STATIC     ATOMS    <user>   **** ""
4 37 42 43 44
ATOM$BLUE        STATIC     ATOMS    COLORGROUP SYSTEM
11 49 50 51 52 53 54 55 56 57 58 59
ATOM$RED        STATIC     ATOMS    COLORGROUP SYSTEM
4 37 42 43 44
