AV-unprocessed.smi:2237|AV-procd|sdf|9049|dock7
  -GOLD-   2272012253D 1   1.00000     0.00000
 Structure written by MMmdl.
 55 57  0  0  0  0  0  0  0  0  3 V2000
  153.0922  142.3093  161.3116 C   0  0  0  0  0  0  0  0  0  0  0  0
  152.3428  143.3086  160.4556 C   0  0  0  0  0  0  0  0  0  0  0  0
  152.3095  144.6751  160.7965 C   0  0  0  0  0  0  0  0  0  0  0  0
  151.5911  145.5492  159.9614 C   0  0  0  0  0  0  0  0  0  0  0  0
  150.9412  145.0254  158.8273 C   0  0  0  0  0  0  0  0  0  0  0  0
  151.0244  143.6412  158.5562 C   0  0  0  0  0  0  0  0  0  0  0  0
  150.3371  143.2138  157.3890 N   0  0  0  0  0  0  0  0  0  0  0  0
  150.5048  142.0729  156.6974 C   0  0  0  0  0  0  0  0  0  0  0  0
  151.3010  141.1770  156.9793 O   0  0  0  0  0  0  0  0  0  0  0  0
  149.6811  142.0196  155.6401 N   0  0  0  0  0  0  0  0  0  0  0  0
  149.6175  140.9210  154.6806 C   0  0  2  0  0  0  0  0  0  0  0  0
  148.2985  140.9949  153.8917 C   0  0  0  0  0  0  0  0  0  0  0  0
  148.1540  139.7831  152.9533 C   0  0  0  0  0  0  0  0  0  0  0  0
  148.1985  138.4957  153.7039 N   0  3  2  0  0  0  0  0  0  0  0  0
  146.9951  138.1780  154.5499 C   0  0  2  0  0  0  0  0  0  0  0  0
  147.1660  136.8657  155.3528 C   0  0  0  0  0  0  0  0  0  0  0  0
  147.1405  135.6233  154.4425 C   0  0  0  0  0  0  0  0  0  0  0  0
  145.8812  135.5600  153.6596 N   0  3  2  0  0  0  0  0  0  0  0  0
  145.7853  134.3310  152.8423 C   0  0  0  0  0  0  0  0  0  0  0  0
  145.6551  136.7898  152.8610 C   0  0  0  0  0  0  0  0  0  0  0  0
  145.6698  138.0403  153.7597 C   0  0  0  0  0  0  0  0  0  0  0  0
  149.5046  138.3871  154.4171 C   0  0  0  0  0  0  0  0  0  0  0  0
  149.7397  139.5587  155.3927 C   0  0  0  0  0  0  0  0  0  0  0  0
  151.7191  142.8059  159.3683 N   0  0  0  0  0  0  0  0  0  0  0  0
  153.6669  142.8089  162.0918 H   0  0  0  0  0  0  0  0  0  0  0  0
  153.7832  141.7267  160.7015 H   0  0  0  0  0  0  0  0  0  0  0  0
  152.3927  141.6225  161.7892 H   0  0  0  0  0  0  0  0  0  0  0  0
  152.8184  145.0462  161.6740 H   0  0  0  0  0  0  0  0  0  0  0  0
  151.5382  146.6042  160.1856 H   0  0  0  0  0  0  0  0  0  0  0  0
  150.3853  145.6840  158.1759 H   0  0  0  0  0  0  0  0  0  0  0  0
  149.6387  143.8532  157.0402 H   0  0  0  0  0  0  0  0  0  0  0  0
  149.0606  142.8004  155.4832 H   0  0  0  0  0  0  0  0  0  0  0  0
  150.4410  141.0208  153.9706 H   0  0  0  0  0  0  0  0  0  0  0  0
  147.4501  141.0399  154.5756 H   0  0  0  0  0  0  0  0  0  0  0  0
  148.2695  141.9155  153.3074 H   0  0  0  0  0  0  0  0  0  0  0  0
  147.2654  139.8676  152.3311 H   0  0  0  0  0  0  0  0  0  0  0  0
  148.9823  139.7881  152.2431 H   0  0  0  0  0  0  0  0  0  0  0  0
  146.8580  138.9950  155.2576 H   0  0  0  0  0  0  0  0  0  0  0  0
  148.0665  136.8656  155.9635 H   0  0  0  0  0  0  0  0  0  0  0  0
  146.3473  136.7849  156.0697 H   0  0  0  0  0  0  0  0  0  0  0  0
  147.9958  135.6313  153.7652 H   0  0  0  0  0  0  0  0  0  0  0  0
  147.2305  134.7244  155.0537 H   0  0  0  0  0  0  0  0  0  0  0  0
  146.5709  134.2998  152.0861 H   0  0  0  0  0  0  0  0  0  0  0  0
  144.8210  134.2790  152.3354 H   0  0  0  0  0  0  0  0  0  0  0  0
  145.8783  133.4435  153.4692 H   0  0  0  0  0  0  0  0  0  0  0  0
  146.4157  136.8685  152.0828 H   0  0  0  0  0  0  0  0  0  0  0  0
  144.6917  136.7191  152.3545 H   0  0  0  0  0  0  0  0  0  0  0  0
  144.8493  137.9549  154.4740 H   0  0  0  0  0  0  0  0  0  0  0  0
  145.4331  138.9365  153.1884 H   0  0  0  0  0  0  0  0  0  0  0  0
  149.6106  137.4371  154.9356 H   0  0  0  0  0  0  0  0  0  0  0  0
  150.2983  138.3890  153.6684 H   0  0  0  0  0  0  0  0  0  0  0  0
  150.7304  139.4615  155.8386 H   0  0  0  0  0  0  0  0  0  0  0  0
  149.0346  139.5043  156.2224 H   0  0  0  0  0  0  0  0  0  0  0  0
  148.2147  137.7786  152.9927 H   0  0  0  0  0  0  0  0  0  0  0  0
  145.1277  135.5121  154.3312 H   0  0  0  0  0  0  0  0  0  0  0  0
  1  2  1  0  0  0  0
  1 25  1  0  0  0  0
  1 26  1  0  0  0  0
  1 27  1  0  0  0  0
  2 24  1  0  0  0  0
  2  3  2  0  0  0  0
  3  4  1  0  0  0  0
  3 28  1  0  0  0  0
  4  5  2  0  0  0  0
  4 29  1  0  0  0  0
  5  6  1  0  0  0  0
  5 30  1  0  0  0  0
  6  7  1  0  0  0  0
  6 24  2  0  0  0  0
  7  8  1  0  0  0  0
  7 31  1  0  0  0  0
  8  9  2  0  0  0  0
  8 10  1  0  0  0  0
 10 11  1  0  0  0  0
 10 32  1  0  0  0  0
 11 23  1  0  0  0  0
 11 12  1  0  0  0  0
 11 33  1  0  0  0  0
 12 13  1  0  0  0  0
 12 34  1  0  0  0  0
 12 35  1  0  0  0  0
 13 14  1  0  0  0  0
 13 36  1  0  0  0  0
 13 37  1  0  0  0  0
 14 15  1  0  0  0  0
 14 22  1  0  0  0  0
 14 54  1  0  0  0  0
 15 21  1  0  0  0  0
 15 16  1  0  0  0  0
 15 38  1  0  0  0  0
 16 17  1  0  0  0  0
 16 39  1  0  0  0  0
 16 40  1  0  0  0  0
 17 18  1  0  0  0  0
 17 41  1  0  0  0  0
 17 42  1  0  0  0  0
 18 19  1  0  0  0  0
 18 20  1  0  0  0  0
 18 55  1  0  0  0  0
 19 43  1  0  0  0  0
 19 44  1  0  0  0  0
 19 45  1  0  0  0  0
 20 21  1  0  0  0  0
 20 46  1  0  0  0  0
 20 47  1  0  0  0  0
 21 48  1  0  0  0  0
 21 49  1  0  0  0  0
 22 23  1  0  0  0  0
 22 50  1  0  0  0  0
 22 51  1  0  0  0  0
 23 52  1  0  0  0  0
 23 53  1  0  0  0  0
M  CHG  1  14   1
M  CHG  1  18   1
M  END
> <s_m_source_file>
AV-unprocessed.smi

> <i_m_source_file_index>
2237

> <i_lp_mmshare_version>
43012

> <i_f3d_flags>
0

> <s_epik_input>
W0NIM11jMVtjSF1bY0hdW2NIXWMobjEpW05IXUMoPU8pW05IXVtDSF0yW0NIMl1bQ0gyXU4oW0NIMl1bQ0gyXTIpW0NIXTNbQ0gyXVtDSDJdTihbQ0gzXSlbQ0gyXVtDSDJdMw==

> <s_epik_cmdline>
J2VwaWtfcHl0aG9uJywgJy1waCcsICc3LjAnLCAnLXRuJywgJzgnLCAnLW1hJywgJzIwMCcsICctbWV0YWxfYmluZGluZycsICctaW1hZScsICc8aW5maWxlLm1hZT4nLCAnLW9tYWUnLCAnPG91dGZpbGUubWFlPic=

> <r_epik_Ionization_Penalty>
0.180851

> <r_epik_Ionization_Penalty_Charging>
0.180787

> <r_epik_Ionization_Penalty_Neutral>
6.38624e-05

> <r_epik_State_Penalty>
0.153592

> <r_epik_Charging_Adjusted_Penalty>
0.334379

> <i_epik_Tot_Q>
2

> <i_epik_Tot_abs_Q>
2

> <r_epik_Metal_State_Penalty>
0.153595

> <b_epik_Metal_Only>
0

> <s_lp_Force_Field>
OPLS_2005

> <r_lp_Energy>
48.731

> <b_lp_Chiralities_Consistent>
1

> <s_lp_Variant>
AV-unprocessed.smi:2237-4

> <Gold.Version>
5.8.1

> <Gold.Id.Protein>
6NUR|6NUR_protein|mol2

> <Gold.PLP.Fitness>
49.8958

> <Gold.PLP.PLP>
-38.9811

> <Gold.PLP.part.hbond>
-3.2033

> <Gold.PLP.part.metal>
0.0000

> <Gold.PLP.part.buried>
0.1136

> <Gold.PLP.part.nonpolar>
-36.1325

> <Gold.PLP.part.repulsive>
0.1977

> <Gold.PLP.ligand.clash>
0.0000

> <Gold.PLP.ligand.torsion>
0.3979

> <Gold.PLP.Chemscore.Hbond>
3.8880

> <Gold.PLP.Chemscore.CHOScore>
0.0000

> <Gold.PLP.Chemscore.Metal>
0.0000

> <Gold.Chemscore.Hbonds>
donor molecule, donor type, donor heavy atom, donor atom, acceptor molecule, acceptor atom, score
      L1  H     7    31       P1  8028  1.00
      L1  H    10    32       P1  8028  0.90
      L1  H    14    54       P1  7948  1.95

> <Gold.PLP.Chemscore.Internal.Correction>
0.0465

> <Gold.Rescore>
     Score         DG    S(hbond)    S(metal)    S(lipo)     H(rot)  DE(clash)    DE(int)     intcor
     18.71     -23.93       2.65        0.00     108.77       1.23       2.02       3.20       ----

> <Gold.Chemscore.Fitness>
18.7147

> <Gold.Chemscore.DG>
-23.9264

> <Gold.Chemscore.ZeroCoef>
-5.4800

> <Gold.Chemscore.Hbond>
2.6550

> <Gold.Chemscore.Metal>
0.0000

> <Gold.Chemscore.Lipo>
108.7717

> <Gold.Chemscore.Internal_Hbond>
0.0000

> <Gold.Chemscore.DEClash>
2.0163

> <Gold.Chemscore.DEInternal>
3.1955

> <Gold.Chemscore.Rot>
1.2295

> <Gold.Chemscore.Internal.Correction>
   9.000000E+99

> <Gold.Chemscore.Hbonds>
donor molecule, donor type, donor heavy atom, donor atom, acceptor molecule, acceptor atom, score
      L1  H     7    31       P1  8028  0.81
      L1  H    10    32       P1  8028  0.88
      L1  H    14    54       P1  7948  0.90

> <Gold.Chemscore.Hbond.Weighted>
-8.8676

> <Gold.Chemscore.Metal.Weighted>
-0.0000

> <Gold.Chemscore.Lipo.Weighted>
-12.7263

> <Gold.Chemscore.Internal_Hbond.Weighted>
0.0000

> <Gold.Chemscore.DEClash.Weighted>
2.0163

> <Gold.Chemscore.DEInternal.Weighted>
3.1955

> <Gold.Chemscore.Rot.Weighted>
3.1474

> <Gold.Chemscore.Internal.Correction.Weighted>
   9.000000E+99

> <Gold.Protein.RotatedTorsions>
[ 6907 6896 6895 6894 ] final  172.16 input  -60.11 | X-H torsion
[ 7974 7965 7964 7962 ] final  -42.54 input  175.53 | X-H torsion
[ 8008 7997 7996 7995 ] final   40.46 input   59.86 | X-H torsion
[ 10167 10162 10161 10158 ] final  -19.71 input  -65.29 | X-H torsion
[ 10718 10713 10712 10709 ] final   39.23 input   66.30 | X-H torsion
[ 10763 10752 10751 10750 ] final  -95.14 input  -60.55 | X-H torsion
[ 11005 11000 10999 10996 ] final  -89.86 input  -57.11 | X-H torsion

> <Gold.Protein.ActiveResidues>
 VAL166  LYS551  ARG553  GLY616  TRP617  ASP618  TYR619  PRO620  LYS621  CYS622 
 ASP623  PHE694  ASN695  SER759  ASP760  ASP761  ALA762  ILE779  LEU786  VAL792 
 PHE793  MET794  SER795  GLU796  ALA797  LYS798  CYS799  TRP800  GLU811  SER814 

> <Gold.Protein.RotatedAtoms>
  151.7886  133.3357  159.3492 H   0  0  0  0  0  0  0  0  0  0  0  0  # atno 6907 bound_to 6896
  150.7400  134.5863  159.5974 H   0  0  0  0  0  0  0  0  0  0  0  0  # atno 6908 bound_to 6896
  152.3226  134.7363  160.0361 H   0  0  0  0  0  0  0  0  0  0  0  0  # atno 6909 bound_to 6896
  146.0106  140.6969  142.9226 H   0  0  0  0  0  0  0  0  0  0  0  0  # atno 7974 bound_to 7965
  155.2535  140.3354  155.4280 H   0  0  0  0  0  0  0  0  0  0  0  0  # atno 8008 bound_to 7997
  156.2205  140.1807  156.7531 H   0  0  0  0  0  0  0  0  0  0  0  0  # atno 8009 bound_to 7997
  154.5819  140.0652  156.9100 H   0  0  0  0  0  0  0  0  0  0  0  0  # atno 8010 bound_to 7997
  140.7270  143.4792  151.0140 H   0  0  0  0  0  0  0  0  0  0  0  0  # atno 10167 bound_to 10162
  157.3682  130.7686  149.7099 H   0  0  0  0  0  0  0  0  0  0  0  0  # atno 10718 bound_to 10713
  154.7121  135.5131  153.8682 H   0  0  0  0  0  0  0  0  0  0  0  0  # atno 10763 bound_to 10752
  153.0789  135.6625  154.0095 H   0  0  0  0  0  0  0  0  0  0  0  0  # atno 10764 bound_to 10752
  153.9935  135.3017  155.3389 H   0  0  0  0  0  0  0  0  0  0  0  0  # atno 10765 bound_to 10752
  141.1577  133.7656  156.9655 H   0  0  0  0  0  0  0  0  0  0  0  0  # atno 11005 bound_to 11000
  144.6951  140.3391  143.7202 LP  0  0  0  0  0  0  0  0  0  0  0  0  # atno 17320 bound_to 7965
  145.7348  139.1747  143.2409 LP  0  0  0  0  0  0  0  0  0  0  0  0  # atno 17321 bound_to 7965
  139.8490  143.7464  152.3178 LP  0  0  0  0  0  0  0  0  0  0  0  0  # atno 17342 bound_to 10162
  139.7639  144.7498  151.0323 LP  0  0  0  0  0  0  0  0  0  0  0  0  # atno 17343 bound_to 10162
  155.9750  130.4095  150.3880 LP  0  0  0  0  0  0  0  0  0  0  0  0  # atno 17370 bound_to 10713
  157.1967  131.0428  151.2672 LP  0  0  0  0  0  0  0  0  0  0  0  0  # atno 17371 bound_to 10713
  140.1164  134.9444  157.2141 LP  0  0  0  0  0  0  0  0  0  0  0  0  # atno 17394 bound_to 11000
  140.3127  134.3005  155.7263 LP  0  0  0  0  0  0  0  0  0  0  0  0  # atno 17395 bound_to 11000

$$$$
