AV-unprocessed.smi:37|AV-procd|sdf|304|dock6
  -GOLD-   2262016113D 1   1.00000     0.00000
 Structure written by MMmdl.
 44 45  0  0  0  0  0  0  0  0  1 V2000
  153.9845  141.4519  161.6803 C   0  0  0  0  0  0  0  0  0  0  0  0
  154.7837  140.4592  160.8250 C   0  0  0  0  0  0  0  0  0  0  0  0
  153.9969  139.9809  159.6067 C   0  0  0  0  0  0  0  0  0  0  0  0
  154.5106  139.2590  158.7521 O   0  0  0  0  0  0  0  0  0  0  0  0
  152.7390  140.4433  159.5935 O   0  0  0  0  0  0  0  0  0  0  0  0
  151.7504  139.7881  158.8167 C   0  0  0  0  0  0  0  0  0  0  0  0
  151.7654  140.3098  157.3694 C   0  0  1  0  0  0  0  0  0  0  0  0
  150.8379  139.5736  156.5763 O   0  0  0  0  0  0  0  0  0  0  0  0
  150.4251  140.4007  155.5341 C   0  0  1  0  0  0  0  0  0  0  0  0
  149.2166  139.7977  154.8385 N   0  0  0  0  0  0  0  0  0  0  0  0
  148.5588  138.6817  155.3458 C   0  0  0  0  0  0  0  0  0  0  0  0
  147.4464  138.1542  154.7821 C   0  0  0  0  0  0  0  0  0  0  0  0
  146.8727  137.0714  155.3338 F   0  0  0  0  0  0  0  0  0  0  0  0
  146.8492  138.7663  153.6004 C   0  0  0  0  0  0  0  0  0  0  0  0
  145.8532  138.3544  153.0091 O   0  0  0  0  0  0  0  0  0  0  0  0
  147.4983  139.9238  153.1641 N   0  0  0  0  0  0  0  0  0  0  0  0
  148.6374  140.4850  153.7447 C   0  0  0  0  0  0  0  0  0  0  0  0
  149.0846  141.5413  153.3005 O   0  0  0  0  0  0  0  0  0  0  0  0
  150.1663  141.7272  156.2642 C   0  0  1  0  0  0  0  0  0  0  0  0
  148.5279  141.6285  157.4155 Br  0  0  0  0  0  0  0  0  0  0  0  0
  151.4145  141.7967  157.1434 C   0  0  1  0  0  0  0  0  0  0  0  0
  151.2261  142.5447  158.3408 O   0  0  0  0  0  0  0  0  0  0  0  0
  151.9901  143.6192  158.6003 C   0  0  0  0  0  0  0  0  0  0  0  0
  152.8603  144.0776  157.8576 O   0  0  0  0  0  0  0  0  0  0  0  0
  151.6512  144.2456  159.9543 C   0  0  0  0  0  0  0  0  0  0  0  0
  152.4811  145.4972  160.2766 C   0  0  0  0  0  0  0  0  0  0  0  0
  147.1007  140.4039  152.3698 H   0  0  0  0  0  0  0  0  0  0  0  0
  154.5568  141.7470  162.5597 H   0  0  0  0  0  0  0  0  0  0  0  0
  153.0489  141.0119  162.0270 H   0  0  0  0  0  0  0  0  0  0  0  0
  153.7447  142.3591  161.1243 H   0  0  0  0  0  0  0  0  0  0  0  0
  155.7109  140.9214  160.4853 H   0  0  0  0  0  0  0  0  0  0  0  0
  155.0626  139.5939  161.4266 H   0  0  0  0  0  0  0  0  0  0  0  0
  151.9276  138.7115  158.8215 H   0  0  0  0  0  0  0  0  0  0  0  0
  150.7698  139.9566  159.2632 H   0  0  0  0  0  0  0  0  0  0  0  0
  152.7597  140.1333  156.9569 H   0  0  0  0  0  0  0  0  0  0  0  0
  151.1919  140.4741  154.7596 H   0  0  0  0  0  0  0  0  0  0  0  0
  148.9255  138.2006  156.2394 H   0  0  0  0  0  0  0  0  0  0  0  0
  150.0745  142.5676  155.5762 H   0  0  0  0  0  0  0  0  0  0  0  0
  152.2300  142.2323  156.5633 H   0  0  0  0  0  0  0  0  0  0  0  0
  150.5905  144.4971  159.9613 H   0  0  0  0  0  0  0  0  0  0  0  0
  151.8014  143.4949  160.7307 H   0  0  0  0  0  0  0  0  0  0  0  0
  152.1954  145.9073  161.2452 H   0  0  0  0  0  0  0  0  0  0  0  0
  152.3299  146.2781  159.5304 H   0  0  0  0  0  0  0  0  0  0  0  0
  153.5468  145.2688  160.3171 H   0  0  0  0  0  0  0  0  0  0  0  0
  1  2  1  0  0  0  0
  1 28  1  0  0  0  0
  1 29  1  0  0  0  0
  1 30  1  0  0  0  0
  2  3  1  0  0  0  0
  2 31  1  0  0  0  0
  2 32  1  0  0  0  0
  3  4  2  0  0  0  0
  3  5  1  0  0  0  0
  5  6  1  0  0  0  0
  6  7  1  0  0  0  0
  6 33  1  0  0  0  0
  6 34  1  0  0  0  0
  7 21  1  0  0  0  0
  7  8  1  0  0  0  0
  7 35  1  0  0  0  0
  8  9  1  0  0  0  0
  9 10  1  0  0  0  0
  9 19  1  0  0  0  0
  9 36  1  0  0  0  0
 10 17  1  0  0  0  0
 10 11  1  0  0  0  0
 11 12  2  0  0  0  0
 11 37  1  0  0  0  0
 12 13  1  0  0  0  0
 12 14  1  0  0  0  0
 14 15  2  0  0  0  0
 14 16  1  0  0  0  0
 16 27  1  0  0  0  0
 16 17  1  0  0  0  0
 17 18  2  0  0  0  0
 19 20  1  0  0  0  0
 19 21  1  0  0  0  0
 19 38  1  0  0  0  0
 21 22  1  0  0  0  0
 21 39  1  0  0  0  0
 22 23  1  0  0  0  0
 23 24  2  0  0  0  0
 23 25  1  0  0  0  0
 25 26  1  0  0  0  0
 25 40  1  0  0  0  0
 25 41  1  0  0  0  0
 26 42  1  0  0  0  0
 26 43  1  0  0  0  0
 26 44  1  0  0  0  0
M  END
> <s_m_source_file>
AV-unprocessed.smi

> <i_m_source_file_index>
37

> <i_lp_mmshare_version>
43012

> <i_f3d_flags>
0

> <s_epik_input>
W0NIM11bQ0gyXUMoPU8pT1tDSDJdW0NAQEhdMU9bQ0BASF0objJbY0hdYyhGKWMoPU8pW25IXWMyPU8pW0NAQEhdKEJyKVtDQEhdMU9DKD1PKVtDSDJdW0NIM10=

> <s_epik_cmdline>
J2VwaWtfcHl0aG9uJywgJy1waCcsICc3LjAnLCAnLXRuJywgJzgnLCAnLW1hJywgJzIwMCcsICctbWV0YWxfYmluZGluZycsICctaW1hZScsICc8aW5maWxlLm1hZT4nLCAnLW9tYWUnLCAnPG91dGZpbGUubWFlPic=

> <r_lp_tautomer_probability>
0.999537

> <r_epik_Ionization_Penalty>
0.104106

> <r_epik_Ionization_Penalty_Charging>
0.104106

> <r_epik_Ionization_Penalty_Neutral>
3.94675e-16

> <r_epik_State_Penalty>
0.0940182

> <r_epik_Charging_Adjusted_Penalty>
0.198124

> <i_epik_Tot_Q>
0

> <i_epik_Tot_abs_Q>
0

> <r_epik_Metal_State_Penalty>
3.05314

> <b_epik_Metal_Only>
0

> <s_epik_Chemistry_Notes>
This compound has an ester and may undergo hydrolysis at high or low pH. This compound contains an acetal/aminal-like group ( X-CH(R)-Y where X, Y are N, S, or O) that may be acid/base labile, releasing an aldehyde.

> <s_lp_Force_Field>
OPLS_2005

> <r_lp_Energy>
30.4871

> <b_lp_Chiralities_Consistent>
1

> <s_lp_Variant>
AV-unprocessed.smi:37-2

> <Gold.Version>
5.8.1

> <Gold.Id.Protein>
6NUR|6NUR_protein|mol2

> <Gold.PLP.Fitness>
41.6582

> <Gold.PLP.PLP>
-38.1798

> <Gold.PLP.part.hbond>
-3.7672

> <Gold.PLP.part.metal>
0.0000

> <Gold.PLP.part.buried>
-2.6727

> <Gold.PLP.part.nonpolar>
-34.6327

> <Gold.PLP.part.repulsive>
4.0808

> <Gold.PLP.ligand.clash>
0.0000

> <Gold.PLP.ligand.torsion>
1.3583

> <Gold.PLP.Chemscore.Hbond>
1.9920

> <Gold.PLP.Chemscore.CHOScore>
0.0000

> <Gold.PLP.Chemscore.Metal>
0.0000

> <Gold.Chemscore.Hbonds>
donor molecule, donor type, donor heavy atom, donor atom, acceptor molecule, acceptor atom, score
      P1  H  7997  8009       L1     4  1.00
      P1  H  8011  8017       L1    18  0.79

> <Gold.PLP.Chemscore.Internal.Correction>
0.2190

> <Gold.Rescore>
     Score         DG    S(hbond)    S(metal)    S(lipo)     H(rot)  DE(clash)    DE(int)     intcor
      7.05     -11.61       1.91        0.00      70.72       3.33       3.03       1.53       ----

> <Gold.Chemscore.Fitness>
7.0527

> <Gold.Chemscore.DG>
-11.6074

> <Gold.Chemscore.ZeroCoef>
-5.4800

> <Gold.Chemscore.Hbond>
1.9099

> <Gold.Chemscore.Metal>
0.0000

> <Gold.Chemscore.Lipo>
70.7164

> <Gold.Chemscore.Internal_Hbond>
0.0000

> <Gold.Chemscore.DEClash>
3.0252

> <Gold.Chemscore.DEInternal>
1.5295

> <Gold.Chemscore.Rot>
3.3303

> <Gold.Chemscore.Internal.Correction>
   9.000000E+99

> <Gold.Chemscore.Hbonds>
donor molecule, donor type, donor heavy atom, donor atom, acceptor molecule, acceptor atom, score
      P1  H  7997  8009       L1     4  0.92
      P1  H  8011  8017       L1    18  0.75

> <Gold.Chemscore.Hbond.Weighted>
-6.3792

> <Gold.Chemscore.Metal.Weighted>
-0.0000

> <Gold.Chemscore.Lipo.Weighted>
-8.2738

> <Gold.Chemscore.Internal_Hbond.Weighted>
0.0000

> <Gold.Chemscore.DEClash.Weighted>
3.0252

> <Gold.Chemscore.DEInternal.Weighted>
1.5295

> <Gold.Chemscore.Rot.Weighted>
8.5256

> <Gold.Chemscore.Internal.Correction.Weighted>
   9.000000E+99

> <Gold.Protein.RotatedTorsions>
[ 6907 6896 6895 6894 ] final   13.89 input  -60.11 | X-H torsion
[ 7974 7965 7964 7962 ] final  -91.35 input  175.53 | X-H torsion
[ 8008 7997 7996 7995 ] final  137.96 input   59.86 | X-H torsion
[ 10167 10162 10161 10158 ] final -150.52 input  -65.29 | X-H torsion
[ 10718 10713 10712 10709 ] final   61.05 input   66.30 | X-H torsion
[ 10763 10752 10751 10750 ] final  -23.72 input  -60.55 | X-H torsion
[ 11005 11000 10999 10996 ] final  151.62 input  -57.11 | X-H torsion

> <Gold.Protein.ActiveResidues>
 VAL166  LYS551  ARG553  GLY616  TRP617  ASP618  TYR619  PRO620  LYS621  CYS622 
 ASP623  PHE694  ASN695  SER759  ASP760  ASP761  ALA762  ILE779  LEU786  VAL792 
 PHE793  MET794  SER795  GLU796  ALA797  LYS798  CYS799  TRP800  GLU811  SER814 

> <Gold.Protein.RotatedAtoms>
  151.7935  135.0729  160.0390 H   0  0  0  0  0  0  0  0  0  0  0  0  # atno 6907 bound_to 6896
  152.3140  133.5778  159.5708 H   0  0  0  0  0  0  0  0  0  0  0  0  # atno 6908 bound_to 6896
  150.7334  134.0026  159.3685 H   0  0  0  0  0  0  0  0  0  0  0  0  # atno 6909 bound_to 6896
  145.4143  140.9547  143.2216 H   0  0  0  0  0  0  0  0  0  0  0  0  # atno 7974 bound_to 7965
  156.3000  140.2406  156.3996 H   0  0  0  0  0  0  0  0  0  0  0  0  # atno 8008 bound_to 7997
  154.8539  140.0423  157.1642 H   0  0  0  0  0  0  0  0  0  0  0  0  # atno 8009 bound_to 7997
  154.8968  140.2971  155.5343 H   0  0  0  0  0  0  0  0  0  0  0  0  # atno 8010 bound_to 7997
  139.7347  143.8754  152.2545 H   0  0  0  0  0  0  0  0  0  0  0  0  # atno 10167 bound_to 10162
  157.5799  130.8973  149.9412 H   0  0  0  0  0  0  0  0  0  0  0  0  # atno 10718 bound_to 10713
  153.6723  135.6971  153.5143 H   0  0  0  0  0  0  0  0  0  0  0  0  # atno 10763 bound_to 10752
  153.2548  135.4263  155.0833 H   0  0  0  0  0  0  0  0  0  0  0  0  # atno 10764 bound_to 10752
  154.8423  135.3540  154.6267 H   0  0  0  0  0  0  0  0  0  0  0  0  # atno 10765 bound_to 10752
  140.1235  134.8848  157.2105 H   0  0  0  0  0  0  0  0  0  0  0  0  # atno 11005 bound_to 11000
  144.8288  139.5665  143.6953 LP  0  0  0  0  0  0  0  0  0  0  0  0  # atno 17320 bound_to 7965
  146.2689  139.6586  142.9310 LP  0  0  0  0  0  0  0  0  0  0  0  0  # atno 17321 bound_to 7965
  139.8687  144.7079  150.9013 LP  0  0  0  0  0  0  0  0  0  0  0  0  # atno 17342 bound_to 10162
  140.7777  143.3756  151.1569 LP  0  0  0  0  0  0  0  0  0  0  0  0  # atno 17343 bound_to 10162
  156.0844  130.3669  150.0516 LP  0  0  0  0  0  0  0  0  0  0  0  0  # atno 17370 bound_to 10713
  156.8657  130.9507  151.3614 LP  0  0  0  0  0  0  0  0  0  0  0  0  # atno 17371 bound_to 10713
  140.2934  134.3214  155.7309 LP  0  0  0  0  0  0  0  0  0  0  0  0  # atno 17394 bound_to 11000
  141.2156  133.7548  156.9536 LP  0  0  0  0  0  0  0  0  0  0  0  0  # atno 17395 bound_to 11000

$$$$
