#       Name:                AV-unprocessed.smi:1566
#       Creating user name   scv26
#       Creation time:       Fri Mar 27 06:50:27 2020


#       File generated by GOLD software.
#

@<TRIPOS>MOLECULE
AV-unprocessed.smi:1566
    48    49     1
SMALL
NO_CHARGES


@<TRIPOS>ATOM
      1 ****        -7.1198   0.7630   1.5860 C.3            1 S1                 0.0000
      2 ****        -6.7816   0.3640   0.1434 C.3            1 S1                 0.0000
      3 ****        -5.5403  -0.3983   0.0739 N.am           1 S1                 0.0000
      4 ****        -4.3090   0.1319   0.0831 C.2            1 S1                 0.0000
      5 ****        -4.0908   1.3418   0.1462 O.2            1 S1                 0.0000
      6 ****        -3.3683  -0.8242  -0.0042 N.am           1 S1                 0.0000
      7 ****        -1.9556  -0.6737  -0.0135 C.ar           1 S1                 0.0000
      8 ****        -1.1810  -1.7209  -0.5481 C.ar           1 S1                 0.0000
      9 ****         0.2218  -1.6054  -0.5562 C.ar           1 S1                 0.0000
     10 ****         0.8215  -0.4430  -0.0175 C.ar           1 S1                 0.0000
     11 ****         2.2264  -0.3038  -0.0182 N.3            1 S1                 0.0000
     12 ****         2.8761  -0.4810  -1.3141 C.3            1 S1                 0.0000
     13 ****         4.4002  -0.6202  -1.1378 C.3            1 S1                 0.0000
     14 ****         5.1308  -0.6850  -2.4831 C.3            1 S1                 0.0000
     15 ****         4.8946   0.5034  -0.4138 O.3            1 S1                 0.0000
     16 ****         4.3329   0.5993   0.8923 C.3            1 S1                 0.0000
     17 ****         4.9943   1.7766   1.6163 C.3            1 S1                 0.0000
     18 ****         2.8079   0.7776   0.7741 C.3            1 S1                 0.0000
     19 ****         0.0759   0.5543   0.5187 N.ar           1 S1                 0.0000
     20 ****        -1.2693   0.4422   0.5209 C.ar           1 S1                 0.0000
     21 ****        -8.0662   1.3023   1.6261 H              1 S1                 0.0000
     22 ****        -6.3523   1.4118   2.0094 H              1 S1                 0.0000
     23 ****        -7.2095  -0.1141   2.2275 H              1 S1                 0.0000
     24 ****        -7.5826  -0.2529  -0.2644 H              1 S1                 0.0000
     25 ****        -6.7181   1.2499  -0.4908 H              1 S1                 0.0000
     26 ****        -5.6261  -1.4024   0.0135 H              1 S1                 0.0000
     27 ****        -3.7043  -1.7670  -0.1346 H              1 S1                 0.0000
     28 ****        -1.6531  -2.6048  -0.9515 H              1 S1                 0.0000
     29 ****         0.8174  -2.4108  -0.9592 H              1 S1                 0.0000
     30 ****         2.4975  -1.3587  -1.8361 H              1 S1                 0.0000
     31 ****         2.6474   0.3828  -1.9399 H              1 S1                 0.0000
     32 ****         4.6225  -1.5315  -0.5794 H              1 S1                 0.0000
     33 ****         4.7911  -1.5365  -3.0733 H              1 S1                 0.0000
     34 ****         6.2062  -0.7899  -2.3371 H              1 S1                 0.0000
     35 ****         4.9603   0.2185  -3.0691 H              1 S1                 0.0000
     36 ****         4.5543  -0.3157   1.4448 H              1 S1                 0.0000
     37 ****         4.6042   1.8831   2.6290 H              1 S1                 0.0000
     38 ****         4.8171   2.7142   1.0886 H              1 S1                 0.0000
     39 ****         6.0726   1.6336   1.6890 H              1 S1                 0.0000
     40 ****         2.5762   1.7332   0.3013 H              1 S1                 0.0000
     41 ****         2.3669   0.7910   1.7717 H              1 S1                 0.0000
     42 ****        -1.7890   1.2653   0.9855 H              1 S1                 0.0000
     43 ****        -4.8544   1.9857   0.1941 LP             1 S1                 0.0000
     44 ****        -3.1500   1.6807   0.1496 LP             1 S1                 0.0000
     45 ****         2.4636  -1.1136   0.5184 LP             1 S1                 0.0000
     46 ****         4.6713   1.3357  -0.9211 LP             1 S1                 0.0000
     47 ****         5.8877   0.4200  -0.3308 LP             1 S1                 0.0000
     48 ****         0.5171   1.3630   0.9078 LP             1 S1                 0.0000
@<TRIPOS>BOND
    1    1    2 1     
    2    1   21 1     
    3    1   22 1     
    4    1   23 1     
    5    2    3 1     
    6    2   24 1     
    7    2   25 1     
    8    3    4 am    
    9    3   26 1     
   10    4    5 2     
   11    4    6 am    
   12    6    7 1     
   13    6   27 1     
   14    7   20 ar    
   15    7    8 ar    
   16    8    9 ar    
   17    8   28 1     
   18    9   10 ar    
   19    9   29 1     
   20   10   11 1     
   21   10   19 ar    
   22   11   18 1     
   23   11   12 1     
   24   12   13 1     
   25   12   30 1     
   26   12   31 1     
   27   13   14 1     
   28   13   15 1     
   29   13   32 1     
   30   14   33 1     
   31   14   34 1     
   32   14   35 1     
   33   15   16 1     
   34   16   17 1     
   35   16   18 1     
   36   16   36 1     
   37   17   37 1     
   38   17   38 1     
   39   17   39 1     
   40   18   40 1     
   41   18   41 1     
   42   19   20 ar    
   43   20   42 1     
   44    5   43 1     
   45    5   44 1     
   46   11   45 1     
   47   15   46 1     
   48   15   47 1     
   49   19   48 1     
@<TRIPOS>SUBSTRUCTURE
      1 S1             1
@<TRIPOS>SET
LONE_PAIRS      STATIC     ATOMS    <user>   **** ""
6 43 44 45 46 47 48
DONOR_HYDROGENS      STATIC     ATOMS    <user>   **** ""
2 26 27
ATOM$BLUE        STATIC     ATOMS    COLORGROUP SYSTEM
6 43 44 45 46 47 48
ATOM$RED        STATIC     ATOMS    COLORGROUP SYSTEM
2 26 27
