#       Name:                AV-unprocessed.smi:2254
#       Creating user name   scv26
#       Creation time:       Fri Mar 27 12:32:54 2020


#       File generated by GOLD software.
#

@<TRIPOS>MOLECULE
AV-unprocessed.smi:2254
    48    49     1
SMALL
NO_CHARGES


@<TRIPOS>ATOM
      1 ****        -2.3064   5.8729   0.7452 C.3            1 S1                 0.0000
      2 ****        -1.7160   4.4768   0.6549 C.2            1 S1                 0.0000
      3 ****        -1.2752   4.0884  -0.6135 N.2            1 S1                 0.0000
      4 ****        -0.7645   2.9134  -0.7867 C.2            1 S1                 0.0000
      5 ****        -0.6371   2.0000   0.2735 N.am           1 S1                 0.0000
      6 ****        -0.0438   0.6928  -0.0551 C.3            1 S1                 0.0000
      7 ****         1.4967   0.7023   0.0713 C.3            1 S1                 0.0000
      8 ****         1.8895   0.4560   1.4064 O.3            1 S1                 0.0000
      9 ****         2.1775  -0.3580  -0.8114 C.3            1 S1                 0.0000
     10 ****         1.4955  -1.5965  -0.6912 O.3            1 S1                 0.0000
     11 ****         2.0577  -2.6227  -1.4915 C.3            1 S1                 0.0000
     12 ****         1.2810  -3.9189  -1.3649 C.ar           1 S1                 0.0000
     13 ****         1.9636  -5.1506  -1.2760 C.ar           1 S1                 0.0000
     14 ****         1.2404  -6.3548  -1.1698 C.ar           1 S1                 0.0000
     15 ****        -0.1680  -6.3330  -1.1588 C.ar           1 S1                 0.0000
     16 ****        -1.0532  -7.8082  -1.0281 Cl             1 S1                 0.0000
     17 ****        -0.8530  -5.1061  -1.2572 C.ar           1 S1                 0.0000
     18 ****        -0.1301  -3.9019  -1.3632 C.ar           1 S1                 0.0000
     19 ****        -1.0260   2.3046   1.5450 C.2            1 S1                 0.0000
     20 ****        -0.8892   1.5055   2.4731 O.2            1 S1                 0.0000
     21 ****        -1.6130   3.6424   1.7252 C.2            1 S1                 0.0000
     22 ****        -2.0768   4.0103   3.1291 C.3            1 S1                 0.0000
     23 ****        -1.7454   6.4803   1.4561 H              1 S1                 0.0000
     24 ****        -3.3465   5.8273   1.0688 H              1 S1                 0.0000
     25 ****        -2.2787   6.3794  -0.2204 H              1 S1                 0.0000
     26 ****        -0.4006   2.5638  -1.7545 H              1 S1                 0.0000
     27 ****        -0.4751  -0.1076   0.5496 H              1 S1                 0.0000
     28 ****        -0.3169   0.4263  -1.0785 H              1 S1                 0.0000
     29 ****         1.8921   1.6789  -0.2113 H              1 S1                 0.0000
     30 ****         1.4645   1.0871   1.9674 H              1 S1                 0.0000
     31 ****         2.1362  -0.0350  -1.8528 H              1 S1                 0.0000
     32 ****         3.2321  -0.4643  -0.5507 H              1 S1                 0.0000
     33 ****         2.0556  -2.3228  -2.5405 H              1 S1                 0.0000
     34 ****         3.0965  -2.7862  -1.2001 H              1 S1                 0.0000
     35 ****         3.0433  -5.1766  -1.2856 H              1 S1                 0.0000
     36 ****         1.7679  -7.2946  -1.0973 H              1 S1                 0.0000
     37 ****        -1.9330  -5.0869  -1.2526 H              1 S1                 0.0000
     38 ****        -0.6622  -2.9649  -1.4412 H              1 S1                 0.0000
     39 ****        -2.8282   3.2998   3.4753 H              1 S1                 0.0000
     40 ****        -2.5154   5.0049   3.1902 H              1 S1                 0.0000
     41 ****        -1.2361   3.9784   3.8229 H              1 S1                 0.0000
     42 ****        -1.3548   4.7185  -1.3859 LP             1 S1                 0.0000
     43 ****         2.8820   0.5474   1.4878 LP             1 S1                 0.0000
     44 ****         1.6170  -0.4687   1.6725 LP             1 S1                 0.0000
     45 ****         0.5436  -1.4635  -0.9673 LP             1 S1                 0.0000
     46 ****         1.5278  -1.8858   0.2655 LP             1 S1                 0.0000
     47 ****        -0.4841   0.6070   2.3037 LP             1 S1                 0.0000
     48 ****        -1.1833   1.7554   3.3956 LP             1 S1                 0.0000
@<TRIPOS>BOND
    1    1    2 1     
    2    1   23 1     
    3    1   24 1     
    4    1   25 1     
    5    2   21 2     
    6    2    3 1     
    7    3    4 2     
    8    4    5 1     
    9    4   26 1     
   10    5    6 1     
   11    5   19 am    
   12    6    7 1     
   13    6   27 1     
   14    6   28 1     
   15    7    8 1     
   16    7    9 1     
   17    7   29 1     
   18    8   30 1     
   19    9   10 1     
   20    9   31 1     
   21    9   32 1     
   22   10   11 1     
   23   11   12 1     
   24   11   33 1     
   25   11   34 1     
   26   12   18 ar    
   27   12   13 ar    
   28   13   14 ar    
   29   13   35 1     
   30   14   15 ar    
   31   14   36 1     
   32   15   16 1     
   33   15   17 ar    
   34   17   18 ar    
   35   17   37 1     
   36   18   38 1     
   37   19   20 2     
   38   19   21 1     
   39   21   22 1     
   40   22   39 1     
   41   22   40 1     
   42   22   41 1     
   43    3   42 1     
   44    8   43 1     
   45    8   44 1     
   46   10   45 1     
   47   10   46 1     
   48   20   47 1     
   49   20   48 1     
@<TRIPOS>SUBSTRUCTURE
      1 S1             1
@<TRIPOS>SET
LONE_PAIRS      STATIC     ATOMS    <user>   **** ""
7 42 43 44 45 46 47 48
DONOR_HYDROGENS      STATIC     ATOMS    <user>   **** ""
1 30
ATOM$BLUE        STATIC     ATOMS    COLORGROUP SYSTEM
7 42 43 44 45 46 47 48
ATOM$RED        STATIC     ATOMS    COLORGROUP SYSTEM
1 30
