#       Name:                AV-unprocessed.smi:1498
#       Creating user name   scv26
#       Creation time:       Fri Mar 27 06:17:44 2020


#       File generated by GOLD software.
#

@<TRIPOS>MOLECULE
AV-unprocessed.smi:1498
    43    44     1
SMALL
NO_CHARGES


@<TRIPOS>ATOM
      1 ****        -4.3676   0.4753   3.1002 C.3            1 S1                 0.0000
      2 ****        -3.8594   0.2526   1.7298 N.4            1 S1                 1.0000
      3 ****        -2.9206  -0.8971   1.6511 C.3            1 S1                 0.0000
      4 ****        -2.4032  -1.1027   0.2145 C.3            1 S1                 0.0000
      5 ****        -1.7985   0.1515  -0.2612 N.am           1 S1                 0.0000
      6 ****        -0.4702   0.3993  -0.3888 C.2            1 S1                 0.0000
      7 ****        -0.0155   1.5393  -0.4877 O.2            1 S1                 0.0000
      8 ****         0.2924  -0.7080  -0.4679 N.am           1 S1                 0.0000
      9 ****         1.7022  -0.7849  -0.5998 C.2            1 S1                 0.0000
     10 ****         2.4408  -1.9940  -0.6779 C.2            1 S1                 0.0000
     11 ****         3.7378  -1.7569  -0.7998 N.2            1 S1                 0.0000
     12 ****         3.8499  -0.4048  -0.8022 N.pl3          1 S1                 0.0000
     13 ****         5.1605   0.2085  -0.9274 C.3            1 S1                 0.0000
     14 ****         5.3920   0.7403  -2.3430 C.2            1 S1                 0.0000
     15 ****         5.6293  -0.1590  -3.3017 N.am           1 S1                 0.0000
     16 ****         5.3606   1.9481  -2.5676 O.2            1 S1                 0.0000
     17 ****         2.6242   0.2204  -0.6787 C.2            1 S1                 0.0000
     18 ****        -2.7958   1.2260  -0.3077 C.3            1 S1                 0.0000
     19 ****        -3.3183   1.4929   1.1156 C.3            1 S1                 0.0000
     20 ****        -3.5593   0.7564   3.7766 H              1 S1                 0.0000
     21 ****        -4.8393  -0.4285   3.4870 H              1 S1                 0.0000
     22 ****        -5.1138   1.2703   3.1094 H              1 S1                 0.0000
     23 ****        -2.0793  -0.7241   2.3244 H              1 S1                 0.0000
     24 ****        -3.4232  -1.8014   1.9961 H              1 S1                 0.0000
     25 ****        -1.7287  -1.9584   0.1907 H              1 S1                 0.0000
     26 ****        -3.2311  -1.3686  -0.4445 H              1 S1                 0.0000
     27 ****        -0.1906  -1.5930  -0.4164 H              1 S1                 0.0000
     28 ****         2.0873  -3.0142  -0.6515 H              1 S1                 0.0000
     29 ****         5.2337   1.0240  -0.2067 H              1 S1                 0.0000
     30 ****         5.9338  -0.5173  -0.6698 H              1 S1                 0.0000
     31 ****         5.7959   0.1477  -4.2493 H              1 S1                 0.0000
     32 ****         5.6493  -1.1422  -3.0730 H              1 S1                 0.0000
     33 ****         2.5310   1.2962  -0.6630 H              1 S1                 0.0000
     34 ****        -2.4042   2.1471  -0.7423 H              1 S1                 0.0000
     35 ****        -3.6182   0.9228  -0.9574 H              1 S1                 0.0000
     36 ****        -4.0975   2.2555   1.0870 H              1 S1                 0.0000
     37 ****        -2.5118   1.8844   1.7380 H              1 S1                 0.0000
     38 ****        -4.6594  -0.0053   1.1695 H              1 S1                 0.0000
     39 ****        -0.6322   2.3264  -0.4757 LP             1 S1                 0.0000
     40 ****         0.9705   1.6781  -0.5801 LP             1 S1                 0.0000
     41 ****         4.4748  -2.4286  -0.8740 LP             1 S1                 0.0000
     42 ****         5.1828   2.5908  -1.8224 LP             1 S1                 0.0000
     43 ****         5.5129   2.2883  -3.4956 LP             1 S1                 0.0000
@<TRIPOS>BOND
    1    1    2 1     
    2    1   20 1     
    3    1   21 1     
    4    1   22 1     
    5    2   19 1     
    6    2    3 1     
    7    2   38 1     
    8    3    4 1     
    9    3   23 1     
   10    3   24 1     
   11    4    5 1     
   12    4   25 1     
   13    4   26 1     
   14    5    6 am    
   15    5   18 1     
   16    6    7 2     
   17    6    8 am    
   18    8    9 1     
   19    8   27 1     
   20    9   17 2     
   21    9   10 1     
   22   10   11 2     
   23   10   28 1     
   24   11   12 1     
   25   12   13 1     
   26   12   17 1     
   27   13   14 1     
   28   13   29 1     
   29   13   30 1     
   30   14   15 am    
   31   14   16 2     
   32   15   31 1     
   33   15   32 1     
   34   17   33 1     
   35   18   19 1     
   36   18   34 1     
   37   18   35 1     
   38   19   36 1     
   39   19   37 1     
   40    7   39 1     
   41    7   40 1     
   42   11   41 1     
   43   16   42 1     
   44   16   43 1     
@<TRIPOS>SUBSTRUCTURE
      1 S1             1
@<TRIPOS>SET
LONE_PAIRS      STATIC     ATOMS    <user>   **** ""
5 39 40 41 42 43
DONOR_HYDROGENS      STATIC     ATOMS    <user>   **** ""
4 38 27 31 32
ATOM$BLUE        STATIC     ATOMS    COLORGROUP SYSTEM
5 39 40 41 42 43
ATOM$RED        STATIC     ATOMS    COLORGROUP SYSTEM
4 38 27 31 32
