#       Name:                AV-unprocessed.smi:2124
#       Creating user name   scv26
#       Creation time:       Fri Mar 27 11:42:30 2020


#       File generated by GOLD software.
#

@<TRIPOS>MOLECULE
AV-unprocessed.smi:2124
    52    54     1
SMALL
NO_CHARGES


@<TRIPOS>ATOM
      1 ****        -4.4501   5.7320  -0.1556 C.3            1 S1                 0.0000
      2 ****        -3.8758   4.3332  -0.0859 C.2            1 S1                 0.0000
      3 ****        -3.4224   3.8990   1.0279 N.2            1 S1                 0.0000
      4 ****        -2.8888   2.6011   1.0983 C.2            1 S1                 0.0000
      5 ****        -2.3792   2.1672   2.4617 C.3            1 S1                 0.0000
      6 ****        -2.8421   1.7963  -0.0019 C.2            1 S1                 0.0000
      7 ****        -2.2713   0.3789   0.0252 C.3            1 S1                 0.0000
      8 ****        -0.7461   0.2760  -0.0455 C.2            1 S1                 0.0000
      9 ****        -0.0991   1.0796  -0.7172 O.2            1 S1                 0.0000
     10 ****        -0.1882  -0.7225   0.6573 N.am           1 S1                 0.0000
     11 ****         1.2412  -1.0122   0.7602 C.3            1 S1                 0.0000
     12 ****         1.6222  -1.0691   2.2474 C.3            1 S1                 0.0000
     13 ****         1.5633  -2.3299   0.0139 C.3            1 S1                 0.0000
     14 ****         1.2816  -2.3066  -1.5067 C.3            1 S1                 0.0000
     15 ****         2.5825  -2.8666  -2.1104 C.3            1 S1                 0.0000
     16 ****         3.6811  -1.7923  -2.0154 C.3            1 S1                 0.0000
     17 ****         4.0118  -1.7808  -0.5121 C.3            1 S1                 0.0000
     18 ****         3.0311  -2.8236   0.0631 C.3            1 S1                 0.0000
     19 ****         3.0268  -3.8670  -1.0498 C.3            1 S1                 0.0000
     20 ****        -3.3708   2.3360  -1.2676 C.2            1 S1                 0.0000
     21 ****        -3.3424   1.6570  -2.2934 O.2            1 S1                 0.0000
     22 ****        -3.8812   3.6005  -1.2516 N.pl3          1 S1                -1.0000
     23 ****        -4.2011   6.3036   0.7394 H              1 S1                 0.0000
     24 ****        -5.5360   5.6882  -0.2445 H              1 S1                 0.0000
     25 ****        -4.0529   6.2657  -1.0196 H              1 S1                 0.0000
     26 ****        -2.9520   1.3164   2.8304 H              1 S1                 0.0000
     27 ****        -2.4704   2.9726   3.1912 H              1 S1                 0.0000
     28 ****        -1.3282   1.8834   2.4078 H              1 S1                 0.0000
     29 ****        -2.6151  -0.1077   0.9386 H              1 S1                 0.0000
     30 ****        -2.6900  -0.2242  -0.7807 H              1 S1                 0.0000
     31 ****        -0.8080  -1.3303   1.1729 H              1 S1                 0.0000
     32 ****         1.8064  -0.1972   0.3079 H              1 S1                 0.0000
     33 ****         2.6941  -1.2174   2.3773 H              1 S1                 0.0000
     34 ****         1.1075  -1.8826   2.7593 H              1 S1                 0.0000
     35 ****         1.3615  -0.1388   2.7534 H              1 S1                 0.0000
     36 ****         0.9455  -3.1146   0.4550 H              1 S1                 0.0000
     37 ****         0.4294  -2.9435  -1.7475 H              1 S1                 0.0000
     38 ****         1.0639  -1.3082  -1.8875 H              1 S1                 0.0000
     39 ****         2.4587  -3.2780  -3.1125 H              1 S1                 0.0000
     40 ****         4.5575  -2.0769  -2.5989 H              1 S1                 0.0000
     41 ****         3.3418  -0.8196  -2.3739 H              1 S1                 0.0000
     42 ****         5.0415  -2.1029  -0.3523 H              1 S1                 0.0000
     43 ****         3.9120  -0.7935  -0.0634 H              1 S1                 0.0000
     44 ****         3.3291  -3.2101   1.0380 H              1 S1                 0.0000
     45 ****         2.3099  -4.6740  -0.8880 H              1 S1                 0.0000
     46 ****         4.0105  -4.2973  -1.2463 H              1 S1                 0.0000
     47 ****        -3.4473   4.4785   1.8425 LP             1 S1                 0.0000
     48 ****        -0.5700   1.8043  -1.2202 LP             1 S1                 0.0000
     49 ****         0.8974   1.0077  -0.7598 LP             1 S1                 0.0000
     50 ****        -2.9591   0.7336  -2.2713 LP             1 S1                 0.0000
     51 ****        -3.7026   2.0286  -3.1490 LP             1 S1                 0.0000
     52 ****        -4.2601   3.9964  -2.0881 LP             1 S1                 0.0000
@<TRIPOS>BOND
    1    1    2 1     
    2    1   23 1     
    3    1   24 1     
    4    1   25 1     
    5    2   22 1     
    6    2    3 2     
    7    3    4 1     
    8    4    5 1     
    9    4    6 2     
   10    5   26 1     
   11    5   27 1     
   12    5   28 1     
   13    6    7 1     
   14    6   20 1     
   15    7    8 1     
   16    7   29 1     
   17    7   30 1     
   18    8    9 2     
   19    8   10 am    
   20   10   11 1     
   21   10   31 1     
   22   11   12 1     
   23   11   13 1     
   24   11   32 1     
   25   12   33 1     
   26   12   34 1     
   27   12   35 1     
   28   13   18 1     
   29   13   14 1     
   30   13   36 1     
   31   14   15 1     
   32   14   37 1     
   33   14   38 1     
   34   15   19 1     
   35   15   16 1     
   36   15   39 1     
   37   16   17 1     
   38   16   40 1     
   39   16   41 1     
   40   17   18 1     
   41   17   42 1     
   42   17   43 1     
   43   18   19 1     
   44   18   44 1     
   45   19   45 1     
   46   19   46 1     
   47   20   21 2     
   48   20   22 1     
   49    3   47 1     
   50    9   48 1     
   51    9   49 1     
   52   21   50 1     
   53   21   51 1     
   54   22   52 1     
@<TRIPOS>SUBSTRUCTURE
      1 S1             1
@<TRIPOS>SET
LONE_PAIRS      STATIC     ATOMS    <user>   **** ""
6 47 48 49 50 51 52
DONOR_HYDROGENS      STATIC     ATOMS    <user>   **** ""
1 31
ATOM$BLUE        STATIC     ATOMS    COLORGROUP SYSTEM
6 47 48 49 50 51 52
ATOM$RED        STATIC     ATOMS    COLORGROUP SYSTEM
1 31
