#       Name:                AV-unprocessed.smi:114
#       Creating user name   scv26
#       Creation time:       Thu Mar 26 18:24:12 2020


#       File generated by GOLD software.
#

@<TRIPOS>MOLECULE
AV-unprocessed.smi:114
    43    45     1
SMALL
NO_CHARGES


@<TRIPOS>ATOM
      1 ****        -4.8660   0.6496  -0.4996 N.pl3          1 S1                 0.0000
      2 ****        -3.6016   1.0924  -0.5405 C.ar           1 S1                 0.0000
      3 ****        -3.3802   2.4222  -0.4197 N.ar           1 S1                 0.0000
      4 ****        -2.1328   2.9066  -0.4601 C.ar           1 S1                 0.0000
      5 ****        -2.0039   4.2482  -0.3342 F              1 S1                 0.0000
      6 ****        -0.9982   2.2139  -0.6095 N.ar           1 S1                 0.0000
      7 ****        -1.2179   0.8717  -0.7246 C.ar           1 S1                 0.0000
      8 ****        -2.4869   0.2350  -0.7070 C.ar           1 S1                 0.0000
      9 ****        -2.3310  -1.1344  -0.8709 N.2            1 S1                 0.0000
     10 ****        -1.0392  -1.2914  -0.9863 C.2            1 S1                 0.0000
     11 ****        -0.2899  -0.1372  -0.8773 N.pl3          1 S1                 0.0000
     12 ****         1.1946   0.0396  -0.9869 C.3            1 S1                 0.0000
     13 ****         1.7909  -1.2258  -1.0021 O.3            1 S1                 0.0000
     14 ****         2.4339  -1.5116   0.2389 C.3            1 S1                 0.0000
     15 ****         1.4507  -2.2108   1.2056 C.3            1 S1                 0.0000
     16 ****         1.2561  -3.5504   0.8053 O.3            1 S1                 0.0000
     17 ****         2.8979  -0.1155   0.6751 C.3            1 S1                 0.0000
     18 ****         3.1356  -0.0167   2.0657 O.3            1 S1                 0.0000
     19 ****         1.7589   0.7928   0.2332 C.3            1 S1                 0.0000
     20 ****         2.2733   2.0601  -0.1226 O.3            1 S1                 0.0000
     21 ****         1.3393   0.5458  -1.9424 H              1 S1                 0.0000
     22 ****         3.2988  -2.1556   0.0732 H              1 S1                 0.0000
     23 ****         3.8130   0.1327   0.1344 H              1 S1                 0.0000
     24 ****         0.9991   0.8791   1.0121 H              1 S1                 0.0000
     25 ****        -5.0551  -0.3385  -0.5899 H              1 S1                 0.0000
     26 ****        -5.6263   1.3031  -0.3783 H              1 S1                 0.0000
     27 ****        -0.5985  -2.2647  -1.1475 H              1 S1                 0.0000
     28 ****         1.8660  -2.2489   2.2126 H              1 S1                 0.0000
     29 ****         0.4964  -1.6921   1.2810 H              1 S1                 0.0000
     30 ****         0.6838  -3.9698   1.4295 H              1 S1                 0.0000
     31 ****         3.3818   0.8745   2.2624 H              1 S1                 0.0000
     32 ****         1.5571   2.5962  -0.4286 H              1 S1                 0.0000
     33 ****        -4.1524   3.0461  -0.2997 LP             1 S1                 0.0000
     34 ****        -0.0904   2.6327  -0.6341 LP             1 S1                 0.0000
     35 ****        -3.0420  -1.8372  -0.8951 LP             1 S1                 0.0000
     36 ****         2.4700  -1.2569  -1.7355 LP             1 S1                 0.0000
     37 ****         1.0867  -1.9156  -1.1704 LP             1 S1                 0.0000
     38 ****         2.1353  -4.0263   0.7809 LP             1 S1                 0.0000
     39 ****         0.8392  -3.5738  -0.1034 LP             1 S1                 0.0000
     40 ****         3.8749  -0.6372   2.3272 LP             1 S1                 0.0000
     41 ****         2.3053  -0.2569   2.5685 LP             1 S1                 0.0000
     42 ****         2.9530   1.9573  -0.8489 LP             1 S1                 0.0000
     43 ****         2.6993   2.4880   0.6745 LP             1 S1                 0.0000
@<TRIPOS>BOND
    1    1    2 1     
    2    1   25 1     
    3    1   26 1     
    4    2    8 ar    
    5    2    3 ar    
    6    3    4 ar    
    7    4    5 1     
    8    4    6 ar    
    9    6    7 ar    
   10    7   11 1     
   11    7    8 ar    
   12    8    9 1     
   13    9   10 2     
   14   10   11 1     
   15   10   27 1     
   16   11   12 1     
   17   12   21 1     
   18   12   19 1     
   19   12   13 1     
   20   13   14 1     
   21   14   22 1     
   22   14   15 1     
   23   14   17 1     
   24   15   16 1     
   25   15   28 1     
   26   15   29 1     
   27   16   30 1     
   28   17   23 1     
   29   17   18 1     
   30   17   19 1     
   31   18   31 1     
   32   19   24 1     
   33   19   20 1     
   34   20   32 1     
   35    3   33 1     
   36    6   34 1     
   37    9   35 1     
   38   13   36 1     
   39   13   37 1     
   40   16   38 1     
   41   16   39 1     
   42   18   40 1     
   43   18   41 1     
   44   20   42 1     
   45   20   43 1     
@<TRIPOS>SUBSTRUCTURE
      1 S1             1
@<TRIPOS>SET
LONE_PAIRS      STATIC     ATOMS    <user>   **** ""
11 33 34 35 36 37 38 39 40 41 42 43
DONOR_HYDROGENS      STATIC     ATOMS    <user>   **** ""
5 25 26 30 31 32
ATOM$BLUE        STATIC     ATOMS    COLORGROUP SYSTEM
11 33 34 35 36 37 38 39 40 41 42 43
ATOM$RED        STATIC     ATOMS    COLORGROUP SYSTEM
5 25 26 30 31 32
