AV-unprocessed.smi:2663|AV-procd|sdf|10324|dock7
  -GOLD-   2272014343D 1   1.00000     0.00000
 Structure written by MMmdl.
 38 39  0  0  0  0  0  0  0  0  2 V2000
  151.4052  137.8521  157.8802 C   0  0  0  0  0  0  0  0  0  0  0  0
  149.9498  138.3065  157.5966 C   0  0  1  0  0  0  0  0  0  0  0  0
  149.3948  137.4779  156.4009 C   0  0  0  0  0  0  0  0  0  0  0  0
  148.0483  137.7953  156.1086 O   0  0  0  0  0  0  0  0  0  0  0  0
  149.1088  138.0697  158.7809 N   0  0  0  0  0  0  0  0  0  0  0  0
  148.7692  136.9168  159.3813 C   0  0  0  0  0  0  0  0  0  0  0  0
  149.1721  135.8371  158.9441 O   0  0  0  0  0  0  0  0  0  0  0  0
  147.9783  137.0916  160.4643 N   0  5  0  0  0  0  0  0  0  0  0  0
  147.3380  136.0421  161.0055 C   0  0  0  0  0  0  0  0  0  0  0  0
  146.6294  135.1725  160.2675 N   0  0  0  0  0  0  0  0  0  0  0  0
  146.0464  134.1640  161.0230 N   0  0  0  0  0  0  0  0  0  0  0  0
  146.3245  134.3050  162.3189 C   0  0  0  0  0  0  0  0  0  0  0  0
  147.3192  135.6845  162.7345 S   0  0  0  0  0  0  0  0  0  0  0  0
  149.9138  139.8486  157.3002 C   0  0  0  0  0  0  0  0  0  0  0  0
  150.4627  140.2220  155.8954 C   0  0  0  0  0  0  0  0  0  0  0  0
  150.3671  141.7297  155.6114 C   0  0  0  0  0  0  0  0  0  0  0  0
  151.0936  142.5462  156.6869 C   0  0  0  0  0  0  0  0  0  0  0  0
  150.5480  142.2099  158.0798 C   0  0  0  0  0  0  0  0  0  0  0  0
  150.6459  140.7035  158.3699 C   0  0  0  0  0  0  0  0  0  0  0  0
  152.0886  138.2083  157.1090 H   0  0  0  0  0  0  0  0  0  0  0  0
  151.4973  136.7663  157.9048 H   0  0  0  0  0  0  0  0  0  0  0  0
  151.7698  138.2175  158.8399 H   0  0  0  0  0  0  0  0  0  0  0  0
  149.9744  137.6559  155.4955 H   0  0  0  0  0  0  0  0  0  0  0  0
  149.4674  136.4074  156.5929 H   0  0  0  0  0  0  0  0  0  0  0  0
  148.0357  138.3757  155.3629 H   0  0  0  0  0  0  0  0  0  0  0  0
  148.7324  138.9033  159.2078 H   0  0  0  0  0  0  0  0  0  0  0  0
  145.9390  133.5946  163.0347 H   0  0  0  0  0  0  0  0  0  0  0  0
  148.8681  140.1594  157.3117 H   0  0  0  0  0  0  0  0  0  0  0  0
  151.5035  139.9102  155.8003 H   0  0  0  0  0  0  0  0  0  0  0  0
  149.9134  139.6999  155.1135 H   0  0  0  0  0  0  0  0  0  0  0  0
  150.7906  141.9495  154.6310 H   0  0  0  0  0  0  0  0  0  0  0  0
  149.3190  142.0288  155.5697 H   0  0  0  0  0  0  0  0  0  0  0  0
  152.1632  142.3354  156.6499 H   0  0  0  0  0  0  0  0  0  0  0  0
  150.9794  143.6122  156.4876 H   0  0  0  0  0  0  0  0  0  0  0  0
  151.0965  142.7694  158.8381 H   0  0  0  0  0  0  0  0  0  0  0  0
  149.5075  142.5291  158.1526 H   0  0  0  0  0  0  0  0  0  0  0  0
  150.2257  140.5285  159.3591 H   0  0  0  0  0  0  0  0  0  0  0  0
  151.6968  140.4175  158.4268 H   0  0  0  0  0  0  0  0  0  0  0  0
  1  2  1  0  0  0  0
  1 20  1  0  0  0  0
  1 21  1  0  0  0  0
  1 22  1  0  0  0  0
  2  3  1  0  0  0  0
  2  5  1  0  0  0  0
  2 14  1  0  0  0  0
  3  4  1  0  0  0  0
  3 23  1  0  0  0  0
  3 24  1  0  0  0  0
  4 25  1  0  0  0  0
  5  6  1  0  0  0  0
  5 26  1  0  0  0  0
  6  7  2  0  0  0  0
  6  8  1  0  0  0  0
  8  9  1  0  0  0  0
  9 13  1  0  0  0  0
  9 10  2  0  0  0  0
 10 11  1  0  0  0  0
 11 12  2  0  0  0  0
 12 13  1  0  0  0  0
 12 27  1  0  0  0  0
 14 19  1  0  0  0  0
 14 15  1  0  0  0  0
 14 28  1  0  0  0  0
 15 16  1  0  0  0  0
 15 29  1  0  0  0  0
 15 30  1  0  0  0  0
 16 17  1  0  0  0  0
 16 31  1  0  0  0  0
 16 32  1  0  0  0  0
 17 18  1  0  0  0  0
 17 33  1  0  0  0  0
 17 34  1  0  0  0  0
 18 19  1  0  0  0  0
 18 35  1  0  0  0  0
 18 36  1  0  0  0  0
 19 37  1  0  0  0  0
 19 38  1  0  0  0  0
M  CHG  1   8  -1
M  END
> <s_m_source_file>
AV-unprocessed.smi

> <i_m_source_file_index>
2663

> <i_lp_mmshare_version>
43012

> <i_f3d_flags>
0

> <s_epik_input>
W0NIMl0xW0NIMl1bQ0gyXVtDSDJdW0NIMl1bQ0hdMVtDQF0oW0NIM10pKFtDSDJdW09IXSlbTkhdQyg9TylbTkhdYzJubltjSF1zMg==

> <s_epik_cmdline>
J2VwaWtfcHl0aG9uJywgJy1waCcsICc3LjAnLCAnLXRuJywgJzgnLCAnLW1hJywgJzIwMCcsICctbWV0YWxfYmluZGluZycsICctaW1hZScsICc8aW5maWxlLm1hZT4nLCAnLW9tYWUnLCAnPG91dGZpbGUubWFlPic=

> <r_lp_tautomer_probability>
1

> <r_epik_Ionization_Penalty>
4.39194

> <r_epik_Ionization_Penalty_Charging>
4.34423

> <r_epik_Ionization_Penalty_Neutral>
0.047714

> <r_epik_State_Penalty>
4.34384

> <r_epik_Charging_Adjusted_Penalty>
8.68806

> <i_epik_Tot_Q>
-1

> <i_epik_Tot_abs_Q>
1

> <r_epik_Metal_State_Penalty>
0.746645

> <b_epik_Metal_Only>
1

> <s_lp_Force_Field>
OPLS_2005

> <r_lp_Energy>
17.2717

> <b_lp_Chiralities_Consistent>
1

> <s_lp_Variant>
AV-unprocessed.smi:2663-3

> <Gold.Version>
5.8.1

> <Gold.Id.Protein>
6NUR|6NUR_protein|mol2

> <Gold.PLP.Fitness>
39.5011

> <Gold.PLP.PLP>
-29.2761

> <Gold.PLP.part.hbond>
-3.0000

> <Gold.PLP.part.metal>
0.0000

> <Gold.PLP.part.buried>
-3.6212

> <Gold.PLP.part.nonpolar>
-22.1367

> <Gold.PLP.part.repulsive>
0.2249

> <Gold.PLP.ligand.clash>
0.0000

> <Gold.PLP.ligand.torsion>
0.6897

> <Gold.PLP.Chemscore.Hbond>
3.8519

> <Gold.PLP.Chemscore.CHOScore>
0.0000

> <Gold.PLP.Chemscore.Metal>
0.0000

> <Gold.Chemscore.Hbonds>
donor molecule, donor type, donor heavy atom, donor atom, acceptor molecule, acceptor atom, score
      P1  H  6896  6908       L1     7  0.91
      P1  H  6931  6943       L1     8  1.20
      P1  H  6934  6947       L1     8  1.20

> <Gold.PLP.Chemscore.Internal.Correction>
0.0486

> <Gold.Rescore>
     Score         DG    S(hbond)    S(metal)    S(lipo)     H(rot)  DE(clash)    DE(int)     intcor
     13.18     -14.18       2.05        0.00      63.53       2.18       0.09       0.90       ----

> <Gold.Chemscore.Fitness>
13.1813

> <Gold.Chemscore.DG>
-14.1778

> <Gold.Chemscore.ZeroCoef>
-5.4800

> <Gold.Chemscore.Hbond>
2.0482

> <Gold.Chemscore.Metal>
0.0000

> <Gold.Chemscore.Lipo>
63.5336

> <Gold.Chemscore.Internal_Hbond>
0.0000

> <Gold.Chemscore.DEClash>
0.0949

> <Gold.Chemscore.DEInternal>
0.9016

> <Gold.Chemscore.Rot>
2.1783

> <Gold.Chemscore.Internal.Correction>
   9.000000E+99

> <Gold.Chemscore.Hbonds>
donor molecule, donor type, donor heavy atom, donor atom, acceptor molecule, acceptor atom, score
      P1  H  6896  6908       L1     7  0.87
      P1  H  6931  6943       L1     8  0.34
      P1  H  6934  6947       L1     8  0.53

> <Gold.Chemscore.Hbond.Weighted>
-6.8409

> <Gold.Chemscore.Metal.Weighted>
-0.0000

> <Gold.Chemscore.Lipo.Weighted>
-7.4334

> <Gold.Chemscore.Internal_Hbond.Weighted>
0.0000

> <Gold.Chemscore.DEClash.Weighted>
0.0949

> <Gold.Chemscore.DEInternal.Weighted>
0.9016

> <Gold.Chemscore.Rot.Weighted>
5.5765

> <Gold.Chemscore.Internal.Correction.Weighted>
   9.000000E+99

> <Gold.Protein.RotatedTorsions>
[ 6907 6896 6895 6894 ] final  164.33 input  -60.11 | X-H torsion
[ 7974 7965 7964 7962 ] final -132.29 input  175.53 | X-H torsion
[ 8008 7997 7996 7995 ] final  -15.16 input   59.86 | X-H torsion
[ 10167 10162 10161 10158 ] final  -17.99 input  -65.29 | X-H torsion
[ 10718 10713 10712 10709 ] final   -5.86 input   66.30 | X-H torsion
[ 10763 10752 10751 10750 ] final -115.32 input  -60.55 | X-H torsion
[ 11005 11000 10999 10996 ] final  -18.96 input  -57.11 | X-H torsion

> <Gold.Protein.ActiveResidues>
 VAL166  LYS551  ARG553  GLY616  TRP617  ASP618  TYR619  PRO620  LYS621  CYS622 
 ASP623  PHE694  ASN695  SER759  ASP760  ASP761  ALA762  ILE779  LEU786  VAL792 
 PHE793  MET794  SER795  GLU796  ALA797  LYS798  CYS799  TRP800  GLU811  SER814 

> <Gold.Protein.RotatedAtoms>
  151.9115  133.3562  159.3865 H   0  0  0  0  0  0  0  0  0  0  0  0  # atno 6907 bound_to 6896
  150.7057  134.4727  159.5442 H   0  0  0  0  0  0  0  0  0  0  0  0  # atno 6908 bound_to 6896
  152.2334  134.8300  160.0521 H   0  0  0  0  0  0  0  0  0  0  0  0  # atno 6909 bound_to 6896
  144.9299  140.7116  143.4912 H   0  0  0  0  0  0  0  0  0  0  0  0  # atno 7974 bound_to 7965
  154.5152  140.2203  155.9079 H   0  0  0  0  0  0  0  0  0  0  0  0  # atno 8008 bound_to 7997
  156.1599  140.3144  155.8755 H   0  0  0  0  0  0  0  0  0  0  0  0  # atno 8009 bound_to 7997
  155.3772  140.0470  157.3035 H   0  0  0  0  0  0  0  0  0  0  0  0  # atno 8010 bound_to 7997
  140.7254  143.4961  150.9929 H   0  0  0  0  0  0  0  0  0  0  0  0  # atno 10167 bound_to 10162
  156.7403  130.5207  149.5825 H   0  0  0  0  0  0  0  0  0  0  0  0  # atno 10718 bound_to 10713
  154.8476  135.4386  154.1645 H   0  0  0  0  0  0  0  0  0  0  0  0  # atno 10763 bound_to 10752
  153.2773  135.6950  153.7426 H   0  0  0  0  0  0  0  0  0  0  0  0  # atno 10764 bound_to 10752
  153.6644  135.3429  155.3111 H   0  0  0  0  0  0  0  0  0  0  0  0  # atno 10765 bound_to 10752
  140.8319  133.7990  155.9768 H   0  0  0  0  0  0  0  0  0  0  0  0  # atno 11005 bound_to 11000
  145.3158  139.1804  143.4614 LP  0  0  0  0  0  0  0  0  0  0  0  0  # atno 17320 bound_to 7965
  146.3242  140.3169  142.8630 LP  0  0  0  0  0  0  0  0  0  0  0  0  # atno 17321 bound_to 7965
  139.8667  143.7244  152.3169 LP  0  0  0  0  0  0  0  0  0  0  0  0  # atno 17342 bound_to 10162
  139.7479  144.7542  151.0552 LP  0  0  0  0  0  0  0  0  0  0  0  0  # atno 17343 bound_to 10162
  156.1469  130.6283  151.0543 LP  0  0  0  0  0  0  0  0  0  0  0  0  # atno 17370 bound_to 10713
  157.6821  131.0835  150.7341 LP  0  0  0  0  0  0  0  0  0  0  0  0  # atno 17371 bound_to 10713
  140.8989  134.2403  157.5053 LP  0  0  0  0  0  0  0  0  0  0  0  0  # atno 17394 bound_to 11000
  139.8705  134.9697  156.4675 LP  0  0  0  0  0  0  0  0  0  0  0  0  # atno 17395 bound_to 11000

$$$$
