AV-unprocessed.smi:891|AV-procd|sdf|4063|dock7
  -GOLD-   22720 1553D 1   1.00000     0.00000
 Structure written by MMmdl.
 38 38  0  0  0  0  0  0  0  0  1 V2000
  154.4096  141.0711  161.4269 C   0  0  0  0  0  0  0  0  0  0  0  0
  153.5599  142.1604  160.8406 C   0  0  0  0  0  0  0  0  0  0  0  0
  153.0998  142.0555  159.6033 N   0  0  0  0  0  0  0  0  0  0  0  0
  152.3963  143.1953  159.3789 N   0  0  0  0  0  0  0  0  0  0  0  0
  151.8122  143.4078  158.0613 C   0  0  0  0  0  0  0  0  0  0  0  0
  151.1053  142.1369  157.5888 C   0  0  0  0  0  0  0  0  0  0  0  0
  150.4453  141.4655  158.3810 O   0  0  0  0  0  0  0  0  0  0  0  0
  151.3069  141.7946  156.3073 N   0  0  0  0  0  0  0  0  0  0  0  0
  151.0135  140.4935  155.7170 C   0  0  0  0  0  0  0  0  0  0  0  0
  149.4940  140.3148  155.4992 C   0  0  2  0  0  0  0  0  0  0  0  0
  149.1990  138.8928  154.9923 C   0  0  0  0  0  0  0  0  0  0  0  0
  148.8977  141.3925  154.5602 C   0  0  0  0  0  0  0  0  0  0  0  0
  147.4003  141.2104  154.2680 C   0  0  0  0  0  0  0  0  0  0  0  0
  147.2313  140.6949  152.9649 O   0  0  0  0  0  0  0  0  0  0  0  0
  152.3900  144.0298  160.4882 C   0  0  0  0  0  0  0  0  0  0  0  0
  151.6999  145.3550  160.5307 C   0  0  0  0  0  0  0  0  0  0  0  0
  153.1360  143.3804  161.4263 C   0  0  0  0  0  0  0  0  0  0  0  0
  153.5112  143.9417  163.0147 Cl  0  0  0  0  0  0  0  0  0  0  0  0
  153.8131  140.4063  162.0515 H   0  0  0  0  0  0  0  0  0  0  0  0
  155.2042  141.4866  162.0468 H   0  0  0  0  0  0  0  0  0  0  0  0
  154.8799  140.4672  160.6503 H   0  0  0  0  0  0  0  0  0  0  0  0
  151.1028  144.2355  158.1103 H   0  0  0  0  0  0  0  0  0  0  0  0
  152.5904  143.6959  157.3543 H   0  0  0  0  0  0  0  0  0  0  0  0
  151.8408  142.4328  155.7357 H   0  0  0  0  0  0  0  0  0  0  0  0
  151.5469  140.3478  154.7762 H   0  0  0  0  0  0  0  0  0  0  0  0
  151.3847  139.7303  156.4018 H   0  0  0  0  0  0  0  0  0  0  0  0
  149.0155  140.4205  156.4740 H   0  0  0  0  0  0  0  0  0  0  0  0
  149.6231  138.7305  154.0009 H   0  0  0  0  0  0  0  0  0  0  0  0
  148.1283  138.6990  154.9334 H   0  0  0  0  0  0  0  0  0  0  0  0
  149.6233  138.1427  155.6602 H   0  0  0  0  0  0  0  0  0  0  0  0
  149.0173  142.3794  155.0047 H   0  0  0  0  0  0  0  0  0  0  0  0
  149.4601  141.4190  153.6257 H   0  0  0  0  0  0  0  0  0  0  0  0
  146.9374  140.5259  154.9782 H   0  0  0  0  0  0  0  0  0  0  0  0
  146.8763  142.1642  154.3377 H   0  0  0  0  0  0  0  0  0  0  0  0
  148.0230  140.2434  152.7146 H   0  0  0  0  0  0  0  0  0  0  0  0
  151.6197  145.7198  161.5545 H   0  0  0  0  0  0  0  0  0  0  0  0
  150.6909  145.2890  160.1251 H   0  0  0  0  0  0  0  0  0  0  0  0
  152.2527  146.0983  159.9570 H   0  0  0  0  0  0  0  0  0  0  0  0
  1  2  1  0  0  0  0
  1 19  1  0  0  0  0
  1 20  1  0  0  0  0
  1 21  1  0  0  0  0
  2 17  1  0  0  0  0
  2  3  2  0  0  0  0
  3  4  1  0  0  0  0
  4  5  1  0  0  0  0
  4 15  1  0  0  0  0
  5  6  1  0  0  0  0
  5 22  1  0  0  0  0
  5 23  1  0  0  0  0
  6  7  2  0  0  0  0
  6  8  1  0  0  0  0
  8  9  1  0  0  0  0
  8 24  1  0  0  0  0
  9 10  1  0  0  0  0
  9 25  1  0  0  0  0
  9 26  1  0  0  0  0
 10 11  1  0  0  0  0
 10 12  1  0  0  0  0
 10 27  1  0  0  0  0
 11 28  1  0  0  0  0
 11 29  1  0  0  0  0
 11 30  1  0  0  0  0
 12 13  1  0  0  0  0
 12 31  1  0  0  0  0
 12 32  1  0  0  0  0
 13 14  1  0  0  0  0
 13 33  1  0  0  0  0
 13 34  1  0  0  0  0
 14 35  1  0  0  0  0
 15 16  1  0  0  0  0
 15 17  2  0  0  0  0
 16 36  1  0  0  0  0
 16 37  1  0  0  0  0
 16 38  1  0  0  0  0
 17 18  1  0  0  0  0
M  END
> <s_m_source_file>
AV-unprocessed.smi

> <i_m_source_file_index>
891

> <i_lp_mmshare_version>
43012

> <i_f3d_flags>
0

> <s_epik_input>
W0NIM11jMW5uKGMoW0NIM10pYzFDbClbQ0gyXUMoPU8pW05IXVtDSDJdW0NASF0oW0NIM10pW0NIMl1bQ0gyXVtPSF0=

> <s_epik_cmdline>
J2VwaWtfcHl0aG9uJywgJy1waCcsICc3LjAnLCAnLXRuJywgJzgnLCAnLW1hJywgJzIwMCcsICctbWV0YWxfYmluZGluZycsICctaW1hZScsICc8aW5maWxlLm1hZT4nLCAnLW9tYWUnLCAnPG91dGZpbGUubWFlPic=

> <r_lp_tautomer_probability>
1

> <r_epik_Ionization_Penalty>
4.9564e-06

> <r_epik_Ionization_Penalty_Charging>
0

> <r_epik_Ionization_Penalty_Neutral>
4.9564e-06

> <r_epik_State_Penalty>
-0

> <r_epik_Charging_Adjusted_Penalty>
0

> <i_epik_Tot_Q>
0

> <i_epik_Tot_abs_Q>
0

> <r_epik_Metal_State_Penalty>
-0

> <b_epik_Metal_Only>
0

> <s_lp_Force_Field>
OPLS_2005

> <r_lp_Energy>
6.31297

> <b_lp_Chiralities_Consistent>
1

> <s_lp_Variant>
AV-unprocessed.smi:891-1

> <Gold.Version>
5.8.1

> <Gold.Id.Protein>
6NUR|6NUR_protein|mol2

> <Gold.PLP.Fitness>
43.8103

> <Gold.PLP.PLP>
-42.5267

> <Gold.PLP.part.hbond>
-1.0000

> <Gold.PLP.part.metal>
0.0000

> <Gold.PLP.part.buried>
-3.4296

> <Gold.PLP.part.nonpolar>
-37.5969

> <Gold.PLP.part.repulsive>
0.1522

> <Gold.PLP.ligand.clash>
0.0000

> <Gold.PLP.ligand.torsion>
0.8730

> <Gold.PLP.Chemscore.Hbond>
0.9760

> <Gold.PLP.Chemscore.CHOScore>
0.0000

> <Gold.PLP.Chemscore.Metal>
0.0000

> <Gold.Chemscore.Hbonds>
donor molecule, donor type, donor heavy atom, donor atom, acceptor molecule, acceptor atom, score
      L1  H    14    35       P1  7957  0.48

> <Gold.PLP.Chemscore.Internal.Correction>
0.1016

> <Gold.Rescore>
     Score         DG    S(hbond)    S(metal)    S(lipo)     H(rot)  DE(clash)    DE(int)     intcor
     11.60     -15.22       1.00        0.00     112.26       2.62       2.92       0.70       ----

> <Gold.Chemscore.Fitness>
11.5981

> <Gold.Chemscore.DG>
-15.2196

> <Gold.Chemscore.ZeroCoef>
-5.4800

> <Gold.Chemscore.Hbond>
0.9955

> <Gold.Chemscore.Metal>
0.0000

> <Gold.Chemscore.Lipo>
112.2556

> <Gold.Chemscore.Internal_Hbond>
0.0000

> <Gold.Chemscore.DEClash>
2.9167

> <Gold.Chemscore.DEInternal>
0.7048

> <Gold.Chemscore.Rot>
2.6247

> <Gold.Chemscore.Internal.Correction>
   9.000000E+99

> <Gold.Chemscore.Hbonds>
donor molecule, donor type, donor heavy atom, donor atom, acceptor molecule, acceptor atom, score
      L1  H    14    35       P1  7957  0.48

> <Gold.Chemscore.Hbond.Weighted>
-3.3249

> <Gold.Chemscore.Metal.Weighted>
-0.0000

> <Gold.Chemscore.Lipo.Weighted>
-13.1339

> <Gold.Chemscore.Internal_Hbond.Weighted>
0.0000

> <Gold.Chemscore.DEClash.Weighted>
2.9167

> <Gold.Chemscore.DEInternal.Weighted>
0.7048

> <Gold.Chemscore.Rot.Weighted>
6.7192

> <Gold.Chemscore.Internal.Correction.Weighted>
   9.000000E+99

> <Gold.Protein.RotatedTorsions>
[ 6907 6896 6895 6894 ] final   47.15 input  -60.11 | X-H torsion
[ 7974 7965 7964 7962 ] final  -68.80 input  175.53 | X-H torsion
[ 8008 7997 7996 7995 ] final   71.39 input   59.86 | X-H torsion
[ 10167 10162 10161 10158 ] final  -14.56 input  -65.29 | X-H torsion
[ 10718 10713 10712 10709 ] final  148.01 input   66.30 | X-H torsion
[ 10763 10752 10751 10750 ] final  135.61 input  -60.55 | X-H torsion
[ 11005 11000 10999 10996 ] final   -6.88 input  -57.11 | X-H torsion

> <Gold.Protein.ActiveResidues>
 VAL166  LYS551  ARG553  GLY616  TRP617  ASP618  TYR619  PRO620  LYS621  CYS622 
 ASP623  PHE694  ASN695  SER759  ASP760  ASP761  ALA762  ILE779  LEU786  VAL792 
 PHE793  MET794  SER795  GLU796  ALA797  LYS798  CYS799  TRP800  GLU811  SER814 

> <Gold.Protein.RotatedAtoms>
  152.2647  134.7997  160.0424 H   0  0  0  0  0  0  0  0  0  0  0  0  # atno 6907 bound_to 6896
  151.8631  133.3456  159.3718 H   0  0  0  0  0  0  0  0  0  0  0  0  # atno 6908 bound_to 6896
  150.7129  134.5114  159.5653 H   0  0  0  0  0  0  0  0  0  0  0  0  # atno 6909 bound_to 6896
  145.7119  140.9075  143.0676 H   0  0  0  0  0  0  0  0  0  0  0  0  # atno 7974 bound_to 7965
  155.7532  140.3488  155.5160 H   0  0  0  0  0  0  0  0  0  0  0  0  # atno 8008 bound_to 7997
  155.8985  140.1030  157.1388 H   0  0  0  0  0  0  0  0  0  0  0  0  # atno 8009 bound_to 7997
  154.4041  140.1290  156.4393 H   0  0  0  0  0  0  0  0  0  0  0  0  # atno 8010 bound_to 7997
  140.7203  143.5309  150.9521 H   0  0  0  0  0  0  0  0  0  0  0  0  # atno 10167 bound_to 10162
  157.3139  131.0892  151.1294 H   0  0  0  0  0  0  0  0  0  0  0  0  # atno 10718 bound_to 10713
  153.8429  135.3089  155.3427 H   0  0  0  0  0  0  0  0  0  0  0  0  # atno 10763 bound_to 10752
  154.7925  135.4774  154.0088 H   0  0  0  0  0  0  0  0  0  0  0  0  # atno 10764 bound_to 10752
  153.1565  135.6853  153.8897 H   0  0  0  0  0  0  0  0  0  0  0  0  # atno 10765 bound_to 10752
  140.7067  133.8943  155.8721 H   0  0  0  0  0  0  0  0  0  0  0  0  # atno 11005 bound_to 11000
  144.6940  139.9086  143.7462 LP  0  0  0  0  0  0  0  0  0  0  0  0  # atno 17320 bound_to 7965
  146.0705  139.3694  143.0526 LP  0  0  0  0  0  0  0  0  0  0  0  0  # atno 17321 bound_to 7965
  139.9029  143.6813  152.3128 LP  0  0  0  0  0  0  0  0  0  0  0  0  # atno 17342 bound_to 10162
  139.7169  144.7610  151.1019 LP  0  0  0  0  0  0  0  0  0  0  0  0  # atno 17343 bound_to 10162
  157.2605  130.6657  149.5972 LP  0  0  0  0  0  0  0  0  0  0  0  0  # atno 17370 bound_to 10713
  155.9680  130.4510  150.5719 LP  0  0  0  0  0  0  0  0  0  0  0  0  # atno 17371 bound_to 10713
  141.0118  134.1009  157.4213 LP  0  0  0  0  0  0  0  0  0  0  0  0  # atno 17394 bound_to 11000
  139.8882  135.0096  156.6607 LP  0  0  0  0  0  0  0  0  0  0  0  0  # atno 17395 bound_to 11000

$$$$
