AV-unprocessed.smi:837|AV-procd|sdf|3900|dock7
  -GOLD-   22720 1363D 1   1.00000     0.00000
 Structure written by MMmdl.
 48 50  0  0  0  0  0  0  0  0  2 V2000
  150.2662  141.8986  158.1235 C   0  0  0  0  0  0  0  0  0  0  0  0
  151.3701  141.1717  158.9225 C   0  0  2  0  0  0  0  0  0  0  0  0
  152.4868  142.1549  159.3355 C   0  0  0  0  0  0  0  0  0  0  0  0
  153.5374  141.4818  160.2312 C   0  0  0  0  0  0  0  0  0  0  0  0
  154.1413  140.2480  159.5477 C   0  0  0  0  0  0  0  0  0  0  0  0
  153.0475  139.2500  159.1283 C   0  0  0  0  0  0  0  0  0  0  0  0
  151.9590  139.8975  158.2330 C   0  0  2  0  0  0  0  0  0  0  0  0
  152.5045  140.1981  156.9184 N   0  5  0  0  0  0  0  0  0  0  0  0
  151.8452  139.4664  155.9909 C   0  0  0  0  0  0  0  0  0  0  0  0
  152.0374  139.4751  154.7754 O   0  0  0  0  0  0  0  0  0  0  0  0
  150.9059  138.6902  156.5643 N   0  0  0  0  0  0  0  0  0  0  0  0
  149.9977  137.7966  155.8333 C   0  0  0  0  0  0  0  0  0  0  0  0
  150.4683  136.3362  155.8406 C   0  0  0  0  0  0  0  0  0  0  0  0
  151.6463  136.0553  156.0656 O   0  0  0  0  0  0  0  0  0  0  0  0
  149.5344  135.4142  155.5633 N   0  0  0  0  0  0  0  0  0  0  0  0
  149.7700  133.9753  155.5027 C   0  0  0  0  0  0  0  0  0  0  0  0
  149.5180  133.3967  154.0978 C   0  0  0  0  0  0  0  0  0  0  0  0
  149.3924  131.8831  154.0864 C   0  0  0  0  0  0  0  0  0  0  0  0
  150.3788  131.0675  154.6788 C   0  0  0  0  0  0  0  0  0  0  0  0
  150.2183  129.6691  154.6345 C   0  0  0  0  0  0  0  0  0  0  0  0
  149.0758  129.1449  153.9975 C   0  0  0  0  0  0  0  0  0  0  0  0
  148.1256  129.9162  153.4265 N   0  0  0  0  0  0  0  0  0  0  0  0
  148.2860  131.2560  153.4751 C   0  0  0  0  0  0  0  0  0  0  0  0
  150.8870  138.8723  157.8893 C   0  0  0  0  0  0  0  0  0  0  0  0
  150.1451  138.3321  158.7112 O   0  0  0  0  0  0  0  0  0  0  0  0
  150.6411  142.2765  157.1720 H   0  0  0  0  0  0  0  0  0  0  0  0
  149.8799  142.7505  158.6832 H   0  0  0  0  0  0  0  0  0  0  0  0
  149.4192  141.2462  157.9120 H   0  0  0  0  0  0  0  0  0  0  0  0
  150.8986  140.8400  159.8494 H   0  0  0  0  0  0  0  0  0  0  0  0
  152.9704  142.5622  158.4465 H   0  0  0  0  0  0  0  0  0  0  0  0
  152.0566  143.0057  159.8646 H   0  0  0  0  0  0  0  0  0  0  0  0
  154.3262  142.1933  160.4760 H   0  0  0  0  0  0  0  0  0  0  0  0
  153.0791  141.1894  161.1767 H   0  0  0  0  0  0  0  0  0  0  0  0
  154.7138  140.5575  158.6726 H   0  0  0  0  0  0  0  0  0  0  0  0
  154.8483  139.7609  160.2194 H   0  0  0  0  0  0  0  0  0  0  0  0
  153.5061  138.3976  158.6236 H   0  0  0  0  0  0  0  0  0  0  0  0
  152.5844  138.8480  160.0310 H   0  0  0  0  0  0  0  0  0  0  0  0
  148.9952  137.8669  156.2592 H   0  0  0  0  0  0  0  0  0  0  0  0
  149.9002  138.1185  154.7954 H   0  0  0  0  0  0  0  0  0  0  0  0
  148.5931  135.7322  155.3838 H   0  0  0  0  0  0  0  0  0  0  0  0
  150.7839  133.7433  155.8323 H   0  0  0  0  0  0  0  0  0  0  0  0
  149.0994  133.5007  156.2194 H   0  0  0  0  0  0  0  0  0  0  0  0
  148.6119  133.8336  153.6755 H   0  0  0  0  0  0  0  0  0  0  0  0
  150.3309  133.6864  153.4313 H   0  0  0  0  0  0  0  0  0  0  0  0
  151.2449  131.5035  155.1551 H   0  0  0  0  0  0  0  0  0  0  0  0
  150.9539  129.0136  155.0768 H   0  0  0  0  0  0  0  0  0  0  0  0
  148.9221  128.0774  153.9438 H   0  0  0  0  0  0  0  0  0  0  0  0
  147.5108  131.8454  153.0080 H   0  0  0  0  0  0  0  0  0  0  0  0
  1  2  1  0  0  0  0
  1 26  1  0  0  0  0
  1 27  1  0  0  0  0
  1 28  1  0  0  0  0
  2  7  1  0  0  0  0
  2  3  1  0  0  0  0
  2 29  1  0  0  0  0
  3  4  1  0  0  0  0
  3 30  1  0  0  0  0
  3 31  1  0  0  0  0
  4  5  1  0  0  0  0
  4 32  1  0  0  0  0
  4 33  1  0  0  0  0
  5  6  1  0  0  0  0
  5 34  1  0  0  0  0
  5 35  1  0  0  0  0
  6  7  1  0  0  0  0
  6 36  1  0  0  0  0
  6 37  1  0  0  0  0
  7 24  1  0  0  0  0
  7  8  1  0  0  0  0
  8  9  1  0  0  0  0
  9 10  2  0  0  0  0
  9 11  1  0  0  0  0
 11 12  1  0  0  0  0
 11 24  1  0  0  0  0
 12 13  1  0  0  0  0
 12 38  1  0  0  0  0
 12 39  1  0  0  0  0
 13 14  2  0  0  0  0
 13 15  1  0  0  0  0
 15 16  1  0  0  0  0
 15 40  1  0  0  0  0
 16 17  1  0  0  0  0
 16 41  1  0  0  0  0
 16 42  1  0  0  0  0
 17 18  1  0  0  0  0
 17 43  1  0  0  0  0
 17 44  1  0  0  0  0
 18 23  1  0  0  0  0
 18 19  2  0  0  0  0
 19 20  1  0  0  0  0
 19 45  1  0  0  0  0
 20 21  2  0  0  0  0
 20 46  1  0  0  0  0
 21 22  1  0  0  0  0
 21 47  1  0  0  0  0
 22 23  2  0  0  0  0
 23 48  1  0  0  0  0
 24 25  2  0  0  0  0
M  CHG  1   8  -1
M  END
> <s_m_source_file>
AV-unprocessed.smi

> <i_m_source_file_index>
837

> <i_lp_mmshare_version>
43012

> <i_f3d_flags>
0

> <s_epik_input>
W0NIMl0xW0NIMl1bQ0gyXVtDSDJdW0NAQEhdKFtDSDNdKVtDQEBdMTJbTkhdQyg9TylOKEMyPU8pW0NIMl1DKD1PKVtOSF1bQ0gyXVtDSDJdYzNbY0hdW2NIXVtjSF1uW2NIXTM=

> <s_epik_cmdline>
J2VwaWtfcHl0aG9uJywgJy1waCcsICc3LjAnLCAnLXRuJywgJzgnLCAnLW1hJywgJzIwMCcsICctbWV0YWxfYmluZGluZycsICctaW1hZScsICc8aW5maWxlLm1hZT4nLCAnLW9tYWUnLCAnPG91dGZpbGUubWFlPic=

> <r_lp_tautomer_probability>
1

> <r_epik_Ionization_Penalty>
6.03002

> <r_epik_Ionization_Penalty_Charging>
6.01728

> <r_epik_Ionization_Penalty_Neutral>
0.0127382

> <r_epik_State_Penalty>
6.02713

> <r_epik_Charging_Adjusted_Penalty>
12.0444

> <i_epik_Tot_Q>
-1

> <i_epik_Tot_abs_Q>
1

> <r_epik_Metal_State_Penalty>
1.99078

> <b_epik_Metal_Only>
1

> <s_lp_Force_Field>
OPLS_2005

> <r_lp_Energy>
20.4671

> <b_lp_Chiralities_Consistent>
1

> <s_lp_Variant>
AV-unprocessed.smi:837-9

> <Gold.Version>
5.8.1

> <Gold.Id.Protein>
6NUR|6NUR_protein|mol2

> <Gold.PLP.Fitness>
50.9499

> <Gold.PLP.PLP>
-40.6352

> <Gold.PLP.part.hbond>
-3.0000

> <Gold.PLP.part.metal>
0.0000

> <Gold.PLP.part.buried>
-4.9675

> <Gold.PLP.part.nonpolar>
-31.7876

> <Gold.PLP.part.repulsive>
0.1857

> <Gold.PLP.ligand.clash>
0.0000

> <Gold.PLP.ligand.torsion>
0.7214

> <Gold.PLP.Chemscore.Hbond>
3.9120

> <Gold.PLP.Chemscore.CHOScore>
0.0000

> <Gold.PLP.Chemscore.Metal>
0.0000

> <Gold.Chemscore.Hbonds>
donor molecule, donor type, donor heavy atom, donor atom, acceptor molecule, acceptor atom, score
      P1  H  7989  7998       L1    10  0.90
      P1  H  7997  8010       L1     8  2.00
      P1  H 10752 10763       L1    14  1.00

> <Gold.PLP.Chemscore.Internal.Correction>
0.0215

> <Gold.Rescore>
     Score         DG    S(hbond)    S(metal)    S(lipo)     H(rot)  DE(clash)    DE(int)     intcor
     19.51     -20.38       2.78        0.00      87.52       1.81       0.11       0.76       ----

> <Gold.Chemscore.Fitness>
19.5079

> <Gold.Chemscore.DG>
-20.3768

> <Gold.Chemscore.ZeroCoef>
-5.4800

> <Gold.Chemscore.Hbond>
2.7807

> <Gold.Chemscore.Metal>
0.0000

> <Gold.Chemscore.Lipo>
87.5227

> <Gold.Chemscore.Internal_Hbond>
0.0000

> <Gold.Chemscore.DEClash>
0.1110

> <Gold.Chemscore.DEInternal>
0.7580

> <Gold.Chemscore.Rot>
1.8090

> <Gold.Chemscore.Internal.Correction>
   9.000000E+99

> <Gold.Chemscore.Hbonds>
donor molecule, donor type, donor heavy atom, donor atom, acceptor molecule, acceptor atom, score
      P1  H  7989  7998       L1    10  0.88
      P1  H  7997  8010       L1     8  0.67
      P1  H 10752 10763       L1    14  1.00

> <Gold.Chemscore.Hbond.Weighted>
-9.2877

> <Gold.Chemscore.Metal.Weighted>
-0.0000

> <Gold.Chemscore.Lipo.Weighted>
-10.2402

> <Gold.Chemscore.Internal_Hbond.Weighted>
0.0000

> <Gold.Chemscore.DEClash.Weighted>
0.1110

> <Gold.Chemscore.DEInternal.Weighted>
0.7580

> <Gold.Chemscore.Rot.Weighted>
4.6310

> <Gold.Chemscore.Internal.Correction.Weighted>
   9.000000E+99

> <Gold.Protein.RotatedTorsions>
[ 6907 6896 6895 6894 ] final   58.02 input  -60.11 | X-H torsion
[ 7974 7965 7964 7962 ] final  -32.16 input  175.53 | X-H torsion
[ 8008 7997 7996 7995 ] final   63.62 input   59.86 | X-H torsion
[ 10167 10162 10161 10158 ] final  -97.34 input  -65.29 | X-H torsion
[ 10718 10713 10712 10709 ] final  136.71 input   66.30 | X-H torsion
[ 10763 10752 10751 10750 ] final   76.97 input  -60.55 | X-H torsion
[ 11005 11000 10999 10996 ] final -156.89 input  -57.11 | X-H torsion

> <Gold.Protein.ActiveResidues>
 VAL166  LYS551  ARG553  GLY616  TRP617  ASP618  TYR619  PRO620  LYS621  CYS622 
 ASP623  PHE694  ASN695  SER759  ASP760  ASP761  ALA762  ILE779  LEU786  VAL792 
 PHE793  MET794  SER795  GLU796  ALA797  LYS798  CYS799  TRP800  GLU811  SER814 

> <Gold.Protein.RotatedAtoms>
  152.3785  134.6626  160.0150 H   0  0  0  0  0  0  0  0  0  0  0  0  # atno 6907 bound_to 6896
  151.6897  133.3305  159.3248 H   0  0  0  0  0  0  0  0  0  0  0  0  # atno 6908 bound_to 6896
  150.7729  134.6645  159.6402 H   0  0  0  0  0  0  0  0  0  0  0  0  # atno 6909 bound_to 6896
  146.1011  140.5758  142.8820 H   0  0  0  0  0  0  0  0  0  0  0  0  # atno 7974 bound_to 7965
  155.6330  140.3496  155.4689 H   0  0  0  0  0  0  0  0  0  0  0  0  # atno 8008 bound_to 7997
  155.9987  140.1209  157.0592 H   0  0  0  0  0  0  0  0  0  0  0  0  # atno 8009 bound_to 7997
  154.4242  140.1105  156.5653 H   0  0  0  0  0  0  0  0  0  0  0  0  # atno 8010 bound_to 7997
  140.2844  143.3261  152.0409 H   0  0  0  0  0  0  0  0  0  0  0  0  # atno 10167 bound_to 10162
  157.4438  131.1060  151.0113 H   0  0  0  0  0  0  0  0  0  0  0  0  # atno 10718 bound_to 10713
  153.0764  135.4932  154.8412 H   0  0  0  0  0  0  0  0  0  0  0  0  # atno 10763 bound_to 10752
  154.7093  135.3016  154.9225 H   0  0  0  0  0  0  0  0  0  0  0  0  # atno 10764 bound_to 10752
  153.9924  135.6776  153.4808 H   0  0  0  0  0  0  0  0  0  0  0  0  # atno 10765 bound_to 10752
  140.6706  134.4251  157.5231 H   0  0  0  0  0  0  0  0  0  0  0  0  # atno 11005 bound_to 11000
  144.7434  140.5002  143.6853 LP  0  0  0  0  0  0  0  0  0  0  0  0  # atno 17320 bound_to 7965
  145.5852  139.1491  143.3213 LP  0  0  0  0  0  0  0  0  0  0  0  0  # atno 17321 bound_to 7965
  139.4954  144.6569  151.6552 LP  0  0  0  0  0  0  0  0  0  0  0  0  # atno 17342 bound_to 10162
  140.5785  143.9988  150.6255 LP  0  0  0  0  0  0  0  0  0  0  0  0  # atno 17343 bound_to 10162
  157.0966  130.5964  149.5451 LP  0  0  0  0  0  0  0  0  0  0  0  0  # atno 17370 bound_to 10713
  155.9959  130.5027  150.7477 LP  0  0  0  0  0  0  0  0  0  0  0  0  # atno 17371 bound_to 10713
  139.8983  134.8617  156.2008 LP  0  0  0  0  0  0  0  0  0  0  0  0  # atno 17394 bound_to 11000
  141.0395  133.6945  156.1572 LP  0  0  0  0  0  0  0  0  0  0  0  0  # atno 17395 bound_to 11000

$$$$
