AV-unprocessed.smi:1692|AV-procd|sdf|6781|dock6
  -GOLD-   22720 7543D 1   1.00000     0.00000
 Structure written by MMmdl.
 46 47  0  0  0  0  0  0  0  0  2 V2000
  144.9053  135.1147  151.0324 C   0  0  0  0  0  0  0  0  0  0  0  0
  145.8715  135.7168  152.0584 C   0  0  1  0  0  0  0  0  0  0  0  0
  145.9113  137.2533  151.9820 C   0  0  0  0  0  0  0  0  0  0  0  0
  146.7892  137.8031  153.0414 N   0  3  1  0  0  0  0  0  0  0  0  0
  146.9415  139.2761  152.9410 C   0  0  0  0  0  0  0  0  0  0  0  0
  147.8405  139.8559  154.0509 C   0  0  0  0  0  0  0  0  0  0  0  0
  148.5204  141.1859  153.6762 C   0  0  0  0  0  0  0  0  0  0  0  0
  148.9821  141.9314  154.8442 N   0  0  0  0  0  0  0  0  0  0  0  0
  150.0502  141.6183  155.5927 C   0  0  0  0  0  0  0  0  0  0  0  0
  150.7532  140.6281  155.3885 O   0  0  0  0  0  0  0  0  0  0  0  0
  150.2360  142.5150  156.5774 N   0  0  0  0  0  0  0  0  0  0  0  0
  151.2363  142.5152  157.5861 C   0  0  0  0  0  0  0  0  0  0  0  0
  151.6321  143.7951  158.0365 C   0  0  0  0  0  0  0  0  0  0  0  0
  152.6196  143.9036  159.0347 C   0  0  0  0  0  0  0  0  0  0  0  0
  153.1846  142.7277  159.5596 C   0  0  0  0  0  0  0  0  0  0  0  0
  152.7324  141.4933  159.0579 C   0  0  0  0  0  0  0  0  0  0  0  0
  151.7862  141.3871  158.1009 N   0  0  0  0  0  0  0  0  0  0  0  0
  146.3310  137.3428  154.3755 C   0  0  0  0  0  0  0  0  0  0  0  0
  146.2383  135.8050  154.4324 C   0  0  2  0  0  0  0  0  0  0  0  0
  147.6089  135.1080  154.5014 C   0  0  0  0  0  0  0  0  0  0  0  0
  145.4377  135.3178  153.3558 O   0  0  0  0  0  0  0  0  0  0  0  0
  145.1969  135.3788  150.0156 H   0  0  0  0  0  0  0  0  0  0  0  0
  143.8869  135.4702  151.1922 H   0  0  0  0  0  0  0  0  0  0  0  0
  144.8924  134.0267  151.1018 H   0  0  0  0  0  0  0  0  0  0  0  0
  146.8651  135.3140  151.8615 H   0  0  0  0  0  0  0  0  0  0  0  0
  146.2790  137.5585  151.0014 H   0  0  0  0  0  0  0  0  0  0  0  0
  144.9072  137.6672  152.0904 H   0  0  0  0  0  0  0  0  0  0  0  0
  147.3942  139.5080  151.9771 H   0  0  0  0  0  0  0  0  0  0  0  0
  145.9611  139.7548  152.9446 H   0  0  0  0  0  0  0  0  0  0  0  0
  147.2496  140.0302  154.9493 H   0  0  0  0  0  0  0  0  0  0  0  0
  148.6008  139.1241  154.3272 H   0  0  0  0  0  0  0  0  0  0  0  0
  149.3370  141.0122  152.9732 H   0  0  0  0  0  0  0  0  0  0  0  0
  147.8038  141.8182  153.1515 H   0  0  0  0  0  0  0  0  0  0  0  0
  148.4609  142.7615  155.0863 H   0  0  0  0  0  0  0  0  0  0  0  0
  149.5873  143.2872  156.6107 H   0  0  0  0  0  0  0  0  0  0  0  0
  151.1874  144.6885  157.6226 H   0  0  0  0  0  0  0  0  0  0  0  0
  152.9372  144.8723  159.3907 H   0  0  0  0  0  0  0  0  0  0  0  0
  153.9442  142.7703  160.3263 H   0  0  0  0  0  0  0  0  0  0  0  0
  153.1405  140.5669  159.4342 H   0  0  0  0  0  0  0  0  0  0  0  0
  146.9974  137.6964  155.1614 H   0  0  0  0  0  0  0  0  0  0  0  0
  145.3497  137.7738  154.5807 H   0  0  0  0  0  0  0  0  0  0  0  0
  145.7060  135.5397  155.3463 H   0  0  0  0  0  0  0  0  0  0  0  0
  148.1436  135.3978  155.4064 H   0  0  0  0  0  0  0  0  0  0  0  0
  148.2466  135.3608  153.6550 H   0  0  0  0  0  0  0  0  0  0  0  0
  147.4927  134.0241  154.5212 H   0  0  0  0  0  0  0  0  0  0  0  0
  147.7046  137.4059  152.8852 H   0  0  0  0  0  0  0  0  0  0  0  0
  1  2  1  0  0  0  0
  1 22  1  0  0  0  0
  1 23  1  0  0  0  0
  1 24  1  0  0  0  0
  2 21  1  0  0  0  0
  2  3  1  0  0  0  0
  2 25  1  0  0  0  0
  3  4  1  0  0  0  0
  3 26  1  0  0  0  0
  3 27  1  0  0  0  0
  4  5  1  0  0  0  0
  4 18  1  0  0  0  0
  4 46  1  0  0  0  0
  5  6  1  0  0  0  0
  5 28  1  0  0  0  0
  5 29  1  0  0  0  0
  6  7  1  0  0  0  0
  6 30  1  0  0  0  0
  6 31  1  0  0  0  0
  7  8  1  0  0  0  0
  7 32  1  0  0  0  0
  7 33  1  0  0  0  0
  8  9  1  0  0  0  0
  8 34  1  0  0  0  0
  9 10  2  0  0  0  0
  9 11  1  0  0  0  0
 11 12  1  0  0  0  0
 11 35  1  0  0  0  0
 12 17  1  0  0  0  0
 12 13  2  0  0  0  0
 13 14  1  0  0  0  0
 13 36  1  0  0  0  0
 14 15  2  0  0  0  0
 14 37  1  0  0  0  0
 15 16  1  0  0  0  0
 15 38  1  0  0  0  0
 16 17  2  0  0  0  0
 16 39  1  0  0  0  0
 18 19  1  0  0  0  0
 18 40  1  0  0  0  0
 18 41  1  0  0  0  0
 19 20  1  0  0  0  0
 19 21  1  0  0  0  0
 19 42  1  0  0  0  0
 20 43  1  0  0  0  0
 20 44  1  0  0  0  0
 20 45  1  0  0  0  0
M  CHG  1   4   1
M  END
> <s_m_source_file>
AV-unprocessed.smi

> <i_m_source_file_index>
1692

> <i_lp_mmshare_version>
43012

> <i_f3d_flags>
0

> <s_epik_input>
W0NIM11bQ0BASF0xW0NIMl1OKFtDSDJdW0NASF0oTzEpW0NIM10pW0NIMl1bQ0gyXVtDSDJdW05IXUMoPU8pW05IXWMyW2NIXVtjSF1bY0hdW2NIXW4y

> <s_epik_cmdline>
J2VwaWtfcHl0aG9uJywgJy1waCcsICc3LjAnLCAnLXRuJywgJzgnLCAnLW1hJywgJzIwMCcsICctbWV0YWxfYmluZGluZycsICctaW1hZScsICc8aW5maWxlLm1hZT4nLCAnLW9tYWUnLCAnPG91dGZpbGUubWFlPic=

> <r_epik_Ionization_Penalty>
0.270538

> <r_epik_Ionization_Penalty_Charging>
0.270496

> <r_epik_Ionization_Penalty_Neutral>
4.22978e-05

> <r_epik_State_Penalty>
0.262618

> <r_epik_Charging_Adjusted_Penalty>
0.533114

> <i_epik_Tot_Q>
1

> <i_epik_Tot_abs_Q>
1

> <r_epik_Metal_State_Penalty>
0.262618

> <b_epik_Metal_Only>
0

> <s_lp_Force_Field>
OPLS_2005

> <r_lp_Energy>
21.4343

> <b_lp_Chiralities_Consistent>
1

> <s_lp_Variant>
AV-unprocessed.smi:1692-4

> <Gold.Version>
5.8.1

> <Gold.Id.Protein>
6NUR|6NUR_protein|mol2

> <Gold.PLP.Fitness>
49.7829

> <Gold.PLP.PLP>
-36.6680

> <Gold.PLP.part.hbond>
-4.0000

> <Gold.PLP.part.metal>
0.0000

> <Gold.PLP.part.buried>
0.9377

> <Gold.PLP.part.nonpolar>
-32.5064

> <Gold.PLP.part.repulsive>
0.4428

> <Gold.PLP.ligand.clash>
0.0000

> <Gold.PLP.ligand.torsion>
0.5176

> <Gold.PLP.Chemscore.Hbond>
4.7042

> <Gold.PLP.Chemscore.CHOScore>
0.0000

> <Gold.PLP.Chemscore.Metal>
0.0000

> <Gold.Chemscore.Hbonds>
donor molecule, donor type, donor heavy atom, donor atom, acceptor molecule, acceptor atom, score
      L1  H     4    46       P1  7948  2.00
      L1  H     8    34       P1  8028  0.70
      L1  H    11    35       P1  8028  0.90
      P1  H  7989  7998       L1    10  0.77

> <Gold.PLP.Chemscore.Internal.Correction>
0.0377

> <Gold.Rescore>
     Score         DG    S(hbond)    S(metal)    S(lipo)     H(rot)  DE(clash)    DE(int)     intcor
     18.70     -22.10       3.10        0.00      92.43       1.78       1.78       1.61       ----

> <Gold.Chemscore.Fitness>
18.6987

> <Gold.Chemscore.DG>
-22.0951

> <Gold.Chemscore.ZeroCoef>
-5.4800

> <Gold.Chemscore.Hbond>
3.1022

> <Gold.Chemscore.Metal>
0.0000

> <Gold.Chemscore.Lipo>
92.4275

> <Gold.Chemscore.Internal_Hbond>
0.0000

> <Gold.Chemscore.DEClash>
1.7816

> <Gold.Chemscore.DEInternal>
1.6148

> <Gold.Chemscore.Rot>
1.7814

> <Gold.Chemscore.Internal.Correction>
   9.000000E+99

> <Gold.Chemscore.Hbonds>
donor molecule, donor type, donor heavy atom, donor atom, acceptor molecule, acceptor atom, score
      L1  H     4    46       P1  7948  0.92
      L1  H     8    34       P1  8028  0.66
      L1  H    11    35       P1  8028  0.88
      P1  H  7989  7998       L1    10  0.44

> <Gold.Chemscore.Hbond.Weighted>
-10.3614

> <Gold.Chemscore.Metal.Weighted>
-0.0000

> <Gold.Chemscore.Lipo.Weighted>
-10.8140

> <Gold.Chemscore.Internal_Hbond.Weighted>
0.0000

> <Gold.Chemscore.DEClash.Weighted>
1.7816

> <Gold.Chemscore.DEInternal.Weighted>
1.6148

> <Gold.Chemscore.Rot.Weighted>
4.5603

> <Gold.Chemscore.Internal.Correction.Weighted>
   9.000000E+99

> <Gold.Protein.RotatedTorsions>
[ 6907 6896 6895 6894 ] final   81.37 input  -60.11 | X-H torsion
[ 7974 7965 7964 7962 ] final  139.67 input  175.53 | X-H torsion
[ 8008 7997 7996 7995 ] final   18.30 input   59.86 | X-H torsion
[ 10167 10162 10161 10158 ] final -170.90 input  -65.29 | X-H torsion
[ 10718 10713 10712 10709 ] final  -50.89 input   66.30 | X-H torsion
[ 10763 10752 10751 10750 ] final   14.71 input  -60.55 | X-H torsion
[ 11005 11000 10999 10996 ] final   96.81 input  -57.11 | X-H torsion

> <Gold.Protein.ActiveResidues>
 VAL166  LYS551  ARG553  GLY616  TRP617  ASP618  TYR619  PRO620  LYS621  CYS622 
 ASP623  PHE694  ASN695  SER759  ASP760  ASP761  ALA762  ILE779  LEU786  VAL792 
 PHE793  MET794  SER795  GLU796  ALA797  LYS798  CYS799  TRP800  GLU811  SER814 

> <Gold.Protein.RotatedAtoms>
  152.5266  134.3215  159.9149 H   0  0  0  0  0  0  0  0  0  0  0  0  # atno 6907 bound_to 6896
  151.3164  133.4052  159.2658 H   0  0  0  0  0  0  0  0  0  0  0  0  # atno 6908 bound_to 6896
  150.9996  134.9328  159.8003 H   0  0  0  0  0  0  0  0  0  0  0  0  # atno 6909 bound_to 6896
  144.9257  139.5111  143.5642 H   0  0  0  0  0  0  0  0  0  0  0  0  # atno 7974 bound_to 7965
  154.9041  140.3004  155.5302 H   0  0  0  0  0  0  0  0  0  0  0  0  # atno 8008 bound_to 7997
  156.3017  140.2401  156.4007 H   0  0  0  0  0  0  0  0  0  0  0  0  # atno 8009 bound_to 7997
  154.8492  140.0410  157.1581 H   0  0  0  0  0  0  0  0  0  0  0  0  # atno 8010 bound_to 7997
  139.5834  144.1372  152.1544 H   0  0  0  0  0  0  0  0  0  0  0  0  # atno 10167 bound_to 10162
  156.1760  130.4150  149.9577 H   0  0  0  0  0  0  0  0  0  0  0  0  # atno 10718 bound_to 10713
  153.1595  135.6793  153.8763 H   0  0  0  0  0  0  0  0  0  0  0  0  # atno 10763 bound_to 10752
  153.8163  135.3136  155.3407 H   0  0  0  0  0  0  0  0  0  0  0  0  # atno 10764 bound_to 10752
  154.7922  135.4828  154.0167 H   0  0  0  0  0  0  0  0  0  0  0  0  # atno 10765 bound_to 10752
  139.8779  134.8969  156.4214 H   0  0  0  0  0  0  0  0  0  0  0  0  # atno 11005 bound_to 11000
  146.3225  139.8170  142.8934 LP  0  0  0  0  0  0  0  0  0  0  0  0  # atno 17320 bound_to 7965
  145.3223  141.0247  143.3493 LP  0  0  0  0  0  0  0  0  0  0  0  0  # atno 17321 bound_to 7965
  140.0931  144.5604  150.7041 LP  0  0  0  0  0  0  0  0  0  0  0  0  # atno 17342 bound_to 10162
  140.7109  143.2504  151.4583 LP  0  0  0  0  0  0  0  0  0  0  0  0  # atno 17343 bound_to 10162
  156.7363  130.9062  151.3629 LP  0  0  0  0  0  0  0  0  0  0  0  0  # atno 17370 bound_to 10713
  157.6835  130.9163  150.0328 LP  0  0  0  0  0  0  0  0  0  0  0  0  # atno 17371 bound_to 10713
  140.9131  133.7698  155.9815 LP  0  0  0  0  0  0  0  0  0  0  0  0  # atno 17394 bound_to 11000
  140.8524  134.2938  157.5269 LP  0  0  0  0  0  0  0  0  0  0  0  0  # atno 17395 bound_to 11000

$$$$
