AV-unprocessed.smi:39|AV-procd|sdf|352|dock1
  -GOLD-   2262016193D 1   1.00000     0.00000
 Structure written by MMmdl.
 32 33  0  0  0  0  0  0  0  0  3 V2000
  152.3209  142.5732  159.9429 C   0  0  0  0  0  0  0  0  0  0  0  0
  151.7835  142.0896  158.6060 C   0  0  0  0  0  0  0  0  0  0  0  0
  152.1731  140.9150  158.0467 C   0  0  0  0  0  0  0  0  0  0  0  0
  151.6982  140.4465  156.8267 N   0  0  0  0  0  0  0  0  0  0  0  0
  152.1549  139.1364  156.2140 C   0  0  2  0  0  0  0  0  0  0  0  0
  151.0277  138.0905  156.2589 C   0  0  0  0  0  0  0  0  0  0  0  0
  151.7109  136.8898  156.8903 C   0  0  2  0  0  0  0  0  0  0  0  0
  150.7600  136.0475  157.6222 N   0  0  0  0  0  0  0  0  0  0  0  0
  150.8474  134.8251  157.4464 N   0  3  0  0  0  0  0  0  0  0  0  0
  151.0497  133.7127  157.3152 N   0  5  0  0  0  0  0  0  0  0  0  0
  152.7435  137.5661  157.7959 C   0  0  1  0  0  0  0  0  0  0  0  0
  153.9198  136.6644  158.2013 C   0  0  0  0  0  0  0  0  0  0  0  0
  154.5406  136.1406  157.0472 O   0  0  0  0  0  0  0  0  0  0  0  0
  153.2183  138.6078  156.9498 O   0  0  0  0  0  0  0  0  0  0  0  0
  150.7708  141.2267  156.1055 C   0  0  0  0  0  0  0  0  0  0  0  0
  150.3174  140.8811  155.0149 O   0  0  0  0  0  0  0  0  0  0  0  0
  150.3705  142.4317  156.6792 N   0  0  0  0  0  0  0  0  0  0  0  0
  150.8138  142.9349  157.9039 C   0  0  0  0  0  0  0  0  0  0  0  0
  150.3851  144.0147  158.3080 O   0  0  0  0  0  0  0  0  0  0  0  0
  152.4996  139.3828  155.2079 H   0  0  0  0  0  0  0  0  0  0  0  0
  152.2231  136.3324  156.1022 H   0  0  0  0  0  0  0  0  0  0  0  0
  152.2464  137.9851  158.6734 H   0  0  0  0  0  0  0  0  0  0  0  0
  149.7041  142.9896  156.1654 H   0  0  0  0  0  0  0  0  0  0  0  0
  153.0195  141.8600  160.3817 H   0  0  0  0  0  0  0  0  0  0  0  0
  151.5051  142.7193  160.6519 H   0  0  0  0  0  0  0  0  0  0  0  0
  152.8441  143.5223  159.8219 H   0  0  0  0  0  0  0  0  0  0  0  0
  152.8935  140.3277  158.5955 H   0  0  0  0  0  0  0  0  0  0  0  0
  150.2093  138.4504  156.8854 H   0  0  0  0  0  0  0  0  0  0  0  0
  150.6427  137.8880  155.2591 H   0  0  0  0  0  0  0  0  0  0  0  0
  154.6732  137.2380  158.7404 H   0  0  0  0  0  0  0  0  0  0  0  0
  153.5946  135.8579  158.8593 H   0  0  0  0  0  0  0  0  0  0  0  0
  155.4291  135.9037  157.2647 H   0  0  0  0  0  0  0  0  0  0  0  0
  1  2  1  0  0  0  0
  1 24  1  0  0  0  0
  1 25  1  0  0  0  0
  1 26  1  0  0  0  0
  2 18  1  0  0  0  0
  2  3  2  0  0  0  0
  3  4  1  0  0  0  0
  3 27  1  0  0  0  0
  4  5  1  0  0  0  0
  4 15  1  0  0  0  0
  5 20  1  0  0  0  0
  5 14  1  0  0  0  0
  5  6  1  0  0  0  0
  6  7  1  0  0  0  0
  6 28  1  0  0  0  0
  6 29  1  0  0  0  0
  7 21  1  0  0  0  0
  7  8  1  0  0  0  0
  7 11  1  0  0  0  0
  8  9  2  0  0  0  0
  9 10  2  0  0  0  0
 11 22  1  0  0  0  0
 11 12  1  0  0  0  0
 11 14  1  0  0  0  0
 12 13  1  0  0  0  0
 12 30  1  0  0  0  0
 12 31  1  0  0  0  0
 13 32  1  0  0  0  0
 15 16  2  0  0  0  0
 15 17  1  0  0  0  0
 17 23  1  0  0  0  0
 17 18  1  0  0  0  0
 18 19  2  0  0  0  0
M  CHG  1   9   1
M  CHG  1  10  -1
M  END
> <s_m_source_file>
AV-unprocessed.smi

> <i_m_source_file_index>
39

> <i_lp_mmshare_version>
43012

> <i_f3d_flags>
0

> <s_epik_input>
Tz1jMVtuSF1jKD1PKW4oW2NIXWMxW0NIM10pW0NASF0yW0NIMl1bQ0BIXShOPVtOK109W04tXSlbQ0BIXShPMilbQ0gyXVtPSF0=

> <s_epik_cmdline>
J2VwaWtfcHl0aG9uJywgJy1waCcsICc3LjAnLCAnLXRuJywgJzgnLCAnLW1hJywgJzIwMCcsICctbWV0YWxfYmluZGluZycsICctaW1hZScsICc8aW5maWxlLm1hZT4nLCAnLW9tYWUnLCAnPG91dGZpbGUubWFlPic=

> <r_lp_tautomer_probability>
0.999537

> <r_epik_Ionization_Penalty>
0.00127512

> <r_epik_Ionization_Penalty_Charging>
0.00127507

> <r_epik_Ionization_Penalty_Neutral>
5.43433e-08

> <r_epik_State_Penalty>
0.000844892

> <r_epik_Charging_Adjusted_Penalty>
0.00211996

> <i_epik_Tot_Q>
0

> <i_epik_Tot_abs_Q>
2

> <r_epik_Metal_State_Penalty>
0.680636

> <b_epik_Metal_Only>
0

> <s_epik_Chemistry_Notes>
This compound contains an acetal/aminal-like group ( X-CH(R)-Y where X, Y are N, S, or O) that may be acid/base labile, releasing an aldehyde.

> <s_lp_Force_Field>
OPLS_2005

> <r_lp_Energy>
24.5803

> <b_lp_Chiralities_Consistent>
1

> <s_lp_Variant>
AV-unprocessed.smi:39-2

> <Gold.Version>
5.8.1

> <Gold.Id.Protein>
6NUR|6NUR_protein|mol2

> <Gold.PLP.Fitness>
38.9339

> <Gold.PLP.PLP>
-27.2614

> <Gold.PLP.part.hbond>
-6.7477

> <Gold.PLP.part.metal>
0.0000

> <Gold.PLP.part.buried>
-5.5504

> <Gold.PLP.part.nonpolar>
-16.0816

> <Gold.PLP.part.repulsive>
0.4896

> <Gold.PLP.ligand.clash>
0.0000

> <Gold.PLP.ligand.torsion>
0.3285

> <Gold.PLP.Chemscore.Hbond>
4.0963

> <Gold.PLP.Chemscore.CHOScore>
0.0000

> <Gold.PLP.Chemscore.Metal>
0.0000

> <Gold.Chemscore.Hbonds>
donor molecule, donor type, donor heavy atom, donor atom, acceptor molecule, acceptor atom, score
      L1  H    17    23       P1  8028  1.00
      P1  H  6896  6908       L1    10  0.36
      P1  H  7989  7998       L1    16  0.78
      P1  H  7997  8009       L1    14  0.80
      P1  H 10752 10763       L1    13  1.00

> <Gold.PLP.Chemscore.Internal.Correction>
0.0404

> <Gold.Rescore>
     Score         DG    S(hbond)    S(metal)    S(lipo)     H(rot)  DE(clash)    DE(int)     intcor
     10.77     -12.63       2.77        0.00      42.32       2.75       1.54       0.32       ----

> <Gold.Chemscore.Fitness>
10.7690

> <Gold.Chemscore.DG>
-12.6268

> <Gold.Chemscore.ZeroCoef>
-5.4800

> <Gold.Chemscore.Hbond>
2.7668

> <Gold.Chemscore.Metal>
0.0000

> <Gold.Chemscore.Lipo>
42.3240

> <Gold.Chemscore.Internal_Hbond>
0.0000

> <Gold.Chemscore.DEClash>
1.5415

> <Gold.Chemscore.DEInternal>
0.3163

> <Gold.Chemscore.Rot>
2.7524

> <Gold.Chemscore.Internal.Correction>
   9.000000E+99

> <Gold.Chemscore.Hbonds>
donor molecule, donor type, donor heavy atom, donor atom, acceptor molecule, acceptor atom, score
      L1  H    17    23       P1  8028  0.94
      P1  H  6896  6908       L1    10  0.04
      P1  H  7989  7998       L1    16  0.68
      P1  H  7997  8009       L1    14  0.12
      P1  H 10752 10763       L1    13  0.85

> <Gold.Chemscore.Hbond.Weighted>
-9.2410

> <Gold.Chemscore.Metal.Weighted>
-0.0000

> <Gold.Chemscore.Lipo.Weighted>
-4.9519

> <Gold.Chemscore.Internal_Hbond.Weighted>
0.0000

> <Gold.Chemscore.DEClash.Weighted>
1.5415

> <Gold.Chemscore.DEInternal.Weighted>
0.3163

> <Gold.Chemscore.Rot.Weighted>
7.0461

> <Gold.Chemscore.Internal.Correction.Weighted>
   9.000000E+99

> <Gold.Protein.RotatedTorsions>
[ 6907 6896 6895 6894 ] final   77.24 input  -60.11 | X-H torsion
[ 7974 7965 7964 7962 ] final -123.27 input  175.53 | X-H torsion
[ 8008 7997 7996 7995 ] final  178.90 input   59.86 | X-H torsion
[ 10167 10162 10161 10158 ] final   45.66 input  -65.29 | X-H torsion
[ 10718 10713 10712 10709 ] final  139.78 input   66.30 | X-H torsion
[ 10763 10752 10751 10750 ] final  137.10 input  -60.55 | X-H torsion
[ 11005 11000 10999 10996 ] final  116.55 input  -57.11 | X-H torsion

> <Gold.Protein.ActiveResidues>
 VAL166  LYS551  ARG553  GLY616  TRP617  ASP618  TYR619  PRO620  LYS621  CYS622 
 ASP623  PHE694  ASN695  SER759  ASP760  ASP761  ALA762  ILE779  LEU786  VAL792 
 PHE793  MET794  SER795  GLU796  ALA797  LYS798  CYS799  TRP800  GLU811  SER814 

> <Gold.Protein.RotatedAtoms>
  152.5109  134.3847  159.9363 H   0  0  0  0  0  0  0  0  0  0  0  0  # atno 6907 bound_to 6896
  151.3806  133.3816  159.2717 H   0  0  0  0  0  0  0  0  0  0  0  0  # atno 6908 bound_to 6896
  150.9508  134.8928  159.7729 H   0  0  0  0  0  0  0  0  0  0  0  0  # atno 6909 bound_to 6896
  145.0205  140.7983  143.4384 H   0  0  0  0  0  0  0  0  0  0  0  0  # atno 7974 bound_to 7965
  156.0494  140.1322  157.0067 H   0  0  0  0  0  0  0  0  0  0  0  0  # atno 8008 bound_to 7997
  154.4428  140.1014  156.6425 H   0  0  0  0  0  0  0  0  0  0  0  0  # atno 8009 bound_to 7997
  155.5546  140.3463  155.4479 H   0  0  0  0  0  0  0  0  0  0  0  0  # atno 8010 bound_to 7997
  140.3219  144.2695  150.6181 H   0  0  0  0  0  0  0  0  0  0  0  0  # atno 10167 bound_to 10162
  157.4106  131.1027  151.0458 H   0  0  0  0  0  0  0  0  0  0  0  0  # atno 10718 bound_to 10713
  153.8675  135.3060  155.3440 H   0  0  0  0  0  0  0  0  0  0  0  0  # atno 10763 bound_to 10752
  154.7821  135.4830  153.9870 H   0  0  0  0  0  0  0  0  0  0  0  0  # atno 10764 bound_to 10752
  153.1426  135.6827  153.9099 H   0  0  0  0  0  0  0  0  0  0  0  0  # atno 10765 bound_to 10752
  139.9045  134.9599  156.7216 H   0  0  0  0  0  0  0  0  0  0  0  0  # atno 11005 bound_to 11000
  145.1902  139.2305  143.5246 LP  0  0  0  0  0  0  0  0  0  0  0  0  # atno 17320 bound_to 7965
  146.3484  140.1697  142.8590 LP  0  0  0  0  0  0  0  0  0  0  0  0  # atno 17321 bound_to 7965
  140.5476  143.2212  151.7982 LP  0  0  0  0  0  0  0  0  0  0  0  0  # atno 17342 bound_to 10162
  139.4872  144.4519  151.9643 LP  0  0  0  0  0  0  0  0  0  0  0  0  # atno 17343 bound_to 10162
  157.1424  130.6149  149.5559 LP  0  0  0  0  0  0  0  0  0  0  0  0  # atno 17370 bound_to 10713
  155.9849  130.4877  150.7007 LP  0  0  0  0  0  0  0  0  0  0  0  0  # atno 17371 bound_to 10713
  140.6996  133.9318  155.8016 LP  0  0  0  0  0  0  0  0  0  0  0  0  # atno 17394 bound_to 11000
  141.0381  134.0660  157.3935 LP  0  0  0  0  0  0  0  0  0  0  0  0  # atno 17395 bound_to 11000

$$$$
