#       Name:                AV-unprocessed.smi:1513
#       Creating user name   scv26
#       Creation time:       Fri Mar 27 06:24:41 2020


#       File generated by GOLD software.
#

@<TRIPOS>MOLECULE
AV-unprocessed.smi:1513
    38    39     1
SMALL
NO_CHARGES


@<TRIPOS>ATOM
      1 ****        -3.6519   2.0019  -0.9663 N.pl3          1 S1                -1.0000
      2 ****        -2.1517   2.5976  -0.9777 S.o2           1 S1                 0.0000
      3 ****        -2.0265   3.6984  -1.9476 O.2            1 S1                 0.0000
      4 ****        -1.7039   2.8996   0.3916 O.2            1 S1                 0.0000
      5 ****        -1.4806   1.2314  -1.5376 N.pl3          1 S1                -1.0000
      6 ****        -0.0427   1.1659  -1.7436 C.3            1 S1                 0.0000
      7 ****         0.4728  -0.2791  -1.6630 C.ar           1 S1                 0.0000
      8 ****         0.6734  -0.9849  -2.8739 C.ar           1 S1                 0.0000
      9 ****         1.1587  -2.3044  -2.8410 C.ar           1 S1                 0.0000
     10 ****         1.4304  -2.8818  -1.5904 C.ar           1 S1                 0.0000
     11 ****         1.2462  -2.2338  -0.4239 N.ar           1 S1                 0.0000
     12 ****         0.7758  -0.9604  -0.4383 C.ar           1 S1                 0.0000
     13 ****         0.5834  -0.3744   0.8320 N.3            1 S1                 0.0000
     14 ****        -0.7046  -0.7022   1.4306 C.3            1 S1                 0.0000
     15 ****        -0.9272   0.1461   2.6945 C.3            1 S1                 0.0000
     16 ****         0.1637  -0.0362   3.5942 O.3            1 S1                 0.0000
     17 ****         1.4028   0.3680   3.0174 C.3            1 S1                 0.0000
     18 ****         1.6919  -0.4866   1.7717 C.3            1 S1                 0.0000
     19 ****        -4.1368   2.3389  -1.8062 H              1 S1                 0.0000
     20 ****         0.2441   1.5880  -2.7078 H              1 S1                 0.0000
     21 ****         0.5066   1.7497  -1.0041 H              1 S1                 0.0000
     22 ****         0.4635  -0.5360  -3.8356 H              1 S1                 0.0000
     23 ****         1.3181  -2.8583  -3.7540 H              1 S1                 0.0000
     24 ****         1.8050  -3.8924  -1.5240 H              1 S1                 0.0000
     25 ****        -1.5101  -0.5252   0.7172 H              1 S1                 0.0000
     26 ****        -0.7263  -1.7632   1.6825 H              1 S1                 0.0000
     27 ****        -1.0293   1.2021   2.4408 H              1 S1                 0.0000
     28 ****        -1.8513  -0.1525   3.1888 H              1 S1                 0.0000
     29 ****         1.3683   1.4287   2.7623 H              1 S1                 0.0000
     30 ****         2.1965   0.2418   3.7537 H              1 S1                 0.0000
     31 ****         1.8279  -1.5283   2.0647 H              1 S1                 0.0000
     32 ****         2.6152  -0.1572   1.2937 H              1 S1                 0.0000
     33 ****        -4.0416   1.4074  -0.2629 LP             1 S1                 0.0000
     34 ****        -2.0535   0.4372  -1.7404 LP             1 S1                 0.0000
     35 ****         1.4537  -2.6860   0.4435 LP             1 S1                 0.0000
     36 ****         0.5654   0.6026   0.6196 LP             1 S1                 0.0000
     37 ****         0.2219  -1.0039   3.8396 LP             1 S1                 0.0000
     38 ****        -0.0021   0.5070   4.4173 LP             1 S1                 0.0000
@<TRIPOS>BOND
    1    1    2 1     
    2    1   19 1     
    3    2    3 2     
    4    2    4 2     
    5    2    5 1     
    6    5    6 1     
    7    6    7 1     
    8    6   20 1     
    9    6   21 1     
   10    7   12 ar    
   11    7    8 ar    
   12    8    9 ar    
   13    8   22 1     
   14    9   10 ar    
   15    9   23 1     
   16   10   11 ar    
   17   10   24 1     
   18   11   12 ar    
   19   12   13 1     
   20   13   18 1     
   21   13   14 1     
   22   14   15 1     
   23   14   25 1     
   24   14   26 1     
   25   15   16 1     
   26   15   27 1     
   27   15   28 1     
   28   16   17 1     
   29   17   18 1     
   30   17   29 1     
   31   17   30 1     
   32   18   31 1     
   33   18   32 1     
   34    1   33 1     
   35    5   34 1     
   36   11   35 1     
   37   13   36 1     
   38   16   37 1     
   39   16   38 1     
@<TRIPOS>SUBSTRUCTURE
      1 S1             1
@<TRIPOS>SET
LONE_PAIRS      STATIC     ATOMS    <user>   **** ""
8 33 3 4 34 35 36 37 38
DONOR_HYDROGENS      STATIC     ATOMS    <user>   **** ""
1 19
ATOM$BLUE        STATIC     ATOMS    COLORGROUP SYSTEM
8 33 3 4 34 35 36 37 38
ATOM$RED        STATIC     ATOMS    COLORGROUP SYSTEM
1 19
