AV-unprocessed.smi:1824|AV-procd|sdf|7412|dock2
  -GOLD-   22720 9 83D 1   1.00000     0.00000
 Structure written by MMmdl.
 45 47  0  0  0  0  0  0  0  0  2 V2000
  155.2578  138.4938  162.4764 C   0  0  0  0  0  0  0  0  0  0  0  0
  155.0806  137.5650  161.2708 C   0  0  1  0  0  0  0  0  0  0  0  0
  153.8519  137.9422  160.4237 C   0  0  0  0  0  0  0  0  0  0  0  0
  153.7323  137.1081  159.2344 N   0  0  0  0  0  0  0  0  0  0  0  0
  152.5301  137.4506  158.4728 C   0  0  0  0  0  0  0  0  0  0  0  0
  152.4271  138.9237  158.0294 C   0  0  1  0  0  0  0  0  0  0  0  0
  153.2114  139.0947  156.8655 O   0  0  0  0  0  0  0  0  0  0  0  0
  150.9699  139.3241  157.7300 C   0  0  0  0  0  0  0  0  0  0  0  0
  150.8045  140.7733  157.5461 N   0  0  0  0  0  0  0  0  0  0  0  0
  150.1943  141.4544  156.5386 C   0  0  0  0  0  0  0  0  0  0  0  0
  150.3030  142.7833  156.8150 N   0  3  0  0  0  0  0  0  0  0  0  0
  150.9920  142.9547  158.0177 C   0  0  0  0  0  0  0  0  0  0  0  0
  151.3475  144.1095  158.7068 C   0  0  0  0  0  0  0  0  0  0  0  0
  152.0496  143.9359  159.9176 C   0  0  0  0  0  0  0  0  0  0  0  0
  152.4210  145.0272  160.6281 F   0  0  0  0  0  0  0  0  0  0  0  0
  152.3702  142.6503  160.4022 C   0  0  0  0  0  0  0  0  0  0  0  0
  153.0431  142.5285  161.5709 F   0  0  0  0  0  0  0  0  0  0  0  0
  152.0045  141.4865  159.6940 C   0  0  0  0  0  0  0  0  0  0  0  0
  151.3146  141.6671  158.4956 C   0  0  0  0  0  0  0  0  0  0  0  0
  154.9572  137.2358  158.4457 C   0  0  0  0  0  0  0  0  0  0  0  0
  156.2242  136.8971  159.2564 C   0  0  2  0  0  0  0  0  0  0  0  0
  156.3905  135.3909  159.5201 C   0  0  0  0  0  0  0  0  0  0  0  0
  156.2554  137.6546  160.4670 O   0  0  0  0  0  0  0  0  0  0  0  0
  154.3895  138.4529  163.1345 H   0  0  0  0  0  0  0  0  0  0  0  0
  155.3911  139.5290  162.1612 H   0  0  0  0  0  0  0  0  0  0  0  0
  156.1322  138.2087  163.0618 H   0  0  0  0  0  0  0  0  0  0  0  0
  154.9704  136.5443  161.6383 H   0  0  0  0  0  0  0  0  0  0  0  0
  152.9541  137.8431  161.0349 H   0  0  0  0  0  0  0  0  0  0  0  0
  153.9159  138.9923  160.1332 H   0  0  0  0  0  0  0  0  0  0  0  0
  152.4782  136.8272  157.5787 H   0  0  0  0  0  0  0  0  0  0  0  0
  151.6506  137.1895  159.0634 H   0  0  0  0  0  0  0  0  0  0  0  0
  152.8105  139.5897  158.8011 H   0  0  0  0  0  0  0  0  0  0  0  0
  152.8213  138.5872  156.1695 H   0  0  0  0  0  0  0  0  0  0  0  0
  150.5845  138.8003  156.8550 H   0  0  0  0  0  0  0  0  0  0  0  0
  150.3293  139.0348  158.5639 H   0  0  0  0  0  0  0  0  0  0  0  0
  149.7109  141.0191  155.6757 H   0  0  0  0  0  0  0  0  0  0  0  0
  151.1022  145.0956  158.3410 H   0  0  0  0  0  0  0  0  0  0  0  0
  152.2502  140.5082  160.0788 H   0  0  0  0  0  0  0  0  0  0  0  0
  154.9228  136.5919  157.5684 H   0  0  0  0  0  0  0  0  0  0  0  0
  155.0415  138.2578  158.0730 H   0  0  0  0  0  0  0  0  0  0  0  0
  157.0896  137.2152  158.6747 H   0  0  0  0  0  0  0  0  0  0  0  0
  156.4870  134.8423  158.5830 H   0  0  0  0  0  0  0  0  0  0  0  0
  155.5388  134.9719  160.0555 H   0  0  0  0  0  0  0  0  0  0  0  0
  157.2858  135.1959  160.1105 H   0  0  0  0  0  0  0  0  0  0  0  0
  149.9323  143.5168  156.2243 H   0  0  0  0  0  0  0  0  0  0  0  0
  1  2  1  0  0  0  0
  1 24  1  0  0  0  0
  1 25  1  0  0  0  0
  1 26  1  0  0  0  0
  2 23  1  0  0  0  0
  2  3  1  0  0  0  0
  2 27  1  0  0  0  0
  3  4  1  0  0  0  0
  3 28  1  0  0  0  0
  3 29  1  0  0  0  0
  4  5  1  0  0  0  0
  4 20  1  0  0  0  0
  5  6  1  0  0  0  0
  5 30  1  0  0  0  0
  5 31  1  0  0  0  0
  6  7  1  0  0  0  0
  6  8  1  0  0  0  0
  6 32  1  0  0  0  0
  7 33  1  0  0  0  0
  8  9  1  0  0  0  0
  8 34  1  0  0  0  0
  8 35  1  0  0  0  0
  9 19  1  0  0  0  0
  9 10  1  0  0  0  0
 10 11  2  0  0  0  0
 10 36  1  0  0  0  0
 11 12  1  0  0  0  0
 11 45  1  0  0  0  0
 12 19  2  0  0  0  0
 12 13  1  0  0  0  0
 13 14  2  0  0  0  0
 13 37  1  0  0  0  0
 14 15  1  0  0  0  0
 14 16  1  0  0  0  0
 16 17  1  0  0  0  0
 16 18  2  0  0  0  0
 18 19  1  0  0  0  0
 18 38  1  0  0  0  0
 20 21  1  0  0  0  0
 20 39  1  0  0  0  0
 20 40  1  0  0  0  0
 21 22  1  0  0  0  0
 21 23  1  0  0  0  0
 21 41  1  0  0  0  0
 22 42  1  0  0  0  0
 22 43  1  0  0  0  0
 22 44  1  0  0  0  0
M  CHG  1  11   1
M  END
> <s_m_source_file>
AV-unprocessed.smi

> <i_m_source_file_index>
1824

> <i_lp_mmshare_version>
43012

> <i_f3d_flags>
0

> <s_epik_input>
W0NIM11bQ0BASF0xW0NIMl1OKFtDSDJdW0NASF0oTzEpW0NIM10pW0NIMl1bQ0BIXShbT0hdKVtDSDJdbihbY0hdbjIpYyhjMjMpW2NIXWMoRiljKEYpW2NIXTM=

> <s_epik_cmdline>
J2VwaWtfcHl0aG9uJywgJy1waCcsICc3LjAnLCAnLXRuJywgJzgnLCAnLW1hJywgJzIwMCcsICctbWV0YWxfYmluZGluZycsICctaW1hZScsICc8aW5maWxlLm1hZT4nLCAnLW9tYWUnLCAnPG91dGZpbGUubWFlPic=

> <r_epik_Ionization_Penalty>
2.58709

> <r_epik_Ionization_Penalty_Charging>
2.37273

> <r_epik_Ionization_Penalty_Neutral>
0.214359

> <r_epik_State_Penalty>
2.71799

> <r_epik_Charging_Adjusted_Penalty>
5.09071

> <i_epik_Tot_Q>
1

> <i_epik_Tot_abs_Q>
1

> <r_epik_Metal_State_Penalty>
6.80217

> <b_epik_Metal_Only>
0

> <s_lp_Force_Field>
OPLS_2005

> <r_lp_Energy>
35.189

> <b_lp_Chiralities_Consistent>
1

> <s_lp_Variant>
AV-unprocessed.smi:1824-20

> <Gold.Version>
5.8.1

> <Gold.Id.Protein>
6NUR|6NUR_protein|mol2

> <Gold.PLP.Fitness>
47.3528

> <Gold.PLP.PLP>
-39.3397

> <Gold.PLP.part.hbond>
-1.9688

> <Gold.PLP.part.metal>
0.0000

> <Gold.PLP.part.buried>
-6.7192

> <Gold.PLP.part.nonpolar>
-31.7660

> <Gold.PLP.part.repulsive>
0.0622

> <Gold.PLP.ligand.clash>
0.0000

> <Gold.PLP.ligand.torsion>
0.3575

> <Gold.PLP.Chemscore.Hbond>
2.8880

> <Gold.PLP.Chemscore.CHOScore>
0.0000

> <Gold.PLP.Chemscore.Metal>
0.0000

> <Gold.Chemscore.Hbonds>
donor molecule, donor type, donor heavy atom, donor atom, acceptor molecule, acceptor atom, score
      L1  H    11    45       P1  8028  2.00
      P1  H  7997  8008       L1     7  1.00

> <Gold.PLP.Chemscore.Internal.Correction>
0.0641

> <Gold.Rescore>
     Score         DG    S(hbond)    S(metal)    S(lipo)     H(rot)  DE(clash)    DE(int)     intcor
     16.10     -16.54       1.95        0.00      89.78       2.32       0.01       0.44       ----

> <Gold.Chemscore.Fitness>
16.0983

> <Gold.Chemscore.DG>
-16.5426

> <Gold.Chemscore.ZeroCoef>
-5.4800

> <Gold.Chemscore.Hbond>
1.9462

> <Gold.Chemscore.Metal>
0.0000

> <Gold.Chemscore.Lipo>
89.7768

> <Gold.Chemscore.Internal_Hbond>
0.0000

> <Gold.Chemscore.DEClash>
0.0074

> <Gold.Chemscore.DEInternal>
0.4369

> <Gold.Chemscore.Rot>
2.3210

> <Gold.Chemscore.Internal.Correction>
   9.000000E+99

> <Gold.Chemscore.Hbonds>
donor molecule, donor type, donor heavy atom, donor atom, acceptor molecule, acceptor atom, score
      L1  H    11    45       P1  8028  1.00
      P1  H  7997  8008       L1     7  0.95

> <Gold.Chemscore.Hbond.Weighted>
-6.5004

> <Gold.Chemscore.Metal.Weighted>
-0.0000

> <Gold.Chemscore.Lipo.Weighted>
-10.5039

> <Gold.Chemscore.Internal_Hbond.Weighted>
0.0000

> <Gold.Chemscore.DEClash.Weighted>
0.0074

> <Gold.Chemscore.DEInternal.Weighted>
0.4369

> <Gold.Chemscore.Rot.Weighted>
5.9416

> <Gold.Chemscore.Internal.Correction.Weighted>
   9.000000E+99

> <Gold.Protein.RotatedTorsions>
[ 6907 6896 6895 6894 ] final -170.86 input  -60.11 | X-H torsion
[ 7974 7965 7964 7962 ] final   65.39 input  175.53 | X-H torsion
[ 8008 7997 7996 7995 ] final  -70.78 input   59.86 | X-H torsion
[ 10167 10162 10161 10158 ] final   92.80 input  -65.29 | X-H torsion
[ 10718 10713 10712 10709 ] final -140.95 input   66.30 | X-H torsion
[ 10763 10752 10751 10750 ] final  -41.37 input  -60.55 | X-H torsion
[ 11005 11000 10999 10996 ] final -153.34 input  -57.11 | X-H torsion

> <Gold.Protein.ActiveResidues>
 VAL166  LYS551  ARG553  GLY616  TRP617  ASP618  TYR619  PRO620  LYS621  CYS622 
 ASP623  PHE694  ASN695  SER759  ASP760  ASP761  ALA762  ILE779  LEU786  VAL792 
 PHE793  MET794  SER795  GLU796  ALA797  LYS798  CYS799  TRP800  GLU811  SER814 

> <Gold.Protein.RotatedAtoms>
  151.5145  133.3478  159.2890 H   0  0  0  0  0  0  0  0  0  0  0  0  # atno 6907 bound_to 6896
  150.8691  134.8063  159.7152 H   0  0  0  0  0  0  0  0  0  0  0  0  # atno 6908 bound_to 6896
  152.4685  134.5026  159.9781 H   0  0  0  0  0  0  0  0  0  0  0  0  # atno 6909 bound_to 6896
  145.8390  139.3184  143.0942 H   0  0  0  0  0  0  0  0  0  0  0  0  # atno 7974 bound_to 7965
  154.5038  140.0828  156.7852 H   0  0  0  0  0  0  0  0  0  0  0  0  # atno 8008 bound_to 7997
  155.3941  140.3434  155.4235 H   0  0  0  0  0  0  0  0  0  0  0  0  # atno 8009 bound_to 7997
  156.1490  140.1552  156.8788 H   0  0  0  0  0  0  0  0  0  0  0  0  # atno 8010 bound_to 7997
  139.8242  144.6717  150.9481 H   0  0  0  0  0  0  0  0  0  0  0  0  # atno 10167 bound_to 10162
  156.3283  130.7572  151.1685 H   0  0  0  0  0  0  0  0  0  0  0  0  # atno 10718 bound_to 10713
  153.9614  135.6739  153.4745 H   0  0  0  0  0  0  0  0  0  0  0  0  # atno 10763 bound_to 10752
  153.0836  135.4910  154.8550 H   0  0  0  0  0  0  0  0  0  0  0  0  # atno 10764 bound_to 10752
  154.7270  135.3130  154.8914 H   0  0  0  0  0  0  0  0  0  0  0  0  # atno 10765 bound_to 10752
  140.7092  134.3852  157.5200 H   0  0  0  0  0  0  0  0  0  0  0  0  # atno 11005 bound_to 11000
  145.9486  140.8926  143.0271 LP  0  0  0  0  0  0  0  0  0  0  0  0  # atno 17320 bound_to 7965
  144.6734  140.1648  143.7419 LP  0  0  0  0  0  0  0  0  0  0  0  0  # atno 17321 bound_to 7965
  140.7811  143.4063  151.1066 LP  0  0  0  0  0  0  0  0  0  0  0  0  # atno 17342 bound_to 10162
  139.7721  143.8479  152.3122 LP  0  0  0  0  0  0  0  0  0  0  0  0  # atno 17343 bound_to 10162
  157.7425  131.0488  150.5015 LP  0  0  0  0  0  0  0  0  0  0  0  0  # atno 17370 bound_to 10713
  156.5177  130.4154  149.6267 LP  0  0  0  0  0  0  0  0  0  0  0  0  # atno 17371 bound_to 10713
  139.8876  134.8878  156.2519 LP  0  0  0  0  0  0  0  0  0  0  0  0  # atno 17394 bound_to 11000
  141.0099  133.7102  156.1094 LP  0  0  0  0  0  0  0  0  0  0  0  0  # atno 17395 bound_to 11000

$$$$
