AV-unprocessed.smi:2655|AV-procd|sdf|10303|dock2
  -GOLD-   2272014313D 1   1.00000     0.00000
 Structure written by MMmdl.
 33 34  0  0  0  0  0  0  0  0  2 V2000
  149.3186  141.1499  154.7228 C   0  0  0  0  0  0  0  0  0  0  0  0
  150.1700  139.9120  154.5409 C   0  0  0  0  0  0  0  0  0  0  0  0
  149.9504  139.0401  153.5139 N   0  0  0  0  0  0  0  0  0  0  0  0
  150.8244  137.9901  153.6401 N   0  0  0  0  0  0  0  0  0  0  0  0
  151.6189  138.1839  154.7054 C   0  0  0  0  0  0  0  0  0  0  0  0
  152.5145  137.4310  155.0820 O   0  0  0  0  0  0  0  0  0  0  0  0
  151.1813  139.4482  155.2872 C   0  0  0  0  0  0  0  0  0  0  0  0
  151.7641  140.0453  156.5542 C   0  0  0  0  0  0  0  0  0  0  0  0
  152.2811  138.9653  157.5184 C   0  0  0  0  0  0  0  0  0  0  0  0
  151.2584  137.9639  157.7987 N   0  0  0  0  0  0  0  0  0  0  0  0
  150.9508  137.4739  159.0084 C   0  0  0  0  0  0  0  0  0  0  0  0
  151.5550  137.8749  160.0061 O   0  0  0  0  0  0  0  0  0  0  0  0
  149.9644  136.5477  158.9866 N   0  5  0  0  0  0  0  0  0  0  0  0
  148.8369  136.7463  159.6865 C   0  0  0  0  0  0  0  0  0  0  0  0
  148.3405  135.9138  160.7269 C   0  0  0  0  0  0  0  0  0  0  0  0
  147.1808  136.5338  161.0966 C   0  0  0  0  0  0  0  0  0  0  0  0
  146.1505  136.2212  162.1273 C   0  0  0  0  0  0  0  0  0  0  0  0
  146.9776  137.6452  160.3390 O   0  0  0  0  0  0  0  0  0  0  0  0
  148.0391  137.7708  159.4349 N   0  0  0  0  0  0  0  0  0  0  0  0
  149.9456  142.0418  154.7148 H   0  0  0  0  0  0  0  0  0  0  0  0
  148.7906  141.1083  155.6755 H   0  0  0  0  0  0  0  0  0  0  0  0
  148.5815  141.2404  153.9244 H   0  0  0  0  0  0  0  0  0  0  0  0
  150.8082  137.2359  152.9689 H   0  0  0  0  0  0  0  0  0  0  0  0
  151.0007  140.6574  157.0362 H   0  0  0  0  0  0  0  0  0  0  0  0
  152.5783  140.7202  156.2885 H   0  0  0  0  0  0  0  0  0  0  0  0
  153.1761  138.4849  157.1188 H   0  0  0  0  0  0  0  0  0  0  0  0
  152.5714  139.4228  158.4646 H   0  0  0  0  0  0  0  0  0  0  0  0
  150.7377  137.6097  157.0098 H   0  0  0  0  0  0  0  0  0  0  0  0
  148.7696  135.0121  161.1371 H   0  0  0  0  0  0  0  0  0  0  0  0
  145.6436  135.2852  161.8933 H   0  0  0  0  0  0  0  0  0  0  0  0
  145.3980  137.0080  162.1833 H   0  0  0  0  0  0  0  0  0  0  0  0
  146.6084  136.1219  163.1115 H   0  0  0  0  0  0  0  0  0  0  0  0
  149.1692  139.0266  152.8740 H   0  0  0  0  0  0  0  0  0  0  0  0
  1 20  1  0  0  0  0
  1 21  1  0  0  0  0
  1 22  1  0  0  0  0
  1  2  1  0  0  0  0
  2  7  2  0  0  0  0
  2  3  1  0  0  0  0
  3  4  1  0  0  0  0
  3 33  1  0  0  0  0
  4 23  1  0  0  0  0
  4  5  1  0  0  0  0
  5  7  1  0  0  0  0
  5  6  2  0  0  0  0
  7  8  1  0  0  0  0
  8  9  1  0  0  0  0
  8 24  1  0  0  0  0
  8 25  1  0  0  0  0
  9 10  1  0  0  0  0
  9 26  1  0  0  0  0
  9 27  1  0  0  0  0
 10 11  1  0  0  0  0
 10 28  1  0  0  0  0
 11 12  2  0  0  0  0
 11 13  1  0  0  0  0
 13 14  1  0  0  0  0
 14 19  2  0  0  0  0
 14 15  1  0  0  0  0
 15 16  2  0  0  0  0
 15 29  1  0  0  0  0
 16 17  1  0  0  0  0
 16 18  1  0  0  0  0
 17 30  1  0  0  0  0
 17 31  1  0  0  0  0
 17 32  1  0  0  0  0
 18 19  1  0  0  0  0
M  CHG  1  13  -1
M  END
> <s_m_source_file>
AV-unprocessed.smi

> <i_m_source_file_index>
2655

> <i_lp_mmshare_version>
43012

> <i_f3d_flags>
0

> <s_epik_input>
W0NIM11DMT1OW05IXUMoPU8pW0NASF0xW0NIMl1bQ0gyXVtOSF1DKD1PKVtOSF1jMltjSF1jKFtDSDNdKW9uMg==

> <s_epik_cmdline>
J2VwaWtfcHl0aG9uJywgJy1waCcsICc3LjAnLCAnLXRuJywgJzgnLCAnLW1hJywgJzIwMCcsICctbWV0YWxfYmluZGluZycsICctaW1hZScsICc8aW5maWxlLm1hZT4nLCAnLW9tYWUnLCAnPG91dGZpbGUubWFlPic=

> <r_lp_tautomer_probability>
0.00220696

> <r_epik_Ionization_Penalty>
6.47655

> <r_epik_Ionization_Penalty_Charging>
6.44485

> <r_epik_Ionization_Penalty_Neutral>
0.0316949

> <r_epik_State_Penalty>
7.07162

> <r_epik_Charging_Adjusted_Penalty>
13.5165

> <i_epik_Tot_Q>
-1

> <i_epik_Tot_abs_Q>
1

> <r_epik_Metal_State_Penalty>
4.39363

> <b_epik_Metal_Only>
1

> <s_lp_Force_Field>
OPLS_2005

> <r_lp_Energy>
11.561

> <b_lp_Chiralities_Consistent>
1

> <s_lp_Variant>
AV-unprocessed.smi:2655-6

> <Gold.Version>
5.8.1

> <Gold.Id.Protein>
6NUR|6NUR_protein|mol2

> <Gold.PLP.Fitness>
41.6270

> <Gold.PLP.PLP>
-31.9027

> <Gold.PLP.part.hbond>
-9.0727

> <Gold.PLP.part.metal>
0.0000

> <Gold.PLP.part.buried>
-0.4434

> <Gold.PLP.part.nonpolar>
-23.1449

> <Gold.PLP.part.repulsive>
0.2931

> <Gold.PLP.ligand.clash>
0.0000

> <Gold.PLP.ligand.torsion>
1.5995

> <Gold.PLP.Chemscore.Hbond>
4.2406

> <Gold.PLP.Chemscore.CHOScore>
0.0000

> <Gold.PLP.Chemscore.Metal>
0.0000

> <Gold.Chemscore.Hbonds>
donor molecule, donor type, donor heavy atom, donor atom, acceptor molecule, acceptor atom, score
      L1  H     3    33       P1  7957  0.22
      L1  H     4    23       P1  7949  0.75
      P1  H  6896  6909       L1    13  1.92
      P1  H  6934  6947       L1    18  0.66
      P1  H 10752 10765       L1     6  0.59

> <Gold.PLP.Chemscore.Internal.Correction>
0.2017

> <Gold.Rescore>
     Score         DG    S(hbond)    S(metal)    S(lipo)     H(rot)  DE(clash)    DE(int)     intcor
     10.84     -15.11       2.36        0.00      55.56       1.86       1.56       2.71       ----

> <Gold.Chemscore.Fitness>
10.8382

> <Gold.Chemscore.DG>
-15.1053

> <Gold.Chemscore.ZeroCoef>
-5.4800

> <Gold.Chemscore.Hbond>
2.3642

> <Gold.Chemscore.Metal>
0.0000

> <Gold.Chemscore.Lipo>
55.5622

> <Gold.Chemscore.Internal_Hbond>
0.0000

> <Gold.Chemscore.DEClash>
1.5604

> <Gold.Chemscore.DEInternal>
2.7067

> <Gold.Chemscore.Rot>
1.8640

> <Gold.Chemscore.Internal.Correction>
   9.000000E+99

> <Gold.Chemscore.Hbonds>
donor molecule, donor type, donor heavy atom, donor atom, acceptor molecule, acceptor atom, score
      L1  H     3    33       P1  7957  0.21
      L1  H     4    23       P1  7949  0.09
      P1  H  6896  6909       L1    13  0.32
      P1  H  6934  6947       L1    18  0.06
      P1  H 10752 10765       L1     6  0.58

> <Gold.Chemscore.Hbond.Weighted>
-7.8964

> <Gold.Chemscore.Metal.Weighted>
-0.0000

> <Gold.Chemscore.Lipo.Weighted>
-6.5008

> <Gold.Chemscore.Internal_Hbond.Weighted>
0.0000

> <Gold.Chemscore.DEClash.Weighted>
1.5604

> <Gold.Chemscore.DEInternal.Weighted>
2.7067

> <Gold.Chemscore.Rot.Weighted>
4.7719

> <Gold.Chemscore.Internal.Correction.Weighted>
   9.000000E+99

> <Gold.Protein.RotatedTorsions>
[ 6907 6896 6895 6894 ] final   63.22 input  -60.11 | X-H torsion
[ 7974 7965 7964 7962 ] final -155.15 input  175.53 | X-H torsion
[ 8008 7997 7996 7995 ] final -112.29 input   59.86 | X-H torsion
[ 10167 10162 10161 10158 ] final  175.23 input  -65.29 | X-H torsion
[ 10718 10713 10712 10709 ] final   68.58 input   66.30 | X-H torsion
[ 10763 10752 10751 10750 ] final -171.36 input  -60.55 | X-H torsion
[ 11005 11000 10999 10996 ] final   54.13 input  -57.11 | X-H torsion

> <Gold.Protein.ActiveResidues>
 VAL166  LYS551  ARG553  GLY616  TRP617  ASP618  TYR619  PRO620  LYS621  CYS622 
 ASP623  PHE694  ASN695  SER759  ASP760  ASP761  ALA762  ILE779  LEU786  VAL792 
 PHE793  MET794  SER795  GLU796  ALA797  LYS798  CYS799  TRP800  GLU811  SER814 

> <Gold.Protein.RotatedAtoms>
  152.4235  134.5911  159.9974 H   0  0  0  0  0  0  0  0  0  0  0  0  # atno 6907 bound_to 6896
  151.6054  133.3346  159.3064 H   0  0  0  0  0  0  0  0  0  0  0  0  # atno 6908 bound_to 6896
  150.8124  134.7324  159.6765 H   0  0  0  0  0  0  0  0  0  0  0  0  # atno 6909 bound_to 6896
  144.7654  140.4289  143.5946 H   0  0  0  0  0  0  0  0  0  0  0  0  # atno 7974 bound_to 7965
  155.0029  140.0394  157.2367 H   0  0  0  0  0  0  0  0  0  0  0  0  # atno 8008 bound_to 7997
  154.7528  140.2770  155.6255 H   0  0  0  0  0  0  0  0  0  0  0  0  # atno 8009 bound_to 7997
  156.2888  140.2643  156.2286 H   0  0  0  0  0  0  0  0  0  0  0  0  # atno 8010 bound_to 7997
  139.5169  144.3056  152.0339 H   0  0  0  0  0  0  0  0  0  0  0  0  # atno 10167 bound_to 10162
  157.6297  130.9381  150.0396 H   0  0  0  0  0  0  0  0  0  0  0  0  # atno 10718 bound_to 10713
  154.6314  135.2887  155.0212 H   0  0  0  0  0  0  0  0  0  0  0  0  # atno 10763 bound_to 10752
  154.1371  135.6524  153.4938 H   0  0  0  0  0  0  0  0  0  0  0  0  # atno 10764 bound_to 10752
  153.0281  135.5324  154.7143 H   0  0  0  0  0  0  0  0  0  0  0  0  # atno 10765 bound_to 10752
  140.0711  134.5468  155.9045 H   0  0  0  0  0  0  0  0  0  0  0  0  # atno 11005 bound_to 11000
  145.6487  139.1561  143.2874 LP  0  0  0  0  0  0  0  0  0  0  0  0  # atno 17320 bound_to 7965
  146.1756  140.6578  142.9213 LP  0  0  0  0  0  0  0  0  0  0  0  0  # atno 17321 bound_to 7965
  140.2502  144.4177  150.6225 LP  0  0  0  0  0  0  0  0  0  0  0  0  # atno 17342 bound_to 10162
  140.6230  143.2178  151.6655 LP  0  0  0  0  0  0  0  0  0  0  0  0  # atno 17343 bound_to 10162
  156.1492  130.3642  149.9463 LP  0  0  0  0  0  0  0  0  0  0  0  0  # atno 17370 bound_to 10713
  156.7487  130.9107  151.3636 LP  0  0  0  0  0  0  0  0  0  0  0  0  # atno 17371 bound_to 10713
  141.2012  133.6617  156.5939 LP  0  0  0  0  0  0  0  0  0  0  0  0  # atno 17394 bound_to 11000
  140.3625  134.7675  157.4544 LP  0  0  0  0  0  0  0  0  0  0  0  0  # atno 17395 bound_to 11000

$$$$
