#       Name:                AV-unprocessed.smi:920
#       Creating user name   scv26
#       Creation time:       Fri Mar 27 02:07:38 2020


#       File generated by GOLD software.
#

@<TRIPOS>MOLECULE
AV-unprocessed.smi:920
    42    43     1
SMALL
NO_CHARGES


@<TRIPOS>ATOM
      1 ****        -7.1036   2.1431  -0.4007 C.3            1 S1                 0.0000
      2 ****        -6.5107   0.8489  -0.3996 O.3            1 S1                 0.0000
      3 ****        -5.1339   0.7596  -0.3776 C.ar           1 S1                 0.0000
      4 ****        -4.5405  -0.5184  -0.3901 C.ar           1 S1                 0.0000
      5 ****        -3.1362  -0.6182  -0.3658 C.ar           1 S1                 0.0000
      6 ****        -2.3675   0.5690  -0.3203 C.ar           1 S1                 0.0000
      7 ****        -0.9470   0.6006  -0.3138 N.am           1 S1                 0.0000
      8 ****        -0.0926  -0.3597   0.0786 C.2            1 S1                 0.0000
      9 ****        -0.4181  -1.4483   0.5521 O.2            1 S1                 0.0000
     10 ****         1.1793   0.0291  -0.0922 N.am           1 S1                 0.0000
     11 ****         2.3672  -0.7540   0.2385 C.3            1 S1                 0.0000
     12 ****         3.1466  -0.0649   1.3751 C.3            1 S1                 0.0000
     13 ****         4.4552  -0.8072   1.6920 C.3            1 S1                 0.0000
     14 ****         5.3286  -0.9602   0.4368 C.3            1 S1                 0.0000
     15 ****         4.5554  -1.6574  -0.6935 C.3            1 S1                 0.0000
     16 ****         3.2481  -0.9150  -1.0153 C.3            1 S1                 0.0000
     17 ****        -3.0575   1.7987  -0.3258 C.ar           1 S1                 0.0000
     18 ****        -4.4029   1.9012  -0.3494 N.ar           1 S1                 0.0000
     19 ****        -8.1887   2.0428  -0.4151 H              1 S1                 0.0000
     20 ****        -6.8121   2.7135  -1.2839 H              1 S1                 0.0000
     21 ****        -6.8357   2.7067   0.4940 H              1 S1                 0.0000
     22 ****        -5.1520  -1.4081  -0.4229 H              1 S1                 0.0000
     23 ****        -2.6806  -1.5957  -0.3974 H              1 S1                 0.0000
     24 ****        -0.5323   1.4774  -0.5936 H              1 S1                 0.0000
     25 ****         1.3416   0.9455  -0.4832 H              1 S1                 0.0000
     26 ****         2.0820  -1.7513   0.5784 H              1 S1                 0.0000
     27 ****         3.3760   0.9646   1.0957 H              1 S1                 0.0000
     28 ****         2.5288  -0.0114   2.2723 H              1 S1                 0.0000
     29 ****         5.0073  -0.2737   2.4663 H              1 S1                 0.0000
     30 ****         4.2259  -1.7927   2.0993 H              1 S1                 0.0000
     31 ****         5.6622   0.0224   0.1004 H              1 S1                 0.0000
     32 ****         6.2286  -1.5271   0.6765 H              1 S1                 0.0000
     33 ****         5.1774  -1.7194  -1.5867 H              1 S1                 0.0000
     34 ****         4.3298  -2.6841  -0.4023 H              1 S1                 0.0000
     35 ****         2.7008  -1.4549  -1.7890 H              1 S1                 0.0000
     36 ****         3.4843   0.0658  -1.4309 H              1 S1                 0.0000
     37 ****        -2.5142   2.7322  -0.3060 H              1 S1                 0.0000
     38 ****        -6.8246   0.3788  -1.2245 LP             1 S1                 0.0000
     39 ****        -6.8514   0.3680   0.4082 LP             1 S1                 0.0000
     40 ****        -1.3853  -1.6732   0.6699 LP             1 S1                 0.0000
     41 ****         0.2847  -2.1077   0.8190 LP             1 S1                 0.0000
     42 ****        -4.8492   2.7961  -0.3462 LP             1 S1                 0.0000
@<TRIPOS>BOND
    1    1    2 1     
    2    1   19 1     
    3    1   20 1     
    4    1   21 1     
    5    2    3 1     
    6    3   18 ar    
    7    3    4 ar    
    8    4    5 ar    
    9    4   22 1     
   10    5    6 ar    
   11    5   23 1     
   12    6    7 1     
   13    6   17 ar    
   14    7    8 am    
   15    7   24 1     
   16    8    9 2     
   17    8   10 am    
   18   10   11 1     
   19   10   25 1     
   20   11   16 1     
   21   11   12 1     
   22   11   26 1     
   23   12   13 1     
   24   12   27 1     
   25   12   28 1     
   26   13   14 1     
   27   13   29 1     
   28   13   30 1     
   29   14   15 1     
   30   14   31 1     
   31   14   32 1     
   32   15   16 1     
   33   15   33 1     
   34   15   34 1     
   35   16   35 1     
   36   16   36 1     
   37   17   18 ar    
   38   17   37 1     
   39    2   38 1     
   40    2   39 1     
   41    9   40 1     
   42    9   41 1     
   43   18   42 1     
@<TRIPOS>SUBSTRUCTURE
      1 S1             1
@<TRIPOS>SET
LONE_PAIRS      STATIC     ATOMS    <user>   **** ""
5 38 39 40 41 42
DONOR_HYDROGENS      STATIC     ATOMS    <user>   **** ""
2 24 25
ATOM$BLUE        STATIC     ATOMS    COLORGROUP SYSTEM
5 38 39 40 41 42
ATOM$RED        STATIC     ATOMS    COLORGROUP SYSTEM
2 24 25
