AV-unprocessed.smi:3038|AV-procd|sdf|11589|dock4
  -GOLD-   2272016563D 1   1.00000     0.00000
 Structure written by MMmdl.
 37 39  0  0  0  0  0  0  0  0  2 V2000
  146.5227  138.7538  151.7881 O   0  0  0  0  0  0  0  0  0  0  0  0
  146.5469  138.2471  152.9091 C   0  0  0  0  0  0  0  0  0  0  0  0
  147.5661  138.7290  153.9434 C   0  0  0  0  0  0  0  0  0  0  0  0
  147.3588  140.1260  154.2788 N   0  0  0  0  0  0  0  0  0  0  0  0
  147.4140  141.2271  153.5267 C   0  0  0  0  0  0  0  0  0  0  0  0
  147.1746  142.3175  154.2393 N   0  0  0  0  0  0  0  0  0  0  0  0
  146.9585  141.8202  155.5136 N   0  0  0  0  0  0  0  0  0  0  0  0
  147.0665  140.5204  155.5434 N   0  0  0  0  0  0  0  0  0  0  0  0
  145.7058  137.2756  153.2991 N   0  0  0  0  0  0  0  0  0  0  0  0
  144.6727  136.6696  152.4661 C   0  0  2  0  0  0  0  0  0  0  0  0
  143.9616  135.5320  153.2220 C   0  0  0  0  0  0  0  0  0  0  0  0
  142.9472  134.8087  152.3162 C   0  0  0  0  0  0  0  0  0  0  0  0
  143.5707  134.3096  151.0634 N   0  3  2  0  0  0  0  0  0  0  0  0
  144.4174  133.1103  151.2660 C   0  0  0  0  0  0  0  0  0  0  0  0
  145.1198  132.6460  150.0111 C   0  0  0  0  0  0  0  0  0  0  0  0
  143.9214  131.8855  150.5331 C   0  0  0  0  0  0  0  0  0  0  0  0
  144.2551  135.3921  150.3103 C   0  0  0  0  0  0  0  0  0  0  0  0
  145.3002  136.1266  151.1716 C   0  0  0  0  0  0  0  0  0  0  0  0
  147.4854  138.1357  154.8553 H   0  0  0  0  0  0  0  0  0  0  0  0
  148.5773  138.5928  153.5571 H   0  0  0  0  0  0  0  0  0  0  0  0
  147.6340  141.2306  152.4693 H   0  0  0  0  0  0  0  0  0  0  0  0
  145.7997  136.9220  154.2408 H   0  0  0  0  0  0  0  0  0  0  0  0
  143.9372  137.4292  152.1936 H   0  0  0  0  0  0  0  0  0  0  0  0
  144.6955  134.8182  153.5988 H   0  0  0  0  0  0  0  0  0  0  0  0
  143.4468  135.9291  154.0977 H   0  0  0  0  0  0  0  0  0  0  0  0
  142.4778  133.9840  152.8536 H   0  0  0  0  0  0  0  0  0  0  0  0
  142.1440  135.4968  152.0498 H   0  0  0  0  0  0  0  0  0  0  0  0
  144.9024  133.0087  152.2347 H   0  0  0  0  0  0  0  0  0  0  0  0
  144.9868  133.2259  149.0995 H   0  0  0  0  0  0  0  0  0  0  0  0
  146.0952  132.1773  150.1257 H   0  0  0  0  0  0  0  0  0  0  0  0
  144.1080  130.9163  150.9913 H   0  0  0  0  0  0  0  0  0  0  0  0
  142.9943  131.9614  149.9674 H   0  0  0  0  0  0  0  0  0  0  0  0
  144.7205  134.9846  149.4122 H   0  0  0  0  0  0  0  0  0  0  0  0
  143.5014  136.1030  149.9691 H   0  0  0  0  0  0  0  0  0  0  0  0
  145.7354  136.9459  150.5978 H   0  0  0  0  0  0  0  0  0  0  0  0
  146.1237  135.4517  151.4094 H   0  0  0  0  0  0  0  0  0  0  0  0
  142.8090  133.9994  150.4769 H   0  0  0  0  0  0  0  0  0  0  0  0
  1  2  2  0  0  0  0
  2  3  1  0  0  0  0
  2  9  1  0  0  0  0
  3  4  1  0  0  0  0
  3 19  1  0  0  0  0
  3 20  1  0  0  0  0
  4  8  1  0  0  0  0
  4  5  1  0  0  0  0
  5  6  2  0  0  0  0
  5 21  1  0  0  0  0
  6  7  1  0  0  0  0
  7  8  2  0  0  0  0
  9 10  1  0  0  0  0
  9 22  1  0  0  0  0
 10 18  1  0  0  0  0
 10 11  1  0  0  0  0
 10 23  1  0  0  0  0
 11 12  1  0  0  0  0
 11 24  1  0  0  0  0
 11 25  1  0  0  0  0
 12 13  1  0  0  0  0
 12 26  1  0  0  0  0
 12 27  1  0  0  0  0
 13 14  1  0  0  0  0
 13 17  1  0  0  0  0
 13 37  1  0  0  0  0
 14 16  1  0  0  0  0
 14 15  1  0  0  0  0
 14 28  1  0  0  0  0
 15 16  1  0  0  0  0
 15 29  1  0  0  0  0
 15 30  1  0  0  0  0
 16 31  1  0  0  0  0
 16 32  1  0  0  0  0
 17 18  1  0  0  0  0
 17 33  1  0  0  0  0
 17 34  1  0  0  0  0
 18 35  1  0  0  0  0
 18 36  1  0  0  0  0
M  CHG  1  13   1
M  END
> <s_m_source_file>
AV-unprocessed.smi

> <i_m_source_file_index>
3038

> <i_lp_mmshare_version>
43012

> <i_f3d_flags>
0

> <s_epik_input>
bjFubltjSF1uMVtDSDJdQyg9TylbTkhdW0NIXTJbQ0gyXVtDSDJdTihbQ0gyXVtDSDJdMilbQ0hdM1tDSDJdW0NIMl0z

> <s_epik_cmdline>
J2VwaWtfcHl0aG9uJywgJy1waCcsICc3LjAnLCAnLXRuJywgJzgnLCAnLW1hJywgJzIwMCcsICctbWV0YWxfYmluZGluZycsICctaW1hZScsICc8aW5maWxlLm1hZT4nLCAnLW9tYWUnLCAnPG91dGZpbGUubWFlPic=

> <r_lp_tautomer_probability>
1

> <r_epik_Ionization_Penalty>
0.284275

> <r_epik_Ionization_Penalty_Charging>
0.284273

> <r_epik_Ionization_Penalty_Neutral>
2.31262e-06

> <r_epik_State_Penalty>
0.277002

> <r_epik_Charging_Adjusted_Penalty>
0.561274

> <i_epik_Tot_Q>
1

> <i_epik_Tot_abs_Q>
1

> <r_epik_Metal_State_Penalty>
0.277002

> <b_epik_Metal_Only>
0

> <s_lp_Force_Field>
OPLS_2005

> <r_lp_Energy>
29.3434

> <b_lp_Chiralities_Consistent>
1

> <s_lp_Variant>
AV-unprocessed.smi:3038-2

> <Gold.Version>
5.8.1

> <Gold.Id.Protein>
6NUR|6NUR_protein|mol2

> <Gold.PLP.Fitness>
36.3375

> <Gold.PLP.PLP>
-27.7273

> <Gold.PLP.part.hbond>
-1.0000

> <Gold.PLP.part.metal>
0.0000

> <Gold.PLP.part.buried>
-5.9349

> <Gold.PLP.part.nonpolar>
-22.1852

> <Gold.PLP.part.repulsive>
0.6604

> <Gold.PLP.ligand.clash>
0.0000

> <Gold.PLP.ligand.torsion>
0.8084

> <Gold.PLP.Chemscore.Hbond>
1.9840

> <Gold.PLP.Chemscore.CHOScore>
1.0000

> <Gold.PLP.Chemscore.Metal>
0.0000

> <Gold.Chemscore.Hbonds>
donor molecule, donor type, donor heavy atom, donor atom, acceptor molecule, acceptor atom, score
      L1  H    13    37       P1 10186  1.75
      L1  C     5    21       P1  7957  0.76

> <Gold.PLP.Chemscore.Internal.Correction>
1.2750

> <Gold.Rescore>
     Score         DG    S(hbond)    S(metal)    S(lipo)     H(rot)  DE(clash)    DE(int)     intcor
      8.64      -9.53       0.89        0.00      58.50       2.25       0.01       0.87       ----

> <Gold.Chemscore.Fitness>
8.6438

> <Gold.Chemscore.DG>
-9.5282

> <Gold.Chemscore.ZeroCoef>
-5.4800

> <Gold.Chemscore.Hbond>
0.8896

> <Gold.Chemscore.Metal>
0.0000

> <Gold.Chemscore.Lipo>
58.4957

> <Gold.Chemscore.Internal_Hbond>
0.0000

> <Gold.Chemscore.DEClash>
0.0147

> <Gold.Chemscore.DEInternal>
0.8697

> <Gold.Chemscore.Rot>
2.2528

> <Gold.Chemscore.Internal.Correction>
   9.000000E+99

> <Gold.Chemscore.Hbonds>
donor molecule, donor type, donor heavy atom, donor atom, acceptor molecule, acceptor atom, score
      L1  H    13    37       P1 10186  0.73

> <Gold.Chemscore.Hbond.Weighted>
-2.9714

> <Gold.Chemscore.Metal.Weighted>
-0.0000

> <Gold.Chemscore.Lipo.Weighted>
-6.8440

> <Gold.Chemscore.Internal_Hbond.Weighted>
0.0000

> <Gold.Chemscore.DEClash.Weighted>
0.0147

> <Gold.Chemscore.DEInternal.Weighted>
0.8697

> <Gold.Chemscore.Rot.Weighted>
5.7672

> <Gold.Chemscore.Internal.Correction.Weighted>
   9.000000E+99

> <Gold.Protein.RotatedTorsions>
[ 6907 6896 6895 6894 ] final   13.18 input  -60.11 | X-H torsion
[ 7974 7965 7964 7962 ] final   43.42 input  175.53 | X-H torsion
[ 8008 7997 7996 7995 ] final  158.21 input   59.86 | X-H torsion
[ 10167 10162 10161 10158 ] final   16.96 input  -65.29 | X-H torsion
[ 10718 10713 10712 10709 ] final   76.78 input   66.30 | X-H torsion
[ 10763 10752 10751 10750 ] final  112.18 input  -60.55 | X-H torsion
[ 11005 11000 10999 10996 ] final  143.22 input  -57.11 | X-H torsion

> <Gold.Protein.ActiveResidues>
 VAL166  LYS551  ARG553  GLY616  TRP617  ASP618  TYR619  PRO620  LYS621  CYS622 
 ASP623  PHE694  ASN695  SER759  ASP760  ASP761  ALA762  ILE779  LEU786  VAL792 
 PHE793  MET794  SER795  GLU796  ALA797  LYS798  CYS799  TRP800  GLU811  SER814 

> <Gold.Protein.RotatedAtoms>
  151.7822  135.0758  160.0375 H   0  0  0  0  0  0  0  0  0  0  0  0  # atno 6907 bound_to 6896
  152.3215  133.5854  159.5756 H   0  0  0  0  0  0  0  0  0  0  0  0  # atno 6908 bound_to 6896
  150.7372  133.9920  159.3652 H   0  0  0  0  0  0  0  0  0  0  0  0  # atno 6909 bound_to 6896
  146.0656  139.5188  142.9630 H   0  0  0  0  0  0  0  0  0  0  0  0  # atno 7974 bound_to 7965
  156.2317  140.1864  156.7225 H   0  0  0  0  0  0  0  0  0  0  0  0  # atno 8008 bound_to 7997
  154.6034  140.0632  156.9426 H   0  0  0  0  0  0  0  0  0  0  0  0  # atno 8009 bound_to 7997
  155.2136  140.3302  155.4328 H   0  0  0  0  0  0  0  0  0  0  0  0  # atno 8010 bound_to 7997
  140.5760  143.9072  150.6750 H   0  0  0  0  0  0  0  0  0  0  0  0  # atno 10167 bound_to 10162
  157.6686  130.9790  150.1546 H   0  0  0  0  0  0  0  0  0  0  0  0  # atno 10718 bound_to 10713
  153.4741  135.3694  155.2406 H   0  0  0  0  0  0  0  0  0  0  0  0  # atno 10763 bound_to 10752
  154.8756  135.3938  154.3778 H   0  0  0  0  0  0  0  0  0  0  0  0  # atno 10764 bound_to 10752
  153.4371  135.7083  153.6258 H   0  0  0  0  0  0  0  0  0  0  0  0  # atno 10765 bound_to 10752
  140.0537  134.9242  157.1063 H   0  0  0  0  0  0  0  0  0  0  0  0  # atno 11005 bound_to 11000
  145.6482  141.0269  143.1774 LP  0  0  0  0  0  0  0  0  0  0  0  0  # atno 17320 bound_to 7965
  144.7200  139.8061  143.7385 LP  0  0  0  0  0  0  0  0  0  0  0  0  # atno 17321 bound_to 7965
  140.2559  143.3559  152.1365 LP  0  0  0  0  0  0  0  0  0  0  0  0  # atno 17342 bound_to 10162
  139.5143  144.6945  151.5667 LP  0  0  0  0  0  0  0  0  0  0  0  0  # atno 17343 bound_to 10162
  156.2337  130.3684  149.8415 LP  0  0  0  0  0  0  0  0  0  0  0  0  # atno 17370 bound_to 10713
  156.6235  130.8636  151.3480 LP  0  0  0  0  0  0  0  0  0  0  0  0  # atno 17371 bound_to 10713
  140.3877  134.2218  155.7167 LP  0  0  0  0  0  0  0  0  0  0  0  0  # atno 17394 bound_to 11000
  141.1942  133.8133  157.0766 LP  0  0  0  0  0  0  0  0  0  0  0  0  # atno 17395 bound_to 11000

$$$$
