#       Name:                AV-unprocessed.smi:1980
#       Creating user name   scv26
#       Creation time:       Fri Mar 27 10:21:16 2020


#       File generated by GOLD software.
#

@<TRIPOS>MOLECULE
AV-unprocessed.smi:1980
    52    53     1
SMALL
NO_CHARGES


@<TRIPOS>ATOM
      1 ****        -4.5382   0.0316  -3.6757 C.3            1 S1                 0.0000
      2 ****        -3.6892   0.5489  -2.5056 C.3            1 S1                 0.0000
      3 ****        -4.1426  -0.1084  -1.3244 O.3            1 S1                 0.0000
      4 ****        -3.6473   0.4183  -0.0970 C.3            1 S1                 0.0000
      5 ****        -4.3171  -0.3088   1.0748 C.3            1 S1                 0.0000
      6 ****        -3.8655   0.1982   2.2214 F              1 S1                 0.0000
      7 ****        -5.6388  -0.1435   1.0254 F              1 S1                 0.0000
      8 ****        -4.0256  -1.6087   1.0376 F              1 S1                 0.0000
      9 ****        -2.1958   0.2688  -2.7352 C.2            1 S1                 0.0000
     10 ****        -1.8045  -0.8798  -2.9435 O.2            1 S1                 0.0000
     11 ****        -1.3722   1.3261  -2.6656 N.am           1 S1                 0.0000
     12 ****         0.0799   1.2605  -2.7902 C.3            1 S1                 0.0000
     13 ****         0.7817   0.7859  -1.5266 C.ar           1 S1                 0.0000
     14 ****         0.3521   1.1856  -0.2444 C.ar           1 S1                 0.0000
     15 ****         1.0440   0.7130   0.8867 C.ar           1 S1                 0.0000
     16 ****         2.1561  -0.1441   0.7082 C.ar           1 S1                 0.0000
     17 ****         2.8661  -0.6289   1.8282 N.3            1 S1                 0.0000
     18 ****         3.8360  -1.7017   1.6132 C.3            1 S1                 0.0000
     19 ****         4.2897  -2.2917   2.9590 C.3            1 S1                 0.0000
     20 ****         4.7958  -1.2529   3.7909 O.3            1 S1                 0.0000
     21 ****         3.8017  -0.2755   4.0797 C.3            1 S1                 0.0000
     22 ****         3.3246   0.3851   2.7747 C.3            1 S1                 0.0000
     23 ****         2.5661  -0.5245  -0.5273 N.ar           1 S1                 0.0000
     24 ****         1.8990  -0.0689  -1.6083 C.ar           1 S1                 0.0000
     25 ****        -4.2384   0.4927  -4.6174 H              1 S1                 0.0000
     26 ****        -5.5924   0.2610  -3.5186 H              1 S1                 0.0000
     27 ****        -4.4509  -1.0499  -3.7882 H              1 S1                 0.0000
     28 ****        -3.8558   1.6234  -2.4072 H              1 S1                 0.0000
     29 ****        -2.5662   0.2943  -0.0267 H              1 S1                 0.0000
     30 ****        -3.8583   1.4870  -0.0376 H              1 S1                 0.0000
     31 ****        -1.7772   2.2348  -2.4934 H              1 S1                 0.0000
     32 ****         0.3509   0.6217  -3.6327 H              1 S1                 0.0000
     33 ****         0.4467   2.2586  -3.0303 H              1 S1                 0.0000
     34 ****        -0.4967   1.8423  -0.1225 H              1 S1                 0.0000
     35 ****         0.7069   1.0002   1.8715 H              1 S1                 0.0000
     36 ****         3.3965  -2.4916   1.0026 H              1 S1                 0.0000
     37 ****         4.6961  -1.3078   1.0699 H              1 S1                 0.0000
     38 ****         3.4650  -2.8037   3.4579 H              1 S1                 0.0000
     39 ****         5.0733  -3.0321   2.7990 H              1 S1                 0.0000
     40 ****         2.9666  -0.7366   4.6098 H              1 S1                 0.0000
     41 ****         4.2256   0.4752   4.7467 H              1 S1                 0.0000
     42 ****         4.1425   0.9453   2.3199 H              1 S1                 0.0000
     43 ****         2.5404   1.1036   3.0089 H              1 S1                 0.0000
     44 ****         2.2688  -0.4014  -2.5671 H              1 S1                 0.0000
     45 ****        -3.8662  -1.0678  -1.3811 LP             1 S1                 0.0000
     46 ****        -5.1406  -0.0497  -1.3037 LP             1 S1                 0.0000
     47 ****        -2.4594  -1.6352  -2.9638 LP             1 S1                 0.0000
     48 ****        -0.8317  -1.0574  -3.0924 LP             1 S1                 0.0000
     49 ****         2.1187  -1.1075   2.2890 LP             1 S1                 0.0000
     50 ****         5.5609  -0.8086   3.3247 LP             1 S1                 0.0000
     51 ****         5.1157  -1.6529   4.6498 LP             1 S1                 0.0000
     52 ****         3.3515  -1.1339  -0.6357 LP             1 S1                 0.0000
@<TRIPOS>BOND
    1    1    2 1     
    2    1   25 1     
    3    1   26 1     
    4    1   27 1     
    5    2    3 1     
    6    2    9 1     
    7    2   28 1     
    8    3    4 1     
    9    4    5 1     
   10    4   29 1     
   11    4   30 1     
   12    5    6 1     
   13    5    7 1     
   14    5    8 1     
   15    9   10 2     
   16    9   11 am    
   17   11   12 1     
   18   11   31 1     
   19   12   13 1     
   20   12   32 1     
   21   12   33 1     
   22   13   24 ar    
   23   13   14 ar    
   24   14   15 ar    
   25   14   34 1     
   26   15   16 ar    
   27   15   35 1     
   28   16   17 1     
   29   16   23 ar    
   30   17   22 1     
   31   17   18 1     
   32   18   19 1     
   33   18   36 1     
   34   18   37 1     
   35   19   20 1     
   36   19   38 1     
   37   19   39 1     
   38   20   21 1     
   39   21   22 1     
   40   21   40 1     
   41   21   41 1     
   42   22   42 1     
   43   22   43 1     
   44   23   24 ar    
   45   24   44 1     
   46    3   45 1     
   47    3   46 1     
   48   10   47 1     
   49   10   48 1     
   50   17   49 1     
   51   20   50 1     
   52   20   51 1     
   53   23   52 1     
@<TRIPOS>SUBSTRUCTURE
      1 S1             1
@<TRIPOS>SET
LONE_PAIRS      STATIC     ATOMS    <user>   **** ""
8 45 46 47 48 49 50 51 52
DONOR_HYDROGENS      STATIC     ATOMS    <user>   **** ""
1 31
ATOM$BLUE        STATIC     ATOMS    COLORGROUP SYSTEM
8 45 46 47 48 49 50 51 52
ATOM$RED        STATIC     ATOMS    COLORGROUP SYSTEM
1 31
