AV-unprocessed.smi:1396|AV-procd|sdf|5676|dock3
  -GOLD-   22720 5303D 1   1.00000     0.00000
 Structure written by MMmdl.
 47 48  0  0  0  0  0  0  0  0  2 V2000
  145.1782  132.6332  150.5267 C   0  0  0  0  0  0  0  0  0  0  0  0
  145.3324  134.0635  150.3082 N   0  0  0  0  0  0  0  0  0  0  0  0
  145.0354  135.0006  151.2192 C   0  0  0  0  0  0  0  0  0  0  0  0
  144.6108  134.7372  152.3448 O   0  0  0  0  0  0  0  0  0  0  0  0
  145.2697  136.4552  150.7987 C   0  0  0  0  0  0  0  0  0  0  0  0
  146.2135  137.1726  151.6940 N   0  3  2  0  0  0  0  0  0  0  0  0
  145.7923  137.1534  153.1206 C   0  0  0  0  0  0  0  0  0  0  0  0
  146.8680  137.7809  154.0233 C   0  0  0  0  0  0  0  0  0  0  0  0
  147.2231  139.2159  153.5845 C   0  0  2  0  0  0  0  0  0  0  0  0
  146.1348  140.1574  153.8482 N   0  0  0  0  0  0  0  0  0  0  0  0
  146.2233  141.2497  154.6208 C   0  0  0  0  0  0  0  0  0  0  0  0
  147.2502  141.5815  155.2123 O   0  0  0  0  0  0  0  0  0  0  0  0
  145.0628  141.9269  154.6403 N   0  0  0  0  0  0  0  0  0  0  0  0
  144.7463  143.1008  155.3745 C   0  0  0  0  0  0  0  0  0  0  0  0
  145.4016  143.3142  156.6038 C   0  0  0  0  0  0  0  0  0  0  0  0
  145.1198  144.4814  157.3381 C   0  0  0  0  0  0  0  0  0  0  0  0
  144.1970  145.4077  156.8129 C   0  0  0  0  0  0  0  0  0  0  0  0
  143.9252  146.5511  157.5359 O   0  0  0  0  0  0  0  0  0  0  0  0
  144.8124  146.9110  158.5891 C   0  0  0  0  0  0  0  0  0  0  0  0
  143.5730  145.2193  155.6239 N   0  0  0  0  0  0  0  0  0  0  0  0
  143.8448  144.0965  154.9258 C   0  0  0  0  0  0  0  0  0  0  0  0
  147.5864  139.2218  152.0894 C   0  0  0  0  0  0  0  0  0  0  0  0
  146.4993  138.5531  151.2268 C   0  0  0  0  0  0  0  0  0  0  0  0
  145.4641  132.0864  149.6280 H   0  0  0  0  0  0  0  0  0  0  0  0
  144.1422  132.3849  150.7607 H   0  0  0  0  0  0  0  0  0  0  0  0
  145.8114  132.2946  151.3478 H   0  0  0  0  0  0  0  0  0  0  0  0
  145.6847  134.3565  149.4081 H   0  0  0  0  0  0  0  0  0  0  0  0
  145.6756  136.4238  149.7866 H   0  0  0  0  0  0  0  0  0  0  0  0
  144.3239  136.9968  150.7409 H   0  0  0  0  0  0  0  0  0  0  0  0
  144.8472  137.6871  153.2314 H   0  0  0  0  0  0  0  0  0  0  0  0
  145.6115  136.1288  153.4462 H   0  0  0  0  0  0  0  0  0  0  0  0
  146.5399  137.7629  155.0631 H   0  0  0  0  0  0  0  0  0  0  0  0
  147.7668  137.1640  153.9843 H   0  0  0  0  0  0  0  0  0  0  0  0
  148.0962  139.5510  154.1478 H   0  0  0  0  0  0  0  0  0  0  0  0
  145.2528  139.9738  153.3931 H   0  0  0  0  0  0  0  0  0  0  0  0
  144.3376  141.5929  154.0228 H   0  0  0  0  0  0  0  0  0  0  0  0
  146.1085  142.5918  156.9851 H   0  0  0  0  0  0  0  0  0  0  0  0
  145.6038  144.6636  158.2864 H   0  0  0  0  0  0  0  0  0  0  0  0
  144.4592  147.8278  159.0604 H   0  0  0  0  0  0  0  0  0  0  0  0
  145.8200  147.0982  158.2153 H   0  0  0  0  0  0  0  0  0  0  0  0
  144.8535  146.1386  159.3583 H   0  0  0  0  0  0  0  0  0  0  0  0
  143.3377  144.0205  153.9765 H   0  0  0  0  0  0  0  0  0  0  0  0
  147.7635  140.2420  151.7464 H   0  0  0  0  0  0  0  0  0  0  0  0
  148.5277  138.6889  151.9487 H   0  0  0  0  0  0  0  0  0  0  0  0
  146.8357  138.5277  150.1896 H   0  0  0  0  0  0  0  0  0  0  0  0
  145.5811  139.1420  151.2457 H   0  0  0  0  0  0  0  0  0  0  0  0
  147.0871  136.6675  151.6390 H   0  0  0  0  0  0  0  0  0  0  0  0
  1  2  1  0  0  0  0
  1 24  1  0  0  0  0
  1 25  1  0  0  0  0
  1 26  1  0  0  0  0
  2  3  1  0  0  0  0
  2 27  1  0  0  0  0
  3  4  2  0  0  0  0
  3  5  1  0  0  0  0
  5  6  1  0  0  0  0
  5 28  1  0  0  0  0
  5 29  1  0  0  0  0
  6 23  1  0  0  0  0
  6  7  1  0  0  0  0
  6 47  1  0  0  0  0
  7  8  1  0  0  0  0
  7 30  1  0  0  0  0
  7 31  1  0  0  0  0
  8  9  1  0  0  0  0
  8 32  1  0  0  0  0
  8 33  1  0  0  0  0
  9 10  1  0  0  0  0
  9 22  1  0  0  0  0
  9 34  1  0  0  0  0
 10 11  1  0  0  0  0
 10 35  1  0  0  0  0
 11 12  2  0  0  0  0
 11 13  1  0  0  0  0
 13 14  1  0  0  0  0
 13 36  1  0  0  0  0
 14 21  1  0  0  0  0
 14 15  2  0  0  0  0
 15 16  1  0  0  0  0
 15 37  1  0  0  0  0
 16 17  2  0  0  0  0
 16 38  1  0  0  0  0
 17 18  1  0  0  0  0
 17 20  1  0  0  0  0
 18 19  1  0  0  0  0
 19 39  1  0  0  0  0
 19 40  1  0  0  0  0
 19 41  1  0  0  0  0
 20 21  2  0  0  0  0
 21 42  1  0  0  0  0
 22 23  1  0  0  0  0
 22 43  1  0  0  0  0
 22 44  1  0  0  0  0
 23 45  1  0  0  0  0
 23 46  1  0  0  0  0
M  CHG  1   6   1
M  END
> <s_m_source_file>
AV-unprocessed.smi

> <i_m_source_file_index>
1396

> <i_lp_mmshare_version>
43012

> <i_f3d_flags>
0

> <s_epik_input>
W0NIM11bTkhdQyg9TylbQ0gyXU4xW0NIMl1bQ0gyXVtDSF0oW0NIMl1bQ0gyXTEpW05IXUMoPU8pW05IXWMyW2NIXVtjSF1jKE9bQ0gzXSluW2NIXTI=

> <s_epik_cmdline>
J2VwaWtfcHl0aG9uJywgJy1waCcsICc3LjAnLCAnLXRuJywgJzgnLCAnLW1hJywgJzIwMCcsICctbWV0YWxfYmluZGluZycsICctaW1hZScsICc8aW5maWxlLm1hZT4nLCAnLW9tYWUnLCAnPG91dGZpbGUubWFlPic=

> <r_lp_tautomer_probability>
1

> <r_epik_Ionization_Penalty>
0.838943

> <r_epik_Ionization_Penalty_Charging>
0.838844

> <r_epik_Ionization_Penalty_Neutral>
9.87511e-05

> <r_epik_State_Penalty>
0.8734

> <r_epik_Charging_Adjusted_Penalty>
1.71224

> <i_epik_Tot_Q>
1

> <i_epik_Tot_abs_Q>
1

> <r_epik_Metal_State_Penalty>
0.877926

> <b_epik_Metal_Only>
0

> <s_lp_Force_Field>
OPLS_2005

> <r_lp_Energy>
16.6272

> <b_lp_Chiralities_Consistent>
1

> <s_lp_Variant>
AV-unprocessed.smi:1396-3

> <Gold.Version>
5.8.1

> <Gold.Id.Protein>
6NUR|6NUR_protein|mol2

> <Gold.PLP.Fitness>
42.8436

> <Gold.PLP.PLP>
-25.6279

> <Gold.PLP.part.hbond>
-4.0521

> <Gold.PLP.part.metal>
0.0000

> <Gold.PLP.part.buried>
4.6443

> <Gold.PLP.part.nonpolar>
-27.5758

> <Gold.PLP.part.repulsive>
0.4284

> <Gold.PLP.ligand.clash>
0.0024

> <Gold.PLP.ligand.torsion>
0.4148

> <Gold.PLP.Chemscore.Hbond>
5.0000

> <Gold.PLP.Chemscore.CHOScore>
1.0000

> <Gold.PLP.Chemscore.Metal>
0.0000

> <Gold.Chemscore.Hbonds>
donor molecule, donor type, donor heavy atom, donor atom, acceptor molecule, acceptor atom, score
      L1  H     2    27       P1  7921  1.00
      L1  H     6    47       P1  7948  2.00
      L1  H    10    35       P1 10175  1.00
      L1  H    13    36       P1 10175  0.85
      L1  C    21    42       P1 10174  1.00

> <Gold.PLP.Chemscore.Internal.Correction>
0.0476

> <Gold.Rescore>
     Score         DG    S(hbond)    S(metal)    S(lipo)     H(rot)  DE(clash)    DE(int)     intcor
     13.37     -18.67       3.35        0.00      60.87       2.00       2.12       3.18       ----

> <Gold.Chemscore.Fitness>
13.3712

> <Gold.Chemscore.DG>
-18.6721

> <Gold.Chemscore.ZeroCoef>
-5.4800

> <Gold.Chemscore.Hbond>
3.3474

> <Gold.Chemscore.Metal>
0.0000

> <Gold.Chemscore.Lipo>
60.8749

> <Gold.Chemscore.Internal_Hbond>
0.0000

> <Gold.Chemscore.DEClash>
2.1202

> <Gold.Chemscore.DEInternal>
3.1807

> <Gold.Chemscore.Rot>
1.9963

> <Gold.Chemscore.Internal.Correction>
   9.000000E+99

> <Gold.Chemscore.Hbonds>
donor molecule, donor type, donor heavy atom, donor atom, acceptor molecule, acceptor atom, score
      L1  H     2    27       P1  7921  0.78
      L1  H     6    47       P1  7948  1.00
      L1  H    10    35       P1 10175  0.97
      L1  H    13    36       P1 10175  0.14

> <Gold.Chemscore.Hbond.Weighted>
-11.1803

> <Gold.Chemscore.Metal.Weighted>
-0.0000

> <Gold.Chemscore.Lipo.Weighted>
-7.1224

> <Gold.Chemscore.Internal_Hbond.Weighted>
0.0000

> <Gold.Chemscore.DEClash.Weighted>
2.1202

> <Gold.Chemscore.DEInternal.Weighted>
3.1807

> <Gold.Chemscore.Rot.Weighted>
5.1105

> <Gold.Chemscore.Internal.Correction.Weighted>
   9.000000E+99

> <Gold.Protein.RotatedTorsions>
[ 6907 6896 6895 6894 ] final  -97.65 input  -60.11 | X-H torsion
[ 7974 7965 7964 7962 ] final  114.98 input  175.53 | X-H torsion
[ 8008 7997 7996 7995 ] final   70.89 input   59.86 | X-H torsion
[ 10167 10162 10161 10158 ] final   40.20 input  -65.29 | X-H torsion
[ 10718 10713 10712 10709 ] final  -29.82 input   66.30 | X-H torsion
[ 10763 10752 10751 10750 ] final  145.59 input  -60.55 | X-H torsion
[ 11005 11000 10999 10996 ] final  127.52 input  -57.11 | X-H torsion

> <Gold.Protein.ActiveResidues>
 VAL166  LYS551  ARG553  GLY616  TRP617  ASP618  TYR619  PRO620  LYS621  CYS622 
 ASP623  PHE694  ASN695  SER759  ASP760  ASP761  ALA762  ILE779  LEU786  VAL792 
 PHE793  MET794  SER795  GLU796  ALA797  LYS798  CYS799  TRP800  GLU811  SER814 

> <Gold.Protein.RotatedAtoms>
  150.7022  134.1317  159.4071 H   0  0  0  0  0  0  0  0  0  0  0  0  # atno 6907 bound_to 6896
  151.9302  135.0257  160.0538 H   0  0  0  0  0  0  0  0  0  0  0  0  # atno 6908 bound_to 6896
  152.2182  133.4928  159.5184 H   0  0  0  0  0  0  0  0  0  0  0  0  # atno 6909 bound_to 6896
  145.1977  139.2968  143.4335 H   0  0  0  0  0  0  0  0  0  0  0  0  # atno 7974 bound_to 7965
  155.7457  140.3489  155.5126 H   0  0  0  0  0  0  0  0  0  0  0  0  # atno 8008 bound_to 7997
  155.9052  140.1041  157.1342 H   0  0  0  0  0  0  0  0  0  0  0  0  # atno 8009 bound_to 7997
  154.4049  140.1278  156.4474 H   0  0  0  0  0  0  0  0  0  0  0  0  # atno 8010 bound_to 7997
  140.3765  144.2035  150.6131 H   0  0  0  0  0  0  0  0  0  0  0  0  # atno 10167 bound_to 10162
  156.4076  130.4402  149.7276 H   0  0  0  0  0  0  0  0  0  0  0  0  # atno 10718 bound_to 10713
  154.0079  135.2917  155.3395 H   0  0  0  0  0  0  0  0  0  0  0  0  # atno 10763 bound_to 10752
  154.7120  135.5145  153.8684 H   0  0  0  0  0  0  0  0  0  0  0  0  # atno 10764 bound_to 10752
  153.0736  135.6656  154.0314 H   0  0  0  0  0  0  0  0  0  0  0  0  # atno 10765 bound_to 10752
  139.9512  134.9621  156.8867 H   0  0  0  0  0  0  0  0  0  0  0  0  # atno 11005 bound_to 11000
  146.3424  140.2211  142.8591 LP  0  0  0  0  0  0  0  0  0  0  0  0  # atno 17320 bound_to 7965
  144.9978  140.8605  143.5300 LP  0  0  0  0  0  0  0  0  0  0  0  0  # atno 17321 bound_to 7965
  140.4980  143.2326  151.8720 LP  0  0  0  0  0  0  0  0  0  0  0  0  # atno 17342 bound_to 10162
  139.4799  144.5091  151.8957 LP  0  0  0  0  0  0  0  0  0  0  0  0  # atno 17343 bound_to 10162
  156.4267  130.7795  151.2814 LP  0  0  0  0  0  0  0  0  0  0  0  0  # atno 17370 bound_to 10713
  157.7506  131.0166  150.3552 LP  0  0  0  0  0  0  0  0  0  0  0  0  # atno 17371 bound_to 10713
  140.5715  134.0438  155.7432 LP  0  0  0  0  0  0  0  0  0  0  0  0  # atno 17394 bound_to 11000
  141.1175  133.9516  157.2795 LP  0  0  0  0  0  0  0  0  0  0  0  0  # atno 17395 bound_to 11000

$$$$
