AV-unprocessed.smi:1513|AV-procd|sdf|6111|dock9
  -GOLD-   22720 6243D 1   1.00000     0.00000
 Structure written by MMmdl.
 33 34  0  0  0  0  0  0  0  0  2 V2000
  151.9905  137.1732  153.9262 N   0  5  0  0  0  0  0  0  0  0  0  0
  152.5468  138.3920  154.8232 S   0  0  0  0  0  0  0  0  0  0  0  0
  154.0086  138.5487  154.7772 O   0  0  0  0  0  0  0  0  0  0  0  0
  151.7139  139.6020  154.7461 O   0  0  0  0  0  0  0  0  0  0  0  0
  152.2000  137.6708  156.3460 N   0  0  0  0  0  0  0  0  0  0  0  0
  151.2056  138.2679  157.2358 C   0  0  0  0  0  0  0  0  0  0  0  0
  151.6807  139.5733  157.8560 C   0  0  0  0  0  0  0  0  0  0  0  0
  152.8175  139.5801  158.6910 C   0  0  0  0  0  0  0  0  0  0  0  0
  153.2505  140.7970  159.2490 C   0  0  0  0  0  0  0  0  0  0  0  0
  152.5257  141.9649  158.9475 C   0  0  0  0  0  0  0  0  0  0  0  0
  151.4361  141.9749  158.1518 N   0  0  0  0  0  0  0  0  0  0  0  0
  151.0164  140.8035  157.6145 C   0  0  0  0  0  0  0  0  0  0  0  0
  149.8716  140.8386  156.8029 N   0  0  0  0  0  0  0  0  0  0  0  0
  148.6491  141.1600  157.5278 C   0  0  0  0  0  0  0  0  0  0  0  0
  147.4321  141.0001  156.6003 C   0  0  0  0  0  0  0  0  0  0  0  0
  147.6098  141.8020  155.4349 O   0  0  0  0  0  0  0  0  0  0  0  0
  148.7686  141.4235  154.6966 C   0  0  0  0  0  0  0  0  0  0  0  0
  150.0195  141.6049  155.5736 C   0  0  0  0  0  0  0  0  0  0  0  0
  151.1504  136.7975  154.3822 H   0  0  0  0  0  0  0  0  0  0  0  0
  152.2211  136.6517  156.3356 H   0  0  0  0  0  0  0  0  0  0  0  0
  150.2819  138.4206  156.6771 H   0  0  0  0  0  0  0  0  0  0  0  0
  150.9690  137.5698  158.0390 H   0  0  0  0  0  0  0  0  0  0  0  0
  153.3534  138.6665  158.9025 H   0  0  0  0  0  0  0  0  0  0  0  0
  154.1175  140.8336  159.8918 H   0  0  0  0  0  0  0  0  0  0  0  0
  152.8283  142.9175  159.3567 H   0  0  0  0  0  0  0  0  0  0  0  0
  148.5474  140.5062  158.3947 H   0  0  0  0  0  0  0  0  0  0  0  0
  148.7012  142.1845  157.8988 H   0  0  0  0  0  0  0  0  0  0  0  0
  147.2919  139.9557  156.3186 H   0  0  0  0  0  0  0  0  0  0  0  0
  146.5241  141.3145  157.1145 H   0  0  0  0  0  0  0  0  0  0  0  0
  148.6766  140.3895  154.3596 H   0  0  0  0  0  0  0  0  0  0  0  0
  148.8414  142.0451  153.8043 H   0  0  0  0  0  0  0  0  0  0  0  0
  150.1580  142.6608  155.8100 H   0  0  0  0  0  0  0  0  0  0  0  0
  150.9078  141.2722  155.0354 H   0  0  0  0  0  0  0  0  0  0  0  0
  1  2  1  0  0  0  0
  1 19  1  0  0  0  0
  2  3  2  0  0  0  0
  2  4  2  0  0  0  0
  2  5  1  0  0  0  0
  5  6  1  0  0  0  0
  5 20  1  0  0  0  0
  6  7  1  0  0  0  0
  6 21  1  0  0  0  0
  6 22  1  0  0  0  0
  7 12  1  0  0  0  0
  7  8  2  0  0  0  0
  8  9  1  0  0  0  0
  8 23  1  0  0  0  0
  9 10  2  0  0  0  0
  9 24  1  0  0  0  0
 10 11  1  0  0  0  0
 10 25  1  0  0  0  0
 11 12  2  0  0  0  0
 12 13  1  0  0  0  0
 13 18  1  0  0  0  0
 13 14  1  0  0  0  0
 14 15  1  0  0  0  0
 14 26  1  0  0  0  0
 14 27  1  0  0  0  0
 15 16  1  0  0  0  0
 15 28  1  0  0  0  0
 15 29  1  0  0  0  0
 16 17  1  0  0  0  0
 17 18  1  0  0  0  0
 17 30  1  0  0  0  0
 17 31  1  0  0  0  0
 18 32  1  0  0  0  0
 18 33  1  0  0  0  0
M  CHG  1   1  -1
M  END
> <s_m_source_file>
AV-unprocessed.smi

> <i_m_source_file_index>
1513

> <i_lp_mmshare_version>
43012

> <i_f3d_flags>
0

> <s_epik_input>
W05IMl1TKD1PKSg9TylbTkhdW0NIMl1jMVtjSF1bY0hdW2NIXW5jMU4yW0NIMl1bQ0gyXU9bQ0gyXVtDSDJdMg==

> <s_epik_cmdline>
J2VwaWtfcHl0aG9uJywgJy1waCcsICc3LjAnLCAnLXRuJywgJzgnLCAnLW1hJywgJzIwMCcsICctbWV0YWxfYmluZGluZycsICctaW1hZScsICc8aW5maWxlLm1hZT4nLCAnLW9tYWUnLCAnPG91dGZpbGUubWFlPic=

> <r_lp_tautomer_probability>
1

> <r_epik_Ionization_Penalty>
2.76303

> <r_epik_Ionization_Penalty_Charging>
2.75358

> <r_epik_Ionization_Penalty_Neutral>
0.00945191

> <r_epik_State_Penalty>
2.93489

> <r_epik_Charging_Adjusted_Penalty>
5.68847

> <i_epik_Tot_Q>
-1

> <i_epik_Tot_abs_Q>
1

> <r_epik_Metal_State_Penalty>
0.838637

> <b_epik_Metal_Only>
1

> <s_lp_Force_Field>
OPLS_2005

> <r_lp_Energy>
17.6636

> <b_lp_Chiralities_Consistent>
1

> <s_lp_Variant>
AV-unprocessed.smi:1513-4

> <Gold.Version>
5.8.1

> <Gold.Id.Protein>
6NUR|6NUR_protein|mol2

> <Gold.PLP.Fitness>
39.3083

> <Gold.PLP.PLP>
-28.1038

> <Gold.PLP.part.hbond>
-4.0000

> <Gold.PLP.part.metal>
0.0000

> <Gold.PLP.part.buried>
-6.8225

> <Gold.PLP.part.nonpolar>
-17.9057

> <Gold.PLP.part.repulsive>
0.2510

> <Gold.PLP.ligand.clash>
0.0000

> <Gold.PLP.ligand.torsion>
0.1603

> <Gold.PLP.Chemscore.Hbond>
3.7840

> <Gold.PLP.Chemscore.CHOScore>
0.0000

> <Gold.PLP.Chemscore.Metal>
0.0000

> <Gold.Chemscore.Hbonds>
donor molecule, donor type, donor heavy atom, donor atom, acceptor molecule, acceptor atom, score
      P1  H  7989  7998       L1     4  1.00
      P1  H  7997  8008       L1     3  0.75
      P1  H 10752 10764       L1     1  1.95

> <Gold.PLP.Chemscore.Internal.Correction>
0.1732

> <Gold.Rescore>
     Score         DG    S(hbond)    S(metal)    S(lipo)     H(rot)  DE(clash)    DE(int)     intcor
     13.16     -13.47       2.53        0.00      49.77       2.45       0.00       0.31       ----

> <Gold.Chemscore.Fitness>
13.1630

> <Gold.Chemscore.DG>
-13.4734

> <Gold.Chemscore.ZeroCoef>
-5.4800

> <Gold.Chemscore.Hbond>
2.5252

> <Gold.Chemscore.Metal>
0.0000

> <Gold.Chemscore.Lipo>
49.7743

> <Gold.Chemscore.Internal_Hbond>
0.0000

> <Gold.Chemscore.DEClash>
0.0038

> <Gold.Chemscore.DEInternal>
0.3067

> <Gold.Chemscore.Rot>
2.4470

> <Gold.Chemscore.Internal.Correction>
   9.000000E+99

> <Gold.Chemscore.Hbonds>
donor molecule, donor type, donor heavy atom, donor atom, acceptor molecule, acceptor atom, score
      P1  H  7989  7998       L1     4  0.98
      P1  H  7997  8008       L1     3  0.58
      P1  H 10752 10764       L1     1  0.28

> <Gold.Chemscore.Hbond.Weighted>
-8.4341

> <Gold.Chemscore.Metal.Weighted>
-0.0000

> <Gold.Chemscore.Lipo.Weighted>
-5.8236

> <Gold.Chemscore.Internal_Hbond.Weighted>
0.0000

> <Gold.Chemscore.DEClash.Weighted>
0.0038

> <Gold.Chemscore.DEInternal.Weighted>
0.3067

> <Gold.Chemscore.Rot.Weighted>
6.2642

> <Gold.Chemscore.Internal.Correction.Weighted>
   9.000000E+99

> <Gold.Protein.RotatedTorsions>
[ 6907 6896 6895 6894 ] final  167.82 input  -60.11 | X-H torsion
[ 7974 7965 7964 7962 ] final   31.34 input  175.53 | X-H torsion
[ 8008 7997 7996 7995 ] final   -6.92 input   59.86 | X-H torsion
[ 10167 10162 10161 10158 ] final    4.10 input  -65.29 | X-H torsion
[ 10718 10713 10712 10709 ] final   61.75 input   66.30 | X-H torsion
[ 10763 10752 10751 10750 ] final -101.38 input  -60.55 | X-H torsion
[ 11005 11000 10999 10996 ] final -102.69 input  -57.11 | X-H torsion

> <Gold.Protein.ActiveResidues>
 VAL166  LYS551  ARG553  GLY616  TRP617  ASP618  TYR619  PRO620  LYS621  CYS622 
 ASP623  PHE694  ASN695  SER759  ASP760  ASP761  ALA762  ILE779  LEU786  VAL792 
 PHE793  MET794  SER795  GLU796  ALA797  LYS798  CYS799  TRP800  GLU811  SER814 

> <Gold.Protein.RotatedAtoms>
  151.8574  133.3451  159.3692 H   0  0  0  0  0  0  0  0  0  0  0  0  # atno 6907 bound_to 6896
  150.7189  134.5240  159.5677 H   0  0  0  0  0  0  0  0  0  0  0  0  # atno 6908 bound_to 6896
  152.2746  134.7896  160.0459 H   0  0  0  0  0  0  0  0  0  0  0  0  # atno 6909 bound_to 6896
  146.1556  139.6669  142.9069 H   0  0  0  0  0  0  0  0  0  0  0  0  # atno 7974 bound_to 7965
  154.5890  140.2420  155.7947 H   0  0  0  0  0  0  0  0  0  0  0  0  # atno 8008 bound_to 7997
  156.2233  140.2990  155.9961 H   0  0  0  0  0  0  0  0  0  0  0  0  # atno 8009 bound_to 7997
  155.2408  140.0407  157.2965 H   0  0  0  0  0  0  0  0  0  0  0  0  # atno 8010 bound_to 7997
  140.6552  143.7445  150.7641 H   0  0  0  0  0  0  0  0  0  0  0  0  # atno 10167 bound_to 10162
  157.5851  130.9012  149.9501 H   0  0  0  0  0  0  0  0  0  0  0  0  # atno 10718 bound_to 10713
  154.7653  135.4900  153.9543 H   0  0  0  0  0  0  0  0  0  0  0  0  # atno 10763 bound_to 10752
  153.1300  135.6751  153.9201 H   0  0  0  0  0  0  0  0  0  0  0  0  # atno 10764 bound_to 10752
  153.8907  135.3121  155.3426 H   0  0  0  0  0  0  0  0  0  0  0  0  # atno 10765 bound_to 10752
  141.1178  133.8579  157.1392 H   0  0  0  0  0  0  0  0  0  0  0  0  # atno 11005 bound_to 11000
  145.4716  141.0436  143.2695 LP  0  0  0  0  0  0  0  0  0  0  0  0  # atno 17320 bound_to 7965
  144.7959  139.6235  143.7093 LP  0  0  0  0  0  0  0  0  0  0  0  0  # atno 17321 bound_to 7965
  140.1103  143.4705  152.2374 LP  0  0  0  0  0  0  0  0  0  0  0  0  # atno 17342 bound_to 10162
  139.5773  144.7494  151.3731 LP  0  0  0  0  0  0  0  0  0  0  0  0  # atno 17343 bound_to 10162
  156.0900  130.3664  150.0414 LP  0  0  0  0  0  0  0  0  0  0  0  0  # atno 17370 bound_to 10713
  156.8547  130.9471  151.3623 LP  0  0  0  0  0  0  0  0  0  0  0  0  # atno 17371 bound_to 10713
  140.0113  134.9987  157.0400 LP  0  0  0  0  0  0  0  0  0  0  0  0  # atno 17394 bound_to 11000
  140.4595  134.1498  155.7190 LP  0  0  0  0  0  0  0  0  0  0  0  0  # atno 17395 bound_to 11000

$$$$
