AV-unprocessed.smi:218|AV-procd|sdf|1673|dock5
  -GOLD-   2262020 93D 1   1.00000     0.00000
 Structure written by MMmdl.
 54 57  0  0  0  0  0  0  0  0  1 V2000
  151.7901  142.9748  159.6128 C   0  0  0  0  0  0  0  0  0  0  0  0
  151.1040  141.8406  158.8420 C   0  0  0  0  0  0  0  0  0  0  0  0
  151.7462  140.4802  159.1649 C   0  0  0  0  0  0  0  0  0  0  0  0
  151.2462  142.1392  157.4520 O   0  0  0  0  0  0  0  0  0  0  0  0
  150.7968  141.2449  156.4996 C   0  0  0  0  0  0  0  0  0  0  0  0
  149.8078  141.6771  155.5929 C   0  0  0  0  0  0  0  0  0  0  0  0
  149.3387  140.7765  154.6132 C   0  0  0  0  0  0  0  0  0  0  0  0
  148.2750  141.1919  153.6099 C   0  0  0  0  0  0  0  0  0  0  0  0
  147.8735  140.1524  152.6674 N   0  0  0  0  0  0  0  0  0  0  0  0
  146.8661  139.3031  152.9678 C   0  0  0  0  0  0  0  0  0  0  0  0
  146.1623  139.4287  154.1233 N   0  0  0  0  0  0  0  0  0  0  0  0
  145.1681  138.5784  154.3951 C   0  0  0  0  0  0  0  0  0  0  0  0
  144.7194  137.5578  153.6614 N   0  0  0  0  0  0  0  0  0  0  0  0
  145.4186  137.4304  152.4965 C   0  0  0  0  0  0  0  0  0  0  0  0
  146.4991  138.2579  152.0811 C   0  0  0  0  0  0  0  0  0  0  0  0
  146.9699  137.8337  150.8454 N   0  0  0  0  0  0  0  0  0  0  0  0
  146.2074  136.8152  150.5505 C   0  0  0  0  0  0  0  0  0  0  0  0
  145.2456  136.5057  151.4863 N   0  0  0  0  0  0  0  0  0  0  0  0
  144.2311  135.4110  151.4187 C   0  0  1  0  0  0  0  0  0  0  0  0
  144.4154  134.7186  150.2249 O   0  0  0  0  0  0  0  0  0  0  0  0
  144.1365  133.3451  150.4448 C   0  0  1  0  0  0  0  0  0  0  0  0
  144.7290  132.4792  149.3193 C   0  0  0  0  0  0  0  0  0  0  0  0
  144.3299  132.9723  148.0580 O   0  0  0  0  0  0  0  0  0  0  0  0
  144.6469  133.0854  151.8710 C   0  0  1  0  0  0  0  0  0  0  0  0
  146.0209  132.7484  151.8886 O   0  0  0  0  0  0  0  0  0  0  0  0
  144.4132  134.4176  152.5811 C   0  0  2  0  0  0  0  0  0  0  0  0
  143.2383  134.3325  153.3628 O   0  0  0  0  0  0  0  0  0  0  0  0
  149.8719  139.4726  154.5876 C   0  0  0  0  0  0  0  0  0  0  0  0
  150.8558  139.1321  155.5355 C   0  0  0  0  0  0  0  0  0  0  0  0
  151.3110  139.9901  156.4728 N   0  0  0  0  0  0  0  0  0  0  0  0
  143.2651  135.9185  151.4214 H   0  0  0  0  0  0  0  0  0  0  0  0
  143.0497  133.2410  150.4415 H   0  0  0  0  0  0  0  0  0  0  0  0
  144.1054  132.2606  152.3370 H   0  0  0  0  0  0  0  0  0  0  0  0
  145.2499  134.7034  153.2214 H   0  0  0  0  0  0  0  0  0  0  0  0
  151.7172  142.8193  160.6895 H   0  0  0  0  0  0  0  0  0  0  0  0
  151.3277  143.9355  159.3851 H   0  0  0  0  0  0  0  0  0  0  0  0
  152.8474  143.0455  159.3555 H   0  0  0  0  0  0  0  0  0  0  0  0
  150.0541  141.8382  159.1388 H   0  0  0  0  0  0  0  0  0  0  0  0
  151.6822  140.2619  160.2311 H   0  0  0  0  0  0  0  0  0  0  0  0
  152.7997  140.4671  158.8850 H   0  0  0  0  0  0  0  0  0  0  0  0
  151.2544  139.6644  158.6359 H   0  0  0  0  0  0  0  0  0  0  0  0
  149.4215  142.6841  155.6490 H   0  0  0  0  0  0  0  0  0  0  0  0
  147.3939  141.5621  154.1357 H   0  0  0  0  0  0  0  0  0  0  0  0
  148.6632  142.0336  153.0362 H   0  0  0  0  0  0  0  0  0  0  0  0
  148.4911  140.0115  151.8810 H   0  0  0  0  0  0  0  0  0  0  0  0
  144.6579  138.7394  155.3332 H   0  0  0  0  0  0  0  0  0  0  0  0
  146.3228  136.2599  149.6310 H   0  0  0  0  0  0  0  0  0  0  0  0
  145.8178  132.5043  149.3680 H   0  0  0  0  0  0  0  0  0  0  0  0
  144.4334  131.4345  149.4185 H   0  0  0  0  0  0  0  0  0  0  0  0
  144.8523  133.7334  147.8543 H   0  0  0  0  0  0  0  0  0  0  0  0
  146.1982  132.1820  151.1530 H   0  0  0  0  0  0  0  0  0  0  0  0
  143.1040  133.4279  153.6009 H   0  0  0  0  0  0  0  0  0  0  0  0
  149.5413  138.7498  153.8562 H   0  0  0  0  0  0  0  0  0  0  0  0
  151.2886  138.1426  155.5420 H   0  0  0  0  0  0  0  0  0  0  0  0
  1  2  1  0  0  0  0
  1 35  1  0  0  0  0
  1 36  1  0  0  0  0
  1 37  1  0  0  0  0
  2  3  1  0  0  0  0
  2  4  1  0  0  0  0
  2 38  1  0  0  0  0
  3 39  1  0  0  0  0
  3 40  1  0  0  0  0
  3 41  1  0  0  0  0
  4  5  1  0  0  0  0
  5 30  1  0  0  0  0
  5  6  2  0  0  0  0
  6  7  1  0  0  0  0
  6 42  1  0  0  0  0
  7  8  1  0  0  0  0
  7 28  2  0  0  0  0
  8  9  1  0  0  0  0
  8 43  1  0  0  0  0
  8 44  1  0  0  0  0
  9 10  1  0  0  0  0
  9 45  1  0  0  0  0
 10 15  1  0  0  0  0
 10 11  2  0  0  0  0
 11 12  1  0  0  0  0
 12 13  2  0  0  0  0
 12 46  1  0  0  0  0
 13 14  1  0  0  0  0
 14 18  1  0  0  0  0
 14 15  2  0  0  0  0
 15 16  1  0  0  0  0
 16 17  2  0  0  0  0
 17 18  1  0  0  0  0
 17 47  1  0  0  0  0
 18 19  1  0  0  0  0
 19 31  1  0  0  0  0
 19 26  1  0  0  0  0
 19 20  1  0  0  0  0
 20 21  1  0  0  0  0
 21 32  1  0  0  0  0
 21 22  1  0  0  0  0
 21 24  1  0  0  0  0
 22 23  1  0  0  0  0
 22 48  1  0  0  0  0
 22 49  1  0  0  0  0
 23 50  1  0  0  0  0
 24 33  1  0  0  0  0
 24 25  1  0  0  0  0
 24 26  1  0  0  0  0
 25 51  1  0  0  0  0
 26 34  1  0  0  0  0
 26 27  1  0  0  0  0
 27 52  1  0  0  0  0
 28 29  1  0  0  0  0
 28 53  1  0  0  0  0
 29 30  2  0  0  0  0
 29 54  1  0  0  0  0
M  END
> <s_m_source_file>
AV-unprocessed.smi

> <i_m_source_file_index>
218

> <i_lp_mmshare_version>
43012

> <i_f3d_flags>
0

> <s_epik_input>
W0NIM11bQ0hdKFtDSDNdKU9jMVtjSF1jKFtjSF1bY0hdbjEpW0NIMl1bTkhdYyhuW2NIXW4yKWMoYzIzKW5bY0hdbjNbQ0BASF00T1tDQEhdKFtDSDJdW09IXSlbQ0BASF0oW09IXSlbQ0BIXTRbT0hd

> <s_epik_cmdline>
J2VwaWtfcHl0aG9uJywgJy1waCcsICc3LjAnLCAnLXRuJywgJzgnLCAnLW1hJywgJzIwMCcsICctbWV0YWxfYmluZGluZycsICctaW1hZScsICc8aW5maWxlLm1hZT4nLCAnLW9tYWUnLCAnPG91dGZpbGUubWFlPic=

> <r_lp_tautomer_probability>
1

> <r_epik_Ionization_Penalty>
0.00457014

> <r_epik_Ionization_Penalty_Charging>
0

> <r_epik_Ionization_Penalty_Neutral>
0.00457014

> <r_epik_State_Penalty>
-0

> <r_epik_Charging_Adjusted_Penalty>
0

> <i_epik_Tot_Q>
0

> <i_epik_Tot_abs_Q>
0

> <r_epik_Metal_State_Penalty>
-0

> <b_epik_Metal_Only>
0

> <s_epik_Chemistry_Notes>
This compound contains an acetal/aminal-like group ( X-CH(R)-Y where X, Y are N, S, or O) that may be acid/base labile, releasing an aldehyde.

> <s_lp_Force_Field>
OPLS_2005

> <r_lp_Energy>
38.5835

> <b_lp_Chiralities_Consistent>
1

> <s_lp_Variant>
AV-unprocessed.smi:218-12

> <Gold.Version>
5.8.1

> <Gold.Id.Protein>
6NUR|6NUR_protein|mol2

> <Gold.PLP.Fitness>
64.8638

> <Gold.PLP.PLP>
-50.1832

> <Gold.PLP.part.hbond>
-4.7704

> <Gold.PLP.part.metal>
0.0000

> <Gold.PLP.part.buried>
-3.0763

> <Gold.PLP.part.nonpolar>
-45.1273

> <Gold.PLP.part.repulsive>
2.4685

> <Gold.PLP.ligand.clash>
0.0000

> <Gold.PLP.ligand.torsion>
0.2425

> <Gold.PLP.Chemscore.Hbond>
3.9833

> <Gold.PLP.Chemscore.CHOScore>
1.0000

> <Gold.PLP.Chemscore.Metal>
0.0000

> <Gold.Chemscore.Hbonds>
donor molecule, donor type, donor heavy atom, donor atom, acceptor molecule, acceptor atom, score
      L1  H     9    45       P1  7957  0.46
      L1  H    23    50       P1  7921  1.00
      L1  H    27    52       P1 10957  0.86
      P1  H  7954  7966       L1    16  0.99
      L1  C    17    47       P1  7921  1.00

> <Gold.PLP.Chemscore.Internal.Correction>
0.2158

> <Gold.Rescore>
     Score         DG    S(hbond)    S(metal)    S(lipo)     H(rot)  DE(clash)    DE(int)     intcor
     12.95     -16.57       3.68        0.00      96.97       4.90       1.86       1.76       ----

> <Gold.Chemscore.Fitness>
12.9484

> <Gold.Chemscore.DG>
-16.5670

> <Gold.Chemscore.ZeroCoef>
-5.4800

> <Gold.Chemscore.Hbond>
3.6807

> <Gold.Chemscore.Metal>
0.0000

> <Gold.Chemscore.Lipo>
96.9654

> <Gold.Chemscore.Internal_Hbond>
0.0000

> <Gold.Chemscore.DEClash>
1.8635

> <Gold.Chemscore.DEInternal>
1.7551

> <Gold.Chemscore.Rot>
4.9029

> <Gold.Chemscore.Internal.Correction>
   9.000000E+99

> <Gold.Chemscore.Hbonds>
donor molecule, donor type, donor heavy atom, donor atom, acceptor molecule, acceptor atom, score
      L1  H     9    45       P1  7957  0.45
      L1  H    23    50       P1  7921  0.92
      L1  H    27    52       P1 10957  0.83
      P1  H  7954  7966       L1    16  0.65

> <Gold.Chemscore.Hbond.Weighted>
-12.2936

> <Gold.Chemscore.Metal.Weighted>
-0.0000

> <Gold.Chemscore.Lipo.Weighted>
-11.3450

> <Gold.Chemscore.Internal_Hbond.Weighted>
0.0000

> <Gold.Chemscore.DEClash.Weighted>
1.8635

> <Gold.Chemscore.DEInternal.Weighted>
1.7551

> <Gold.Chemscore.Rot.Weighted>
12.5515

> <Gold.Chemscore.Internal.Correction.Weighted>
   9.000000E+99

> <Gold.Protein.RotatedTorsions>
[ 6907 6896 6895 6894 ] final   -2.41 input  -60.11 | X-H torsion
[ 7974 7965 7964 7962 ] final  163.22 input  175.53 | X-H torsion
[ 8008 7997 7996 7995 ] final   98.36 input   59.86 | X-H torsion
[ 10167 10162 10161 10158 ] final -162.18 input  -65.29 | X-H torsion
[ 10718 10713 10712 10709 ] final  162.16 input   66.30 | X-H torsion
[ 10763 10752 10751 10750 ] final  174.68 input  -60.55 | X-H torsion
[ 11005 11000 10999 10996 ] final  -51.61 input  -57.11 | X-H torsion

> <Gold.Protein.ActiveResidues>
 VAL166  LYS551  ARG553  GLY616  TRP617  ASP618  TYR619  PRO620  LYS621  CYS622 
 ASP623  PHE694  ASN695  SER759  ASP760  ASP761  ALA762  ILE779  LEU786  VAL792 
 PHE793  MET794  SER795  GLU796  ALA797  LYS798  CYS799  TRP800  GLU811  SER814 

> <Gold.Protein.RotatedAtoms>
  151.5304  135.1068  159.9900 H   0  0  0  0  0  0  0  0  0  0  0  0  # atno 6907 bound_to 6896
  152.4581  133.7760  159.6835 H   0  0  0  0  0  0  0  0  0  0  0  0  # atno 6908 bound_to 6896
  150.8532  133.7690  159.3043 H   0  0  0  0  0  0  0  0  0  0  0  0  # atno 6909 bound_to 6896
  144.7600  139.8152  143.6336 H   0  0  0  0  0  0  0  0  0  0  0  0  # atno 7974 bound_to 7965
  156.0996  140.3245  155.7924 H   0  0  0  0  0  0  0  0  0  0  0  0  # atno 8008 bound_to 7997
  155.4859  140.0557  157.2978 H   0  0  0  0  0  0  0  0  0  0  0  0  # atno 8009 bound_to 7997
  154.4688  140.2002  156.0063 H   0  0  0  0  0  0  0  0  0  0  0  0  # atno 8010 bound_to 7997
  139.6411  144.0259  152.2092 H   0  0  0  0  0  0  0  0  0  0  0  0  # atno 10167 bound_to 10162
  157.1264  131.0505  151.2391 H   0  0  0  0  0  0  0  0  0  0  0  0  # atno 10718 bound_to 10713
  154.4573  135.2766  155.1738 H   0  0  0  0  0  0  0  0  0  0  0  0  # atno 10763 bound_to 10752
  154.3540  135.6144  153.5661 H   0  0  0  0  0  0  0  0  0  0  0  0  # atno 10764 bound_to 10752
  152.9852  135.5818  154.4929 H   0  0  0  0  0  0  0  0  0  0  0  0  # atno 10765 bound_to 10752
  141.0880  133.6638  156.3902 H   0  0  0  0  0  0  0  0  0  0  0  0  # atno 11005 bound_to 11000
  146.1652  139.4781  142.9963 LP  0  0  0  0  0  0  0  0  0  0  0  0  # atno 17320 bound_to 7965
  145.6652  141.0230  143.1687 LP  0  0  0  0  0  0  0  0  0  0  0  0  # atno 17321 bound_to 7965
  139.9948  144.6335  150.7782 LP  0  0  0  0  0  0  0  0  0  0  0  0  # atno 17342 bound_to 10162
  140.7491  143.2933  151.3272 LP  0  0  0  0  0  0  0  0  0  0  0  0  # atno 17343 bound_to 10162
  157.4431  130.7555  149.7086 LP  0  0  0  0  0  0  0  0  0  0  0  0  # atno 17370 bound_to 10713
  155.9817  130.4016  150.3456 LP  0  0  0  0  0  0  0  0  0  0  0  0  # atno 17371 bound_to 10713
  140.5318  134.6205  157.5352 LP  0  0  0  0  0  0  0  0  0  0  0  0  # atno 17394 bound_to 11000
  139.9701  134.7307  156.0058 LP  0  0  0  0  0  0  0  0  0  0  0  0  # atno 17395 bound_to 11000

$$$$
