#       Name:                AV-unprocessed.smi:3211
#       Creating user name   scv26
#       Creation time:       Fri Mar 27 18:11:10 2020


#       File generated by GOLD software.
#

@<TRIPOS>MOLECULE
AV-unprocessed.smi:3211
    37    38     1
SMALL
NO_CHARGES


@<TRIPOS>ATOM
      1 ****        -3.1248   2.4431   3.2792 C.3            1 S1                 0.0000
      2 ****        -1.8088   2.2277   2.5245 C.3            1 S1                 0.0000
      3 ****        -1.9518   1.2809   1.3806 C.2            1 S1                 0.0000
      4 ****        -1.7849  -0.0397   1.4903 N.2            1 S1                 0.0000
      5 ****        -1.9836  -0.7091   0.2791 C.2            1 S1                 0.0000
      6 ****        -1.7752  -2.1936   0.1997 C.3            1 S1                 0.0000
      7 ****        -0.2908  -2.6088   0.1812 C.3            1 S1                 0.0000
      8 ****         0.4499  -1.9842  -0.9138 N.am           1 S1                 0.0000
      9 ****         1.2059  -0.8786  -0.8150 C.2            1 S1                 0.0000
     10 ****         1.3755  -0.2770   0.2463 O.2            1 S1                 0.0000
     11 ****         1.7975  -0.4366  -2.1172 C.3            1 S1                 0.0000
     12 ****         2.1791   1.0236  -2.2596 C.3            1 S1                 0.0000
     13 ****         3.2621  -0.0269  -2.1979 C.3            1 S1                 0.0000
     14 ****         4.2302  -0.0769  -1.0291 C.3            1 S1                 0.0000
     15 ****        -2.3459   0.1263  -0.7482 C.2            1 S1                 0.0000
     16 ****        -2.4200   1.7893  -0.2375 S.3            1 S1                 0.0000
     17 ****        -2.9893   3.1414   4.1053 H              1 S1                 0.0000
     18 ****        -3.4989   1.5061   3.6926 H              1 S1                 0.0000
     19 ****        -3.8927   2.8505   2.6209 H              1 S1                 0.0000
     20 ****        -1.4381   3.1797   2.1438 H              1 S1                 0.0000
     21 ****        -1.0470   1.8460   3.2053 H              1 S1                 0.0000
     22 ****        -2.2697  -2.6820   1.0399 H              1 S1                 0.0000
     23 ****        -2.2630  -2.5848  -0.6939 H              1 S1                 0.0000
     24 ****         0.1734  -2.3751   1.1409 H              1 S1                 0.0000
     25 ****        -0.2172  -3.6905   0.0675 H              1 S1                 0.0000
     26 ****         0.3640  -2.4154  -1.8227 H              1 S1                 0.0000
     27 ****         1.3974  -0.9240  -3.0053 H              1 S1                 0.0000
     28 ****         1.9807   1.4939  -3.2203 H              1 S1                 0.0000
     29 ****         2.0598   1.6792  -1.3986 H              1 S1                 0.0000
     30 ****         3.7406  -0.2865  -3.1402 H              1 S1                 0.0000
     31 ****         3.8206   0.4132  -0.1466 H              1 S1                 0.0000
     32 ****         5.1561   0.4333  -1.2948 H              1 S1                 0.0000
     33 ****         4.4651  -1.1119  -0.7807 H              1 S1                 0.0000
     34 ****        -2.5564  -0.1335  -1.7749 H              1 S1                 0.0000
     35 ****        -1.5442  -0.4993   2.3451 LP             1 S1                 0.0000
     36 ****         0.9409  -0.6082   1.0838 LP             1 S1                 0.0000
     37 ****         1.9478   0.5427   0.2704 LP             1 S1                 0.0000
@<TRIPOS>BOND
    1    1    2 1     
    2    1   17 1     
    3    1   18 1     
    4    1   19 1     
    5    2    3 1     
    6    2   20 1     
    7    2   21 1     
    8    3   16 1     
    9    3    4 2     
   10    4    5 1     
   11    5    6 1     
   12    5   15 2     
   13    6    7 1     
   14    6   22 1     
   15    6   23 1     
   16    7    8 1     
   17    7   24 1     
   18    7   25 1     
   19    8    9 am    
   20    8   26 1     
   21    9   10 2     
   22    9   11 1     
   23   11   13 1     
   24   11   12 1     
   25   11   27 1     
   26   12   13 1     
   27   12   28 1     
   28   12   29 1     
   29   13   14 1     
   30   13   30 1     
   31   14   31 1     
   32   14   32 1     
   33   14   33 1     
   34   15   16 1     
   35   15   34 1     
   36    4   35 1     
   37   10   36 1     
   38   10   37 1     
@<TRIPOS>SUBSTRUCTURE
      1 S1             1
@<TRIPOS>SET
LONE_PAIRS      STATIC     ATOMS    <user>   **** ""
3 35 36 37
DONOR_HYDROGENS      STATIC     ATOMS    <user>   **** ""
1 26
ATOM$BLUE        STATIC     ATOMS    COLORGROUP SYSTEM
3 35 36 37
ATOM$RED        STATIC     ATOMS    COLORGROUP SYSTEM
1 26
