#       Name:                AV-unprocessed.smi:252
#       Creating user name   scv26
#       Creation time:       Thu Mar 26 21:06:40 2020


#       File generated by GOLD software.
#

@<TRIPOS>MOLECULE
AV-unprocessed.smi:252
    66    69     1
SMALL
NO_CHARGES


@<TRIPOS>ATOM
      1 ****        -6.4633   5.5670   1.2724 C.3            1 S1                 0.0000
      2 ****        -5.6141   5.0524   0.1007 C.3            1 S1                 0.0000
      3 ****        -4.7448   3.8509   0.4823 C.2            1 S1                 0.0000
      4 ****        -4.1794   3.8180   1.5753 O.2            1 S1                 0.0000
      5 ****        -4.6475   2.8753  -0.4371 N.am           1 S1                 0.0000
      6 ****        -3.8968   1.6232  -0.3319 C.3            1 S1                 0.0000
      7 ****        -4.4210   0.7084   0.7946 C.3            1 S1                 0.0000
      8 ****        -3.6232  -0.6037   0.8173 C.3            1 S1                 0.0000
      9 ****        -2.1154  -0.3266   0.9338 C.3            1 S1                 0.0000
     10 ****        -1.6654   0.5746  -0.1275 N.3            1 S1                 0.0000
     11 ****        -0.3239   0.5827  -0.3332 C.ar           1 S1                 0.0000
     12 ****         0.3880   1.7241  -0.1326 N.ar           1 S1                 0.0000
     13 ****         1.7116   1.7358  -0.3172 C.ar           1 S1                 0.0000
     14 ****         2.5103   0.7364  -0.6963 N.ar           1 S1                 0.0000
     15 ****         1.8020  -0.4097  -0.9069 C.ar           1 S1                 0.0000
     16 ****         0.3957  -0.5712  -0.7546 C.ar           1 S1                 0.0000
     17 ****         0.0321  -1.8737  -1.0772 N.2            1 S1                 0.0000
     18 ****         1.1595  -2.4518  -1.3887 C.2            1 S1                 0.0000
     19 ****         2.2745  -1.6491  -1.3028 N.pl3          1 S1                 0.0000
     20 ****         3.6489  -2.0370  -1.5789 C.3            1 S1                 0.0000
     21 ****         4.3863  -2.5985  -0.3400 C.3            1 S1                 0.0000
     22 ****         4.4682  -1.5753   0.6394 O.3            1 S1                 0.0000
     23 ****         3.7134  -3.8112   0.2863 C.3            1 S1                 0.0000
     24 ****         4.8649  -4.4851   1.0214 C.3            1 S1                 0.0000
     25 ****         5.9982  -4.2790   0.1880 O.3            1 S1                 0.0000
     26 ****         5.7890  -3.1561  -0.6679 C.3            1 S1                 0.0000
     27 ****         6.9624  -2.1677  -0.5745 C.3            1 S1                 0.0000
     28 ****        -2.3758   1.8529  -0.2012 C.3            1 S1                 0.0000
     29 ****        -7.0902   6.4009   0.9566 H              1 S1                 0.0000
     30 ****        -5.8401   5.9194   2.0950 H              1 S1                 0.0000
     31 ****        -7.1213   4.7873   1.6580 H              1 S1                 0.0000
     32 ****        -6.2696   4.7835  -0.7288 H              1 S1                 0.0000
     33 ****        -4.9634   5.8487  -0.2611 H              1 S1                 0.0000
     34 ****        -5.1501   3.0126  -1.3021 H              1 S1                 0.0000
     35 ****        -4.0672   1.1065  -1.2774 H              1 S1                 0.0000
     36 ****        -4.3265   1.1974   1.7645 H              1 S1                 0.0000
     37 ****        -5.4812   0.4973   0.6514 H              1 S1                 0.0000
     38 ****        -3.9532  -1.2281   1.6477 H              1 S1                 0.0000
     39 ****        -3.8204  -1.1692  -0.0944 H              1 S1                 0.0000
     40 ****        -1.8978   0.1352   1.8979 H              1 S1                 0.0000
     41 ****        -1.5741  -1.2718   0.9138 H              1 S1                 0.0000
     42 ****         2.2010   2.6806  -0.1315 H              1 S1                 0.0000
     43 ****         1.2096  -3.4895  -1.6855 H              1 S1                 0.0000
     44 ****         3.6318  -2.7805  -2.3768 H              1 S1                 0.0000
     45 ****         4.1817  -1.1731  -1.9786 H              1 S1                 0.0000
     46 ****         4.9456  -1.9105   1.3828 H              1 S1                 0.0000
     47 ****         2.8750  -3.5624   0.9384 H              1 S1                 0.0000
     48 ****         3.3455  -4.4807  -0.4924 H              1 S1                 0.0000
     49 ****         5.0401  -4.0019   1.9836 H              1 S1                 0.0000
     50 ****         4.6864  -5.5451   1.2014 H              1 S1                 0.0000
     51 ****         5.7719  -3.5655  -1.6790 H              1 S1                 0.0000
     52 ****         6.7999  -1.3047  -1.2208 H              1 S1                 0.0000
     53 ****         7.8924  -2.6439  -0.8854 H              1 S1                 0.0000
     54 ****         7.1062  -1.8059   0.4439 H              1 S1                 0.0000
     55 ****        -2.0204   2.4251  -1.0594 H              1 S1                 0.0000
     56 ****        -2.1468   2.4342   0.6926 H              1 S1                 0.0000
     57 ****        -4.2871   4.5775   2.2170 LP             1 S1                 0.0000
     58 ****        -3.6124   3.0320   1.8216 LP             1 S1                 0.0000
     59 ****        -1.9823   0.1487  -0.9749 LP             1 S1                 0.0000
     60 ****        -0.0815   2.5590   0.1546 LP             1 S1                 0.0000
     61 ****         3.5004   0.8174  -0.8111 LP             1 S1                 0.0000
     62 ****        -0.8836  -2.2755  -1.0717 LP             1 S1                 0.0000
     63 ****         3.5481  -1.3052   0.9231 LP             1 S1                 0.0000
     64 ****         4.9464  -0.7830   0.2606 LP             1 S1                 0.0000
     65 ****         6.1496  -5.0949  -0.3699 LP             1 S1                 0.0000
     66 ****         6.8016  -4.1123   0.7597 LP             1 S1                 0.0000
@<TRIPOS>BOND
    1    1    2 1     
    2    1   29 1     
    3    1   30 1     
    4    1   31 1     
    5    2    3 1     
    6    2   32 1     
    7    2   33 1     
    8    3    4 2     
    9    3    5 am    
   10    5    6 1     
   11    5   34 1     
   12    6   28 1     
   13    6    7 1     
   14    6   35 1     
   15    7    8 1     
   16    7   36 1     
   17    7   37 1     
   18    8    9 1     
   19    8   38 1     
   20    8   39 1     
   21    9   10 1     
   22    9   40 1     
   23    9   41 1     
   24   10   11 1     
   25   10   28 1     
   26   11   16 ar    
   27   11   12 ar    
   28   12   13 ar    
   29   13   14 ar    
   30   13   42 1     
   31   14   15 ar    
   32   15   19 1     
   33   15   16 ar    
   34   16   17 1     
   35   17   18 2     
   36   18   19 1     
   37   18   43 1     
   38   19   20 1     
   39   20   21 1     
   40   20   44 1     
   41   20   45 1     
   42   21   26 1     
   43   21   22 1     
   44   21   23 1     
   45   22   46 1     
   46   23   24 1     
   47   23   47 1     
   48   23   48 1     
   49   24   25 1     
   50   24   49 1     
   51   24   50 1     
   52   25   26 1     
   53   26   27 1     
   54   26   51 1     
   55   27   52 1     
   56   27   53 1     
   57   27   54 1     
   58   28   55 1     
   59   28   56 1     
   60    4   57 1     
   61    4   58 1     
   62   10   59 1     
   63   12   60 1     
   64   14   61 1     
   65   17   62 1     
   66   22   63 1     
   67   22   64 1     
   68   25   65 1     
   69   25   66 1     
@<TRIPOS>SUBSTRUCTURE
      1 S1             1
@<TRIPOS>SET
LONE_PAIRS      STATIC     ATOMS    <user>   **** ""
10 57 58 59 60 61 62 63 64 65 66
DONOR_HYDROGENS      STATIC     ATOMS    <user>   **** ""
2 34 46
ATOM$BLUE        STATIC     ATOMS    COLORGROUP SYSTEM
10 57 58 59 60 61 62 63 64 65 66
ATOM$RED        STATIC     ATOMS    COLORGROUP SYSTEM
2 34 46
