AV-unprocessed.smi:829|AV-procd|sdf|3867|dock3
  -GOLD-   22720 1323D 1   1.00000     0.00000
 Structure written by MMmdl.
 49 51  0  0  0  0  0  0  0  0  2 V2000
  146.7405  139.0473  151.8140 O   0  0  0  0  0  0  0  0  0  0  0  0
  146.2818  138.9815  152.9541 C   0  0  0  0  0  0  0  0  0  0  0  0
  145.6071  137.9368  153.4650 N   0  0  0  0  0  0  0  0  0  0  0  0
  145.2738  136.7042  152.8399 C   0  0  0  0  0  0  0  0  0  0  0  0
  144.5801  135.7460  153.6075 C   0  0  0  0  0  0  0  0  0  0  0  0
  144.2504  134.5103  153.0155 C   0  0  0  0  0  0  0  0  0  0  0  0
  144.5734  134.1868  151.7457 N   0  0  0  0  0  0  0  0  0  0  0  0
  145.2509  135.0992  151.0171 C   0  0  0  0  0  0  0  0  0  0  0  0
  145.6284  136.3636  151.5122 C   0  0  0  0  0  0  0  0  0  0  0  0
  146.3796  139.9791  153.8456 N   0  0  0  0  0  0  0  0  0  0  0  0
  147.0383  141.2631  153.6055 C   0  0  2  0  0  0  0  0  0  0  0  0
  148.5574  141.1401  153.8200 C   0  0  0  0  0  0  0  0  0  0  0  0
  148.9266  140.9960  155.3086 C   0  0  0  0  0  0  0  0  0  0  0  0
  148.3642  142.1115  156.1133 N   0  3  2  0  0  0  0  0  0  0  0  0
  148.8242  142.0973  157.5262 C   0  0  0  0  0  0  0  0  0  0  0  0
  150.3092  142.4909  157.6540 C   0  0  0  0  0  0  0  0  0  0  0  0
  151.0942  141.5794  158.6003 C   0  0  0  0  0  0  0  0  0  0  0  0
  152.3667  142.3634  158.9304 C   0  0  0  0  0  0  0  0  0  0  0  0
  151.9965  143.8465  158.7920 C   0  0  0  0  0  0  0  0  0  0  0  0
  150.5684  143.8862  158.2345 C   0  0  0  0  0  0  0  0  0  0  0  0
  146.8860  142.1836  155.9802 C   0  0  0  0  0  0  0  0  0  0  0  0
  146.4748  142.3770  154.5109 C   0  0  0  0  0  0  0  0  0  0  0  0
  145.2307  138.0629  154.3929 H   0  0  0  0  0  0  0  0  0  0  0  0
  144.2976  135.9505  154.6298 H   0  0  0  0  0  0  0  0  0  0  0  0
  143.7143  133.7608  153.5787 H   0  0  0  0  0  0  0  0  0  0  0  0
  145.5062  134.8108  150.0083 H   0  0  0  0  0  0  0  0  0  0  0  0
  146.1862  137.0312  150.8742 H   0  0  0  0  0  0  0  0  0  0  0  0
  145.9756  139.8374  154.7598 H   0  0  0  0  0  0  0  0  0  0  0  0
  146.8655  141.5362  152.5628 H   0  0  0  0  0  0  0  0  0  0  0  0
  148.9540  140.2982  153.2509 H   0  0  0  0  0  0  0  0  0  0  0  0
  149.0459  142.0300  153.4202 H   0  0  0  0  0  0  0  0  0  0  0  0
  148.5665  140.0438  155.7016 H   0  0  0  0  0  0  0  0  0  0  0  0
  150.0132  140.9869  155.4027 H   0  0  0  0  0  0  0  0  0  0  0  0
  148.1899  142.7306  158.1487 H   0  0  0  0  0  0  0  0  0  0  0  0
  148.7174  141.0896  157.9307 H   0  0  0  0  0  0  0  0  0  0  0  0
  150.7797  142.4311  156.6707 H   0  0  0  0  0  0  0  0  0  0  0  0
  150.5235  141.4097  159.5148 H   0  0  0  0  0  0  0  0  0  0  0  0
  151.3111  140.6052  158.1604 H   0  0  0  0  0  0  0  0  0  0  0  0
  152.7460  142.1229  159.9239 H   0  0  0  0  0  0  0  0  0  0  0  0
  153.1497  142.1152  158.2127 H   0  0  0  0  0  0  0  0  0  0  0  0
  152.0532  144.3646  159.7499 H   0  0  0  0  0  0  0  0  0  0  0  0
  152.6897  144.3436  158.1124 H   0  0  0  0  0  0  0  0  0  0  0  0
  150.4433  144.6756  157.4927 H   0  0  0  0  0  0  0  0  0  0  0  0
  149.8720  144.0850  159.0504 H   0  0  0  0  0  0  0  0  0  0  0  0
  146.4369  141.2739  156.3819 H   0  0  0  0  0  0  0  0  0  0  0  0
  146.4916  143.0095  156.5698 H   0  0  0  0  0  0  0  0  0  0  0  0
  146.8465  143.3419  154.1632 H   0  0  0  0  0  0  0  0  0  0  0  0
  145.3886  142.4296  154.4308 H   0  0  0  0  0  0  0  0  0  0  0  0
  148.7365  142.9584  155.7080 H   0  0  0  0  0  0  0  0  0  0  0  0
  1  2  2  0  0  0  0
  2  3  1  0  0  0  0
  2 10  1  0  0  0  0
  3  4  1  0  0  0  0
  3 23  1  0  0  0  0
  4  9  1  0  0  0  0
  4  5  2  0  0  0  0
  5  6  1  0  0  0  0
  5 24  1  0  0  0  0
  6  7  2  0  0  0  0
  6 25  1  0  0  0  0
  7  8  1  0  0  0  0
  8  9  2  0  0  0  0
  8 26  1  0  0  0  0
  9 27  1  0  0  0  0
 10 11  1  0  0  0  0
 10 28  1  0  0  0  0
 11 22  1  0  0  0  0
 11 12  1  0  0  0  0
 11 29  1  0  0  0  0
 12 13  1  0  0  0  0
 12 30  1  0  0  0  0
 12 31  1  0  0  0  0
 13 14  1  0  0  0  0
 13 32  1  0  0  0  0
 13 33  1  0  0  0  0
 14 15  1  0  0  0  0
 14 21  1  0  0  0  0
 14 49  1  0  0  0  0
 15 16  1  0  0  0  0
 15 34  1  0  0  0  0
 15 35  1  0  0  0  0
 16 20  1  0  0  0  0
 16 17  1  0  0  0  0
 16 36  1  0  0  0  0
 17 18  1  0  0  0  0
 17 37  1  0  0  0  0
 17 38  1  0  0  0  0
 18 19  1  0  0  0  0
 18 39  1  0  0  0  0
 18 40  1  0  0  0  0
 19 20  1  0  0  0  0
 19 41  1  0  0  0  0
 19 42  1  0  0  0  0
 20 43  1  0  0  0  0
 20 44  1  0  0  0  0
 21 22  1  0  0  0  0
 21 45  1  0  0  0  0
 21 46  1  0  0  0  0
 22 47  1  0  0  0  0
 22 48  1  0  0  0  0
M  CHG  1  14   1
M  END
> <s_m_source_file>
AV-unprocessed.smi

> <i_m_source_file_index>
829

> <i_lp_mmshare_version>
43012

> <i_f3d_flags>
0

> <s_epik_input>
W2NIXTFbY0hdbltjSF1bY0hdYzFbTkhdQyg9TylbTkhdW0NIXTJbQ0gyXVtDSDJdTihbQ0gyXVtDSDJdMilbQ0gyXVtDSF0zW0NIMl1bQ0gyXVtDSDJdW0NIMl0z

> <s_epik_cmdline>
J2VwaWtfcHl0aG9uJywgJy1waCcsICc3LjAnLCAnLXRuJywgJzgnLCAnLW1hJywgJzIwMCcsICctbWV0YWxfYmluZGluZycsICctaW1hZScsICc8aW5maWxlLm1hZT4nLCAnLW9tYWUnLCAnPG91dGZpbGUubWFlPic=

> <r_epik_Ionization_Penalty>
0.101981

> <r_epik_Ionization_Penalty_Charging>
0.00207989

> <r_epik_Ionization_Penalty_Neutral>
0.0999008

> <r_epik_State_Penalty>
0.0935668

> <r_epik_Charging_Adjusted_Penalty>
0.0956467

> <i_epik_Tot_Q>
1

> <i_epik_Tot_abs_Q>
1

> <r_epik_Metal_State_Penalty>
0.0787682

> <b_epik_Metal_Only>
0

> <s_lp_Force_Field>
OPLS_2005

> <r_lp_Energy>
43.3749

> <b_lp_Chiralities_Consistent>
1

> <s_lp_Variant>
AV-unprocessed.smi:829-2

> <Gold.Version>
5.8.1

> <Gold.Id.Protein>
6NUR|6NUR_protein|mol2

> <Gold.PLP.Fitness>
45.5108

> <Gold.PLP.PLP>
-35.7626

> <Gold.PLP.part.hbond>
-1.7362

> <Gold.PLP.part.metal>
0.0000

> <Gold.PLP.part.buried>
-3.4610

> <Gold.PLP.part.nonpolar>
-32.2278

> <Gold.PLP.part.repulsive>
0.8859

> <Gold.PLP.ligand.clash>
0.0000

> <Gold.PLP.ligand.torsion>
1.1047

> <Gold.PLP.Chemscore.Hbond>
1.9840

> <Gold.PLP.Chemscore.CHOScore>
1.9928

> <Gold.PLP.Chemscore.Metal>
0.0000

> <Gold.Chemscore.Hbonds>
donor molecule, donor type, donor heavy atom, donor atom, acceptor molecule, acceptor atom, score
      L1  H    14    49       P1  8028  2.00
      L1  C     6    25       P1 10957  0.94
      L1  C     8    26       P1  7921  1.00

> <Gold.PLP.Chemscore.Internal.Correction>
0.0272

> <Gold.Rescore>
     Score         DG    S(hbond)    S(metal)    S(lipo)     H(rot)  DE(clash)    DE(int)     intcor
     13.85     -16.96       0.94        0.00     100.65       1.35       0.71       2.40       ----

> <Gold.Chemscore.Fitness>
13.8525

> <Gold.Chemscore.DG>
-16.9649

> <Gold.Chemscore.ZeroCoef>
-5.4800

> <Gold.Chemscore.Hbond>
0.9443

> <Gold.Chemscore.Metal>
0.0000

> <Gold.Chemscore.Lipo>
100.6460

> <Gold.Chemscore.Internal_Hbond>
0.0000

> <Gold.Chemscore.DEClash>
0.7104

> <Gold.Chemscore.DEInternal>
2.4019

> <Gold.Chemscore.Rot>
1.3455

> <Gold.Chemscore.Internal.Correction>
   9.000000E+99

> <Gold.Chemscore.Hbonds>
donor molecule, donor type, donor heavy atom, donor atom, acceptor molecule, acceptor atom, score
      L1  H    14    49       P1  8028  0.95

> <Gold.Chemscore.Hbond.Weighted>
-3.1538

> <Gold.Chemscore.Metal.Weighted>
-0.0000

> <Gold.Chemscore.Lipo.Weighted>
-11.7756

> <Gold.Chemscore.Internal_Hbond.Weighted>
0.0000

> <Gold.Chemscore.DEClash.Weighted>
0.7104

> <Gold.Chemscore.DEInternal.Weighted>
2.4019

> <Gold.Chemscore.Rot.Weighted>
3.4445

> <Gold.Chemscore.Internal.Correction.Weighted>
   9.000000E+99

> <Gold.Protein.RotatedTorsions>
[ 6907 6896 6895 6894 ] final  -77.57 input  -60.11 | X-H torsion
[ 7974 7965 7964 7962 ] final   65.97 input  175.53 | X-H torsion
[ 8008 7997 7996 7995 ] final  -41.37 input   59.86 | X-H torsion
[ 10167 10162 10161 10158 ] final  -81.87 input  -65.29 | X-H torsion
[ 10718 10713 10712 10709 ] final -104.73 input   66.30 | X-H torsion
[ 10763 10752 10751 10750 ] final  -67.22 input  -60.55 | X-H torsion
[ 11005 11000 10999 10996 ] final  117.02 input  -57.11 | X-H torsion

> <Gold.Protein.ActiveResidues>
 VAL166  LYS551  ARG553  GLY616  TRP617  ASP618  TYR619  PRO620  LYS621  CYS622 
 ASP623  PHE694  ASN695  SER759  ASP760  ASP761  ALA762  ILE779  LEU786  VAL792 
 PHE793  MET794  SER795  GLU796  ALA797  LYS798  CYS799  TRP800  GLU811  SER814 

> <Gold.Protein.RotatedAtoms>
  150.6995  134.4402  159.5288 H   0  0  0  0  0  0  0  0  0  0  0  0  # atno 6907 bound_to 6896
  152.2113  134.8496  160.0506 H   0  0  0  0  0  0  0  0  0  0  0  0  # atno 6908 bound_to 6896
  151.9380  133.3595  159.3991 H   0  0  0  0  0  0  0  0  0  0  0  0  # atno 6909 bound_to 6896
  145.8322  139.3146  143.0980 H   0  0  0  0  0  0  0  0  0  0  0  0  # atno 7974 bound_to 7965
  154.4004  140.1501  156.3179 H   0  0  0  0  0  0  0  0  0  0  0  0  # atno 8008 bound_to 7997
  155.8556  140.3456  155.5701 H   0  0  0  0  0  0  0  0  0  0  0  0  # atno 8009 bound_to 7997
  155.7936  140.0860  157.1986 H   0  0  0  0  0  0  0  0  0  0  0  0  # atno 8010 bound_to 7997
  140.4372  143.2527  151.8676 H   0  0  0  0  0  0  0  0  0  0  0  0  # atno 10167 bound_to 10162
  156.0316  130.5529  150.7438 H   0  0  0  0  0  0  0  0  0  0  0  0  # atno 10718 bound_to 10713
  154.3713  135.6094  153.5741 H   0  0  0  0  0  0  0  0  0  0  0  0  # atno 10763 bound_to 10752
  152.9790  135.5838  154.4519 H   0  0  0  0  0  0  0  0  0  0  0  0  # atno 10764 bound_to 10752
  154.4273  135.2847  155.1913 H   0  0  0  0  0  0  0  0  0  0  0  0  # atno 10765 bound_to 10752
  139.9060  134.9605  156.7288 H   0  0  0  0  0  0  0  0  0  0  0  0  # atno 11005 bound_to 11000
  145.9558  140.8874  143.0236 LP  0  0  0  0  0  0  0  0  0  0  0  0  # atno 17320 bound_to 7965
  144.6739  140.1743  143.7411 LP  0  0  0  0  0  0  0  0  0  0  0  0  # atno 17321 bound_to 7965
  139.4787  144.5269  151.8722 LP  0  0  0  0  0  0  0  0  0  0  0  0  # atno 17342 bound_to 10162
  140.4359  144.2052  150.5889 LP  0  0  0  0  0  0  0  0  0  0  0  0  # atno 17343 bound_to 10162
  157.5000  131.0918  151.0325 LP  0  0  0  0  0  0  0  0  0  0  0  0  # atno 17370 bound_to 10713
  157.0709  130.5863  149.5402 LP  0  0  0  0  0  0  0  0  0  0  0  0  # atno 17371 bound_to 10713
  140.6942  133.9363  155.7984 LP  0  0  0  0  0  0  0  0  0  0  0  0  # atno 17394 bound_to 11000
  141.0419  134.0609  157.3891 LP  0  0  0  0  0  0  0  0  0  0  0  0  # atno 17395 bound_to 11000

$$$$
