AV-unprocessed.smi:1921|AV-procd|sdf|7785|dock2
  -GOLD-   22720 9533D 1   1.00000     0.00000
 Structure written by MMmdl.
 27 28  0  0  0  0  0  0  0  0  1 V2000
  152.3760  144.8737  158.0236 C   0  0  0  0  0  0  0  0  0  0  0  0
  152.0486  143.3749  157.9786 C   0  0  2  0  0  0  0  0  0  0  0  0
  150.9610  143.1628  157.0288 N   0  0  0  0  0  0  0  0  0  0  0  0
  150.6715  142.0005  156.4255 C   0  0  0  0  0  0  0  0  0  0  0  0
  151.3087  140.9623  156.6061 O   0  0  0  0  0  0  0  0  0  0  0  0
  149.6086  142.1275  155.6118 N   0  0  0  0  0  0  0  0  0  0  0  0
  148.9952  141.1321  154.8066 C   0  0  0  0  0  0  0  0  0  0  0  0
  149.4295  139.8705  154.7038 N   0  0  0  0  0  0  0  0  0  0  0  0
  148.6349  139.1109  153.8415 C   0  0  0  0  0  0  0  0  0  0  0  0
  147.5919  139.8148  153.2931 C   0  0  0  0  0  0  0  0  0  0  0  0
  147.5654  141.4695  153.8416 S   0  0  0  0  0  0  0  0  0  0  0  0
  151.7475  142.8446  159.3707 C   0  0  0  0  0  0  0  0  0  0  0  0
  152.0633  143.6652  160.5991 C   0  0  0  0  0  0  0  0  0  0  0  0
  152.8524  142.4103  160.3049 C   0  0  0  0  0  0  0  0  0  0  0  0
  153.2225  145.0708  158.6818 H   0  0  0  0  0  0  0  0  0  0  0  0
  151.5289  145.4549  158.3897 H   0  0  0  0  0  0  0  0  0  0  0  0
  152.6369  145.2501  157.0339 H   0  0  0  0  0  0  0  0  0  0  0  0
  152.9379  142.8616  157.6069 H   0  0  0  0  0  0  0  0  0  0  0  0
  150.3825  143.9629  156.8183 H   0  0  0  0  0  0  0  0  0  0  0  0
  149.1889  143.0440  155.5618 H   0  0  0  0  0  0  0  0  0  0  0  0
  148.8846  138.0735  153.6748 H   0  0  0  0  0  0  0  0  0  0  0  0
  146.8406  139.4614  152.6028 H   0  0  0  0  0  0  0  0  0  0  0  0
  150.8279  142.2644  159.4231 H   0  0  0  0  0  0  0  0  0  0  0  0
  152.5687  144.6186  160.4577 H   0  0  0  0  0  0  0  0  0  0  0  0
  151.3517  143.6316  161.4216 H   0  0  0  0  0  0  0  0  0  0  0  0
  152.6669  141.5388  160.9291 H   0  0  0  0  0  0  0  0  0  0  0  0
  153.8806  142.5331  159.9703 H   0  0  0  0  0  0  0  0  0  0  0  0
  1  2  1  0  0  0  0
  1 15  1  0  0  0  0
  1 16  1  0  0  0  0
  1 17  1  0  0  0  0
  2  3  1  0  0  0  0
  2 12  1  0  0  0  0
  2 18  1  0  0  0  0
  3  4  1  0  0  0  0
  3 19  1  0  0  0  0
  4  5  2  0  0  0  0
  4  6  1  0  0  0  0
  6  7  1  0  0  0  0
  6 20  1  0  0  0  0
  7 11  1  0  0  0  0
  7  8  2  0  0  0  0
  8  9  1  0  0  0  0
  9 10  2  0  0  0  0
  9 21  1  0  0  0  0
 10 11  1  0  0  0  0
 10 22  1  0  0  0  0
 12 14  1  0  0  0  0
 12 13  1  0  0  0  0
 12 23  1  0  0  0  0
 13 14  1  0  0  0  0
 13 24  1  0  0  0  0
 13 25  1  0  0  0  0
 14 26  1  0  0  0  0
 14 27  1  0  0  0  0
M  END
> <s_m_source_file>
AV-unprocessed.smi

> <i_m_source_file_index>
1921

> <i_lp_mmshare_version>
43012

> <i_f3d_flags>
0

> <s_epik_input>
W0NIMl0xW0NIMl1bQ0hdMVtDQEhdKFtDSDNdKVtOSF1DKD1PKVtOSF1jMm5bY0hdW2NIXXMy

> <s_epik_cmdline>
J2VwaWtfcHl0aG9uJywgJy1waCcsICc3LjAnLCAnLXRuJywgJzgnLCAnLW1hJywgJzIwMCcsICctbWV0YWxfYmluZGluZycsICctaW1hZScsICc8aW5maWxlLm1hZT4nLCAnLW9tYWUnLCAnPG91dGZpbGUubWFlPic=

> <r_lp_tautomer_probability>
0.999

> <r_epik_Ionization_Penalty>
0.000426276

> <r_epik_Ionization_Penalty_Charging>
0

> <r_epik_Ionization_Penalty_Neutral>
0.000426276

> <r_epik_State_Penalty>
0.000177984

> <r_epik_Charging_Adjusted_Penalty>
0.000177984

> <i_epik_Tot_Q>
0

> <i_epik_Tot_abs_Q>
0

> <r_epik_Metal_State_Penalty>
-0

> <b_epik_Metal_Only>
0

> <s_lp_Force_Field>
OPLS_2005

> <r_lp_Energy>
11.4039

> <b_lp_Chiralities_Consistent>
1

> <s_lp_Variant>
AV-unprocessed.smi:1921-1

> <Gold.Version>
5.8.1

> <Gold.Id.Protein>
6NUR|6NUR_protein|mol2

> <Gold.PLP.Fitness>
39.4876

> <Gold.PLP.PLP>
-32.0103

> <Gold.PLP.part.hbond>
-2.0000

> <Gold.PLP.part.metal>
0.0000

> <Gold.PLP.part.buried>
-2.3825

> <Gold.PLP.part.nonpolar>
-27.7686

> <Gold.PLP.part.repulsive>
0.2858

> <Gold.PLP.ligand.clash>
0.0000

> <Gold.PLP.ligand.torsion>
1.2090

> <Gold.PLP.Chemscore.Hbond>
1.9440

> <Gold.PLP.Chemscore.CHOScore>
1.0000

> <Gold.PLP.Chemscore.Metal>
0.0000

> <Gold.Chemscore.Hbonds>
donor molecule, donor type, donor heavy atom, donor atom, acceptor molecule, acceptor atom, score
      L1  H     3    19       P1  8028  0.96
      L1  H     6    20       P1  8028  1.00
      L1  C     9    21       P1  7948  0.91

> <Gold.PLP.Chemscore.Internal.Correction>
1.0634

> <Gold.Rescore>
     Score         DG    S(hbond)    S(metal)    S(lipo)     H(rot)  DE(clash)    DE(int)     intcor
     15.13     -17.83       1.95        0.00      77.44       1.26       0.14       2.57       ----

> <Gold.Chemscore.Fitness>
15.1295

> <Gold.Chemscore.DG>
-17.8308

> <Gold.Chemscore.ZeroCoef>
-5.4800

> <Gold.Chemscore.Hbond>
1.9501

> <Gold.Chemscore.Metal>
0.0000

> <Gold.Chemscore.Lipo>
77.4419

> <Gold.Chemscore.Internal_Hbond>
0.0000

> <Gold.Chemscore.DEClash>
0.1355

> <Gold.Chemscore.DEInternal>
2.5658

> <Gold.Chemscore.Rot>
1.2591

> <Gold.Chemscore.Internal.Correction>
   9.000000E+99

> <Gold.Chemscore.Hbonds>
donor molecule, donor type, donor heavy atom, donor atom, acceptor molecule, acceptor atom, score
      L1  H     3    19       P1  8028  0.87
      L1  H     6    20       P1  8028  1.00

> <Gold.Chemscore.Hbond.Weighted>
-6.5134

> <Gold.Chemscore.Metal.Weighted>
-0.0000

> <Gold.Chemscore.Lipo.Weighted>
-9.0607

> <Gold.Chemscore.Internal_Hbond.Weighted>
0.0000

> <Gold.Chemscore.DEClash.Weighted>
0.1355

> <Gold.Chemscore.DEInternal.Weighted>
2.5658

> <Gold.Chemscore.Rot.Weighted>
3.2233

> <Gold.Chemscore.Internal.Correction.Weighted>
   9.000000E+99

> <Gold.Protein.RotatedTorsions>
[ 6907 6896 6895 6894 ] final -115.59 input  -60.11 | X-H torsion
[ 7974 7965 7964 7962 ] final  -58.66 input  175.53 | X-H torsion
[ 8008 7997 7996 7995 ] final -122.39 input   59.86 | X-H torsion
[ 10167 10162 10161 10158 ] final  129.25 input  -65.29 | X-H torsion
[ 10718 10713 10712 10709 ] final    9.13 input   66.30 | X-H torsion
[ 10763 10752 10751 10750 ] final -123.14 input  -60.55 | X-H torsion
[ 11005 11000 10999 10996 ] final  -45.45 input  -57.11 | X-H torsion

> <Gold.Protein.ActiveResidues>
 VAL166  LYS551  ARG553  GLY616  TRP617  ASP618  TYR619  PRO620  LYS621  CYS622 
 ASP623  PHE694  ASN695  SER759  ASP760  ASP761  ALA762  ILE779  LEU786  VAL792 
 PHE793  MET794  SER795  GLU796  ALA797  LYS798  CYS799  TRP800  GLU811  SER814 

> <Gold.Protein.RotatedAtoms>
  150.7990  133.8636  159.3238 H   0  0  0  0  0  0  0  0  0  0  0  0  # atno 6907 bound_to 6896
  151.6453  135.1006  160.0159 H   0  0  0  0  0  0  0  0  0  0  0  0  # atno 6908 bound_to 6896
  152.4075  133.6872  159.6404 H   0  0  0  0  0  0  0  0  0  0  0  0  # atno 6909 bound_to 6896
  145.8367  140.8444  143.0055 H   0  0  0  0  0  0  0  0  0  0  0  0  # atno 7974 bound_to 7965
  155.1635  140.0406  157.2847 H   0  0  0  0  0  0  0  0  0  0  0  0  # atno 8008 bound_to 7997
  154.6320  140.2526  155.7396 H   0  0  0  0  0  0  0  0  0  0  0  0  # atno 8009 bound_to 7997
  156.2489  140.2873  156.0675 H   0  0  0  0  0  0  0  0  0  0  0  0  # atno 8010 bound_to 7997
  139.5487  144.6795  151.4392 H   0  0  0  0  0  0  0  0  0  0  0  0  # atno 10167 bound_to 10162
  156.9618  130.5936  149.5662 H   0  0  0  0  0  0  0  0  0  0  0  0  # atno 10718 bound_to 10713
  154.8702  135.4108  154.2895 H   0  0  0  0  0  0  0  0  0  0  0  0  # atno 10763 bound_to 10752
  153.3774  135.7010  153.6597 H   0  0  0  0  0  0  0  0  0  0  0  0  # atno 10764 bound_to 10752
  153.5434  135.3643  155.2700 H   0  0  0  0  0  0  0  0  0  0  0  0  # atno 10765 bound_to 10752
  141.0516  133.6741  156.3014 H   0  0  0  0  0  0  0  0  0  0  0  0  # atno 11005 bound_to 11000
  144.6736  140.0752  143.7471 LP  0  0  0  0  0  0  0  0  0  0  0  0  # atno 17320 bound_to 7965
  145.9511  139.2734  143.1212 LP  0  0  0  0  0  0  0  0  0  0  0  0  # atno 17321 bound_to 7965
  140.6743  143.8225  150.7038 LP  0  0  0  0  0  0  0  0  0  0  0  0  # atno 17342 bound_to 10162
  140.1658  143.4236  152.2035 LP  0  0  0  0  0  0  0  0  0  0  0  0  # atno 17343 bound_to 10162
  156.0319  130.5409  150.8555 LP  0  0  0  0  0  0  0  0  0  0  0  0  # atno 17370 bound_to 10713
  157.5652  131.0946  150.9500 LP  0  0  0  0  0  0  0  0  0  0  0  0  # atno 17371 bound_to 10713
  140.6045  134.5521  157.5523 LP  0  0  0  0  0  0  0  0  0  0  0  0  # atno 17394 bound_to 11000
  139.9355  134.7883  156.0815 LP  0  0  0  0  0  0  0  0  0  0  0  0  # atno 17395 bound_to 11000

$$$$
