AV-unprocessed.smi:3314|AV-procd|sdf|12739|dock2
  -GOLD-   2272019 83D 1   1.00000     0.00000
 Structure written by MMmdl.
 38 39  0  0  0  0  0  0  0  0  2 V2000
  154.5258  140.8517  161.0422 C   0  0  0  0  0  0  0  0  0  0  0  0
  153.4665  141.4971  160.1722 C   0  0  0  0  0  0  0  0  0  0  0  0
  153.3664  142.9440  160.0866 C   0  0  0  0  0  0  0  0  0  0  0  0
  152.4170  143.4971  159.3134 C   0  0  0  0  0  0  0  0  0  0  0  0
  152.2390  144.9934  159.1601 C   0  0  0  0  0  0  0  0  0  0  0  0
  151.5302  142.7037  158.5956 N   0  0  0  0  0  0  0  0  0  0  0  0
  151.5679  141.2985  158.6175 C   0  0  0  0  0  0  0  0  0  0  0  0
  150.7721  140.5101  157.9552 N   0  0  0  0  0  0  0  0  0  0  0  0
  149.7512  140.9833  157.1348 C   0  0  0  0  0  0  0  0  0  0  0  0
  148.5607  141.1684  157.4036 O   0  0  0  0  0  0  0  0  0  0  0  0
  150.2671  141.3071  155.7159 C   0  0  2  0  0  0  0  0  0  0  0  0
  149.1771  141.7517  154.7105 C   0  0  0  0  0  0  0  0  0  0  0  0
  148.3094  140.6152  154.3186 N   0  3  1  0  0  0  0  0  0  0  0  0
  147.2252  141.0168  153.3974 C   0  0  0  0  0  0  0  0  0  0  0  0
  149.1185  139.4925  153.7933 C   0  0  0  0  0  0  0  0  0  0  0  0
  150.1819  139.0734  154.8206 C   0  0  0  0  0  0  0  0  0  0  0  0
  150.9880  140.2001  155.1630 O   0  0  0  0  0  0  0  0  0  0  0  0
  152.6036  140.7290  159.4660 C   0  0  0  0  0  0  0  0  0  0  0  0
  155.1293  141.6026  161.5526 H   0  0  0  0  0  0  0  0  0  0  0  0
  155.1900  140.2351  160.4362 H   0  0  0  0  0  0  0  0  0  0  0  0
  154.0614  140.2177  161.7978 H   0  0  0  0  0  0  0  0  0  0  0  0
  154.0508  143.5722  160.6383 H   0  0  0  0  0  0  0  0  0  0  0  0
  153.1439  145.4397  158.7470 H   0  0  0  0  0  0  0  0  0  0  0  0
  152.0434  145.4514  160.1300 H   0  0  0  0  0  0  0  0  0  0  0  0
  151.4077  145.2334  158.4960 H   0  0  0  0  0  0  0  0  0  0  0  0
  150.9765  142.1280  155.8276 H   0  0  0  0  0  0  0  0  0  0  0  0
  148.5701  142.5548  155.1316 H   0  0  0  0  0  0  0  0  0  0  0  0
  149.6528  142.1625  153.8184 H   0  0  0  0  0  0  0  0  0  0  0  0
  147.6282  141.3922  152.4559 H   0  0  0  0  0  0  0  0  0  0  0  0
  146.6122  141.8000  153.8443 H   0  0  0  0  0  0  0  0  0  0  0  0
  146.5743  140.1699  153.1777 H   0  0  0  0  0  0  0  0  0  0  0  0
  148.4710  138.6453  153.5643 H   0  0  0  0  0  0  0  0  0  0  0  0
  149.5986  139.7920  152.8603 H   0  0  0  0  0  0  0  0  0  0  0  0
  149.7173  138.6388  155.7063 H   0  0  0  0  0  0  0  0  0  0  0  0
  150.8243  138.3008  154.3984 H   0  0  0  0  0  0  0  0  0  0  0  0
  152.7090  139.6569  159.5534 H   0  0  0  0  0  0  0  0  0  0  0  0
  150.8496  143.1971  158.0359 H   0  0  0  0  0  0  0  0  0  0  0  0
  147.8644  140.2842  155.1631 H   0  0  0  0  0  0  0  0  0  0  0  0
  1  2  1  0  0  0  0
  1 19  1  0  0  0  0
  1 20  1  0  0  0  0
  1 21  1  0  0  0  0
  2 18  2  0  0  0  0
  2  3  1  0  0  0  0
  3  4  2  0  0  0  0
  3 22  1  0  0  0  0
  4  5  1  0  0  0  0
  4  6  1  0  0  0  0
  5 23  1  0  0  0  0
  5 24  1  0  0  0  0
  5 25  1  0  0  0  0
  6  7  1  0  0  0  0
  6 37  1  0  0  0  0
  7  8  2  0  0  0  0
  7 18  1  0  0  0  0
  8  9  1  0  0  0  0
  9 10  2  0  0  0  0
  9 11  1  0  0  0  0
 11 17  1  0  0  0  0
 11 12  1  0  0  0  0
 11 26  1  0  0  0  0
 12 13  1  0  0  0  0
 12 27  1  0  0  0  0
 12 28  1  0  0  0  0
 13 14  1  0  0  0  0
 13 15  1  0  0  0  0
 13 38  1  0  0  0  0
 14 29  1  0  0  0  0
 14 30  1  0  0  0  0
 14 31  1  0  0  0  0
 15 16  1  0  0  0  0
 15 32  1  0  0  0  0
 15 33  1  0  0  0  0
 16 17  1  0  0  0  0
 16 34  1  0  0  0  0
 16 35  1  0  0  0  0
 18 36  1  0  0  0  0
M  CHG  1  13   1
M  END
> <s_m_source_file>
AV-unprocessed.smi

> <i_m_source_file_index>
3314

> <i_lp_mmshare_version>
43012

> <i_f3d_flags>
0

> <s_epik_input>
W0NIM11jMVtjSF1jKFtDSDNdKW5jKFtjSF0xKVtOSF1DKD1PKVtDQEBIXTJbQ0gyXU4oW0NIM10pW0NIMl1bQ0gyXU8y

> <s_epik_cmdline>
J2VwaWtfcHl0aG9uJywgJy1waCcsICc3LjAnLCAnLXRuJywgJzgnLCAnLW1hJywgJzIwMCcsICctbWV0YWxfYmluZGluZycsICctaW1hZScsICc8aW5maWxlLm1hZT4nLCAnLW9tYWUnLCAnPG91dGZpbGUubWFlPic=

> <r_epik_Ionization_Penalty>
0.519783

> <r_epik_Ionization_Penalty_Charging>
0.519783

> <r_epik_Ionization_Penalty_Neutral>
1.74183e-13

> <r_epik_State_Penalty>
2.39351

> <r_epik_Charging_Adjusted_Penalty>
2.91329

> <i_epik_Tot_Q>
1

> <i_epik_Tot_abs_Q>
1

> <r_epik_Metal_State_Penalty>
2.41924

> <b_epik_Metal_Only>
0

> <s_lp_Force_Field>
OPLS_2005

> <r_lp_Energy>
32.167

> <b_lp_Chiralities_Consistent>
1

> <s_lp_Variant>
AV-unprocessed.smi:3314-9

> <Gold.Version>
5.8.1

> <Gold.Id.Protein>
6NUR|6NUR_protein|mol2

> <Gold.PLP.Fitness>
39.8646

> <Gold.PLP.PLP>
-38.5109

> <Gold.PLP.part.hbond>
-1.0000

> <Gold.PLP.part.metal>
0.0000

> <Gold.PLP.part.buried>
-1.4785

> <Gold.PLP.part.nonpolar>
-35.9834

> <Gold.PLP.part.repulsive>
0.2417

> <Gold.PLP.ligand.clash>
0.0000

> <Gold.PLP.ligand.torsion>
0.8336

> <Gold.PLP.Chemscore.Hbond>
1.0000

> <Gold.PLP.Chemscore.CHOScore>
0.0000

> <Gold.PLP.Chemscore.Metal>
0.0000

> <Gold.Chemscore.Hbonds>
donor molecule, donor type, donor heavy atom, donor atom, acceptor molecule, acceptor atom, score
      P1  H  7989  7998       L1    17  1.00

> <Gold.PLP.Chemscore.Internal.Correction>
0.0210

> <Gold.Rescore>
     Score         DG    S(hbond)    S(metal)    S(lipo)     H(rot)  DE(clash)    DE(int)     intcor
     16.18     -17.19       0.77        0.00      99.99       1.00       0.26       0.76       ----

> <Gold.Chemscore.Fitness>
16.1791

> <Gold.Chemscore.DG>
-17.1937

> <Gold.Chemscore.ZeroCoef>
-5.4800

> <Gold.Chemscore.Hbond>
0.7708

> <Gold.Chemscore.Metal>
0.0000

> <Gold.Chemscore.Lipo>
99.9919

> <Gold.Chemscore.Internal_Hbond>
0.0000

> <Gold.Chemscore.DEClash>
0.2556

> <Gold.Chemscore.DEInternal>
0.7590

> <Gold.Chemscore.Rot>
1.0000

> <Gold.Chemscore.Internal.Correction>
   9.000000E+99

> <Gold.Chemscore.Hbonds>
donor molecule, donor type, donor heavy atom, donor atom, acceptor molecule, acceptor atom, score
      P1  H  7989  7998       L1    17  0.20

> <Gold.Chemscore.Hbond.Weighted>
-2.5746

> <Gold.Chemscore.Metal.Weighted>
-0.0000

> <Gold.Chemscore.Lipo.Weighted>
-11.6991

> <Gold.Chemscore.Internal_Hbond.Weighted>
0.0000

> <Gold.Chemscore.DEClash.Weighted>
0.2556

> <Gold.Chemscore.DEInternal.Weighted>
0.7590

> <Gold.Chemscore.Rot.Weighted>
2.5600

> <Gold.Chemscore.Internal.Correction.Weighted>
   9.000000E+99

> <Gold.Protein.RotatedTorsions>
[ 6907 6896 6895 6894 ] final -137.74 input  -60.11 | X-H torsion
[ 7974 7965 7964 7962 ] final  169.27 input  175.53 | X-H torsion
[ 8008 7997 7996 7995 ] final   24.93 input   59.86 | X-H torsion
[ 10167 10162 10161 10158 ] final  -50.43 input  -65.29 | X-H torsion
[ 10718 10713 10712 10709 ] final  -34.23 input   66.30 | X-H torsion
[ 10763 10752 10751 10750 ] final  166.44 input  -60.55 | X-H torsion
[ 11005 11000 10999 10996 ] final  177.02 input  -57.11 | X-H torsion

> <Gold.Protein.ActiveResidues>
 VAL166  LYS551  ARG553  GLY616  TRP617  ASP618  TYR619  PRO620  LYS621  CYS622 
 ASP623  PHE694  ASN695  SER759  ASP760  ASP761  ALA762  ILE779  LEU786  VAL792 
 PHE793  MET794  SER795  GLU796  ALA797  LYS798  CYS799  TRP800  GLU811  SER814 

> <Gold.Protein.RotatedAtoms>
  151.0263  133.5830  159.2665 H   0  0  0  0  0  0  0  0  0  0  0  0  # atno 6907 bound_to 6896
  151.2929  135.0746  159.9220 H   0  0  0  0  0  0  0  0  0  0  0  0  # atno 6908 bound_to 6896
  152.5335  133.9958  159.7926 H   0  0  0  0  0  0  0  0  0  0  0  0  # atno 6909 bound_to 6896
  144.7360  139.9030  143.6410 H   0  0  0  0  0  0  0  0  0  0  0  0  # atno 7974 bound_to 7965
  155.0039  140.3128  155.4856 H   0  0  0  0  0  0  0  0  0  0  0  0  # atno 8008 bound_to 7997
  156.2920  140.2227  156.5091 H   0  0  0  0  0  0  0  0  0  0  0  0  # atno 8009 bound_to 7997
  154.7594  140.0460  157.0948 H   0  0  0  0  0  0  0  0  0  0  0  0  # atno 8010 bound_to 7997
  140.6638  143.2658  151.4359 H   0  0  0  0  0  0  0  0  0  0  0  0  # atno 10167 bound_to 10162
  156.3531  130.4311  149.7687 H   0  0  0  0  0  0  0  0  0  0  0  0  # atno 10718 bound_to 10713
  154.3390  135.2754  155.2432 H   0  0  0  0  0  0  0  0  0  0  0  0  # atno 10763 bound_to 10752
  154.4711  135.5883  153.6326 H   0  0  0  0  0  0  0  0  0  0  0  0  # atno 10764 bound_to 10752
  152.9859  135.6088  154.3590 H   0  0  0  0  0  0  0  0  0  0  0  0  # atno 10765 bound_to 10752
  140.3795  134.6959  157.4442 H   0  0  0  0  0  0  0  0  0  0  0  0  # atno 11005 bound_to 11000
  146.1058  139.4057  143.0318 LP  0  0  0  0  0  0  0  0  0  0  0  0  # atno 17320 bound_to 7965
  145.7514  140.9971  143.1248 LP  0  0  0  0  0  0  0  0  0  0  0  0  # atno 17321 bound_to 7965
  139.5879  144.1563  152.2052 LP  0  0  0  0  0  0  0  0  0  0  0  0  # atno 17342 bound_to 10162
  140.0908  144.5622  150.7056 LP  0  0  0  0  0  0  0  0  0  0  0  0  # atno 17343 bound_to 10162
  156.4880  130.8072  151.3083 LP  0  0  0  0  0  0  0  0  0  0  0  0  # atno 17370 bound_to 10713
  157.7464  130.9984  150.2853 LP  0  0  0  0  0  0  0  0  0  0  0  0  # atno 17371 bound_to 10713
  140.0489  134.6159  155.8886 LP  0  0  0  0  0  0  0  0  0  0  0  0  # atno 17394 bound_to 11000
  141.1928  133.6576  156.5518 LP  0  0  0  0  0  0  0  0  0  0  0  0  # atno 17395 bound_to 11000

$$$$
