AV-unprocessed.smi:1897|AV-procd|sdf|7696|dock1
  -GOLD-   22720 9433D 1   1.00000     0.00000
 Structure written by MMmdl.
 38 40  0  0  0  0  0  0  0  0  3 V2000
  149.1612  140.6081  154.3651 C   0  0  0  0  0  0  0  0  0  0  0  0
  150.0045  139.4035  154.6080 C   0  0  0  0  0  0  0  0  0  0  0  0
  151.3355  139.4181  154.5013 N   0  0  0  0  0  0  0  0  0  0  0  0
  151.8951  138.1785  154.7732 N   0  0  0  0  0  0  0  0  0  0  0  0
  150.9833  137.2494  155.0961 C   0  0  0  0  0  0  0  0  0  0  0  0
  151.3185  135.9832  155.4068 N   0  5  0  0  0  0  0  0  0  0  0  0
  150.4211  134.9638  155.3895 C   0  0  0  0  0  0  0  0  0  0  0  0
  150.3794  134.0845  156.2488 O   0  0  0  0  0  0  0  0  0  0  0  0
  149.5272  134.9356  154.3819 N   0  0  0  0  0  0  0  0  0  0  0  0
  148.4390  133.9764  154.2075 C   0  0  2  0  0  0  0  0  0  0  0  0
  148.6892  133.0165  153.0273 C   0  0  0  0  0  0  0  0  0  0  0  0
  147.3599  132.9677  152.2675 C   0  0  0  0  0  0  0  0  0  0  0  0
  146.7947  134.3024  152.4971 N   0  3  1  0  0  0  0  0  0  0  0  0
  145.3846  134.5376  152.1239 C   0  0  0  0  0  0  0  0  0  0  0  0
  145.0709  136.0380  152.3033 C   0  0  0  0  0  0  0  0  0  0  0  0
  145.4436  136.5454  153.7139 C   0  0  0  0  0  0  0  0  0  0  0  0
  146.8906  136.1644  154.0914 C   0  0  0  0  0  0  0  0  0  0  0  0
  147.0799  134.6475  153.9002 C   0  0  2  0  0  0  0  0  0  0  0  0
  149.3266  137.8507  155.0674 S   0  0  0  0  0  0  0  0  0  0  0  0
  149.0266  141.1610  155.2947 H   0  0  0  0  0  0  0  0  0  0  0  0
  148.1822  140.3123  153.9878 H   0  0  0  0  0  0  0  0  0  0  0  0
  149.6336  141.2620  153.6314 H   0  0  0  0  0  0  0  0  0  0  0  0
  149.5953  135.6704  153.6932 H   0  0  0  0  0  0  0  0  0  0  0  0
  148.3355  133.3786  155.1151 H   0  0  0  0  0  0  0  0  0  0  0  0
  149.4644  133.4152  152.3706 H   0  0  0  0  0  0  0  0  0  0  0  0
  149.0149  132.0283  153.3536 H   0  0  0  0  0  0  0  0  0  0  0  0
  147.4886  132.7557  151.2058 H   0  0  0  0  0  0  0  0  0  0  0  0
  146.7017  132.2104  152.6962 H   0  0  0  0  0  0  0  0  0  0  0  0
  145.2243  134.2415  151.0868 H   0  0  0  0  0  0  0  0  0  0  0  0
  144.7257  133.9259  152.7419 H   0  0  0  0  0  0  0  0  0  0  0  0
  145.6289  136.6110  151.5613 H   0  0  0  0  0  0  0  0  0  0  0  0
  144.0153  136.2264  152.1050 H   0  0  0  0  0  0  0  0  0  0  0  0
  145.3142  137.6266  153.7705 H   0  0  0  0  0  0  0  0  0  0  0  0
  144.7561  136.1151  154.4434 H   0  0  0  0  0  0  0  0  0  0  0  0
  147.5953  136.7191  153.4698 H   0  0  0  0  0  0  0  0  0  0  0  0
  147.0886  136.4472  155.1257 H   0  0  0  0  0  0  0  0  0  0  0  0
  146.3390  134.1369  154.5194 H   0  0  0  0  0  0  0  0  0  0  0  0
  147.3514  134.9334  151.9385 H   0  0  0  0  0  0  0  0  0  0  0  0
  1  2  1  0  0  0  0
  1 20  1  0  0  0  0
  1 21  1  0  0  0  0
  1 22  1  0  0  0  0
  2 19  1  0  0  0  0
  2  3  2  0  0  0  0
  3  4  1  0  0  0  0
  4  5  2  0  0  0  0
  5  6  1  0  0  0  0
  5 19  1  0  0  0  0
  6  7  1  0  0  0  0
  7  8  2  0  0  0  0
  7  9  1  0  0  0  0
  9 10  1  0  0  0  0
  9 23  1  0  0  0  0
 10 18  1  0  0  0  0
 10 11  1  0  0  0  0
 10 24  1  0  0  0  0
 11 12  1  0  0  0  0
 11 25  1  0  0  0  0
 11 26  1  0  0  0  0
 12 13  1  0  0  0  0
 12 27  1  0  0  0  0
 12 28  1  0  0  0  0
 13 18  1  0  0  0  0
 13 14  1  0  0  0  0
 13 38  1  0  0  0  0
 14 15  1  0  0  0  0
 14 29  1  0  0  0  0
 14 30  1  0  0  0  0
 15 16  1  0  0  0  0
 15 31  1  0  0  0  0
 15 32  1  0  0  0  0
 16 17  1  0  0  0  0
 16 33  1  0  0  0  0
 16 34  1  0  0  0  0
 17 18  1  0  0  0  0
 17 35  1  0  0  0  0
 17 36  1  0  0  0  0
 18 37  1  0  0  0  0
M  CHG  1   6  -1
M  CHG  1  13   1
M  END
> <s_m_source_file>
AV-unprocessed.smi

> <i_m_source_file_index>
1897

> <i_lp_mmshare_version>
43012

> <i_f3d_flags>
0

> <s_epik_input>
W0NIM11jMW5uYyhzMSlbTkhdQyg9TylbTkhdW0NASF0oW0NIMl1bQ0gyXTIpW0NAQEhdKE4yMylbQ0gyXVtDSDJdW0NIMl1bQ0gyXTM=

> <s_epik_cmdline>
J2VwaWtfcHl0aG9uJywgJy1waCcsICc3LjAnLCAnLXRuJywgJzgnLCAnLW1hJywgJzIwMCcsICctbWV0YWxfYmluZGluZycsICctaW1hZScsICc8aW5maWxlLm1hZT4nLCAnLW9tYWUnLCAnPG91dGZpbGUubWFlPic=

> <r_lp_tautomer_probability>
1

> <r_epik_Ionization_Penalty>
3.77712

> <r_epik_Ionization_Penalty_Charging>
3.67739

> <r_epik_Ionization_Penalty_Neutral>
0.0997294

> <r_epik_State_Penalty>
3.67514

> <r_epik_Charging_Adjusted_Penalty>
7.35254

> <i_epik_Tot_Q>
0

> <i_epik_Tot_abs_Q>
2

> <r_epik_Metal_State_Penalty>
0.540795

> <b_epik_Metal_Only>
1

> <s_lp_Force_Field>
OPLS_2005

> <r_lp_Energy>
34.9816

> <b_lp_Chiralities_Consistent>
1

> <s_lp_Variant>
AV-unprocessed.smi:1897-13

> <Gold.Version>
5.8.1

> <Gold.Id.Protein>
6NUR|6NUR_protein|mol2

> <Gold.PLP.Fitness>
43.2479

> <Gold.PLP.PLP>
-26.6856

> <Gold.PLP.part.hbond>
-4.0000

> <Gold.PLP.part.metal>
0.0000

> <Gold.PLP.part.buried>
-3.2233

> <Gold.PLP.part.nonpolar>
-20.3317

> <Gold.PLP.part.repulsive>
0.3115

> <Gold.PLP.ligand.clash>
0.0000

> <Gold.PLP.ligand.torsion>
0.5009

> <Gold.PLP.Chemscore.Hbond>
5.8480

> <Gold.PLP.Chemscore.CHOScore>
0.0000

> <Gold.PLP.Chemscore.Metal>
0.0000

> <Gold.Chemscore.Hbonds>
donor molecule, donor type, donor heavy atom, donor atom, acceptor molecule, acceptor atom, score
      L1  H     9    23       P1  7948  0.82
      L1  H    13    38       P1  7948  1.92
      P1  H  7989  7998       L1     3  1.00
      P1  H 10752 10763       L1     6  2.00

> <Gold.PLP.Chemscore.Internal.Correction>
0.0200

> <Gold.Rescore>
     Score         DG    S(hbond)    S(metal)    S(lipo)     H(rot)  DE(clash)    DE(int)     intcor
     17.00     -17.64       2.84        0.00      44.86       1.00       0.02       0.62       ----

> <Gold.Chemscore.Fitness>
16.9980

> <Gold.Chemscore.DG>
-17.6418

> <Gold.Chemscore.ZeroCoef>
-5.4800

> <Gold.Chemscore.Hbond>
2.8364

> <Gold.Chemscore.Metal>
0.0000

> <Gold.Chemscore.Lipo>
44.8559

> <Gold.Chemscore.Internal_Hbond>
0.0000

> <Gold.Chemscore.DEClash>
0.0230

> <Gold.Chemscore.DEInternal>
0.6208

> <Gold.Chemscore.Rot>
1.0000

> <Gold.Chemscore.Internal.Correction>
   9.000000E+99

> <Gold.Chemscore.Hbonds>
donor molecule, donor type, donor heavy atom, donor atom, acceptor molecule, acceptor atom, score
      L1  H     9    23       P1  7948  0.18
      L1  H    13    38       P1  7948  0.79
      P1  H  7989  7998       L1     3  0.40
      P1  H 10752 10763       L1     6  0.57

> <Gold.Chemscore.Hbond.Weighted>
-9.4737

> <Gold.Chemscore.Metal.Weighted>
-0.0000

> <Gold.Chemscore.Lipo.Weighted>
-5.2481

> <Gold.Chemscore.Internal_Hbond.Weighted>
0.0000

> <Gold.Chemscore.DEClash.Weighted>
0.0230

> <Gold.Chemscore.DEInternal.Weighted>
0.6208

> <Gold.Chemscore.Rot.Weighted>
2.5600

> <Gold.Chemscore.Internal.Correction.Weighted>
   9.000000E+99

> <Gold.Protein.RotatedTorsions>
[ 6907 6896 6895 6894 ] final -131.22 input  -60.11 | X-H torsion
[ 7974 7965 7964 7962 ] final  134.54 input  175.53 | X-H torsion
[ 8008 7997 7996 7995 ] final   77.89 input   59.86 | X-H torsion
[ 10167 10162 10161 10158 ] final    2.02 input  -65.29 | X-H torsion
[ 10718 10713 10712 10709 ] final  -11.25 input   66.30 | X-H torsion
[ 10763 10752 10751 10750 ] final   57.04 input  -60.55 | X-H torsion
[ 11005 11000 10999 10996 ] final -118.42 input  -57.11 | X-H torsion

> <Gold.Protein.ActiveResidues>
 VAL166  LYS551  ARG553  GLY616  TRP617  ASP618  TYR619  PRO620  LYS621  CYS622 
 ASP623  PHE694  ASN695  SER759  ASP760  ASP761  ALA762  ILE779  LEU786  VAL792 
 PHE793  MET794  SER795  GLU796  ALA797  LYS798  CYS799  TRP800  GLU811  SER814 

> <Gold.Protein.RotatedAtoms>
  150.9485  133.6576  159.2776 H   0  0  0  0  0  0  0  0  0  0  0  0  # atno 6907 bound_to 6896
  151.3940  135.0959  159.9544 H   0  0  0  0  0  0  0  0  0  0  0  0  # atno 6908 bound_to 6896
  152.5100  133.8994  159.7488 H   0  0  0  0  0  0  0  0  0  0  0  0  # atno 6909 bound_to 6896
  144.9754  139.4561  143.5412 H   0  0  0  0  0  0  0  0  0  0  0  0  # atno 7974 bound_to 7965
  155.8480  140.3459  155.5675 H   0  0  0  0  0  0  0  0  0  0  0  0  # atno 8008 bound_to 7997
  155.8069  140.0893  157.1945 H   0  0  0  0  0  0  0  0  0  0  0  0  # atno 8009 bound_to 7997
  154.4007  140.1455  156.3327 H   0  0  0  0  0  0  0  0  0  0  0  0  # atno 8010 bound_to 7997
  140.6655  143.7191  150.7819 H   0  0  0  0  0  0  0  0  0  0  0  0  # atno 10167 bound_to 10162
  156.6618  130.4984  149.6028 H   0  0  0  0  0  0  0  0  0  0  0  0  # atno 10718 bound_to 10713
  152.9842  135.5655  154.5327 H   0  0  0  0  0  0  0  0  0  0  0  0  # atno 10763 bound_to 10752
  154.4795  135.2788  155.1583 H   0  0  0  0  0  0  0  0  0  0  0  0  # atno 10764 bound_to 10752
  154.3098  135.6290  153.5513 H   0  0  0  0  0  0  0  0  0  0  0  0  # atno 10765 bound_to 10752
  141.0287  134.0015  157.3176 H   0  0  0  0  0  0  0  0  0  0  0  0  # atno 11005 bound_to 11000
  146.3394  139.8992  142.8797 LP  0  0  0  0  0  0  0  0  0  0  0  0  # atno 17320 bound_to 7965
  145.2498  141.0040  143.3887 LP  0  0  0  0  0  0  0  0  0  0  0  0  # atno 17321 bound_to 7965
  140.0867  143.4916  152.2501 LP  0  0  0  0  0  0  0  0  0  0  0  0  # atno 17342 bound_to 10162
  139.5902  144.7547  151.3419 LP  0  0  0  0  0  0  0  0  0  0  0  0  # atno 17343 bound_to 10162
  156.2005  130.6617  151.1162 LP  0  0  0  0  0  0  0  0  0  0  0  0  # atno 17370 bound_to 10713
  157.7107  131.0735  150.6511 LP  0  0  0  0  0  0  0  0  0  0  0  0  # atno 17371 bound_to 10713
  139.9193  135.0199  156.8002 LP  0  0  0  0  0  0  0  0  0  0  0  0  # atno 17394 bound_to 11000
  140.6446  133.9787  155.7724 LP  0  0  0  0  0  0  0  0  0  0  0  0  # atno 17395 bound_to 11000

$$$$
