AV-unprocessed.smi:1638|AV-procd|sdf|6546|dock7
  -GOLD-   22720 7233D 1   1.00000     0.00000
 Structure written by MMmdl.
 41 42  0  0  0  0  0  0  0  0  2 V2000
  143.4280  144.2525  161.6670 C   0  0  0  0  0  0  0  0  0  0  0  0
  144.6729  143.8191  160.9713 C   0  0  0  0  0  0  0  0  0  0  0  0
  145.5187  142.9215  161.4916 N   0  0  0  0  0  0  0  0  0  0  0  0
  146.6066  142.6821  160.6637 N   0  0  0  0  0  0  0  0  0  0  0  0
  146.5495  143.4105  159.5402 C   0  0  0  0  0  0  0  0  0  0  0  0
  147.5380  143.3667  158.5213 N   0  0  0  0  0  0  0  0  0  0  0  0
  148.1591  142.2885  158.0109 C   0  0  0  0  0  0  0  0  0  0  0  0
  147.9406  141.1200  158.3320 O   0  0  0  0  0  0  0  0  0  0  0  0
  149.0631  142.6380  157.0839 N   0  0  0  0  0  0  0  0  0  0  0  0
  149.9058  141.6988  156.3523 C   0  0  0  0  0  0  0  0  0  0  0  0
  151.3291  141.6421  156.9423 C   0  0  0  0  0  0  0  0  0  0  0  0
  151.5193  142.5670  158.0920 N   0  3  0  0  0  0  0  0  0  0  0  0
  151.7653  143.9682  157.6597 C   0  0  0  0  0  0  0  0  0  0  0  0
  151.0259  144.9615  158.5727 C   0  0  0  0  0  0  0  0  0  0  0  0
  151.7186  145.2319  159.9155 C   0  0  0  0  0  0  0  0  0  0  0  0
  151.9845  143.9728  160.7545 C   0  0  0  0  0  0  0  0  0  0  0  0
  153.0388  143.0577  160.1137 C   0  0  0  0  0  0  0  0  0  0  0  0
  152.4876  142.0380  159.0964 C   0  0  0  0  0  0  0  0  0  0  0  0
  145.1468  144.4566  159.4012 S   0  0  0  0  0  0  0  0  0  0  0  0
  143.1515  143.5360  162.4414 H   0  0  0  0  0  0  0  0  0  0  0  0
  142.6069  144.3284  160.9543 H   0  0  0  0  0  0  0  0  0  0  0  0
  143.5817  145.2271  162.1303 H   0  0  0  0  0  0  0  0  0  0  0  0
  147.8115  144.2630  158.1464 H   0  0  0  0  0  0  0  0  0  0  0  0
  149.1841  143.6193  156.8790 H   0  0  0  0  0  0  0  0  0  0  0  0
  149.4419  140.7135  156.4040 H   0  0  0  0  0  0  0  0  0  0  0  0
  149.9177  141.9829  155.2995 H   0  0  0  0  0  0  0  0  0  0  0  0
  151.5847  140.6271  157.2507 H   0  0  0  0  0  0  0  0  0  0  0  0
  152.0232  141.9063  156.1432 H   0  0  0  0  0  0  0  0  0  0  0  0
  152.8314  144.1869  157.5847 H   0  0  0  0  0  0  0  0  0  0  0  0
  151.3701  144.1175  156.6544 H   0  0  0  0  0  0  0  0  0  0  0  0
  150.9324  145.9128  158.0476 H   0  0  0  0  0  0  0  0  0  0  0  0
  150.0046  144.6174  158.7429 H   0  0  0  0  0  0  0  0  0  0  0  0
  152.6581  145.7580  159.7409 H   0  0  0  0  0  0  0  0  0  0  0  0
  151.0986  145.9171  160.4946 H   0  0  0  0  0  0  0  0  0  0  0  0
  152.3548  144.2938  161.7288 H   0  0  0  0  0  0  0  0  0  0  0  0
  151.0605  143.4268  160.9487 H   0  0  0  0  0  0  0  0  0  0  0  0
  153.8277  143.6589  159.6601 H   0  0  0  0  0  0  0  0  0  0  0  0
  153.5360  142.4946  160.9043 H   0  0  0  0  0  0  0  0  0  0  0  0
  151.9944  141.2385  159.6492 H   0  0  0  0  0  0  0  0  0  0  0  0
  153.3334  141.5797  158.5812 H   0  0  0  0  0  0  0  0  0  0  0  0
  150.6242  142.6013  158.5584 H   0  0  0  0  0  0  0  0  0  0  0  0
  1  2  1  0  0  0  0
  1 20  1  0  0  0  0
  1 21  1  0  0  0  0
  1 22  1  0  0  0  0
  2 19  1  0  0  0  0
  2  3  2  0  0  0  0
  3  4  1  0  0  0  0
  4  5  2  0  0  0  0
  5  6  1  0  0  0  0
  5 19  1  0  0  0  0
  6  7  1  0  0  0  0
  6 23  1  0  0  0  0
  7  8  2  0  0  0  0
  7  9  1  0  0  0  0
  9 10  1  0  0  0  0
  9 24  1  0  0  0  0
 10 11  1  0  0  0  0
 10 25  1  0  0  0  0
 10 26  1  0  0  0  0
 11 12  1  0  0  0  0
 11 27  1  0  0  0  0
 11 28  1  0  0  0  0
 12 18  1  0  0  0  0
 12 13  1  0  0  0  0
 12 41  1  0  0  0  0
 13 14  1  0  0  0  0
 13 29  1  0  0  0  0
 13 30  1  0  0  0  0
 14 15  1  0  0  0  0
 14 31  1  0  0  0  0
 14 32  1  0  0  0  0
 15 16  1  0  0  0  0
 15 33  1  0  0  0  0
 15 34  1  0  0  0  0
 16 17  1  0  0  0  0
 16 35  1  0  0  0  0
 16 36  1  0  0  0  0
 17 18  1  0  0  0  0
 17 37  1  0  0  0  0
 17 38  1  0  0  0  0
 18 39  1  0  0  0  0
 18 40  1  0  0  0  0
M  CHG  1  12   1
M  END
> <s_m_source_file>
AV-unprocessed.smi

> <i_m_source_file_index>
1638

> <i_lp_mmshare_version>
43012

> <i_f3d_flags>
0

> <s_epik_input>
W0NIM11jMW5uYyhzMSlbTkhdQyg9TylbTkhdW0NIMl1bQ0gyXU4yW0NIMl1bQ0gyXVtDSDJdW0NIMl1bQ0gyXVtDSDJdMg==

> <s_epik_cmdline>
J2VwaWtfcHl0aG9uJywgJy1waCcsICc3LjAnLCAnLXRuJywgJzgnLCAnLW1hJywgJzIwMCcsICctbWV0YWxfYmluZGluZycsICctaW1hZScsICc8aW5maWxlLm1hZT4nLCAnLW9tYWUnLCAnPG91dGZpbGUubWFlPic=

> <r_lp_tautomer_probability>
1

> <r_epik_Ionization_Penalty>
0.00683162

> <r_epik_Ionization_Penalty_Charging>
0.00256589

> <r_epik_Ionization_Penalty_Neutral>
0.00426573

> <r_epik_State_Penalty>
0.0020046

> <r_epik_Charging_Adjusted_Penalty>
0.00457048

> <i_epik_Tot_Q>
1

> <i_epik_Tot_abs_Q>
1

> <r_epik_Metal_State_Penalty>
0.375345

> <b_epik_Metal_Only>
0

> <s_lp_Force_Field>
OPLS_2005

> <r_lp_Energy>
20.2813

> <b_lp_Chiralities_Consistent>
1

> <s_lp_Variant>
AV-unprocessed.smi:1638-1

> <Gold.Version>
5.8.1

> <Gold.Id.Protein>
6NUR|6NUR_protein|mol2

> <Gold.PLP.Fitness>
47.2428

> <Gold.PLP.PLP>
-38.8281

> <Gold.PLP.part.hbond>
-5.0000

> <Gold.PLP.part.metal>
0.0000

> <Gold.PLP.part.buried>
-4.9902

> <Gold.PLP.part.nonpolar>
-29.0578

> <Gold.PLP.part.repulsive>
0.1929

> <Gold.PLP.ligand.clash>
0.0000

> <Gold.PLP.ligand.torsion>
1.1592

> <Gold.PLP.Chemscore.Hbond>
3.5600

> <Gold.PLP.Chemscore.CHOScore>
0.0000

> <Gold.PLP.Chemscore.Metal>
0.0000

> <Gold.Chemscore.Hbonds>
donor molecule, donor type, donor heavy atom, donor atom, acceptor molecule, acceptor atom, score
      L1  H     6    23       P1  8029  1.00
      L1  H     9    24       P1  8028  0.82
      P1  H  6933  6944       L1     4  0.74
      P1  H  6934  6946       L1     4  0.98

> <Gold.PLP.Chemscore.Internal.Correction>
0.0533

> <Gold.Rescore>
     Score         DG    S(hbond)    S(metal)    S(lipo)     H(rot)  DE(clash)    DE(int)     intcor
     20.05     -21.40       2.47        0.00     100.39       1.60       0.08       1.26       ----

> <Gold.Chemscore.Fitness>
20.0493

> <Gold.Chemscore.DG>
-21.3972

> <Gold.Chemscore.ZeroCoef>
-5.4800

> <Gold.Chemscore.Hbond>
2.4734

> <Gold.Chemscore.Metal>
0.0000

> <Gold.Chemscore.Lipo>
100.3905

> <Gold.Chemscore.Internal_Hbond>
0.0000

> <Gold.Chemscore.DEClash>
0.0845

> <Gold.Chemscore.DEInternal>
1.2634

> <Gold.Chemscore.Rot>
1.5975

> <Gold.Chemscore.Internal.Correction>
   9.000000E+99

> <Gold.Chemscore.Hbonds>
donor molecule, donor type, donor heavy atom, donor atom, acceptor molecule, acceptor atom, score
      L1  H     6    23       P1  8029  0.40
      L1  H     9    24       P1  8028  0.67
      P1  H  6933  6944       L1     4  0.65
      P1  H  6934  6946       L1     4  0.51

> <Gold.Chemscore.Hbond.Weighted>
-8.2611

> <Gold.Chemscore.Metal.Weighted>
-0.0000

> <Gold.Chemscore.Lipo.Weighted>
-11.7457

> <Gold.Chemscore.Internal_Hbond.Weighted>
0.0000

> <Gold.Chemscore.DEClash.Weighted>
0.0845

> <Gold.Chemscore.DEInternal.Weighted>
1.2634

> <Gold.Chemscore.Rot.Weighted>
4.0896

> <Gold.Chemscore.Internal.Correction.Weighted>
   9.000000E+99

> <Gold.Protein.RotatedTorsions>
[ 6907 6896 6895 6894 ] final   40.50 input  -60.11 | X-H torsion
[ 7974 7965 7964 7962 ] final    5.14 input  175.53 | X-H torsion
[ 8008 7997 7996 7995 ] final  -67.36 input   59.86 | X-H torsion
[ 10167 10162 10161 10158 ] final -111.61 input  -65.29 | X-H torsion
[ 10718 10713 10712 10709 ] final   83.44 input   66.30 | X-H torsion
[ 10763 10752 10751 10750 ] final -170.52 input  -60.55 | X-H torsion
[ 11005 11000 10999 10996 ] final   78.62 input  -57.11 | X-H torsion

> <Gold.Protein.ActiveResidues>
 VAL166  LYS551  ARG553  GLY616  TRP617  ASP618  TYR619  PRO620  LYS621  CYS622 
 ASP623  PHE694  ASN695  SER759  ASP760  ASP761  ALA762  ILE779  LEU786  VAL792 
 PHE793  MET794  SER795  GLU796  ALA797  LYS798  CYS799  TRP800  GLU811  SER814 

> <Gold.Protein.RotatedAtoms>
  152.1834  134.8735  160.0524 H   0  0  0  0  0  0  0  0  0  0  0  0  # atno 6907 bound_to 6896
  151.9651  133.3702  159.4058 H   0  0  0  0  0  0  0  0  0  0  0  0  # atno 6908 bound_to 6896
  150.6921  134.4123  159.5211 H   0  0  0  0  0  0  0  0  0  0  0  0  # atno 6909 bound_to 6896
  146.2441  140.0428  142.8381 H   0  0  0  0  0  0  0  0  0  0  0  0  # atno 7974 bound_to 7965
  154.4795  140.0894  156.7342 H   0  0  0  0  0  0  0  0  0  0  0  0  # atno 8008 bound_to 7997
  155.4509  140.3457  155.4282 H   0  0  0  0  0  0  0  0  0  0  0  0  # atno 8009 bound_to 7997
  156.1168  140.1463  156.9249 H   0  0  0  0  0  0  0  0  0  0  0  0  # atno 8010 bound_to 7997
  140.1317  143.4355  152.1623 H   0  0  0  0  0  0  0  0  0  0  0  0  # atno 10167 bound_to 10162
  157.6879  131.0091  150.2523 H   0  0  0  0  0  0  0  0  0  0  0  0  # atno 10718 bound_to 10713
  154.6406  135.2898  155.0108 H   0  0  0  0  0  0  0  0  0  0  0  0  # atno 10763 bound_to 10752
  154.1236  135.6544  153.4912 H   0  0  0  0  0  0  0  0  0  0  0  0  # atno 10764 bound_to 10752
  153.0324  135.5293  154.7271 H   0  0  0  0  0  0  0  0  0  0  0  0  # atno 10765 bound_to 10752
  139.9205  134.7778  156.1673 H   0  0  0  0  0  0  0  0  0  0  0  0  # atno 11005 bound_to 11000
  145.1054  140.9372  143.4688 LP  0  0  0  0  0  0  0  0  0  0  0  0  # atno 17320 bound_to 7965
  145.0630  139.3090  143.5870 LP  0  0  0  0  0  0  0  0  0  0  0  0  # atno 17321 bound_to 7965
  139.5516  144.7342  151.4417 LP  0  0  0  0  0  0  0  0  0  0  0  0  # atno 17342 bound_to 10162
  140.6813  143.8075  150.7125 LP  0  0  0  0  0  0  0  0  0  0  0  0  # atno 17343 bound_to 10162
  156.3118  130.3773  149.7655 LP  0  0  0  0  0  0  0  0  0  0  0  0  # atno 17370 bound_to 10713
  156.5253  130.8233  151.3218 LP  0  0  0  0  0  0  0  0  0  0  0  0  # atno 17371 bound_to 10713
  141.0722  133.6792  156.2163 LP  0  0  0  0  0  0  0  0  0  0  0  0  # atno 17394 bound_to 11000
  140.6488  134.5089  157.5576 LP  0  0  0  0  0  0  0  0  0  0  0  0  # atno 17395 bound_to 11000

$$$$
