AV-unprocessed.smi:2362|AV-procd|sdf|9414|dock3
  -GOLD-   2272013 53D 1   1.00000     0.00000
 Structure written by MMmdl.
 45 46  0  0  0  0  0  0  0  0  2 V2000
  150.4945  142.6454  157.7161 C   0  0  0  0  0  0  0  0  0  0  0  0
  150.5096  141.3127  156.9969 C   0  0  0  0  0  0  0  0  0  0  0  0
  150.2888  140.1066  157.6889 C   0  0  0  0  0  0  0  0  0  0  0  0
  150.3126  138.8969  156.9683 C   0  0  0  0  0  0  0  0  0  0  0  0
  150.5570  138.9206  155.5769 C   0  0  0  0  0  0  0  0  0  0  0  0
  150.5565  137.6489  154.9435 N   0  0  0  0  0  0  0  0  0  0  0  0
  149.9001  136.5370  155.3183 C   0  0  0  0  0  0  0  0  0  0  0  0
  149.1392  136.4501  156.2823 O   0  0  0  0  0  0  0  0  0  0  0  0
  150.1849  135.5045  154.5095 N   0  0  0  0  0  0  0  0  0  0  0  0
  149.6292  134.1541  154.6148 C   0  0  1  0  0  0  0  0  0  0  0  0
  150.1913  133.4781  155.8727 C   0  0  0  0  0  0  0  0  0  0  0  0
  148.0827  134.1766  154.6366 C   0  0  0  0  0  0  0  0  0  0  0  0
  147.4762  134.1413  153.2808 N   0  3  0  0  0  0  0  0  0  0  0  0
  146.1020  134.7047  153.2494 C   0  0  0  0  0  0  0  0  0  0  0  0
  145.5770  134.7985  151.8064 C   0  0  0  0  0  0  0  0  0  0  0  0
  145.6268  133.4316  151.1111 C   0  0  0  0  0  0  0  0  0  0  0  0
  147.0454  132.8531  151.1922 C   0  0  0  0  0  0  0  0  0  0  0  0
  147.5322  132.7962  152.6495 C   0  0  0  0  0  0  0  0  0  0  0  0
  150.7667  140.0880  154.9187 N   0  0  0  0  0  0  0  0  0  0  0  0
  150.7442  141.2470  155.6100 C   0  0  0  0  0  0  0  0  0  0  0  0
  150.3437  142.5163  158.7884 H   0  0  0  0  0  0  0  0  0  0  0  0
  149.6902  143.2724  157.3309 H   0  0  0  0  0  0  0  0  0  0  0  0
  151.4397  143.1674  157.5654 H   0  0  0  0  0  0  0  0  0  0  0  0
  150.1035  140.1035  158.7530 H   0  0  0  0  0  0  0  0  0  0  0  0
  150.1446  137.9628  157.4846 H   0  0  0  0  0  0  0  0  0  0  0  0
  151.1326  137.5766  154.1177 H   0  0  0  0  0  0  0  0  0  0  0  0
  150.8212  135.6703  153.7428 H   0  0  0  0  0  0  0  0  0  0  0  0
  149.9692  133.5620  153.7641 H   0  0  0  0  0  0  0  0  0  0  0  0
  149.8351  132.4510  155.9572 H   0  0  0  0  0  0  0  0  0  0  0  0
  149.8932  134.0082  156.7781 H   0  0  0  0  0  0  0  0  0  0  0  0
  151.2812  133.4452  155.8486 H   0  0  0  0  0  0  0  0  0  0  0  0
  147.6924  133.3493  155.2313 H   0  0  0  0  0  0  0  0  0  0  0  0
  147.7682  135.0883  155.1472 H   0  0  0  0  0  0  0  0  0  0  0  0
  145.4387  134.0856  153.8554 H   0  0  0  0  0  0  0  0  0  0  0  0
  146.1009  135.7013  153.6924 H   0  0  0  0  0  0  0  0  0  0  0  0
  144.5558  135.1807  151.8043 H   0  0  0  0  0  0  0  0  0  0  0  0
  146.1774  135.5159  151.2453 H   0  0  0  0  0  0  0  0  0  0  0  0
  144.9220  132.7492  151.5878 H   0  0  0  0  0  0  0  0  0  0  0  0
  145.3165  133.5257  150.0699 H   0  0  0  0  0  0  0  0  0  0  0  0
  147.0675  131.8559  150.7516 H   0  0  0  0  0  0  0  0  0  0  0  0
  147.7277  133.4674  150.6028 H   0  0  0  0  0  0  0  0  0  0  0  0
  148.5514  132.4114  152.6681 H   0  0  0  0  0  0  0  0  0  0  0  0
  146.9213  132.0968  153.2225 H   0  0  0  0  0  0  0  0  0  0  0  0
  150.9175  142.1469  155.0381 H   0  0  0  0  0  0  0  0  0  0  0  0
  148.0404  134.7523  152.7072 H   0  0  0  0  0  0  0  0  0  0  0  0
  1  2  1  0  0  0  0
  1 21  1  0  0  0  0
  1 22  1  0  0  0  0
  1 23  1  0  0  0  0
  2 20  1  0  0  0  0
  2  3  2  0  0  0  0
  3  4  1  0  0  0  0
  3 24  1  0  0  0  0
  4  5  2  0  0  0  0
  4 25  1  0  0  0  0
  5  6  1  0  0  0  0
  5 19  1  0  0  0  0
  6  7  1  0  0  0  0
  6 26  1  0  0  0  0
  7  8  2  0  0  0  0
  7  9  1  0  0  0  0
  9 10  1  0  0  0  0
  9 27  1  0  0  0  0
 10 11  1  0  0  0  0
 10 12  1  0  0  0  0
 10 28  1  0  0  0  0
 11 29  1  0  0  0  0
 11 30  1  0  0  0  0
 11 31  1  0  0  0  0
 12 13  1  0  0  0  0
 12 32  1  0  0  0  0
 12 33  1  0  0  0  0
 13 18  1  0  0  0  0
 13 14  1  0  0  0  0
 13 45  1  0  0  0  0
 14 15  1  0  0  0  0
 14 34  1  0  0  0  0
 14 35  1  0  0  0  0
 15 16  1  0  0  0  0
 15 36  1  0  0  0  0
 15 37  1  0  0  0  0
 16 17  1  0  0  0  0
 16 38  1  0  0  0  0
 16 39  1  0  0  0  0
 17 18  1  0  0  0  0
 17 40  1  0  0  0  0
 17 41  1  0  0  0  0
 18 42  1  0  0  0  0
 18 43  1  0  0  0  0
 19 20  2  0  0  0  0
 20 44  1  0  0  0  0
M  CHG  1  13   1
M  END
> <s_m_source_file>
AV-unprocessed.smi

> <i_m_source_file_index>
2362

> <i_lp_mmshare_version>
43012

> <i_f3d_flags>
0

> <s_epik_input>
W0NIM11jMVtjSF1bY0hdYyhuW2NIXTEpW05IXUMoPU8pW05IXVtDQEhdKFtDSDNdKVtDSDJdTjJbQ0gyXVtDSDJdW0NIMl1bQ0gyXVtDSDJdMg==

> <s_epik_cmdline>
J2VwaWtfcHl0aG9uJywgJy1waCcsICc3LjAnLCAnLXRuJywgJzgnLCAnLW1hJywgJzIwMCcsICctbWV0YWxfYmluZGluZycsICctaW1hZScsICc8aW5maWxlLm1hZT4nLCAnLW9tYWUnLCAnPG91dGZpbGUubWFlPic=

> <r_epik_Ionization_Penalty>
0.00215987

> <r_epik_Ionization_Penalty_Charging>
0.00211816

> <r_epik_Ionization_Penalty_Neutral>
4.17101e-05

> <r_epik_State_Penalty>
0.00145254

> <r_epik_Charging_Adjusted_Penalty>
0.0035707

> <i_epik_Tot_Q>
1

> <i_epik_Tot_abs_Q>
1

> <r_epik_Metal_State_Penalty>
-0

> <b_epik_Metal_Only>
0

> <s_lp_Force_Field>
OPLS_2005

> <r_lp_Energy>
24.6446

> <b_lp_Chiralities_Consistent>
1

> <s_lp_Variant>
AV-unprocessed.smi:2362-2

> <Gold.Version>
5.8.1

> <Gold.Id.Protein>
6NUR|6NUR_protein|mol2

> <Gold.PLP.Fitness>
40.1382

> <Gold.PLP.PLP>
-30.2682

> <Gold.PLP.part.hbond>
-4.0000

> <Gold.PLP.part.metal>
0.0000

> <Gold.PLP.part.buried>
-4.0938

> <Gold.PLP.part.nonpolar>
-21.3151

> <Gold.PLP.part.repulsive>
0.2247

> <Gold.PLP.ligand.clash>
0.0000

> <Gold.PLP.ligand.torsion>
0.7499

> <Gold.PLP.Chemscore.Hbond>
3.7684

> <Gold.PLP.Chemscore.CHOScore>
0.0000

> <Gold.PLP.Chemscore.Metal>
0.0000

> <Gold.Chemscore.Hbonds>
donor molecule, donor type, donor heavy atom, donor atom, acceptor molecule, acceptor atom, score
      L1  H     9    27       P1  7949  0.23
      L1  H    13    45       P1  7948  2.00
      P1  H  7989  7998       L1    19  0.60

> <Gold.PLP.Chemscore.Internal.Correction>
0.0646

> <Gold.Rescore>
     Score         DG    S(hbond)    S(metal)    S(lipo)     H(rot)  DE(clash)    DE(int)     intcor
     12.80     -16.39       1.97        0.00      68.60       1.44       0.16       3.43       ----

> <Gold.Chemscore.Fitness>
12.8017

> <Gold.Chemscore.DG>
-16.3935

> <Gold.Chemscore.ZeroCoef>
-5.4800

> <Gold.Chemscore.Hbond>
1.9684

> <Gold.Chemscore.Metal>
0.0000

> <Gold.Chemscore.Lipo>
68.6029

> <Gold.Chemscore.Internal_Hbond>
0.0000

> <Gold.Chemscore.DEClash>
0.1583

> <Gold.Chemscore.DEInternal>
3.4335

> <Gold.Chemscore.Rot>
1.4404

> <Gold.Chemscore.Internal.Correction>
   9.000000E+99

> <Gold.Chemscore.Hbonds>
donor molecule, donor type, donor heavy atom, donor atom, acceptor molecule, acceptor atom, score
      L1  H     9    27       P1  7949  0.02
      L1  H    13    45       P1  7948  0.74
      P1  H  7989  7998       L1    19  0.04

> <Gold.Chemscore.Hbond.Weighted>
-6.5745

> <Gold.Chemscore.Metal.Weighted>
-0.0000

> <Gold.Chemscore.Lipo.Weighted>
-8.0265

> <Gold.Chemscore.Internal_Hbond.Weighted>
0.0000

> <Gold.Chemscore.DEClash.Weighted>
0.1583

> <Gold.Chemscore.DEInternal.Weighted>
3.4335

> <Gold.Chemscore.Rot.Weighted>
3.6875

> <Gold.Chemscore.Internal.Correction.Weighted>
   9.000000E+99

> <Gold.Protein.RotatedTorsions>
[ 6907 6896 6895 6894 ] final -113.98 input  -60.11 | X-H torsion
[ 7974 7965 7964 7962 ] final -156.54 input  175.53 | X-H torsion
[ 8008 7997 7996 7995 ] final  -16.72 input   59.86 | X-H torsion
[ 10167 10162 10161 10158 ] final  -79.83 input  -65.29 | X-H torsion
[ 10718 10713 10712 10709 ] final  159.55 input   66.30 | X-H torsion
[ 10763 10752 10751 10750 ] final   97.73 input  -60.55 | X-H torsion
[ 11005 11000 10999 10996 ] final  -68.33 input  -57.11 | X-H torsion

> <Gold.Protein.ActiveResidues>
 VAL166  LYS551  ARG553  GLY616  TRP617  ASP618  TYR619  PRO620  LYS621  CYS622 
 ASP623  PHE694  ASN695  SER759  ASP760  ASP761  ALA762  ILE779  LEU786  VAL792 
 PHE793  MET794  SER795  GLU796  ALA797  LYS798  CYS799  TRP800  GLU811  SER814 

> <Gold.Protein.RotatedAtoms>
  150.7869  133.8866  159.3301 H   0  0  0  0  0  0  0  0  0  0  0  0  # atno 6907 bound_to 6896
  151.6714  135.0973  160.0208 H   0  0  0  0  0  0  0  0  0  0  0  0  # atno 6908 bound_to 6896
  152.3935  133.6674  159.6292 H   0  0  0  0  0  0  0  0  0  0  0  0  # atno 6909 bound_to 6896
  144.7589  140.4096  143.5992 H   0  0  0  0  0  0  0  0  0  0  0  0  # atno 7974 bound_to 7965
  154.5032  140.2162  155.9305 H   0  0  0  0  0  0  0  0  0  0  0  0  # atno 8008 bound_to 7997
  156.1460  140.3170  155.8538 H   0  0  0  0  0  0  0  0  0  0  0  0  # atno 8009 bound_to 7997
  155.4030  140.0485  157.3026 H   0  0  0  0  0  0  0  0  0  0  0  0  # atno 8010 bound_to 7997
  140.4558  143.2469  151.8422 H   0  0  0  0  0  0  0  0  0  0  0  0  # atno 10167 bound_to 10162
  157.1627  131.0591  151.2224 H   0  0  0  0  0  0  0  0  0  0  0  0  # atno 10718 bound_to 10713
  153.2805  135.4173  155.1074 H   0  0  0  0  0  0  0  0  0  0  0  0  # atno 10763 bound_to 10752
  154.8487  135.3494  154.6119 H   0  0  0  0  0  0  0  0  0  0  0  0  # atno 10764 bound_to 10752
  153.6540  135.7051  153.5257 H   0  0  0  0  0  0  0  0  0  0  0  0  # atno 10765 bound_to 10752
  141.1529  133.6738  156.6429 H   0  0  0  0  0  0  0  0  0  0  0  0  # atno 11005 bound_to 11000
  145.6687  139.1595  143.2767 LP  0  0  0  0  0  0  0  0  0  0  0  0  # atno 17320 bound_to 7965
  146.1630  140.6760  142.9269 LP  0  0  0  0  0  0  0  0  0  0  0  0  # atno 17321 bound_to 7965
  139.4801  144.5066  151.8989 LP  0  0  0  0  0  0  0  0  0  0  0  0  # atno 17342 bound_to 10162
  140.4153  144.2315  150.5888 LP  0  0  0  0  0  0  0  0  0  0  0  0  # atno 17343 bound_to 10162
  157.4117  130.7389  149.6844 LP  0  0  0  0  0  0  0  0  0  0  0  0  # atno 17370 bound_to 10713
  155.9751  130.4093  150.3874 LP  0  0  0  0  0  0  0  0  0  0  0  0  # atno 17371 bound_to 10713
  140.3380  134.7873  157.4376 LP  0  0  0  0  0  0  0  0  0  0  0  0  # atno 17394 bound_to 11000
  140.0962  134.5534  155.8396 LP  0  0  0  0  0  0  0  0  0  0  0  0  # atno 17395 bound_to 11000

$$$$
