AV-unprocessed.smi:1533|AV-procd|sdf|6164|dock10
  -GOLD-   22720 6313D 1   1.00000     0.00000
 Structure written by MMmdl.
 37 39  0  0  0  0  0  0  0  0  1 V2000
  145.3124  142.6802  156.5460 C   0  0  0  0  0  0  0  0  0  0  0  0
  145.7314  142.7934  157.9721 C   0  0  0  0  0  0  0  0  0  0  0  0
  146.2835  141.7711  158.6146 N   0  0  0  0  0  0  0  0  0  0  0  0
  146.5277  142.2878  159.8952 O   0  0  0  0  0  0  0  0  0  0  0  0
  146.0709  143.5631  159.8721 C   0  0  0  0  0  0  0  0  0  0  0  0
  146.2311  144.4073  161.0916 C   0  0  0  0  0  0  0  0  0  0  0  0
  146.9198  145.7477  160.7894 C   0  0  0  0  0  0  0  0  0  0  0  0
  148.0799  145.5739  159.9229 N   0  0  0  0  0  0  0  0  0  0  0  0
  149.1777  144.8681  160.2350 C   0  0  0  0  0  0  0  0  0  0  0  0
  149.3109  144.2761  161.3068 O   0  0  0  0  0  0  0  0  0  0  0  0
  150.2713  144.8085  159.1536 C   0  0  2  0  0  0  0  0  0  0  0  0
  150.5811  143.3868  158.6230 C   0  0  0  0  0  0  0  0  0  0  0  0
  152.1083  143.2796  158.7927 C   0  0  2  0  0  0  0  0  0  0  0  0
  152.4504  143.1227  160.2863 C   0  0  0  0  0  0  0  0  0  0  0  0
  152.2049  144.5379  160.8404 C   0  0  0  0  0  0  0  0  0  0  0  0
  151.6725  145.2993  159.6062 C   0  0  1  0  0  0  0  0  0  0  0  0
  152.5564  144.7094  158.5112 C   0  0  0  0  0  0  0  0  0  0  0  0
  145.5800  143.9381  158.6932 N   0  0  0  0  0  0  0  0  0  0  0  0
  145.5786  141.7050  156.1366 H   0  0  0  0  0  0  0  0  0  0  0  0
  145.8012  143.4495  155.9478 H   0  0  0  0  0  0  0  0  0  0  0  0
  144.2332  142.8078  156.4598 H   0  0  0  0  0  0  0  0  0  0  0  0
  145.2454  144.5747  161.5277 H   0  0  0  0  0  0  0  0  0  0  0  0
  146.8073  143.8459  161.8282 H   0  0  0  0  0  0  0  0  0  0  0  0
  146.2219  146.4177  160.2862 H   0  0  0  0  0  0  0  0  0  0  0  0
  147.2137  146.2445  161.7158 H   0  0  0  0  0  0  0  0  0  0  0  0
  148.0470  146.0239  159.0194 H   0  0  0  0  0  0  0  0  0  0  0  0
  149.9473  145.4211  158.3098 H   0  0  0  0  0  0  0  0  0  0  0  0
  150.0573  142.5852  159.1457 H   0  0  0  0  0  0  0  0  0  0  0  0
  150.3096  143.3129  157.5692 H   0  0  0  0  0  0  0  0  0  0  0  0
  152.5649  142.5194  158.1582 H   0  0  0  0  0  0  0  0  0  0  0  0
  151.8271  142.3723  160.7742 H   0  0  0  0  0  0  0  0  0  0  0  0
  153.4931  142.8330  160.4224 H   0  0  0  0  0  0  0  0  0  0  0  0
  151.5294  144.5498  161.6950 H   0  0  0  0  0  0  0  0  0  0  0  0
  153.1461  144.9765  161.1748 H   0  0  0  0  0  0  0  0  0  0  0  0
  151.7422  146.3835  159.6997 H   0  0  0  0  0  0  0  0  0  0  0  0
  153.6232  144.8692  158.6786 H   0  0  0  0  0  0  0  0  0  0  0  0
  152.2980  145.0555  157.5086 H   0  0  0  0  0  0  0  0  0  0  0  0
  1  2  1  0  0  0  0
  1 19  1  0  0  0  0
  1 20  1  0  0  0  0
  1 21  1  0  0  0  0
  2 18  1  0  0  0  0
  2  3  2  0  0  0  0
  3  4  1  0  0  0  0
  4  5  1  0  0  0  0
  5  6  1  0  0  0  0
  5 18  2  0  0  0  0
  6  7  1  0  0  0  0
  6 22  1  0  0  0  0
  6 23  1  0  0  0  0
  7  8  1  0  0  0  0
  7 24  1  0  0  0  0
  7 25  1  0  0  0  0
  8  9  1  0  0  0  0
  8 26  1  0  0  0  0
  9 10  2  0  0  0  0
  9 11  1  0  0  0  0
 11 16  1  0  0  0  0
 11 12  1  0  0  0  0
 11 27  1  0  0  0  0
 12 13  1  0  0  0  0
 12 28  1  0  0  0  0
 12 29  1  0  0  0  0
 13 17  1  0  0  0  0
 13 14  1  0  0  0  0
 13 30  1  0  0  0  0
 14 15  1  0  0  0  0
 14 31  1  0  0  0  0
 14 32  1  0  0  0  0
 15 16  1  0  0  0  0
 15 33  1  0  0  0  0
 15 34  1  0  0  0  0
 16 17  1  0  0  0  0
 16 35  1  0  0  0  0
 17 36  1  0  0  0  0
 17 37  1  0  0  0  0
M  END
> <s_m_source_file>
AV-unprocessed.smi

> <i_m_source_file_index>
1533

> <i_lp_mmshare_version>
43012

> <i_f3d_flags>
0

> <s_epik_input>
W0NIM11jMW5vYyhuMSlbQ0gyXVtDSDJdW05IXUMoPU8pW0NASF0oW0NIMl1bQ0BASF0yMylbQ0BASF0oW0NIMl0zKVtDSDJdW0NIMl0y

> <s_epik_cmdline>
J2VwaWtfcHl0aG9uJywgJy1waCcsICc3LjAnLCAnLXRuJywgJzgnLCAnLW1hJywgJzIwMCcsICctbWV0YWxfYmluZGluZycsICctaW1hZScsICc8aW5maWxlLm1hZT4nLCAnLW9tYWUnLCAnPG91dGZpbGUubWFlPic=

> <r_lp_tautomer_probability>
1

> <r_epik_Ionization_Penalty>
1.90116e-08

> <r_epik_Ionization_Penalty_Charging>
0

> <r_epik_Ionization_Penalty_Neutral>
1.90116e-08

> <r_epik_State_Penalty>
-0

> <r_epik_Charging_Adjusted_Penalty>
0

> <i_epik_Tot_Q>
0

> <i_epik_Tot_abs_Q>
0

> <r_epik_Metal_State_Penalty>
-0

> <b_epik_Metal_Only>
0

> <s_lp_Force_Field>
OPLS_2005

> <r_lp_Energy>
42.9891

> <b_lp_Chiralities_Consistent>
1

> <s_lp_Variant>
AV-unprocessed.smi:1533-3

> <Gold.Version>
5.8.1

> <Gold.Id.Protein>
6NUR|6NUR_protein|mol2

> <Gold.PLP.Fitness>
47.1206

> <Gold.PLP.PLP>
-40.0838

> <Gold.PLP.part.hbond>
-3.7827

> <Gold.PLP.part.metal>
0.0000

> <Gold.PLP.part.buried>
-7.1788

> <Gold.PLP.part.nonpolar>
-30.3115

> <Gold.PLP.part.repulsive>
0.5777

> <Gold.PLP.ligand.clash>
0.0000

> <Gold.PLP.ligand.torsion>
0.1554

> <Gold.PLP.Chemscore.Hbond>
2.4441

> <Gold.PLP.Chemscore.CHOScore>
0.0000

> <Gold.PLP.Chemscore.Metal>
0.0000

> <Gold.Chemscore.Hbonds>
donor molecule, donor type, donor heavy atom, donor atom, acceptor molecule, acceptor atom, score
      L1  H     8    26       P1  8029  1.00
      P1  H  6933  6944       L1    10  0.41
      P1  H  6934  6946       L1     4  1.00

> <Gold.PLP.Chemscore.Internal.Correction>
0.0153

> <Gold.Rescore>
     Score         DG    S(hbond)    S(metal)    S(lipo)     H(rot)  DE(clash)    DE(int)     intcor
     18.22     -19.55       2.45        0.00      90.77       1.85       0.00       1.33       ----

> <Gold.Chemscore.Fitness>
18.2181

> <Gold.Chemscore.DG>
-19.5503

> <Gold.Chemscore.ZeroCoef>
-5.4800

> <Gold.Chemscore.Hbond>
2.4503

> <Gold.Chemscore.Metal>
0.0000

> <Gold.Chemscore.Lipo>
90.7657

> <Gold.Chemscore.Internal_Hbond>
0.0000

> <Gold.Chemscore.DEClash>
0.0038

> <Gold.Chemscore.DEInternal>
1.3284

> <Gold.Chemscore.Rot>
1.8490

> <Gold.Chemscore.Internal.Correction>
   9.000000E+99

> <Gold.Chemscore.Hbonds>
donor molecule, donor type, donor heavy atom, donor atom, acceptor molecule, acceptor atom, score
      L1  H     8    26       P1  8029  0.96
      P1  H  6933  6944       L1    10  0.38
      P1  H  6934  6946       L1     4  0.25

> <Gold.Chemscore.Hbond.Weighted>
-8.1840

> <Gold.Chemscore.Metal.Weighted>
-0.0000

> <Gold.Chemscore.Lipo.Weighted>
-10.6196

> <Gold.Chemscore.Internal_Hbond.Weighted>
0.0000

> <Gold.Chemscore.DEClash.Weighted>
0.0038

> <Gold.Chemscore.DEInternal.Weighted>
1.3284

> <Gold.Chemscore.Rot.Weighted>
4.7334

> <Gold.Chemscore.Internal.Correction.Weighted>
   9.000000E+99

> <Gold.Protein.RotatedTorsions>
[ 6907 6896 6895 6894 ] final    2.86 input  -60.11 | X-H torsion
[ 7974 7965 7964 7962 ] final -135.07 input  175.53 | X-H torsion
[ 8008 7997 7996 7995 ] final -171.73 input   59.86 | X-H torsion
[ 10167 10162 10161 10158 ] final  -81.09 input  -65.29 | X-H torsion
[ 10718 10713 10712 10709 ] final -178.40 input   66.30 | X-H torsion
[ 10763 10752 10751 10750 ] final  -85.40 input  -60.55 | X-H torsion
[ 11005 11000 10999 10996 ] final  -96.01 input  -57.11 | X-H torsion

> <Gold.Protein.ActiveResidues>
 VAL166  LYS551  ARG553  GLY616  TRP617  ASP618  TYR619  PRO620  LYS621  CYS622 
 ASP623  PHE694  ASN695  SER759  ASP760  ASP761  ALA762  ILE779  LEU786  VAL792 
 PHE793  MET794  SER795  GLU796  ALA797  LYS798  CYS799  TRP800  GLU811  SER814 

> <Gold.Protein.RotatedAtoms>
  151.6158  135.1036  160.0090 H   0  0  0  0  0  0  0  0  0  0  0  0  # atno 6907 bound_to 6896
  152.4184  133.7072  159.6468 H   0  0  0  0  0  0  0  0  0  0  0  0  # atno 6908 bound_to 6896
  150.8072  133.8415  159.3221 H   0  0  0  0  0  0  0  0  0  0  0  0  # atno 6909 bound_to 6896
  144.9047  140.6817  143.5063 H   0  0  0  0  0  0  0  0  0  0  0  0  # atno 7974 bound_to 7965
  155.9354  140.1099  157.1099 H   0  0  0  0  0  0  0  0  0  0  0  0  # atno 8008 bound_to 7997
  154.4078  140.1229  156.4922 H   0  0  0  0  0  0  0  0  0  0  0  0  # atno 8009 bound_to 7997
  155.7029  140.3471  155.4943 H   0  0  0  0  0  0  0  0  0  0  0  0  # atno 8010 bound_to 7997
  140.4444  143.2504  151.8580 H   0  0  0  0  0  0  0  0  0  0  0  0  # atno 10167 bound_to 10162
  156.8438  130.9695  151.3098 H   0  0  0  0  0  0  0  0  0  0  0  0  # atno 10718 bound_to 10713
  154.6106  135.5486  153.7469 H   0  0  0  0  0  0  0  0  0  0  0  0  # atno 10763 bound_to 10752
  153.0193  135.6388  154.1584 H   0  0  0  0  0  0  0  0  0  0  0  0  # atno 10764 bound_to 10752
  154.1521  135.2902  155.3112 H   0  0  0  0  0  0  0  0  0  0  0  0  # atno 10765 bound_to 10752
  141.1424  133.8067  157.0513 H   0  0  0  0  0  0  0  0  0  0  0  0  # atno 11005 bound_to 11000
  145.3557  139.1694  143.4410 LP  0  0  0  0  0  0  0  0  0  0  0  0  # atno 17320 bound_to 7965
  146.3127  140.3614  142.8665 LP  0  0  0  0  0  0  0  0  0  0  0  0  # atno 17321 bound_to 7965
  139.4792  144.5192  151.8825 LP  0  0  0  0  0  0  0  0  0  0  0  0  # atno 17342 bound_to 10162
  140.4281  144.2153  150.5887 LP  0  0  0  0  0  0  0  0  0  0  0  0  # atno 17343 bound_to 10162
  157.6341  130.8753  149.9327 LP  0  0  0  0  0  0  0  0  0  0  0  0  # atno 17370 bound_to 10713
  156.0866  130.3667  150.0476 LP  0  0  0  0  0  0  0  0  0  0  0  0  # atno 17371 bound_to 10713
  140.0630  134.9744  157.1337 LP  0  0  0  0  0  0  0  0  0  0  0  0  # atno 17394 bound_to 11000
  140.3821  134.2276  155.7170 LP  0  0  0  0  0  0  0  0  0  0  0  0  # atno 17395 bound_to 11000

$$$$
