AV-unprocessed.smi:1447|AV-procd|sdf|5891|dock5
  -GOLD-   22720 5573D 1   1.00000     0.00000
 Structure written by MMmdl.
 48 50  0  0  0  0  0  0  0  0  2 V2000
  153.3965  137.6989  156.8170 C   0  0  0  0  0  0  0  0  0  0  0  0
  153.0067  138.6959  155.8895 O   0  0  0  0  0  0  0  0  0  0  0  0
  151.6115  138.9481  155.9138 C   0  0  0  0  0  0  0  0  0  0  0  0
  150.9871  138.5673  154.5612 C   0  0  0  0  0  0  0  0  0  0  0  0
  149.6655  139.1782  154.3780 N   0  0  0  0  0  0  0  0  0  0  0  0
  148.6770  138.2776  154.0168 N   0  0  0  0  0  0  0  0  0  0  0  0
  147.4622  138.6834  153.8335 C   0  0  0  0  0  0  0  0  0  0  0  0
  146.3727  137.7460  153.4438 C   0  0  0  0  0  0  0  0  0  0  0  0
  145.1833  138.0315  153.5919 O   0  0  0  0  0  0  0  0  0  0  0  0
  146.7800  136.5755  152.9199 N   0  0  0  0  0  0  0  0  0  0  0  0
  145.9009  135.5009  152.4709 C   0  0  2  0  0  0  0  0  0  0  0  0
  146.7408  134.3389  151.9156 C   0  0  0  0  0  0  0  0  0  0  0  0
  145.8440  133.2258  151.3478 C   0  0  0  0  0  0  0  0  0  0  0  0
  144.9288  133.7561  150.3069 N   0  3  1  0  0  0  0  0  0  0  0  0
  144.1352  132.6849  149.6663 C   0  0  0  0  0  0  0  0  0  0  0  0
  144.8693  131.9663  148.5583 C   0  0  0  0  0  0  0  0  0  0  0  0
  143.7843  132.9657  148.2237 C   0  0  0  0  0  0  0  0  0  0  0  0
  144.0738  134.8492  150.8323 C   0  0  0  0  0  0  0  0  0  0  0  0
  144.9287  136.0014  151.3855 C   0  0  0  0  0  0  0  0  0  0  0  0
  147.1118  140.0832  154.0018 C   0  0  0  0  0  0  0  0  0  0  0  0
  148.0861  140.9500  154.3548 C   0  0  0  0  0  0  0  0  0  0  0  0
  149.4683  140.5179  154.5686 C   0  0  0  0  0  0  0  0  0  0  0  0
  150.3705  141.2901  154.8907 O   0  0  0  0  0  0  0  0  0  0  0  0
  154.4729  137.5401  156.7530 H   0  0  0  0  0  0  0  0  0  0  0  0
  152.9034  136.7490  156.6067 H   0  0  0  0  0  0  0  0  0  0  0  0
  153.1604  137.9984  157.8389 H   0  0  0  0  0  0  0  0  0  0  0  0
  151.1523  138.3516  156.7038 H   0  0  0  0  0  0  0  0  0  0  0  0
  151.4144  139.9966  156.1443 H   0  0  0  0  0  0  0  0  0  0  0  0
  151.6652  138.8239  153.7458 H   0  0  0  0  0  0  0  0  0  0  0  0
  150.8833  137.4819  154.5133 H   0  0  0  0  0  0  0  0  0  0  0  0
  147.7746  136.4211  152.8336 H   0  0  0  0  0  0  0  0  0  0  0  0
  145.3269  135.1325  153.3234 H   0  0  0  0  0  0  0  0  0  0  0  0
  147.4060  134.7021  151.1306 H   0  0  0  0  0  0  0  0  0  0  0  0
  147.3805  133.9318  152.6996 H   0  0  0  0  0  0  0  0  0  0  0  0
  146.4673  132.4397  150.9201 H   0  0  0  0  0  0  0  0  0  0  0  0
  145.2608  132.7670  152.1479 H   0  0  0  0  0  0  0  0  0  0  0  0
  143.4406  132.1465  150.3090 H   0  0  0  0  0  0  0  0  0  0  0  0
  145.8978  132.2545  148.3481 H   0  0  0  0  0  0  0  0  0  0  0  0
  144.6416  130.9131  148.4061 H   0  0  0  0  0  0  0  0  0  0  0  0
  142.8413  132.5711  147.8509 H   0  0  0  0  0  0  0  0  0  0  0  0
  144.0943  133.9152  147.7909 H   0  0  0  0  0  0  0  0  0  0  0  0
  143.4291  135.2249  150.0369 H   0  0  0  0  0  0  0  0  0  0  0  0
  143.4187  134.4588  151.6129 H   0  0  0  0  0  0  0  0  0  0  0  0
  144.2766  136.7770  151.7890 H   0  0  0  0  0  0  0  0  0  0  0  0
  145.4874  136.4622  150.5695 H   0  0  0  0  0  0  0  0  0  0  0  0
  146.1002  140.4308  153.8496 H   0  0  0  0  0  0  0  0  0  0  0  0
  147.8396  141.9937  154.4834 H   0  0  0  0  0  0  0  0  0  0  0  0
  145.5081  134.1594  149.5845 H   0  0  0  0  0  0  0  0  0  0  0  0
  1  2  1  0  0  0  0
  1 24  1  0  0  0  0
  1 25  1  0  0  0  0
  1 26  1  0  0  0  0
  2  3  1  0  0  0  0
  3  4  1  0  0  0  0
  3 27  1  0  0  0  0
  3 28  1  0  0  0  0
  4  5  1  0  0  0  0
  4 29  1  0  0  0  0
  4 30  1  0  0  0  0
  5 22  1  0  0  0  0
  5  6  1  0  0  0  0
  6  7  2  0  0  0  0
  7  8  1  0  0  0  0
  7 20  1  0  0  0  0
  8  9  2  0  0  0  0
  8 10  1  0  0  0  0
 10 11  1  0  0  0  0
 10 31  1  0  0  0  0
 11 19  1  0  0  0  0
 11 12  1  0  0  0  0
 11 32  1  0  0  0  0
 12 13  1  0  0  0  0
 12 33  1  0  0  0  0
 12 34  1  0  0  0  0
 13 14  1  0  0  0  0
 13 35  1  0  0  0  0
 13 36  1  0  0  0  0
 14 15  1  0  0  0  0
 14 18  1  0  0  0  0
 14 48  1  0  0  0  0
 15 17  1  0  0  0  0
 15 16  1  0  0  0  0
 15 37  1  0  0  0  0
 16 17  1  0  0  0  0
 16 38  1  0  0  0  0
 16 39  1  0  0  0  0
 17 40  1  0  0  0  0
 17 41  1  0  0  0  0
 18 19  1  0  0  0  0
 18 42  1  0  0  0  0
 18 43  1  0  0  0  0
 19 44  1  0  0  0  0
 19 45  1  0  0  0  0
 20 21  2  0  0  0  0
 20 46  1  0  0  0  0
 21 22  1  0  0  0  0
 21 47  1  0  0  0  0
 22 23  2  0  0  0  0
M  CHG  1  14   1
M  END
> <s_m_source_file>
AV-unprocessed.smi

> <i_m_source_file_index>
1447

> <i_lp_mmshare_version>
43012

> <i_f3d_flags>
0

> <s_epik_input>
W0NIM11PW0NIMl1bQ0gyXW4xbmMoW2NIXVtjSF1jMT1PKUMoPU8pW05IXVtDSF0yW0NIMl1bQ0gyXU4oW0NIMl1bQ0gyXTIpW0NIXTNbQ0gyXVtDSDJdMw==

> <s_epik_cmdline>
J2VwaWtfcHl0aG9uJywgJy1waCcsICc3LjAnLCAnLXRuJywgJzgnLCAnLW1hJywgJzIwMCcsICctbWV0YWxfYmluZGluZycsICctaW1hZScsICc8aW5maWxlLm1hZT4nLCAnLW9tYWUnLCAnPG91dGZpbGUubWFlPic=

> <r_lp_tautomer_probability>
1

> <r_epik_Ionization_Penalty>
0.168623

> <r_epik_Ionization_Penalty_Charging>
0.16862

> <r_epik_Ionization_Penalty_Neutral>
2.93027e-06

> <r_epik_State_Penalty>
0.157986

> <r_epik_Charging_Adjusted_Penalty>
0.326605

> <i_epik_Tot_Q>
1

> <i_epik_Tot_abs_Q>
1

> <r_epik_Metal_State_Penalty>
0.157986

> <b_epik_Metal_Only>
0

> <s_lp_Force_Field>
OPLS_2005

> <r_lp_Energy>
46.6346

> <b_lp_Chiralities_Consistent>
1

> <s_lp_Variant>
AV-unprocessed.smi:1447-1

> <Gold.Version>
5.8.1

> <Gold.Id.Protein>
6NUR|6NUR_protein|mol2

> <Gold.PLP.Fitness>
41.0090

> <Gold.PLP.PLP>
-32.8047

> <Gold.PLP.part.hbond>
-3.3884

> <Gold.PLP.part.metal>
0.0000

> <Gold.PLP.part.buried>
4.5664

> <Gold.PLP.part.nonpolar>
-34.3169

> <Gold.PLP.part.repulsive>
1.9919

> <Gold.PLP.ligand.clash>
0.0000

> <Gold.PLP.ligand.torsion>
1.3075

> <Gold.PLP.Chemscore.Hbond>
3.1710

> <Gold.PLP.Chemscore.CHOScore>
0.0000

> <Gold.PLP.Chemscore.Metal>
0.0000

> <Gold.Chemscore.Hbonds>
donor molecule, donor type, donor heavy atom, donor atom, acceptor molecule, acceptor atom, score
      L1  H    10    31       P1  7948  0.91
      L1  H    14    48       P1  7921  0.70
      P1  H  7989  7998       L1    23  0.54
      P1  H  7997  8009       L1     2  1.00

> <Gold.PLP.Chemscore.Internal.Correction>
1.3064

> <Gold.Rescore>
     Score         DG    S(hbond)    S(metal)    S(lipo)     H(rot)  DE(clash)    DE(int)     intcor
     12.65     -19.99       2.17        0.00     100.48       1.76       3.58       3.75       ----

> <Gold.Chemscore.Fitness>
12.6522

> <Gold.Chemscore.DG>
-19.9882

> <Gold.Chemscore.ZeroCoef>
-5.4800

> <Gold.Chemscore.Hbond>
2.1735

> <Gold.Chemscore.Metal>
0.0000

> <Gold.Chemscore.Lipo>
100.4827

> <Gold.Chemscore.Internal_Hbond>
0.0000

> <Gold.Chemscore.DEClash>
3.5833

> <Gold.Chemscore.DEInternal>
3.7527

> <Gold.Chemscore.Rot>
1.7608

> <Gold.Chemscore.Internal.Correction>
   9.000000E+99

> <Gold.Chemscore.Hbonds>
donor molecule, donor type, donor heavy atom, donor atom, acceptor molecule, acceptor atom, score
      L1  H    10    31       P1  7948  0.82
      L1  H    14    48       P1  7921  0.58
      P1  H  7989  7998       L1    23  0.14
      P1  H  7997  8009       L1     2  0.24

> <Gold.Chemscore.Hbond.Weighted>
-7.2594

> <Gold.Chemscore.Metal.Weighted>
-0.0000

> <Gold.Chemscore.Lipo.Weighted>
-11.7565

> <Gold.Chemscore.Internal_Hbond.Weighted>
0.0000

> <Gold.Chemscore.DEClash.Weighted>
3.5833

> <Gold.Chemscore.DEInternal.Weighted>
3.7527

> <Gold.Chemscore.Rot.Weighted>
4.5077

> <Gold.Chemscore.Internal.Correction.Weighted>
   9.000000E+99

> <Gold.Protein.RotatedTorsions>
[ 6907 6896 6895 6894 ] final  -51.43 input  -60.11 | X-H torsion
[ 7974 7965 7964 7962 ] final -119.04 input  175.53 | X-H torsion
[ 8008 7997 7996 7995 ] final -160.21 input   59.86 | X-H torsion
[ 10167 10162 10161 10158 ] final -176.29 input  -65.29 | X-H torsion
[ 10718 10713 10712 10709 ] final -119.20 input   66.30 | X-H torsion
[ 10763 10752 10751 10750 ] final  178.51 input  -60.55 | X-H torsion
[ 11005 11000 10999 10996 ] final   39.37 input  -57.11 | X-H torsion

> <Gold.Protein.ActiveResidues>
 VAL166  LYS551  ARG553  GLY616  TRP617  ASP618  TYR619  PRO620  LYS621  CYS622 
 ASP623  PHE694  ASN695  SER759  ASP760  ASP761  ALA762  ILE779  LEU786  VAL792 
 PHE793  MET794  SER795  GLU796  ALA797  LYS798  CYS799  TRP800  GLU811  SER814 

> <Gold.Protein.RotatedAtoms>
  150.8612  134.7965  159.7084 H   0  0  0  0  0  0  0  0  0  0  0  0  # atno 6907 bound_to 6896
  152.4649  134.5096  159.9759 H   0  0  0  0  0  0  0  0  0  0  0  0  # atno 6908 bound_to 6896
  151.5200  133.3430  159.2935 H   0  0  0  0  0  0  0  0  0  0  0  0  # atno 6909 bound_to 6896
  145.0670  140.8332  143.4118 H   0  0  0  0  0  0  0  0  0  0  0  0  # atno 7974 bound_to 7965
  155.7740  140.0856  157.2093 H   0  0  0  0  0  0  0  0  0  0  0  0  # atno 8008 bound_to 7997
  154.3994  140.1520  156.3032 H   0  0  0  0  0  0  0  0  0  0  0  0  # atno 8009 bound_to 7997
  155.8719  140.3425  155.5830 H   0  0  0  0  0  0  0  0  0  0  0  0  # atno 8010 bound_to 7997
  139.5537  144.2043  152.1122 H   0  0  0  0  0  0  0  0  0  0  0  0  # atno 10167 bound_to 10162
  156.1163  130.6288  150.9387 H   0  0  0  0  0  0  0  0  0  0  0  0  # atno 10718 bound_to 10713
  154.5086  135.2787  155.1361 H   0  0  0  0  0  0  0  0  0  0  0  0  # atno 10763 bound_to 10752
  154.2965  135.6256  153.5411 H   0  0  0  0  0  0  0  0  0  0  0  0  # atno 10764 bound_to 10752
  152.9915  135.5686  154.5546 H   0  0  0  0  0  0  0  0  0  0  0  0  # atno 10765 bound_to 10752
  140.2034  134.3842  155.8084 H   0  0  0  0  0  0  0  0  0  0  0  0  # atno 11005 bound_to 11000
  145.1338  139.2615  143.5525 LP  0  0  0  0  0  0  0  0  0  0  0  0  # atno 17320 bound_to 7965
  146.3527  140.0997  142.8608 LP  0  0  0  0  0  0  0  0  0  0  0  0  # atno 17321 bound_to 7965
  140.1544  144.5085  150.6669 LP  0  0  0  0  0  0  0  0  0  0  0  0  # atno 17342 bound_to 10162
  140.6805  143.2325  151.5395 LP  0  0  0  0  0  0  0  0  0  0  0  0  # atno 17343 bound_to 10162
  157.6347  131.0917  150.8373 LP  0  0  0  0  0  0  0  0  0  0  0  0  # atno 17370 bound_to 10713
  156.8476  130.5069  149.5315 LP  0  0  0  0  0  0  0  0  0  0  0  0  # atno 17371 bound_to 10713
  141.2227  133.7106  156.8296 LP  0  0  0  0  0  0  0  0  0  0  0  0  # atno 17394 bound_to 11000
  140.2029  134.8884  157.3189 LP  0  0  0  0  0  0  0  0  0  0  0  0  # atno 17395 bound_to 11000

$$$$
