#       Name:                AV-unprocessed.smi:2145
#       Creating user name   scv26
#       Creation time:       Fri Mar 27 11:50:55 2020


#       File generated by GOLD software.
#

@<TRIPOS>MOLECULE
AV-unprocessed.smi:2145
    51    53     1
SMALL
NO_CHARGES


@<TRIPOS>ATOM
      1 ****        -7.7832   1.0040  -0.0395 C.3            1 S1                 0.0000
      2 ****        -6.8312   2.1363  -0.4210 C.2            1 S1                 0.0000
      3 ****        -7.3059   3.2301  -0.7260 O.2            1 S1                 0.0000
      4 ****        -5.3682   1.8513  -0.4018 C.ar           1 S1                 0.0000
      5 ****        -4.4566   2.8758  -0.7410 C.ar           1 S1                 0.0000
      6 ****        -3.0701   2.6331  -0.7301 C.ar           1 S1                 0.0000
      7 ****        -2.5603   1.3676  -0.3801 C.ar           1 S1                 0.0000
      8 ****        -1.1903   1.2193  -0.3938 O.3            1 S1                 0.0000
      9 ****        -0.6422  -0.0313   0.0012 C.3            1 S1                 0.0000
     10 ****         0.8894   0.0608  -0.0753 C.3            1 S1                 0.0000
     11 ****         1.3536   0.7360   1.0768 O.3            1 S1                 0.0000
     12 ****         1.5495  -1.3307  -0.1472 C.3            1 S1                 0.0000
     13 ****         3.0124  -1.2610  -0.2952 N.pl3          1 S1                 0.0000
     14 ****         3.7695  -1.1195  -1.4204 C.2            1 S1                 0.0000
     15 ****         3.2695  -1.0001  -2.8207 C.3            1 S1                 0.0000
     16 ****         5.0754  -1.1082  -1.0313 N.pl3          1 S1                 1.0000
     17 ****         5.1559  -1.2419   0.3554 C.ar           1 S1                 0.0000
     18 ****         6.2585  -1.2814   1.2034 C.ar           1 S1                 0.0000
     19 ****         5.9926  -1.4245   2.5809 C.ar           1 S1                 0.0000
     20 ****         4.6728  -1.5212   3.0674 C.ar           1 S1                 0.0000
     21 ****         3.5629  -1.4805   2.1979 C.ar           1 S1                 0.0000
     22 ****         3.8337  -1.3403   0.8366 C.ar           1 S1                 0.0000
     23 ****        -3.4721   0.3377  -0.0414 C.ar           1 S1                 0.0000
     24 ****        -4.8600   0.5783  -0.0529 C.ar           1 S1                 0.0000
     25 ****        -7.6694   0.1620  -0.7225 H              1 S1                 0.0000
     26 ****        -8.8181   1.3438  -0.0872 H              1 S1                 0.0000
     27 ****        -7.5836   0.6632   0.9766 H              1 S1                 0.0000
     28 ****        -4.8101   3.8600  -1.0132 H              1 S1                 0.0000
     29 ****        -2.3894   3.4298  -0.9925 H              1 S1                 0.0000
     30 ****        -0.9647  -0.3168   1.0044 H              1 S1                 0.0000
     31 ****        -0.9934  -0.7959  -0.6938 H              1 S1                 0.0000
     32 ****         1.1743   0.6338  -0.9586 H              1 S1                 0.0000
     33 ****         0.9508   1.5909   1.1034 H              1 S1                 0.0000
     34 ****         1.3002  -1.9351   0.7253 H              1 S1                 0.0000
     35 ****         1.1683  -1.8776  -1.0103 H              1 S1                 0.0000
     36 ****         4.0980  -0.8486  -3.5129 H              1 S1                 0.0000
     37 ****         2.5873  -0.1542  -2.9069 H              1 S1                 0.0000
     38 ****         2.7386  -1.9077  -3.1082 H              1 S1                 0.0000
     39 ****         7.2703  -1.2049   0.8330 H              1 S1                 0.0000
     40 ****         6.8170  -1.4587   3.2784 H              1 S1                 0.0000
     41 ****         4.5075  -1.6271   4.1298 H              1 S1                 0.0000
     42 ****         2.5565  -1.5482   2.5833 H              1 S1                 0.0000
     43 ****        -3.1322  -0.6500   0.2304 H              1 S1                 0.0000
     44 ****        -5.5194  -0.2350   0.2111 H              1 S1                 0.0000
     45 ****         5.8540  -1.0142  -1.6708 H              1 S1                 0.0000
     46 ****        -8.2968   3.3641  -0.7209 LP             1 S1                 0.0000
     47 ****        -6.7006   3.9849  -0.9790 LP             1 S1                 0.0000
     48 ****        -0.8114   1.9145   0.2171 LP             1 S1                 0.0000
     49 ****        -0.8832   1.3946  -1.3292 LP             1 S1                 0.0000
     50 ****         2.3481   0.8322   1.0344 LP             1 S1                 0.0000
     51 ****         1.1034   0.2189   1.8953 LP             1 S1                 0.0000
@<TRIPOS>BOND
    1    1    2 1     
    2    1   25 1     
    3    1   26 1     
    4    1   27 1     
    5    2    3 2     
    6    2    4 1     
    7    4   24 ar    
    8    4    5 ar    
    9    5    6 ar    
   10    5   28 1     
   11    6    7 ar    
   12    6   29 1     
   13    7    8 1     
   14    7   23 ar    
   15    8    9 1     
   16    9   10 1     
   17    9   30 1     
   18    9   31 1     
   19   10   11 1     
   20   10   12 1     
   21   10   32 1     
   22   11   33 1     
   23   12   13 1     
   24   12   34 1     
   25   12   35 1     
   26   13   22 1     
   27   13   14 1     
   28   14   15 1     
   29   14   16 2     
   30   15   36 1     
   31   15   37 1     
   32   15   38 1     
   33   16   17 1     
   34   16   45 1     
   35   17   22 ar    
   36   17   18 ar    
   37   18   19 ar    
   38   18   39 1     
   39   19   20 ar    
   40   19   40 1     
   41   20   21 ar    
   42   20   41 1     
   43   21   22 ar    
   44   21   42 1     
   45   23   24 ar    
   46   23   43 1     
   47   24   44 1     
   48    3   46 1     
   49    3   47 1     
   50    8   48 1     
   51    8   49 1     
   52   11   50 1     
   53   11   51 1     
@<TRIPOS>SUBSTRUCTURE
      1 S1             1
@<TRIPOS>SET
LONE_PAIRS      STATIC     ATOMS    <user>   **** ""
6 46 47 48 49 50 51
DONOR_HYDROGENS      STATIC     ATOMS    <user>   **** ""
2 33 45
ATOM$BLUE        STATIC     ATOMS    COLORGROUP SYSTEM
6 46 47 48 49 50 51
ATOM$RED        STATIC     ATOMS    COLORGROUP SYSTEM
2 33 45
