AV-unprocessed.smi:1047|AV-procd|sdf|4572|dock6
  -GOLD-   22720 3 33D 1   1.00000     0.00000
 Structure written by MMmdl.
 56 58  0  0  0  0  0  0  0  0  2 V2000
  155.1955  130.4405  153.7971 C   0  0  0  0  0  0  0  0  0  0  0  0
  153.9145  130.0395  154.5423 C   0  0  0  0  0  0  0  0  0  0  0  0
  153.3735  131.1408  155.3774 N   0  3  1  0  0  0  0  0  0  0  0  0
  152.0842  130.7839  156.0151 C   0  0  0  0  0  0  0  0  0  0  0  0
  151.5395  131.9701  156.8268 C   0  0  0  0  0  0  0  0  0  0  0  0
  152.5074  132.3706  157.7877 O   0  0  0  0  0  0  0  0  0  0  0  0
  153.7172  132.8159  157.1829 C   0  0  1  0  0  0  0  0  0  0  0  0
  154.6515  133.3079  158.2982 C   0  0  0  0  0  0  0  0  0  0  0  0
  154.0560  134.4283  159.0168 N   0  0  0  0  0  0  0  0  0  0  0  0
  154.6892  135.7136  158.7301 C   0  0  0  0  0  0  0  0  0  0  0  0
  153.9487  136.8826  159.4048 C   0  0  2  0  0  0  0  0  0  0  0  0
  152.5590  136.7519  159.1735 O   0  0  0  0  0  0  0  0  0  0  0  0
  154.4644  138.2747  158.9851 C   0  0  0  0  0  0  0  0  0  0  0  0
  154.4096  139.2355  160.0717 N   0  0  0  0  0  0  0  0  0  0  0  0
  154.9554  139.1073  161.2962 C   0  0  0  0  0  0  0  0  0  0  0  0
  154.7821  140.1138  162.1479 N   0  0  0  0  0  0  0  0  0  0  0  0
  154.0408  141.0004  161.3855 C   0  0  0  0  0  0  0  0  0  0  0  0
  153.5263  142.2761  161.7040 C   0  0  0  0  0  0  0  0  0  0  0  0
  152.7866  143.0171  160.7549 C   0  0  0  0  0  0  0  0  0  0  0  0
  152.2546  144.3864  161.1392 C   0  0  0  0  0  0  0  0  0  0  0  0
  152.5508  142.4821  159.4629 C   0  0  0  0  0  0  0  0  0  0  0  0
  151.7625  143.2619  158.4255 C   0  0  0  0  0  0  0  0  0  0  0  0
  153.0544  141.2074  159.1295 C   0  0  0  0  0  0  0  0  0  0  0  0
  153.7911  140.4809  160.0817 C   0  0  0  0  0  0  0  0  0  0  0  0
  154.3307  131.6416  156.3953 C   0  0  0  0  0  0  0  0  0  0  0  0
  155.5147  129.6408  153.1284 H   0  0  0  0  0  0  0  0  0  0  0  0
  156.0218  130.6388  154.4789 H   0  0  0  0  0  0  0  0  0  0  0  0
  155.0359  131.3326  153.1907 H   0  0  0  0  0  0  0  0  0  0  0  0
  153.1689  129.7606  153.7963 H   0  0  0  0  0  0  0  0  0  0  0  0
  154.0862  129.1529  155.1544 H   0  0  0  0  0  0  0  0  0  0  0  0
  151.3579  130.4979  155.2532 H   0  0  0  0  0  0  0  0  0  0  0  0
  152.2250  129.9193  156.6658 H   0  0  0  0  0  0  0  0  0  0  0  0
  151.2859  132.8074  156.1746 H   0  0  0  0  0  0  0  0  0  0  0  0
  150.6249  131.6821  157.3454 H   0  0  0  0  0  0  0  0  0  0  0  0
  153.5087  133.6394  156.4963 H   0  0  0  0  0  0  0  0  0  0  0  0
  154.8771  132.4885  158.9819 H   0  0  0  0  0  0  0  0  0  0  0  0
  155.6010  133.6250  157.8652 H   0  0  0  0  0  0  0  0  0  0  0  0
  154.0958  134.2531  160.0164 H   0  0  0  0  0  0  0  0  0  0  0  0
  155.7283  135.7025  159.0620 H   0  0  0  0  0  0  0  0  0  0  0  0
  154.7121  135.8778  157.6521 H   0  0  0  0  0  0  0  0  0  0  0  0
  154.0886  136.7808  160.4818 H   0  0  0  0  0  0  0  0  0  0  0  0
  152.1074  137.4024  159.6897 H   0  0  0  0  0  0  0  0  0  0  0  0
  155.4970  138.2039  158.6410 H   0  0  0  0  0  0  0  0  0  0  0  0
  153.8854  138.6696  158.1499 H   0  0  0  0  0  0  0  0  0  0  0  0
  155.5092  138.2238  161.5791 H   0  0  0  0  0  0  0  0  0  0  0  0
  153.7065  142.6834  162.6880 H   0  0  0  0  0  0  0  0  0  0  0  0
  152.7053  145.1585  160.5155 H   0  0  0  0  0  0  0  0  0  0  0  0
  152.4789  144.6231  162.1795 H   0  0  0  0  0  0  0  0  0  0  0  0
  151.1726  144.4269  161.0136 H   0  0  0  0  0  0  0  0  0  0  0  0
  151.7036  142.7205  157.4809 H   0  0  0  0  0  0  0  0  0  0  0  0
  152.2358  144.2241  158.2296 H   0  0  0  0  0  0  0  0  0  0  0  0
  150.7449  143.4400  158.7737 H   0  0  0  0  0  0  0  0  0  0  0  0
  152.8791  140.7864  158.1505 H   0  0  0  0  0  0  0  0  0  0  0  0
  154.5991  130.8313  157.0753 H   0  0  0  0  0  0  0  0  0  0  0  0
  155.2505  131.9737  155.9148 H   0  0  0  0  0  0  0  0  0  0  0  0
  153.1771  131.9094  154.7521 H   0  0  0  0  0  0  0  0  0  0  0  0
  1  2  1  0  0  0  0
  1 26  1  0  0  0  0
  1 27  1  0  0  0  0
  1 28  1  0  0  0  0
  2  3  1  0  0  0  0
  2 29  1  0  0  0  0
  2 30  1  0  0  0  0
  3 25  1  0  0  0  0
  3  4  1  0  0  0  0
  3 56  1  0  0  0  0
  4  5  1  0  0  0  0
  4 31  1  0  0  0  0
  4 32  1  0  0  0  0
  5  6  1  0  0  0  0
  5 33  1  0  0  0  0
  5 34  1  0  0  0  0
  6  7  1  0  0  0  0
  7  8  1  0  0  0  0
  7 25  1  0  0  0  0
  7 35  1  0  0  0  0
  8  9  1  0  0  0  0
  8 36  1  0  0  0  0
  8 37  1  0  0  0  0
  9 10  1  0  0  0  0
  9 38  1  0  0  0  0
 10 11  1  0  0  0  0
 10 39  1  0  0  0  0
 10 40  1  0  0  0  0
 11 12  1  0  0  0  0
 11 13  1  0  0  0  0
 11 41  1  0  0  0  0
 12 42  1  0  0  0  0
 13 14  1  0  0  0  0
 13 43  1  0  0  0  0
 13 44  1  0  0  0  0
 14 24  1  0  0  0  0
 14 15  1  0  0  0  0
 15 16  2  0  0  0  0
 15 45  1  0  0  0  0
 16 17  1  0  0  0  0
 17 24  2  0  0  0  0
 17 18  1  0  0  0  0
 18 19  2  0  0  0  0
 18 46  1  0  0  0  0
 19 20  1  0  0  0  0
 19 21  1  0  0  0  0
 20 47  1  0  0  0  0
 20 48  1  0  0  0  0
 20 49  1  0  0  0  0
 21 22  1  0  0  0  0
 21 23  2  0  0  0  0
 22 50  1  0  0  0  0
 22 51  1  0  0  0  0
 22 52  1  0  0  0  0
 23 24  1  0  0  0  0
 23 53  1  0  0  0  0
 25 54  1  0  0  0  0
 25 55  1  0  0  0  0
M  CHG  1   3   1
M  END
> <s_m_source_file>
AV-unprocessed.smi

> <i_m_source_file_index>
1047

> <i_lp_mmshare_version>
43012

> <i_f3d_flags>
0

> <s_epik_input>
W0NIM11bQ0gyXU4xW0NIMl1bQ0gyXU9bQ0BIXShbQ0gyXTEpW0NIMl1bTkhdW0NIMl1bQ0BIXShbT0hdKVtDSDJdbihbY0hdbjIpYyhjMjMpW2NIXWMoW0NIM10pYyhbY0hdMylbQ0gzXQ==

> <s_epik_cmdline>
J2VwaWtfcHl0aG9uJywgJy1waCcsICc3LjAnLCAnLXRuJywgJzgnLCAnLW1hJywgJzIwMCcsICctbWV0YWxfYmluZGluZycsICctaW1hZScsICc8aW5maWxlLm1hZT4nLCAnLW9tYWUnLCAnPG91dGZpbGUubWFlPic=

> <r_epik_Ionization_Penalty>
1.19246

> <r_epik_Ionization_Penalty_Charging>
0.210041

> <r_epik_Ionization_Penalty_Neutral>
0.982415

> <r_epik_State_Penalty>
1.57595

> <r_epik_Charging_Adjusted_Penalty>
1.78599

> <i_epik_Tot_Q>
1

> <i_epik_Tot_abs_Q>
1

> <r_epik_Metal_State_Penalty>
1.46172

> <b_epik_Metal_Only>
0

> <s_lp_Force_Field>
OPLS_2005

> <r_lp_Energy>
30.4626

> <b_lp_Chiralities_Consistent>
1

> <s_lp_Variant>
AV-unprocessed.smi:1047-13

> <Gold.Version>
5.8.1

> <Gold.Id.Protein>
6NUR|6NUR_protein|mol2

> <Gold.PLP.Fitness>
49.8914

> <Gold.PLP.PLP>
-45.4933

> <Gold.PLP.part.hbond>
-3.0000

> <Gold.PLP.part.metal>
0.0000

> <Gold.PLP.part.buried>
-5.4091

> <Gold.PLP.part.nonpolar>
-37.0594

> <Gold.PLP.part.repulsive>
0.0302

> <Gold.PLP.ligand.clash>
0.0000

> <Gold.PLP.ligand.torsion>
0.8598

> <Gold.PLP.Chemscore.Hbond>
1.9760

> <Gold.PLP.Chemscore.CHOScore>
0.0000

> <Gold.PLP.Chemscore.Metal>
0.0000

> <Gold.Chemscore.Hbonds>
donor molecule, donor type, donor heavy atom, donor atom, acceptor molecule, acceptor atom, score
      P1  H  6896  6908       L1    12  0.96
      P1  H  6896  6909       L1     6  0.93

> <Gold.PLP.Chemscore.Internal.Correction>
0.1897

> <Gold.Rescore>
     Score         DG    S(hbond)    S(metal)    S(lipo)     H(rot)  DE(clash)    DE(int)     intcor
     17.68     -18.61       1.51        0.00     126.47       2.62       0.03       0.89       ----

> <Gold.Chemscore.Fitness>
17.6844

> <Gold.Chemscore.DG>
-18.6067

> <Gold.Chemscore.ZeroCoef>
-5.4800

> <Gold.Chemscore.Hbond>
1.5089

> <Gold.Chemscore.Metal>
0.0000

> <Gold.Chemscore.Lipo>
126.4676

> <Gold.Chemscore.Internal_Hbond>
0.0000

> <Gold.Chemscore.DEClash>
0.0324

> <Gold.Chemscore.DEInternal>
0.8899

> <Gold.Chemscore.Rot>
2.6209

> <Gold.Chemscore.Internal.Correction>
   9.000000E+99

> <Gold.Chemscore.Hbonds>
donor molecule, donor type, donor heavy atom, donor atom, acceptor molecule, acceptor atom, score
      P1  H  6896  6908       L1    12  0.20
      P1  H  6896  6909       L1     6  0.61

> <Gold.Chemscore.Hbond.Weighted>
-5.0396

> <Gold.Chemscore.Metal.Weighted>
-0.0000

> <Gold.Chemscore.Lipo.Weighted>
-14.7967

> <Gold.Chemscore.Internal_Hbond.Weighted>
0.0000

> <Gold.Chemscore.DEClash.Weighted>
0.0324

> <Gold.Chemscore.DEInternal.Weighted>
0.8899

> <Gold.Chemscore.Rot.Weighted>
6.7096

> <Gold.Chemscore.Internal.Correction.Weighted>
   9.000000E+99

> <Gold.Protein.RotatedTorsions>
[ 6907 6896 6895 6894 ] final  -93.12 input  -60.11 | X-H torsion
[ 7974 7965 7964 7962 ] final  177.24 input  175.53 | X-H torsion
[ 8008 7997 7996 7995 ] final  175.15 input   59.86 | X-H torsion
[ 10167 10162 10161 10158 ] final  106.90 input  -65.29 | X-H torsion
[ 10718 10713 10712 10709 ] final  -52.55 input   66.30 | X-H torsion
[ 10763 10752 10751 10750 ] final  -16.82 input  -60.55 | X-H torsion
[ 11005 11000 10999 10996 ] final  -38.35 input  -57.11 | X-H torsion

> <Gold.Protein.ActiveResidues>
 VAL166  LYS551  ARG553  GLY616  TRP617  ASP618  TYR619  PRO620  LYS621  CYS622 
 ASP623  PHE694  ASN695  SER759  ASP760  ASP761  ALA762  ILE779  LEU786  VAL792 
 PHE793  MET794  SER795  GLU796  ALA797  LYS798  CYS799  TRP800  GLU811  SER814 

> <Gold.Protein.RotatedAtoms>
  150.6917  134.2017  159.4324 H   0  0  0  0  0  0  0  0  0  0  0  0  # atno 6907 bound_to 6896
  151.9983  134.9940  160.0573 H   0  0  0  0  0  0  0  0  0  0  0  0  # atno 6908 bound_to 6896
  152.1603  133.4542  159.4894 H   0  0  0  0  0  0  0  0  0  0  0  0  # atno 6909 bound_to 6896
  144.7172  140.0217  143.6440 H   0  0  0  0  0  0  0  0  0  0  0  0  # atno 7974 bound_to 7965
  156.0901  140.1416  156.9603 H   0  0  0  0  0  0  0  0  0  0  0  0  # atno 8008 bound_to 7997
  154.4636  140.0934  156.7008 H   0  0  0  0  0  0  0  0  0  0  0  0  # atno 8009 bound_to 7997
  155.4934  140.3449  155.4361 H   0  0  0  0  0  0  0  0  0  0  0  0  # atno 8010 bound_to 7997
  139.6971  144.7100  151.1248 H   0  0  0  0  0  0  0  0  0  0  0  0  # atno 10167 bound_to 10162
  156.1612  130.4149  149.9790 H   0  0  0  0  0  0  0  0  0  0  0  0  # atno 10718 bound_to 10713
  153.5644  135.7009  153.5532 H   0  0  0  0  0  0  0  0  0  0  0  0  # atno 10763 bound_to 10752
  153.3400  135.4023  155.1564 H   0  0  0  0  0  0  0  0  0  0  0  0  # atno 10764 bound_to 10752
  154.8643  135.3740  154.5163 H   0  0  0  0  0  0  0  0  0  0  0  0  # atno 10765 bound_to 10752
  141.0021  133.6950  156.2041 H   0  0  0  0  0  0  0  0  0  0  0  0  # atno 11005 bound_to 11000
  146.0175  139.3222  143.0833 LP  0  0  0  0  0  0  0  0  0  0  0  0  # atno 17320 bound_to 7965
  145.8608  140.9476  143.0701 LP  0  0  0  0  0  0  0  0  0  0  0  0  # atno 17321 bound_to 7965
  140.7699  143.5476  150.9241 LP  0  0  0  0  0  0  0  0  0  0  0  0  # atno 17342 bound_to 10162
  139.9156  143.6668  152.3107 LP  0  0  0  0  0  0  0  0  0  0  0  0  # atno 17343 bound_to 10162
  156.7619  130.9154  151.3641 LP  0  0  0  0  0  0  0  0  0  0  0  0  # atno 17370 bound_to 10713
  157.6734  130.9072  150.0092 LP  0  0  0  0  0  0  0  0  0  0  0  0  # atno 17371 bound_to 10713
  140.6872  134.4704  157.5589 LP  0  0  0  0  0  0  0  0  0  0  0  0  # atno 17394 bound_to 11000
  139.9044  134.8482  156.1765 LP  0  0  0  0  0  0  0  0  0  0  0  0  # atno 17395 bound_to 11000

$$$$
