AV-unprocessed.smi:3289|AV-procd|sdf|12609|dock8
  -GOLD-   2272018543D 1   1.00000     0.00000
 Structure written by MMmdl.
 39 40  0  0  0  0  0  0  0  0  1 V2000
  148.8656  141.5918  154.5455 C   0  0  0  0  0  0  0  0  0  0  0  0
  149.4948  140.9583  155.7945 C   0  0  0  0  0  0  0  0  0  0  0  0
  150.4000  141.9460  156.5461 C   0  0  0  0  0  0  0  0  0  0  0  0
  150.2229  139.6841  155.4597 C   0  0  0  0  0  0  0  0  0  0  0  0
  150.4896  139.3059  154.2115 N   0  0  0  0  0  0  0  0  0  0  0  0
  151.1597  138.0954  154.3348 C   0  0  0  0  0  0  0  0  0  0  0  0
  151.2702  137.7723  155.6644 C   0  0  0  0  0  0  0  0  0  0  0  0
  150.6581  138.7945  156.3803 N   0  0  0  0  0  0  0  0  0  0  0  0
  150.5398  138.8398  157.8324 C   0  0  0  0  0  0  0  0  0  0  0  0
  149.8957  137.5762  158.4170 C   0  0  0  0  0  0  0  0  0  0  0  0
  150.5816  136.6029  158.7325 O   0  0  0  0  0  0  0  0  0  0  0  0
  148.5624  137.6120  158.5621 N   0  0  0  0  0  0  0  0  0  0  0  0
  147.7439  136.5241  159.0857 C   0  0  0  0  0  0  0  0  0  0  0  0
  148.1186  136.1826  160.5377 C   0  0  2  0  0  0  0  0  0  0  0  0
  147.5064  134.8737  161.0346 C   0  0  0  0  0  0  0  0  0  0  0  0
  147.4865  135.0924  162.5299 C   0  0  0  0  0  0  0  0  0  0  0  0
  147.1141  136.5687  162.6197 C   0  0  0  0  0  0  0  0  0  0  0  0
  147.6375  137.1761  161.4415 O   0  0  0  0  0  0  0  0  0  0  0  0
  148.1776  140.8988  154.0603 H   0  0  0  0  0  0  0  0  0  0  0  0
  149.6262  141.8722  153.8161 H   0  0  0  0  0  0  0  0  0  0  0  0
  148.3033  142.4901  154.8012 H   0  0  0  0  0  0  0  0  0  0  0  0
  148.6761  140.7263  156.4730 H   0  0  0  0  0  0  0  0  0  0  0  0
  150.7910  141.4997  157.4609 H   0  0  0  0  0  0  0  0  0  0  0  0
  149.8518  142.8456  156.8269 H   0  0  0  0  0  0  0  0  0  0  0  0
  151.2500  142.2524  155.9355 H   0  0  0  0  0  0  0  0  0  0  0  0
  151.5061  137.5558  153.4658 H   0  0  0  0  0  0  0  0  0  0  0  0
  151.7201  136.9185  156.1493 H   0  0  0  0  0  0  0  0  0  0  0  0
  151.5233  138.9974  158.2749 H   0  0  0  0  0  0  0  0  0  0  0  0
  149.9392  139.7105  158.1001 H   0  0  0  0  0  0  0  0  0  0  0  0
  148.0775  138.4515  158.2801 H   0  0  0  0  0  0  0  0  0  0  0  0
  146.6816  136.7613  159.0065 H   0  0  0  0  0  0  0  0  0  0  0  0
  147.9118  135.6527  158.4522 H   0  0  0  0  0  0  0  0  0  0  0  0
  149.2033  136.1290  160.6452 H   0  0  0  0  0  0  0  0  0  0  0  0
  146.4872  134.7587  160.6627 H   0  0  0  0  0  0  0  0  0  0  0  0
  148.0802  133.9953  160.7372 H   0  0  0  0  0  0  0  0  0  0  0  0
  146.7841  134.4425  163.0519 H   0  0  0  0  0  0  0  0  0  0  0  0
  148.4814  134.9281  162.9461 H   0  0  0  0  0  0  0  0  0  0  0  0
  146.0301  136.6898  162.6175 H   0  0  0  0  0  0  0  0  0  0  0  0
  147.5060  137.0424  163.5200 H   0  0  0  0  0  0  0  0  0  0  0  0
  1  2  1  0  0  0  0
  1 19  1  0  0  0  0
  1 20  1  0  0  0  0
  1 21  1  0  0  0  0
  2  3  1  0  0  0  0
  2  4  1  0  0  0  0
  2 22  1  0  0  0  0
  3 23  1  0  0  0  0
  3 24  1  0  0  0  0
  3 25  1  0  0  0  0
  4  8  1  0  0  0  0
  4  5  2  0  0  0  0
  5  6  1  0  0  0  0
  6  7  2  0  0  0  0
  6 26  1  0  0  0  0
  7  8  1  0  0  0  0
  7 27  1  0  0  0  0
  8  9  1  0  0  0  0
  9 10  1  0  0  0  0
  9 28  1  0  0  0  0
  9 29  1  0  0  0  0
 10 11  2  0  0  0  0
 10 12  1  0  0  0  0
 12 13  1  0  0  0  0
 12 30  1  0  0  0  0
 13 14  1  0  0  0  0
 13 31  1  0  0  0  0
 13 32  1  0  0  0  0
 14 18  1  0  0  0  0
 14 15  1  0  0  0  0
 14 33  1  0  0  0  0
 15 16  1  0  0  0  0
 15 34  1  0  0  0  0
 15 35  1  0  0  0  0
 16 17  1  0  0  0  0
 16 36  1  0  0  0  0
 16 37  1  0  0  0  0
 17 18  1  0  0  0  0
 17 38  1  0  0  0  0
 17 39  1  0  0  0  0
M  END
> <s_m_source_file>
AV-unprocessed.smi

> <i_m_source_file_index>
3289

> <i_lp_mmshare_version>
43012

> <i_f3d_flags>
0

> <s_epik_input>
W0NIM11bQ0hdKFtDSDNdKWMxbltjSF1bY0hdbjFbQ0gyXUMoPU8pW05IXVtDSDJdW0NAQEhdMltDSDJdW0NIMl1bQ0gyXU8y

> <s_epik_cmdline>
J2VwaWtfcHl0aG9uJywgJy1waCcsICc3LjAnLCAnLXRuJywgJzgnLCAnLW1hJywgJzIwMCcsICctbWV0YWxfYmluZGluZycsICctaW1hZScsICc8aW5maWxlLm1hZT4nLCAnLW9tYWUnLCAnPG91dGZpbGUubWFlPic=

> <r_lp_tautomer_probability>
1

> <r_epik_Ionization_Penalty>
0.587725

> <r_epik_Ionization_Penalty_Charging>
0.587725

> <r_epik_Ionization_Penalty_Neutral>
1.43432e-07

> <r_epik_State_Penalty>
0.601029

> <r_epik_Charging_Adjusted_Penalty>
1.18875

> <i_epik_Tot_Q>
0

> <i_epik_Tot_abs_Q>
0

> <r_epik_Metal_State_Penalty>
0.297663

> <b_epik_Metal_Only>
0

> <s_lp_Force_Field>
OPLS_2005

> <r_lp_Energy>
18.7222

> <b_lp_Chiralities_Consistent>
1

> <s_lp_Variant>
AV-unprocessed.smi:3289-3

> <Gold.Version>
5.8.1

> <Gold.Id.Protein>
6NUR|6NUR_protein|mol2

> <Gold.PLP.Fitness>
47.8795

> <Gold.PLP.PLP>
-34.7353

> <Gold.PLP.part.hbond>
-4.0000

> <Gold.PLP.part.metal>
0.0000

> <Gold.PLP.part.buried>
-2.9274

> <Gold.PLP.part.nonpolar>
-27.5280

> <Gold.PLP.part.repulsive>
0.3225

> <Gold.PLP.ligand.clash>
0.0000

> <Gold.PLP.ligand.torsion>
0.6679

> <Gold.PLP.Chemscore.Hbond>
3.8080

> <Gold.PLP.Chemscore.CHOScore>
1.0000

> <Gold.PLP.Chemscore.Metal>
0.0000

> <Gold.Chemscore.Hbonds>
donor molecule, donor type, donor heavy atom, donor atom, acceptor molecule, acceptor atom, score
      P1  H  6896  6908       L1    11  1.00
      P1  H  6931  6943       L1    18  0.99
      P1  H  6934  6947       L1    18  0.82
      P1  H  7989  7998       L1     5  0.94
      L1  C     6    26       P1  7949  0.97

> <Gold.PLP.Chemscore.Internal.Correction>
0.0561

> <Gold.Rescore>
     Score         DG    S(hbond)    S(metal)    S(lipo)     H(rot)  DE(clash)    DE(int)     intcor
     19.51     -19.95       3.22        0.00      69.35       1.72       0.00       0.44       ----

> <Gold.Chemscore.Fitness>
19.5110

> <Gold.Chemscore.DG>
-19.9525

> <Gold.Chemscore.ZeroCoef>
-5.4800

> <Gold.Chemscore.Hbond>
3.2201

> <Gold.Chemscore.Metal>
0.0000

> <Gold.Chemscore.Lipo>
69.3509

> <Gold.Chemscore.Internal_Hbond>
0.0000

> <Gold.Chemscore.DEClash>
0.0048

> <Gold.Chemscore.DEInternal>
0.4367

> <Gold.Chemscore.Rot>
1.7175

> <Gold.Chemscore.Internal.Correction>
   9.000000E+99

> <Gold.Chemscore.Hbonds>
donor molecule, donor type, donor heavy atom, donor atom, acceptor molecule, acceptor atom, score
      P1  H  6896  6908       L1    11  0.96
      P1  H  6931  6943       L1    18  0.46
      P1  H  6934  6947       L1    18  0.79
      P1  H  7989  7998       L1     5  0.36

> <Gold.Chemscore.Hbond.Weighted>
-10.7551

> <Gold.Chemscore.Metal.Weighted>
-0.0000

> <Gold.Chemscore.Lipo.Weighted>
-8.1141

> <Gold.Chemscore.Internal_Hbond.Weighted>
0.0000

> <Gold.Chemscore.DEClash.Weighted>
0.0048

> <Gold.Chemscore.DEInternal.Weighted>
0.4367

> <Gold.Chemscore.Rot.Weighted>
4.3967

> <Gold.Chemscore.Internal.Correction.Weighted>
   9.000000E+99

> <Gold.Protein.RotatedTorsions>
[ 6907 6896 6895 6894 ] final -154.90 input  -60.11 | X-H torsion
[ 7974 7965 7964 7962 ] final -154.17 input  175.53 | X-H torsion
[ 8008 7997 7996 7995 ] final   86.06 input   59.86 | X-H torsion
[ 10167 10162 10161 10158 ] final   38.37 input  -65.29 | X-H torsion
[ 10718 10713 10712 10709 ] final  127.09 input   66.30 | X-H torsion
[ 10763 10752 10751 10750 ] final  -88.10 input  -60.55 | X-H torsion
[ 11005 11000 10999 10996 ] final   22.87 input  -57.11 | X-H torsion

> <Gold.Protein.ActiveResidues>
 VAL166  LYS551  ARG553  GLY616  TRP617  ASP618  TYR619  PRO620  LYS621  CYS622 
 ASP623  PHE694  ASN695  SER759  ASP760  ASP761  ALA762  ILE779  LEU786  VAL792 
 PHE793  MET794  SER795  GLU796  ALA797  LYS798  CYS799  TRP800  GLU811  SER814 

> <Gold.Protein.RotatedAtoms>
  151.2644  133.4286  159.2617 H   0  0  0  0  0  0  0  0  0  0  0  0  # atno 6907 bound_to 6896
  151.0501  134.9667  159.8217 H   0  0  0  0  0  0  0  0  0  0  0  0  # atno 6908 bound_to 6896
  152.5381  134.2599  159.8984 H   0  0  0  0  0  0  0  0  0  0  0  0  # atno 6909 bound_to 6896
  144.7703  140.4424  143.5912 H   0  0  0  0  0  0  0  0  0  0  0  0  # atno 7974 bound_to 7965
  155.9579  140.3396  155.6465 H   0  0  0  0  0  0  0  0  0  0  0  0  # atno 8008 bound_to 7997
  155.6836  140.0740  157.2493 H   0  0  0  0  0  0  0  0  0  0  0  0  # atno 8009 bound_to 7997
  154.4136  140.1670  156.1997 H   0  0  0  0  0  0  0  0  0  0  0  0  # atno 8010 bound_to 7997
  140.3943  144.1810  150.6131 H   0  0  0  0  0  0  0  0  0  0  0  0  # atno 10167 bound_to 10162
  157.5363  131.1097  150.8930 H   0  0  0  0  0  0  0  0  0  0  0  0  # atno 10718 bound_to 10713
  154.6408  135.5389  153.7787 H   0  0  0  0  0  0  0  0  0  0  0  0  # atno 10763 bound_to 10752
  153.0333  135.6459  154.1162 H   0  0  0  0  0  0  0  0  0  0  0  0  # atno 10764 bound_to 10752
  154.1087  135.2928  155.3215 H   0  0  0  0  0  0  0  0  0  0  0  0  # atno 10765 bound_to 10752
  140.3759  134.1973  155.7665 H   0  0  0  0  0  0  0  0  0  0  0  0  # atno 11005 bound_to 11000
  145.6345  139.1541  143.2950 LP  0  0  0  0  0  0  0  0  0  0  0  0  # atno 17320 bound_to 7965
  146.1844  140.6446  142.9174 LP  0  0  0  0  0  0  0  0  0  0  0  0  # atno 17321 bound_to 7965
  140.4807  143.2380  151.8960 LP  0  0  0  0  0  0  0  0  0  0  0  0  # atno 17342 bound_to 10162
  139.4787  144.5272  151.8717 LP  0  0  0  0  0  0  0  0  0  0  0  0  # atno 17343 bound_to 10162
  156.9496  130.5415  149.5282 LP  0  0  0  0  0  0  0  0  0  0  0  0  # atno 17370 bound_to 10713
  156.0461  130.5537  150.8884 LP  0  0  0  0  0  0  0  0  0  0  0  0  # atno 17371 bound_to 10713
  141.1939  133.8139  157.0777 LP  0  0  0  0  0  0  0  0  0  0  0  0  # atno 17394 bound_to 11000
  140.0516  134.9802  157.1146 LP  0  0  0  0  0  0  0  0  0  0  0  0  # atno 17395 bound_to 11000

$$$$
