AV-unprocessed.smi:1897|AV-procd|sdf|7693|dock9
  -GOLD-   22720 9433D 1   1.00000     0.00000
 Structure written by MMmdl.
 38 40  0  0  0  0  0  0  0  0  3 V2000
  145.7898  136.3279  162.5997 C   0  0  0  0  0  0  0  0  0  0  0  0
  146.6581  136.0618  161.4181 C   0  0  0  0  0  0  0  0  0  0  0  0
  146.8525  136.9586  160.4480 N   0  0  0  0  0  0  0  0  0  0  0  0
  147.6970  136.4812  159.4568 N   0  0  0  0  0  0  0  0  0  0  0  0
  148.1165  135.2276  159.6821 C   0  0  0  0  0  0  0  0  0  0  0  0
  148.9304  134.5735  158.8324 N   0  5  0  0  0  0  0  0  0  0  0  0
  149.1402  134.9897  157.5565 C   0  0  0  0  0  0  0  0  0  0  0  0
  150.1842  134.7830  156.9393 O   0  0  0  0  0  0  0  0  0  0  0  0
  148.1515  135.6737  156.9497 N   0  0  0  0  0  0  0  0  0  0  0  0
  148.2166  136.2713  155.6203 C   0  0  1  0  0  0  0  0  0  0  0  0
  147.0882  137.2766  155.3553 C   0  0  0  0  0  0  0  0  0  0  0  0
  147.7069  138.3378  154.4282 C   0  0  0  0  0  0  0  0  0  0  0  0
  149.1155  137.9334  154.2218 N   0  3  1  0  0  0  0  0  0  0  0  0
  150.0696  139.0150  153.8674 C   0  0  0  0  0  0  0  0  0  0  0  0
  150.4996  139.8508  155.0848 C   0  0  0  0  0  0  0  0  0  0  0  0
  151.0367  138.9468  156.1988 C   0  0  0  0  0  0  0  0  0  0  0  0
  149.9669  137.9220  156.5896 C   0  0  0  0  0  0  0  0  0  0  0  0
  149.4978  137.0842  155.3712 C   0  0  1  0  0  0  0  0  0  0  0  0
  147.5007  134.5395  161.1833 S   0  0  0  0  0  0  0  0  0  0  0  0
  144.7458  136.1522  162.3405 H   0  0  0  0  0  0  0  0  0  0  0  0
  145.9026  137.3617  162.9277 H   0  0  0  0  0  0  0  0  0  0  0  0
  146.0619  135.6695  163.4248 H   0  0  0  0  0  0  0  0  0  0  0  0
  147.3038  135.8259  157.4768 H   0  0  0  0  0  0  0  0  0  0  0  0
  148.1467  135.4844  154.8664 H   0  0  0  0  0  0  0  0  0  0  0  0
  146.2193  136.7941  154.9067 H   0  0  0  0  0  0  0  0  0  0  0  0
  146.7590  137.7477  156.2829 H   0  0  0  0  0  0  0  0  0  0  0  0
  147.1900  138.3953  153.4699 H   0  0  0  0  0  0  0  0  0  0  0  0
  147.6472  139.3203  154.8981 H   0  0  0  0  0  0  0  0  0  0  0  0
  150.9512  138.5497  153.4247 H   0  0  0  0  0  0  0  0  0  0  0  0
  149.6353  139.6516  153.0960 H   0  0  0  0  0  0  0  0  0  0  0  0
  151.2645  140.5691  154.7883 H   0  0  0  0  0  0  0  0  0  0  0  0
  149.6582  140.4361  155.4570 H   0  0  0  0  0  0  0  0  0  0  0  0
  151.9392  138.4342  155.8638 H   0  0  0  0  0  0  0  0  0  0  0  0
  151.3182  139.5449  157.0659 H   0  0  0  0  0  0  0  0  0  0  0  0
  150.3614  137.2661  157.3664 H   0  0  0  0  0  0  0  0  0  0  0  0
  149.1212  138.4464  157.0361 H   0  0  0  0  0  0  0  0  0  0  0  0
  150.3115  136.4245  155.0661 H   0  0  0  0  0  0  0  0  0  0  0  0
  149.0892  137.3085  153.4287 H   0  0  0  0  0  0  0  0  0  0  0  0
  1  2  1  0  0  0  0
  1 20  1  0  0  0  0
  1 21  1  0  0  0  0
  1 22  1  0  0  0  0
  2 19  1  0  0  0  0
  2  3  2  0  0  0  0
  3  4  1  0  0  0  0
  4  5  2  0  0  0  0
  5  6  1  0  0  0  0
  5 19  1  0  0  0  0
  6  7  1  0  0  0  0
  7  8  2  0  0  0  0
  7  9  1  0  0  0  0
  9 10  1  0  0  0  0
  9 23  1  0  0  0  0
 10 18  1  0  0  0  0
 10 11  1  0  0  0  0
 10 24  1  0  0  0  0
 11 12  1  0  0  0  0
 11 25  1  0  0  0  0
 11 26  1  0  0  0  0
 12 13  1  0  0  0  0
 12 27  1  0  0  0  0
 12 28  1  0  0  0  0
 13 18  1  0  0  0  0
 13 14  1  0  0  0  0
 13 38  1  0  0  0  0
 14 15  1  0  0  0  0
 14 29  1  0  0  0  0
 14 30  1  0  0  0  0
 15 16  1  0  0  0  0
 15 31  1  0  0  0  0
 15 32  1  0  0  0  0
 16 17  1  0  0  0  0
 16 33  1  0  0  0  0
 16 34  1  0  0  0  0
 17 18  1  0  0  0  0
 17 35  1  0  0  0  0
 17 36  1  0  0  0  0
 18 37  1  0  0  0  0
M  CHG  1   6  -1
M  CHG  1  13   1
M  END
> <s_m_source_file>
AV-unprocessed.smi

> <i_m_source_file_index>
1897

> <i_lp_mmshare_version>
43012

> <i_f3d_flags>
0

> <s_epik_input>
W0NIM11jMW5uYyhzMSlbTkhdQyg9TylbTkhdW0NASF0oW0NIMl1bQ0gyXTIpW0NAQEhdKE4yMylbQ0gyXVtDSDJdW0NIMl1bQ0gyXTM=

> <s_epik_cmdline>
J2VwaWtfcHl0aG9uJywgJy1waCcsICc3LjAnLCAnLXRuJywgJzgnLCAnLW1hJywgJzIwMCcsICctbWV0YWxfYmluZGluZycsICctaW1hZScsICc8aW5maWxlLm1hZT4nLCAnLW9tYWUnLCAnPG91dGZpbGUubWFlPic=

> <r_lp_tautomer_probability>
1

> <r_epik_Ionization_Penalty>
3.77712

> <r_epik_Ionization_Penalty_Charging>
3.67739

> <r_epik_Ionization_Penalty_Neutral>
0.0997294

> <r_epik_State_Penalty>
3.67514

> <r_epik_Charging_Adjusted_Penalty>
7.35254

> <i_epik_Tot_Q>
0

> <i_epik_Tot_abs_Q>
2

> <r_epik_Metal_State_Penalty>
0.540795

> <b_epik_Metal_Only>
1

> <s_lp_Force_Field>
OPLS_2005

> <r_lp_Energy>
30.11

> <b_lp_Chiralities_Consistent>
1

> <s_lp_Variant>
AV-unprocessed.smi:1897-10

> <Gold.Version>
5.8.1

> <Gold.Id.Protein>
6NUR|6NUR_protein|mol2

> <Gold.PLP.Fitness>
38.5623

> <Gold.PLP.PLP>
-23.1541

> <Gold.PLP.part.hbond>
-4.0000

> <Gold.PLP.part.metal>
0.0000

> <Gold.PLP.part.buried>
-4.6096

> <Gold.PLP.part.nonpolar>
-15.3934

> <Gold.PLP.part.repulsive>
0.0469

> <Gold.PLP.ligand.clash>
0.0000

> <Gold.PLP.ligand.torsion>
0.3936

> <Gold.PLP.Chemscore.Hbond>
5.3972

> <Gold.PLP.Chemscore.CHOScore>
0.0000

> <Gold.PLP.Chemscore.Metal>
0.0000

> <Gold.Chemscore.Hbonds>
donor molecule, donor type, donor heavy atom, donor atom, acceptor molecule, acceptor atom, score
      L1  H    13    38       P1  7948  2.00
      P1  H  6896  6909       L1     6  2.00
      P1  H  6934  6947       L1     3  0.71

> <Gold.PLP.Chemscore.Internal.Correction>
0.0037

> <Gold.Rescore>
     Score         DG    S(hbond)    S(metal)    S(lipo)     H(rot)  DE(clash)    DE(int)     intcor
     14.78     -17.04       2.11        0.00      60.46       1.00       0.60       1.66       ----

> <Gold.Chemscore.Fitness>
14.7793

> <Gold.Chemscore.DG>
-17.0424

> <Gold.Chemscore.ZeroCoef>
-5.4800

> <Gold.Chemscore.Hbond>
2.1103

> <Gold.Chemscore.Metal>
0.0000

> <Gold.Chemscore.Lipo>
60.4613

> <Gold.Chemscore.Internal_Hbond>
0.0000

> <Gold.Chemscore.DEClash>
0.6006

> <Gold.Chemscore.DEInternal>
1.6624

> <Gold.Chemscore.Rot>
1.0000

> <Gold.Chemscore.Internal.Correction>
   9.000000E+99

> <Gold.Chemscore.Hbonds>
donor molecule, donor type, donor heavy atom, donor atom, acceptor molecule, acceptor atom, score
      L1  H    13    38       P1  7948  1.00
      P1  H  6896  6909       L1     6  0.37
      P1  H  6934  6947       L1     3  0.59

> <Gold.Chemscore.Hbond.Weighted>
-7.0484

> <Gold.Chemscore.Metal.Weighted>
-0.0000

> <Gold.Chemscore.Lipo.Weighted>
-7.0740

> <Gold.Chemscore.Internal_Hbond.Weighted>
0.0000

> <Gold.Chemscore.DEClash.Weighted>
0.6006

> <Gold.Chemscore.DEInternal.Weighted>
1.6624

> <Gold.Chemscore.Rot.Weighted>
2.5600

> <Gold.Chemscore.Internal.Correction.Weighted>
   9.000000E+99

> <Gold.Protein.RotatedTorsions>
[ 6907 6896 6895 6894 ] final   29.04 input  -60.11 | X-H torsion
[ 7974 7965 7964 7962 ] final   11.04 input  175.53 | X-H torsion
[ 8008 7997 7996 7995 ] final   11.25 input   59.86 | X-H torsion
[ 10167 10162 10161 10158 ] final  -98.78 input  -65.29 | X-H torsion
[ 10718 10713 10712 10709 ] final   92.39 input   66.30 | X-H torsion
[ 10763 10752 10751 10750 ] final    2.44 input  -60.55 | X-H torsion
[ 11005 11000 10999 10996 ] final   -4.20 input  -57.11 | X-H torsion

> <Gold.Protein.ActiveResidues>
 VAL166  LYS551  ARG553  GLY616  TRP617  ASP618  TYR619  PRO620  LYS621  CYS622 
 ASP623  PHE694  ASN695  SER759  ASP760  ASP761  ALA762  ILE779  LEU786  VAL792 
 PHE793  MET794  SER795  GLU796  ALA797  LYS798  CYS799  TRP800  GLU811  SER814 

> <Gold.Protein.RotatedAtoms>
  152.0258  134.9796  160.0571 H   0  0  0  0  0  0  0  0  0  0  0  0  # atno 6907 bound_to 6896
  152.1293  133.4393  159.4721 H   0  0  0  0  0  0  0  0  0  0  0  0  # atno 6908 bound_to 6896
  150.6855  134.2359  159.4496 H   0  0  0  0  0  0  0  0  0  0  0  0  # atno 6909 bound_to 6896
  146.2378  139.9544  142.8466 H   0  0  0  0  0  0  0  0  0  0  0  0  # atno 7974 bound_to 7965
  154.8044  140.2857  155.5898 H   0  0  0  0  0  0  0  0  0  0  0  0  # atno 8008 bound_to 7997
  156.2981  140.2580  156.2848 H   0  0  0  0  0  0  0  0  0  0  0  0  # atno 8009 bound_to 7997
  154.9520  140.0379  157.2138 H   0  0  0  0  0  0  0  0  0  0  0  0  # atno 8010 bound_to 7997
  140.2694  143.3354  152.0549 H   0  0  0  0  0  0  0  0  0  0  0  0  # atno 10167 bound_to 10162
  157.6958  131.0441  150.3875 H   0  0  0  0  0  0  0  0  0  0  0  0  # atno 10718 bound_to 10713
  153.2956  135.6952  153.7251 H   0  0  0  0  0  0  0  0  0  0  0  0  # atno 10763 bound_to 10752
  153.6186  135.3431  155.3004 H   0  0  0  0  0  0  0  0  0  0  0  0  # atno 10764 bound_to 10752
  154.8536  135.4380  154.2052 H   0  0  0  0  0  0  0  0  0  0  0  0  # atno 10765 bound_to 10752
  140.6776  133.9181  155.8534 H   0  0  0  0  0  0  0  0  0  0  0  0  # atno 11005 bound_to 11000
  145.1830  140.9776  143.4255 LP  0  0  0  0  0  0  0  0  0  0  0  0  # atno 17320 bound_to 7965
  144.9925  139.3676  143.6208 LP  0  0  0  0  0  0  0  0  0  0  0  0  # atno 17321 bound_to 7965
  139.4993  144.6666  151.6341 LP  0  0  0  0  0  0  0  0  0  0  0  0  # atno 17342 bound_to 10162
  140.5902  143.9793  150.6320 LP  0  0  0  0  0  0  0  0  0  0  0  0  # atno 17343 bound_to 10162
  156.4282  130.3966  149.6778 LP  0  0  0  0  0  0  0  0  0  0  0  0  # atno 17370 bound_to 10713
  156.4005  130.7672  151.2680 LP  0  0  0  0  0  0  0  0  0  0  0  0  # atno 17371 bound_to 10713
  141.0343  134.0712  157.3978 LP  0  0  0  0  0  0  0  0  0  0  0  0  # atno 17394 bound_to 11000
  139.8962  135.0144  156.7038 LP  0  0  0  0  0  0  0  0  0  0  0  0  # atno 17395 bound_to 11000

$$$$
