#       Name:                AV-unprocessed.smi:177
#       Creating user name   scv26
#       Creation time:       Thu Mar 26 19:22:22 2020


#       File generated by GOLD software.
#

@<TRIPOS>MOLECULE
AV-unprocessed.smi:177
    73    77     1
SMALL
NO_CHARGES


@<TRIPOS>ATOM
      1 ****        -2.9305   3.8147   2.8790 C.3            1 S1                 0.0000
      2 ****        -4.0297   3.0172   2.4665 O.3            1 S1                 0.0000
      3 ****        -4.0173   1.6820   2.9618 C.3            1 S1                 0.0000
      4 ****        -5.4365   1.1082   2.7948 C.3            1 S1                 0.0000
      5 ****        -5.7992   0.8912   1.3159 C.3            1 S1                 0.0000
      6 ****        -4.7502   0.0138   0.6171 C.3            1 S1                 0.0000
      7 ****        -5.1048  -0.1401  -0.7525 O.3            1 S1                 0.0000
      8 ****        -4.2181  -1.0250  -1.4269 C.3            1 S1                 0.0000
      9 ****        -2.7959  -0.4459  -1.3911 C.3            1 S1                 0.0000
     10 ****        -2.3797  -0.1776  -0.0173 N.3            1 S1                 0.0000
     11 ****        -1.0781   0.1974   0.0068 C.ar           1 S1                 0.0000
     12 ****        -0.7377   1.5140  -0.0171 N.ar           1 S1                 0.0000
     13 ****         0.5497   1.8720  -0.0218 C.ar           1 S1                 0.0000
     14 ****         1.6328   1.0919  -0.0199 N.ar           1 S1                 0.0000
     15 ****         1.2943  -0.2294  -0.0103 C.ar           1 S1                 0.0000
     16 ****        -0.0267  -0.7571   0.0093 C.ar           1 S1                 0.0000
     17 ****         0.0130  -2.1446   0.0298 N.2            1 S1                 0.0000
     18 ****         1.2879  -2.4227   0.0228 C.2            1 S1                 0.0000
     19 ****         2.1304  -1.3332  -0.0267 N.pl3          1 S1                 0.0000
     20 ****         3.5867  -1.3574  -0.0559 C.3            1 S1                 0.0000
     21 ****         4.2148  -1.4734  -1.4819 C.3            1 S1                 0.0000
     22 ****         3.7005  -2.7403  -2.2168 C.3            1 S1                 0.0000
     23 ****         3.9863  -3.9265  -1.5027 O.3            1 S1                 0.0000
     24 ****         3.8681  -0.2477  -2.3645 C.3            1 S1                 0.0000
     25 ****         4.5873   1.0361  -1.9126 C.3            1 S1                 0.0000
     26 ****         5.9927   0.8239  -1.9063 O.3            1 S1                 0.0000
     27 ****         6.3905  -0.1870  -0.9893 C.3            1 S1                 0.0000
     28 ****         5.7601  -1.5351  -1.3842 C.3            1 S1                 0.0000
     29 ****        -3.3419   0.6449   0.7249 C.3            1 S1                 0.0000
     30 ****        -2.9821   0.8059   2.2220 C.3            1 S1                 0.0000
     31 ****        -3.0723   4.8343   2.5214 H              1 S1                 0.0000
     32 ****        -1.9881   3.4531   2.4692 H              1 S1                 0.0000
     33 ****        -2.8517   3.8516   3.9661 H              1 S1                 0.0000
     34 ****        -3.7839   1.7008   4.0276 H              1 S1                 0.0000
     35 ****        -5.5029   0.1556   3.3218 H              1 S1                 0.0000
     36 ****        -6.1651   1.7691   3.2652 H              1 S1                 0.0000
     37 ****        -6.7826   0.4261   1.2416 H              1 S1                 0.0000
     38 ****        -5.8726   1.8537   0.8080 H              1 S1                 0.0000
     39 ****        -4.7523  -0.9697   1.0918 H              1 S1                 0.0000
     40 ****        -4.2485  -2.0141  -0.9673 H              1 S1                 0.0000
     41 ****        -4.5498  -1.1429  -2.4584 H              1 S1                 0.0000
     42 ****        -2.1065  -1.1441  -1.8681 H              1 S1                 0.0000
     43 ****        -2.7608   0.4811  -1.9655 H              1 S1                 0.0000
     44 ****         0.7392   2.9352  -0.0337 H              1 S1                 0.0000
     45 ****         1.6511  -3.4399   0.0433 H              1 S1                 0.0000
     46 ****         3.9413  -0.4656   0.4590 H              1 S1                 0.0000
     47 ****         3.9141  -2.1924   0.5648 H              1 S1                 0.0000
     48 ****         2.6261  -2.6853  -2.3917 H              1 S1                 0.0000
     49 ****         4.1598  -2.8259  -3.2023 H              1 S1                 0.0000
     50 ****         4.9239  -4.0040  -1.4138 H              1 S1                 0.0000
     51 ****         4.1667  -0.4482  -3.3945 H              1 S1                 0.0000
     52 ****         2.7917  -0.0826  -2.4012 H              1 S1                 0.0000
     53 ****         4.3616   1.8492  -2.6023 H              1 S1                 0.0000
     54 ****         4.2538   1.3621  -0.9277 H              1 S1                 0.0000
     55 ****         7.4775  -0.2666  -1.0125 H              1 S1                 0.0000
     56 ****         6.1223   0.0993   0.0279 H              1 S1                 0.0000
     57 ****         6.0690  -2.3046  -0.6761 H              1 S1                 0.0000
     58 ****         6.1745  -1.8301  -2.3493 H              1 S1                 0.0000
     59 ****        -3.3711   1.6317   0.2596 H              1 S1                 0.0000
     60 ****        -1.9844   1.2202   2.3538 H              1 S1                 0.0000
     61 ****        -2.9491  -0.1791   2.6899 H              1 S1                 0.0000
     62 ****        -4.0284   2.9785   1.4673 LP             1 S1                 0.0000
     63 ****        -4.8699   3.4583   2.7819 LP             1 S1                 0.0000
     64 ****        -5.0722   0.7543  -1.1986 LP             1 S1                 0.0000
     65 ****        -6.0335  -0.5066  -0.8080 LP             1 S1                 0.0000
     66 ****        -2.4055  -1.0202   0.5205 LP             1 S1                 0.0000
     67 ****        -1.4512   2.2145  -0.0312 LP             1 S1                 0.0000
     68 ****         2.5729   1.4328  -0.0249 LP             1 S1                 0.0000
     69 ****        -0.7567  -2.7828   0.0461 LP             1 S1                 0.0000
     70 ****         3.6284  -4.7155  -2.0020 LP             1 S1                 0.0000
     71 ****         3.5638  -3.8854  -0.5973 LP             1 S1                 0.0000
     72 ****         6.4445   1.6799  -1.6547 LP             1 S1                 0.0000
     73 ****         6.2796   0.5532  -2.8252 LP             1 S1                 0.0000
@<TRIPOS>BOND
    1    1    2 1     
    2    1   31 1     
    3    1   32 1     
    4    1   33 1     
    5    2    3 1     
    6    3   30 1     
    7    3    4 1     
    8    3   34 1     
    9    4    5 1     
   10    4   35 1     
   11    4   36 1     
   12    5    6 1     
   13    5   37 1     
   14    5   38 1     
   15    6   29 1     
   16    6    7 1     
   17    6   39 1     
   18    7    8 1     
   19    8    9 1     
   20    8   40 1     
   21    8   41 1     
   22    9   10 1     
   23    9   42 1     
   24    9   43 1     
   25   10   11 1     
   26   10   29 1     
   27   11   16 ar    
   28   11   12 ar    
   29   12   13 ar    
   30   13   14 ar    
   31   13   44 1     
   32   14   15 ar    
   33   15   19 1     
   34   15   16 ar    
   35   16   17 1     
   36   17   18 2     
   37   18   19 1     
   38   18   45 1     
   39   19   20 1     
   40   20   21 1     
   41   20   46 1     
   42   20   47 1     
   43   21   28 1     
   44   21   22 1     
   45   21   24 1     
   46   22   23 1     
   47   22   48 1     
   48   22   49 1     
   49   23   50 1     
   50   24   25 1     
   51   24   51 1     
   52   24   52 1     
   53   25   26 1     
   54   25   53 1     
   55   25   54 1     
   56   26   27 1     
   57   27   28 1     
   58   27   55 1     
   59   27   56 1     
   60   28   57 1     
   61   28   58 1     
   62   29   30 1     
   63   29   59 1     
   64   30   60 1     
   65   30   61 1     
   66    2   62 1     
   67    2   63 1     
   68    7   64 1     
   69    7   65 1     
   70   10   66 1     
   71   12   67 1     
   72   14   68 1     
   73   17   69 1     
   74   23   70 1     
   75   23   71 1     
   76   26   72 1     
   77   26   73 1     
@<TRIPOS>SUBSTRUCTURE
      1 S1             1
@<TRIPOS>SET
LONE_PAIRS      STATIC     ATOMS    <user>   **** ""
12 62 63 64 65 66 67 68 69 70 71 72 73
DONOR_HYDROGENS      STATIC     ATOMS    <user>   **** ""
1 50
ATOM$BLUE        STATIC     ATOMS    COLORGROUP SYSTEM
12 62 63 64 65 66 67 68 69 70 71 72 73
ATOM$RED        STATIC     ATOMS    COLORGROUP SYSTEM
1 50
