AV-unprocessed.smi:1248|AV-procd|sdf|5252|dock8
  -GOLD-   22720 4363D 1   1.00000     0.00000
 Structure written by MMmdl.
 43 45  0  0  0  0  0  0  0  0  1 V2000
  145.7132  130.6044  151.6441 C   0  0  0  0  0  0  0  0  0  0  0  0
  146.5512  130.0233  152.7893 C   0  0  0  0  0  0  0  0  0  0  0  0
  147.4305  131.0173  153.3744 N   0  0  0  0  0  0  0  0  0  0  0  0
  147.5573  132.3503  153.0374 C   0  0  0  0  0  0  0  0  0  0  0  0
  148.5098  132.8555  153.8704 C   0  0  0  0  0  0  0  0  0  0  0  0
  148.9564  134.2006  153.8687 N   0  0  0  0  0  0  0  0  0  0  0  0
  149.7078  134.8081  154.8014 C   0  0  0  0  0  0  0  0  0  0  0  0
  150.1358  134.2734  155.8240 O   0  0  0  0  0  0  0  0  0  0  0  0
  149.9378  136.0900  154.4830 N   0  0  0  0  0  0  0  0  0  0  0  0
  150.7133  137.0303  155.2867 C   0  0  0  0  0  0  0  0  0  0  0  0
  149.9229  137.4745  156.5307 C   0  0  0  0  0  0  0  0  0  0  0  0
  150.6691  138.5828  157.2938 C   0  0  0  0  0  0  0  0  0  0  0  0
  150.9039  139.7309  156.4179 N   0  0  0  0  0  0  0  0  0  0  0  0
  151.5664  140.7763  157.1806 C   0  0  0  0  0  0  0  0  0  0  0  0
  150.7771  141.4434  158.2842 C   0  0  0  0  0  0  0  0  0  0  0  0
  151.0667  142.1923  157.0058 C   0  0  0  0  0  0  0  0  0  0  0  0
  151.7671  139.3368  155.3045 C   0  0  0  0  0  0  0  0  0  0  0  0
  151.0693  138.2668  154.4465 C   0  0  0  0  0  0  0  0  0  0  0  0
  148.9240  131.7688  154.6914 C   0  0  0  0  0  0  0  0  0  0  0  0
  148.2659  130.6618  154.3816 N   0  0  0  0  0  0  0  0  0  0  0  0
  145.0725  129.8391  151.2060 H   0  0  0  0  0  0  0  0  0  0  0  0
  146.3495  130.9998  150.8520 H   0  0  0  0  0  0  0  0  0  0  0  0
  145.0714  131.4132  151.9941 H   0  0  0  0  0  0  0  0  0  0  0  0
  145.9025  129.6264  153.5710 H   0  0  0  0  0  0  0  0  0  0  0  0
  147.1561  129.1916  152.4268 H   0  0  0  0  0  0  0  0  0  0  0  0
  146.9721  132.8099  152.2544 H   0  0  0  0  0  0  0  0  0  0  0  0
  148.6707  134.7593  153.0783 H   0  0  0  0  0  0  0  0  0  0  0  0
  149.5461  136.4439  153.6227 H   0  0  0  0  0  0  0  0  0  0  0  0
  151.6423  136.5534  155.6055 H   0  0  0  0  0  0  0  0  0  0  0  0
  148.9368  137.8384  156.2374 H   0  0  0  0  0  0  0  0  0  0  0  0
  149.7540  136.6251  157.1934 H   0  0  0  0  0  0  0  0  0  0  0  0
  150.0734  138.8955  158.1522 H   0  0  0  0  0  0  0  0  0  0  0  0
  151.6162  138.2042  157.6819 H   0  0  0  0  0  0  0  0  0  0  0  0
  152.6345  140.6826  157.3693 H   0  0  0  0  0  0  0  0  0  0  0  0
  149.7531  141.1143  158.4506 H   0  0  0  0  0  0  0  0  0  0  0  0
  151.3208  141.7432  159.1776 H   0  0  0  0  0  0  0  0  0  0  0  0
  151.8027  142.9925  157.0479 H   0  0  0  0  0  0  0  0  0  0  0  0
  150.2350  142.3597  156.3238 H   0  0  0  0  0  0  0  0  0  0  0  0
  151.9881  140.2092  154.6885 H   0  0  0  0  0  0  0  0  0  0  0  0
  152.7202  138.9605  155.6803 H   0  0  0  0  0  0  0  0  0  0  0  0
  151.7161  137.9811  153.6162 H   0  0  0  0  0  0  0  0  0  0  0  0
  150.1668  138.6920  154.0042 H   0  0  0  0  0  0  0  0  0  0  0  0
  149.6594  131.7353  155.4813 H   0  0  0  0  0  0  0  0  0  0  0  0
  1  2  1  0  0  0  0
  1 21  1  0  0  0  0
  1 22  1  0  0  0  0
  1 23  1  0  0  0  0
  2  3  1  0  0  0  0
  2 24  1  0  0  0  0
  2 25  1  0  0  0  0
  3 20  1  0  0  0  0
  3  4  1  0  0  0  0
  4  5  2  0  0  0  0
  4 26  1  0  0  0  0
  5  6  1  0  0  0  0
  5 19  1  0  0  0  0
  6  7  1  0  0  0  0
  6 27  1  0  0  0  0
  7  8  2  0  0  0  0
  7  9  1  0  0  0  0
  9 10  1  0  0  0  0
  9 28  1  0  0  0  0
 10 18  1  0  0  0  0
 10 11  1  0  0  0  0
 10 29  1  0  0  0  0
 11 12  1  0  0  0  0
 11 30  1  0  0  0  0
 11 31  1  0  0  0  0
 12 13  1  0  0  0  0
 12 32  1  0  0  0  0
 12 33  1  0  0  0  0
 13 14  1  0  0  0  0
 13 17  1  0  0  0  0
 14 16  1  0  0  0  0
 14 15  1  0  0  0  0
 14 34  1  0  0  0  0
 15 16  1  0  0  0  0
 15 35  1  0  0  0  0
 15 36  1  0  0  0  0
 16 37  1  0  0  0  0
 16 38  1  0  0  0  0
 17 18  1  0  0  0  0
 17 39  1  0  0  0  0
 17 40  1  0  0  0  0
 18 41  1  0  0  0  0
 18 42  1  0  0  0  0
 19 20  2  0  0  0  0
 19 43  1  0  0  0  0
M  END
> <s_m_source_file>
AV-unprocessed.smi

> <i_m_source_file_index>
1248

> <i_lp_mmshare_version>
43012

> <i_f3d_flags>
0

> <s_epik_input>
W0NIM11bQ0gyXW4xW2NIXWMoW2NIXW4xKVtOSF1DKD1PKVtOSF1bQ0hdMltDSDJdW0NIMl1OKFtDSDJdW0NIMl0yKVtDSF0zW0NIMl1bQ0gyXTM=

> <s_epik_cmdline>
J2VwaWtfcHl0aG9uJywgJy1waCcsICc3LjAnLCAnLXRuJywgJzgnLCAnLW1hJywgJzIwMCcsICctbWV0YWxfYmluZGluZycsICctaW1hZScsICc8aW5maWxlLm1hZT4nLCAnLW9tYWUnLCAnPG91dGZpbGUubWFlPic=

> <r_lp_tautomer_probability>
1

> <r_epik_Ionization_Penalty>
1.02552

> <r_epik_Ionization_Penalty_Charging>
0

> <r_epik_Ionization_Penalty_Neutral>
1.02552

> <r_epik_State_Penalty>
1.07599

> <r_epik_Charging_Adjusted_Penalty>
1.07599

> <i_epik_Tot_Q>
0

> <i_epik_Tot_abs_Q>
0

> <r_epik_Metal_State_Penalty>
1.07597

> <b_epik_Metal_Only>
0

> <s_lp_Force_Field>
OPLS_2005

> <r_lp_Energy>
25.1211

> <b_lp_Chiralities_Consistent>
1

> <s_lp_Variant>
AV-unprocessed.smi:1248-3

> <Gold.Version>
5.8.1

> <Gold.Id.Protein>
6NUR|6NUR_protein|mol2

> <Gold.PLP.Fitness>
39.6153

> <Gold.PLP.PLP>
-34.1948

> <Gold.PLP.part.hbond>
-2.6029

> <Gold.PLP.part.metal>
0.0000

> <Gold.PLP.part.buried>
-2.7901

> <Gold.PLP.part.nonpolar>
-28.1552

> <Gold.PLP.part.repulsive>
0.1515

> <Gold.PLP.ligand.clash>
0.0000

> <Gold.PLP.ligand.torsion>
0.8679

> <Gold.PLP.Chemscore.Hbond>
1.9920

> <Gold.PLP.Chemscore.CHOScore>
0.0000

> <Gold.PLP.Chemscore.Metal>
0.0000

> <Gold.Chemscore.Hbonds>
donor molecule, donor type, donor heavy atom, donor atom, acceptor molecule, acceptor atom, score
      L1  H     6    27       P1  7948  1.00
      L1  H     9    28       P1  7948  1.00

> <Gold.PLP.Chemscore.Internal.Correction>
1.1803

> <Gold.Rescore>
     Score         DG    S(hbond)    S(metal)    S(lipo)     H(rot)  DE(clash)    DE(int)     intcor
     13.83     -15.70       1.37        0.00      77.14       1.32       0.07       1.81       ----

> <Gold.Chemscore.Fitness>
13.8255

> <Gold.Chemscore.DG>
-15.6985

> <Gold.Chemscore.ZeroCoef>
-5.4800

> <Gold.Chemscore.Hbond>
1.3667

> <Gold.Chemscore.Metal>
0.0000

> <Gold.Chemscore.Lipo>
77.1369

> <Gold.Chemscore.Internal_Hbond>
0.0000

> <Gold.Chemscore.DEClash>
0.0670

> <Gold.Chemscore.DEInternal>
1.8059

> <Gold.Chemscore.Rot>
1.3169

> <Gold.Chemscore.Internal.Correction>
   9.000000E+99

> <Gold.Chemscore.Hbonds>
donor molecule, donor type, donor heavy atom, donor atom, acceptor molecule, acceptor atom, score
      L1  H     6    27       P1  7948  0.29
      L1  H     9    28       P1  7948  0.63

> <Gold.Chemscore.Hbond.Weighted>
-4.5646

> <Gold.Chemscore.Metal.Weighted>
-0.0000

> <Gold.Chemscore.Lipo.Weighted>
-9.0250

> <Gold.Chemscore.Internal_Hbond.Weighted>
0.0000

> <Gold.Chemscore.DEClash.Weighted>
0.0670

> <Gold.Chemscore.DEInternal.Weighted>
1.8059

> <Gold.Chemscore.Rot.Weighted>
3.3712

> <Gold.Chemscore.Internal.Correction.Weighted>
   9.000000E+99

> <Gold.Protein.RotatedTorsions>
[ 6907 6896 6895 6894 ] final -140.50 input  -60.11 | X-H torsion
[ 7974 7965 7964 7962 ] final  -12.41 input  175.53 | X-H torsion
[ 8008 7997 7996 7995 ] final   78.78 input   59.86 | X-H torsion
[ 10167 10162 10161 10158 ] final   43.87 input  -65.29 | X-H torsion
[ 10718 10713 10712 10709 ] final -115.88 input   66.30 | X-H torsion
[ 10763 10752 10751 10750 ] final  136.82 input  -60.55 | X-H torsion
[ 11005 11000 10999 10996 ] final -117.56 input  -57.11 | X-H torsion

> <Gold.Protein.ActiveResidues>
 VAL166  LYS551  ARG553  GLY616  TRP617  ASP618  TYR619  PRO620  LYS621  CYS622 
 ASP623  PHE694  ASN695  SER759  ASP760  ASP761  ALA762  ILE779  LEU786  VAL792 
 PHE793  MET794  SER795  GLU796  ALA797  LYS798  CYS799  TRP800  GLU811  SER814 

> <Gold.Protein.RotatedAtoms>
  151.0615  133.5540  159.2633 H   0  0  0  0  0  0  0  0  0  0  0  0  # atno 6907 bound_to 6896
  151.2514  135.0622  159.9073 H   0  0  0  0  0  0  0  0  0  0  0  0  # atno 6908 bound_to 6896
  152.5398  134.0374  159.8106 H   0  0  0  0  0  0  0  0  0  0  0  0  # atno 6909 bound_to 6896
  146.2153  140.3054  142.8378 H   0  0  0  0  0  0  0  0  0  0  0  0  # atno 7974 bound_to 7965
  155.8605  140.3454  155.5753 H   0  0  0  0  0  0  0  0  0  0  0  0  # atno 8008 bound_to 7997
  155.7938  140.0875  157.2014 H   0  0  0  0  0  0  0  0  0  0  0  0  # atno 8009 bound_to 7997
  154.4011  140.1478  156.3182 H   0  0  0  0  0  0  0  0  0  0  0  0  # atno 8010 bound_to 7997
  140.3400  144.2481  150.6157 H   0  0  0  0  0  0  0  0  0  0  0  0  # atno 10167 bound_to 10162
  156.0925  130.6105  150.8963 H   0  0  0  0  0  0  0  0  0  0  0  0  # atno 10718 bound_to 10713
  153.8629  135.3065  155.3438 H   0  0  0  0  0  0  0  0  0  0  0  0  # atno 10763 bound_to 10752
  154.7841  135.4819  153.9910 H   0  0  0  0  0  0  0  0  0  0  0  0  # atno 10764 bound_to 10752
  153.1451  135.6832  153.9062 H   0  0  0  0  0  0  0  0  0  0  0  0  # atno 10765 bound_to 10752
  141.0346  133.9929  157.3091 H   0  0  0  0  0  0  0  0  0  0  0  0  # atno 11005 bound_to 11000
  144.9027  140.7662  143.5857 LP  0  0  0  0  0  0  0  0  0  0  0  0  # atno 17320 bound_to 7965
  145.2981  139.1860  143.4704 LP  0  0  0  0  0  0  0  0  0  0  0  0  # atno 17321 bound_to 7965
  140.5317  143.2242  151.8227 LP  0  0  0  0  0  0  0  0  0  0  0  0  # atno 17342 bound_to 10162
  139.4842  144.4711  151.9423 LP  0  0  0  0  0  0  0  0  0  0  0  0  # atno 17343 bound_to 10162
  157.6078  131.0938  150.8848 LP  0  0  0  0  0  0  0  0  0  0  0  0  # atno 17370 bound_to 10713
  156.8994  130.5241  149.5283 LP  0  0  0  0  0  0  0  0  0  0  0  0  # atno 17371 bound_to 10713
  139.9231  135.0201  156.8138 LP  0  0  0  0  0  0  0  0  0  0  0  0  # atno 17394 bound_to 11000
  140.6345  133.9875  155.7678 LP  0  0  0  0  0  0  0  0  0  0  0  0  # atno 17395 bound_to 11000

$$$$
