#       Name:                AV-unprocessed.smi:546
#       Creating user name   scv26
#       Creation time:       Thu Mar 26 23:38:08 2020


#       File generated by GOLD software.
#

@<TRIPOS>MOLECULE
AV-unprocessed.smi:546
    59    61     1
SMALL
NO_CHARGES


@<TRIPOS>ATOM
      1 ****        -2.6587   2.4112   1.4402 C.3            1 S1                 0.0000
      2 ****        -2.8703   1.9664  -0.0088 C.3            1 S1                 0.0000
      3 ****        -1.9937   0.8907  -0.2983 O.3            1 S1                 0.0000
      4 ****        -2.1578   0.3941  -1.6177 C.3            1 S1                 0.0000
      5 ****        -1.1155  -0.6981  -1.8949 C.3            1 S1                 0.0000
      6 ****         0.2508  -0.1888  -1.7827 N.pl3          1 S1                 0.0000
      7 ****         1.0994  -0.2380  -0.7176 C.2            1 S1                 0.0000
      8 ****         0.7734  -0.8726   0.4834 N.pl3          1 S1                 0.0000
      9 ****         1.0835  -0.3089   1.7961 C.3            1 S1                 0.0000
     10 ****        -0.1356  -0.3536   2.7370 C.3            1 S1                 0.0000
     11 ****         0.1759   0.2900   4.0942 C.3            1 S1                 0.0000
     12 ****        -0.6278  -1.8019   2.8932 C.3            1 S1                 0.0000
     13 ****        -0.8686  -2.4365   1.5133 C.3            1 S1                 0.0000
     14 ****        -1.2851  -3.9082   1.6333 C.3            1 S1                 0.0000
     15 ****         0.3930  -2.2767   0.6409 C.3            1 S1                 0.0000
     16 ****         2.2567   0.4010  -0.9019 N.2            1 S1                 0.0000
     17 ****         2.1538   0.8702  -2.2013 C.2            1 S1                 0.0000
     18 ****         0.9580   0.5317  -2.7522 C.2            1 S1                 0.0000
     19 ****         0.5462   0.9174  -4.1210 C.2            1 S1                 0.0000
     20 ****        -0.5507   0.5919  -4.5709 O.2            1 S1                 0.0000
     21 ****         1.5107   1.6478  -4.7651 N.pl3          1 S1                -1.0000
     22 ****         2.7342   2.0115  -4.2451 C.2            1 S1                 0.0000
     23 ****         3.5433   2.6780  -4.8920 O.2            1 S1                 0.0000
     24 ****         3.0739   1.6302  -2.9737 N.am           1 S1                 0.0000
     25 ****         4.3672   2.0024  -2.3931 C.3            1 S1                 0.0000
     26 ****        -3.2977   3.2600   1.6843 H              1 S1                 0.0000
     27 ****        -1.6241   2.7102   1.6109 H              1 S1                 0.0000
     28 ****        -2.8963   1.6057   2.1352 H              1 S1                 0.0000
     29 ****        -3.9070   1.6592  -0.1547 H              1 S1                 0.0000
     30 ****        -2.6741   2.8000  -0.6850 H              1 S1                 0.0000
     31 ****        -3.1620  -0.0150  -1.7360 H              1 S1                 0.0000
     32 ****        -2.0508   1.2050  -2.3397 H              1 S1                 0.0000
     33 ****        -1.2757  -1.5253  -1.2130 H              1 S1                 0.0000
     34 ****        -1.2576  -1.1226  -2.8875 H              1 S1                 0.0000
     35 ****         1.9244  -0.8499   2.2321 H              1 S1                 0.0000
     36 ****         1.4094   0.7251   1.6751 H              1 S1                 0.0000
     37 ****        -0.9352   0.2243   2.2743 H              1 S1                 0.0000
     38 ****         0.9843  -0.2336   4.6056 H              1 S1                 0.0000
     39 ****        -0.6982   0.2740   4.7458 H              1 S1                 0.0000
     40 ****         0.4768   1.3311   3.9730 H              1 S1                 0.0000
     41 ****         0.1129  -2.3847   3.4428 H              1 S1                 0.0000
     42 ****        -1.5452  -1.8255   3.4824 H              1 S1                 0.0000
     43 ****        -1.6896  -1.8995   1.0362 H              1 S1                 0.0000
     44 ****        -0.5048  -4.5039   2.1080 H              1 S1                 0.0000
     45 ****        -1.4834  -4.3396   0.6517 H              1 S1                 0.0000
     46 ****        -2.1928  -4.0116   2.2285 H              1 S1                 0.0000
     47 ****         0.2516  -2.7389  -0.3357 H              1 S1                 0.0000
     48 ****         1.2268  -2.8127   1.0966 H              1 S1                 0.0000
     49 ****         4.4305   3.0844  -2.2725 H              1 S1                 0.0000
     50 ****         5.1867   1.6819  -3.0376 H              1 S1                 0.0000
     51 ****         4.5338   1.5525  -1.4148 H              1 S1                 0.0000
     52 ****        -2.1725   0.1487   0.3479 LP             1 S1                 0.0000
     53 ****        -1.0513   1.2072  -0.1899 LP             1 S1                 0.0000
     54 ****         3.0139   0.5136  -0.2585 LP             1 S1                 0.0000
     55 ****        -1.1826   0.0572  -4.0098 LP             1 S1                 0.0000
     56 ****        -0.8110   0.8618  -5.4979 LP             1 S1                 0.0000
     57 ****         1.3080   1.9441  -5.6984 LP             1 S1                 0.0000
     58 ****         3.3201   2.9706  -5.8218 LP             1 S1                 0.0000
     59 ****         4.4234   2.9264  -4.4874 LP             1 S1                 0.0000
@<TRIPOS>BOND
    1    1    2 1     
    2    1   26 1     
    3    1   27 1     
    4    1   28 1     
    5    2    3 1     
    6    2   29 1     
    7    2   30 1     
    8    3    4 1     
    9    4    5 1     
   10    4   31 1     
   11    4   32 1     
   12    5    6 1     
   13    5   33 1     
   14    5   34 1     
   15    6   18 1     
   16    6    7 1     
   17    7    8 1     
   18    7   16 2     
   19    8   15 1     
   20    8    9 1     
   21    9   10 1     
   22    9   35 1     
   23    9   36 1     
   24   10   11 1     
   25   10   12 1     
   26   10   37 1     
   27   11   38 1     
   28   11   39 1     
   29   11   40 1     
   30   12   13 1     
   31   12   41 1     
   32   12   42 1     
   33   13   14 1     
   34   13   15 1     
   35   13   43 1     
   36   14   44 1     
   37   14   45 1     
   38   14   46 1     
   39   15   47 1     
   40   15   48 1     
   41   16   17 1     
   42   17   24 1     
   43   17   18 2     
   44   18   19 1     
   45   19   20 2     
   46   19   21 1     
   47   21   22 1     
   48   22   23 2     
   49   22   24 am    
   50   24   25 1     
   51   25   49 1     
   52   25   50 1     
   53   25   51 1     
   54    3   52 1     
   55    3   53 1     
   56   16   54 1     
   57   20   55 1     
   58   20   56 1     
   59   21   57 1     
   60   23   58 1     
   61   23   59 1     
@<TRIPOS>SUBSTRUCTURE
      1 S1             1
@<TRIPOS>SET
LONE_PAIRS      STATIC     ATOMS    <user>   **** ""
8 52 53 54 55 56 57 58 59
ATOM$BLUE        STATIC     ATOMS    COLORGROUP SYSTEM
8 52 53 54 55 56 57 58 59
