AV-unprocessed.smi:930|AV-procd|sdf|4197|dock6
  -GOLD-   22720 2103D 1   1.00000     0.00000
 Structure written by MMmdl.
 31 32  0  0  0  0  0  0  0  0  2 V2000
  150.0561  135.5402  155.3664 C   0  0  0  0  0  0  0  0  0  0  0  0
  151.0024  136.6218  155.7599 C   0  0  0  0  0  0  0  0  0  0  0  0
  152.3207  136.4308  155.8487 N   0  0  0  0  0  0  0  0  0  0  0  0
  152.9916  137.5844  156.2285 N   0  0  0  0  0  0  0  0  0  0  0  0
  152.1751  138.6316  156.4118 C   0  0  0  0  0  0  0  0  0  0  0  0
  152.6276  139.8404  156.7843 N   0  5  0  0  0  0  0  0  0  0  0  0
  151.8029  140.7050  157.4184 C   0  0  0  0  0  0  0  0  0  0  0  0
  150.5713  140.7172  157.3569 O   0  0  0  0  0  0  0  0  0  0  0  0
  152.4455  141.6106  158.1704 N   0  0  0  0  0  0  0  0  0  0  0  0
  151.8239  142.6612  158.9729 C   0  0  0  0  0  0  0  0  0  0  0  0
  151.4931  143.8902  158.1005 C   0  0  0  0  0  0  0  0  0  0  0  0
  150.9088  145.0360  158.9426 C   0  0  0  0  0  0  0  0  0  0  0  0
  151.8489  145.4171  160.0970 C   0  0  0  0  0  0  0  0  0  0  0  0
  152.1761  144.1962  160.9707 C   0  0  0  0  0  0  0  0  0  0  0  0
  152.7630  143.0505  160.1301 C   0  0  0  0  0  0  0  0  0  0  0  0
  150.4741  138.2517  156.1415 S   0  0  0  0  0  0  0  0  0  0  0  0
  150.0633  135.4153  154.2835 H   0  0  0  0  0  0  0  0  0  0  0  0
  149.0436  135.7893  155.6840 H   0  0  0  0  0  0  0  0  0  0  0  0
  150.3446  134.5973  155.8317 H   0  0  0  0  0  0  0  0  0  0  0  0
  153.4538  141.5640  158.1858 H   0  0  0  0  0  0  0  0  0  0  0  0
  150.8986  142.2768  159.4062 H   0  0  0  0  0  0  0  0  0  0  0  0
  152.3951  144.2366  157.5940 H   0  0  0  0  0  0  0  0  0  0  0  0
  150.7857  143.6173  157.3165 H   0  0  0  0  0  0  0  0  0  0  0  0
  150.7248  145.9050  158.3103 H   0  0  0  0  0  0  0  0  0  0  0  0
  149.9405  144.7348  159.3440 H   0  0  0  0  0  0  0  0  0  0  0  0
  152.7716  145.8361  159.6935 H   0  0  0  0  0  0  0  0  0  0  0  0
  151.3936  146.1990  160.7050 H   0  0  0  0  0  0  0  0  0  0  0  0
  152.8778  144.4780  161.7561 H   0  0  0  0  0  0  0  0  0  0  0  0
  151.2707  143.8533  161.4730 H   0  0  0  0  0  0  0  0  0  0  0  0
  152.9481  142.1855  160.7679 H   0  0  0  0  0  0  0  0  0  0  0  0
  153.7327  143.3547  159.7331 H   0  0  0  0  0  0  0  0  0  0  0  0
  1  2  1  0  0  0  0
  1 17  1  0  0  0  0
  1 18  1  0  0  0  0
  1 19  1  0  0  0  0
  2 16  1  0  0  0  0
  2  3  2  0  0  0  0
  3  4  1  0  0  0  0
  4  5  2  0  0  0  0
  5  6  1  0  0  0  0
  5 16  1  0  0  0  0
  6  7  1  0  0  0  0
  7  8  2  0  0  0  0
  7  9  1  0  0  0  0
  9 10  1  0  0  0  0
  9 20  1  0  0  0  0
 10 15  1  0  0  0  0
 10 11  1  0  0  0  0
 10 21  1  0  0  0  0
 11 12  1  0  0  0  0
 11 22  1  0  0  0  0
 11 23  1  0  0  0  0
 12 13  1  0  0  0  0
 12 24  1  0  0  0  0
 12 25  1  0  0  0  0
 13 14  1  0  0  0  0
 13 26  1  0  0  0  0
 13 27  1  0  0  0  0
 14 15  1  0  0  0  0
 14 28  1  0  0  0  0
 14 29  1  0  0  0  0
 15 30  1  0  0  0  0
 15 31  1  0  0  0  0
M  CHG  1   6  -1
M  END
> <s_m_source_file>
AV-unprocessed.smi

> <i_m_source_file_index>
930

> <i_lp_mmshare_version>
43012

> <i_f3d_flags>
0

> <s_epik_input>
W0NIM11jMW5uYyhzMSlbTkhdQyg9TylbTkhdW0NIXTJbQ0gyXVtDSDJdW0NIMl1bQ0gyXVtDSDJdMg==

> <s_epik_cmdline>
J2VwaWtfcHl0aG9uJywgJy1waCcsICc3LjAnLCAnLXRuJywgJzgnLCAnLW1hJywgJzIwMCcsICctbWV0YWxfYmluZGluZycsICctaW1hZScsICc8aW5maWxlLm1hZT4nLCAnLW9tYWUnLCAnPG91dGZpbGUubWFlPic=

> <r_lp_tautomer_probability>
1

> <r_epik_Ionization_Penalty>
4.57239

> <r_epik_Ionization_Penalty_Charging>
4.41779

> <r_epik_Ionization_Penalty_Neutral>
0.154599

> <r_epik_State_Penalty>
4.41745

> <r_epik_Charging_Adjusted_Penalty>
8.83524

> <i_epik_Tot_Q>
-1

> <i_epik_Tot_abs_Q>
1

> <r_epik_Metal_State_Penalty>
0.779681

> <b_epik_Metal_Only>
1

> <s_lp_Force_Field>
OPLS_2005

> <r_lp_Energy>
6.76033

> <b_lp_Chiralities_Consistent>
1

> <s_lp_Variant>
AV-unprocessed.smi:930-2

> <Gold.Version>
5.8.1

> <Gold.Id.Protein>
6NUR|6NUR_protein|mol2

> <Gold.PLP.Fitness>
39.8566

> <Gold.PLP.PLP>
-32.0280

> <Gold.PLP.part.hbond>
-2.3746

> <Gold.PLP.part.metal>
0.0000

> <Gold.PLP.part.buried>
-3.4971

> <Gold.PLP.part.nonpolar>
-26.0931

> <Gold.PLP.part.repulsive>
0.1312

> <Gold.PLP.ligand.clash>
0.0000

> <Gold.PLP.ligand.torsion>
0.5888

> <Gold.PLP.Chemscore.Hbond>
3.0000

> <Gold.PLP.Chemscore.CHOScore>
0.0000

> <Gold.PLP.Chemscore.Metal>
0.0000

> <Gold.Chemscore.Hbonds>
donor molecule, donor type, donor heavy atom, donor atom, acceptor molecule, acceptor atom, score
      P1  H  7997  8010       L1     6  1.98
      P1  H 10752 10764       L1     3  0.93

> <Gold.PLP.Chemscore.Internal.Correction>
0.0061

> <Gold.Rescore>
     Score         DG    S(hbond)    S(metal)    S(lipo)     H(rot)  DE(clash)    DE(int)     intcor
     16.30     -18.19       1.72        0.00      81.32       1.00       0.04       1.85       ----

> <Gold.Chemscore.Fitness>
16.3011

> <Gold.Chemscore.DG>
-18.1885

> <Gold.Chemscore.ZeroCoef>
-5.4800

> <Gold.Chemscore.Hbond>
1.7229

> <Gold.Chemscore.Metal>
0.0000

> <Gold.Chemscore.Lipo>
81.3164

> <Gold.Chemscore.Internal_Hbond>
0.0000

> <Gold.Chemscore.DEClash>
0.0415

> <Gold.Chemscore.DEInternal>
1.8459

> <Gold.Chemscore.Rot>
1.0000

> <Gold.Chemscore.Internal.Correction>
   9.000000E+99

> <Gold.Chemscore.Hbonds>
donor molecule, donor type, donor heavy atom, donor atom, acceptor molecule, acceptor atom, score
      P1  H  7997  8010       L1     6  0.87
      P1  H 10752 10764       L1     3  0.79

> <Gold.Chemscore.Hbond.Weighted>
-5.7545

> <Gold.Chemscore.Metal.Weighted>
-0.0000

> <Gold.Chemscore.Lipo.Weighted>
-9.5140

> <Gold.Chemscore.Internal_Hbond.Weighted>
0.0000

> <Gold.Chemscore.DEClash.Weighted>
0.0415

> <Gold.Chemscore.DEInternal.Weighted>
1.8459

> <Gold.Chemscore.Rot.Weighted>
2.5600

> <Gold.Chemscore.Internal.Correction.Weighted>
   9.000000E+99

> <Gold.Protein.RotatedTorsions>
[ 6907 6896 6895 6894 ] final   85.10 input  -60.11 | X-H torsion
[ 7974 7965 7964 7962 ] final -150.34 input  175.53 | X-H torsion
[ 8008 7997 7996 7995 ] final   48.68 input   59.86 | X-H torsion
[ 10167 10162 10161 10158 ] final  -47.47 input  -65.29 | X-H torsion
[ 10718 10713 10712 10709 ] final   73.87 input   66.30 | X-H torsion
[ 10763 10752 10751 10750 ] final  -42.52 input  -60.55 | X-H torsion
[ 11005 11000 10999 10996 ] final   98.83 input  -57.11 | X-H torsion

> <Gold.Protein.ActiveResidues>
 VAL166  LYS551  ARG553  GLY616  TRP617  ASP618  TYR619  PRO620  LYS621  CYS622 
 ASP623  PHE694  ASN695  SER759  ASP760  ASP761  ALA762  ILE779  LEU786  VAL792 
 PHE793  MET794  SER795  GLU796  ALA797  LYS798  CYS799  TRP800  GLU811  SER814 

> <Gold.Protein.RotatedAtoms>
  152.5367  134.2638  159.8945 H   0  0  0  0  0  0  0  0  0  0  0  0  # atno 6907 bound_to 6896
  151.2597  133.4301  159.2623 H   0  0  0  0  0  0  0  0  0  0  0  0  # atno 6908 bound_to 6896
  151.0464  134.9657  159.8245 H   0  0  0  0  0  0  0  0  0  0  0  0  # atno 6909 bound_to 6896
  144.7913  140.4945  143.5770 H   0  0  0  0  0  0  0  0  0  0  0  0  # atno 7974 bound_to 7965
  155.3897  140.3432  155.4251 H   0  0  0  0  0  0  0  0  0  0  0  0  # atno 8008 bound_to 7997
  156.1564  140.1587  156.8718 H   0  0  0  0  0  0  0  0  0  0  0  0  # atno 8009 bound_to 7997
  154.5099  140.0792  156.7951 H   0  0  0  0  0  0  0  0  0  0  0  0  # atno 8010 bound_to 7997
  140.6774  143.2783  151.3931 H   0  0  0  0  0  0  0  0  0  0  0  0  # atno 10167 bound_to 10162
  157.6567  130.9650  150.1131 H   0  0  0  0  0  0  0  0  0  0  0  0  # atno 10718 bound_to 10713
  153.9804  135.6717  153.4750 H   0  0  0  0  0  0  0  0  0  0  0  0  # atno 10763 bound_to 10752
  153.0751  135.4953  154.8383 H   0  0  0  0  0  0  0  0  0  0  0  0  # atno 10764 bound_to 10752
  154.7168  135.3108  154.9073 H   0  0  0  0  0  0  0  0  0  0  0  0  # atno 10765 bound_to 10752
  139.8771  134.9067  156.4515 H   0  0  0  0  0  0  0  0  0  0  0  0  # atno 11005 bound_to 11000
  145.5786  139.1487  143.3248 LP  0  0  0  0  0  0  0  0  0  0  0  0  # atno 17320 bound_to 7965
  146.2166  140.5917  142.9035 LP  0  0  0  0  0  0  0  0  0  0  0  0  # atno 17321 bound_to 7965
  139.6074  144.1169  152.2263 LP  0  0  0  0  0  0  0  0  0  0  0  0  # atno 17342 bound_to 10162
  140.0572  144.5886  150.7291 LP  0  0  0  0  0  0  0  0  0  0  0  0  # atno 17343 bound_to 10162
  156.2022  130.3661  149.8774 LP  0  0  0  0  0  0  0  0  0  0  0  0  # atno 17370 bound_to 10713
  156.6674  130.8806  151.3557 LP  0  0  0  0  0  0  0  0  0  0  0  0  # atno 17371 bound_to 10713
  140.8928  133.7836  155.9591 LP  0  0  0  0  0  0  0  0  0  0  0  0  # atno 17394 bound_to 11000
  140.8735  134.2698  157.5179 LP  0  0  0  0  0  0  0  0  0  0  0  0  # atno 17395 bound_to 11000

$$$$
