AV-unprocessed.smi:1983|AV-procd|sdf|8034|dock2
  -GOLD-   2272010223D 1   1.00000     0.00000
 Structure written by MMmdl.
 50 51  0  0  0  0  0  0  0  0  2 V2000
  149.5388  134.1632  155.7873 C   0  0  0  0  0  0  0  0  0  0  0  0
  148.1809  134.7004  155.3029 C   0  0  2  0  0  0  0  0  0  0  0  0
  147.3876  133.6505  154.5055 C   0  0  0  0  0  0  0  0  0  0  0  0
  147.8122  133.6283  153.1594 O   0  0  0  0  0  0  0  0  0  0  0  0
  148.3721  135.8879  154.4744 N   0  0  0  0  0  0  0  0  0  0  0  0
  148.0567  137.1406  154.8323 C   0  0  0  0  0  0  0  0  0  0  0  0
  147.5830  137.4497  155.9259 O   0  0  0  0  0  0  0  0  0  0  0  0
  148.3184  138.0200  153.8551 N   0  0  0  0  0  0  0  0  0  0  0  0
  148.0606  139.4528  153.9417 C   0  0  0  0  0  0  0  0  0  0  0  0
  148.9652  140.1648  154.9329 C   0  0  0  0  0  0  0  0  0  0  0  0
  149.7968  139.4329  155.8082 C   0  0  0  0  0  0  0  0  0  0  0  0
  150.6271  140.1231  156.7153 C   0  0  0  0  0  0  0  0  0  0  0  0
  150.6106  141.5377  156.7323 C   0  0  0  0  0  0  0  0  0  0  0  0
  151.3946  142.3134  157.5969 N   0  0  0  0  0  0  0  0  0  0  0  0
  150.6424  143.3909  158.2243 C   0  0  0  0  0  0  0  0  0  0  0  0
  151.5877  144.2919  159.0427 C   0  0  1  0  0  0  0  0  0  0  0  0
  150.8261  145.3708  159.8200 C   0  0  0  0  0  0  0  0  0  0  0  0
  152.3061  143.4893  159.9776 O   0  0  0  0  0  0  0  0  0  0  0  0
  153.1052  142.4908  159.3468 C   0  0  1  0  0  0  0  0  0  0  0  0
  153.8966  141.7486  160.4287 C   0  0  0  0  0  0  0  0  0  0  0  0
  152.1833  141.5472  158.5528 C   0  0  0  0  0  0  0  0  0  0  0  0
  149.7901  142.1974  155.8845 N   0  3  0  0  0  0  0  0  0  0  0  0
  148.9834  141.5739  154.9987 C   0  0  0  0  0  0  0  0  0  0  0  0
  149.4101  133.2880  156.4248 H   0  0  0  0  0  0  0  0  0  0  0  0
  150.0759  134.9122  156.3701 H   0  0  0  0  0  0  0  0  0  0  0  0
  150.1742  133.8737  154.9498 H   0  0  0  0  0  0  0  0  0  0  0  0
  147.5846  134.9826  156.1731 H   0  0  0  0  0  0  0  0  0  0  0  0
  147.5500  132.6545  154.9198 H   0  0  0  0  0  0  0  0  0  0  0  0
  146.3159  133.8476  154.5509 H   0  0  0  0  0  0  0  0  0  0  0  0
  148.3927  134.3597  153.0146 H   0  0  0  0  0  0  0  0  0  0  0  0
  148.7599  135.7398  153.5541 H   0  0  0  0  0  0  0  0  0  0  0  0
  148.7028  137.6737  152.9880 H   0  0  0  0  0  0  0  0  0  0  0  0
  148.2165  139.8886  152.9545 H   0  0  0  0  0  0  0  0  0  0  0  0
  147.0124  139.6264  154.1923 H   0  0  0  0  0  0  0  0  0  0  0  0
  149.7990  138.3528  155.7855 H   0  0  0  0  0  0  0  0  0  0  0  0
  151.2605  139.5667  157.3903 H   0  0  0  0  0  0  0  0  0  0  0  0
  150.1322  143.9791  157.4603 H   0  0  0  0  0  0  0  0  0  0  0  0
  149.8739  142.9663  158.8721 H   0  0  0  0  0  0  0  0  0  0  0  0
  152.2982  144.7816  158.3743 H   0  0  0  0  0  0  0  0  0  0  0  0
  150.2685  146.0214  159.1459 H   0  0  0  0  0  0  0  0  0  0  0  0
  151.5116  145.9960  160.3926 H   0  0  0  0  0  0  0  0  0  0  0  0
  150.1176  144.9271  160.5200 H   0  0  0  0  0  0  0  0  0  0  0  0
  153.8122  142.9729  158.6692 H   0  0  0  0  0  0  0  0  0  0  0  0
  154.5321  140.9780  159.9909 H   0  0  0  0  0  0  0  0  0  0  0  0
  153.2307  141.2669  161.1451 H   0  0  0  0  0  0  0  0  0  0  0  0
  154.5397  142.4346  160.9805 H   0  0  0  0  0  0  0  0  0  0  0  0
  151.5246  141.0137  159.2391 H   0  0  0  0  0  0  0  0  0  0  0  0
  152.7757  140.8000  158.0230 H   0  0  0  0  0  0  0  0  0  0  0  0
  148.3778  142.2179  154.3775 H   0  0  0  0  0  0  0  0  0  0  0  0
  149.7829  143.2174  155.9112 H   0  0  0  0  0  0  0  0  0  0  0  0
  1  2  1  0  0  0  0
  1 24  1  0  0  0  0
  1 25  1  0  0  0  0
  1 26  1  0  0  0  0
  2  3  1  0  0  0  0
  2  5  1  0  0  0  0
  2 27  1  0  0  0  0
  3  4  1  0  0  0  0
  3 28  1  0  0  0  0
  3 29  1  0  0  0  0
  4 30  1  0  0  0  0
  5  6  1  0  0  0  0
  5 31  1  0  0  0  0
  6  7  2  0  0  0  0
  6  8  1  0  0  0  0
  8  9  1  0  0  0  0
  8 32  1  0  0  0  0
  9 10  1  0  0  0  0
  9 33  1  0  0  0  0
  9 34  1  0  0  0  0
 10 23  1  0  0  0  0
 10 11  2  0  0  0  0
 11 12  1  0  0  0  0
 11 35  1  0  0  0  0
 12 13  2  0  0  0  0
 12 36  1  0  0  0  0
 13 14  1  0  0  0  0
 13 22  1  0  0  0  0
 14 21  1  0  0  0  0
 14 15  1  0  0  0  0
 15 16  1  0  0  0  0
 15 37  1  0  0  0  0
 15 38  1  0  0  0  0
 16 17  1  0  0  0  0
 16 18  1  0  0  0  0
 16 39  1  0  0  0  0
 17 40  1  0  0  0  0
 17 41  1  0  0  0  0
 17 42  1  0  0  0  0
 18 19  1  0  0  0  0
 19 20  1  0  0  0  0
 19 21  1  0  0  0  0
 19 43  1  0  0  0  0
 20 44  1  0  0  0  0
 20 45  1  0  0  0  0
 20 46  1  0  0  0  0
 21 47  1  0  0  0  0
 21 48  1  0  0  0  0
 22 23  2  0  0  0  0
 22 50  1  0  0  0  0
 23 49  1  0  0  0  0
M  CHG  1  22   1
M  END
> <s_m_source_file>
AV-unprocessed.smi

> <i_m_source_file_index>
1983

> <i_lp_mmshare_version>
43012

> <i_f3d_flags>
0

> <s_epik_input>
W09IXVtDSDJdW0NAQEhdKFtDSDNdKVtOSF1DKD1PKVtOSF1bQ0gyXWMxW2NIXVtjSF1jKG5bY0hdMSlOMltDSDJdW0NAQEhdKFtDSDNdKU9bQ0BASF0oW0NIM10pW0NIMl0y

> <s_epik_cmdline>
J2VwaWtfcHl0aG9uJywgJy1waCcsICc3LjAnLCAnLXRuJywgJzgnLCAnLW1hJywgJzIwMCcsICctbWV0YWxfYmluZGluZycsICctaW1hZScsICc8aW5maWxlLm1hZT4nLCAnLW9tYWUnLCAnPG91dGZpbGUubWFlPic=

> <r_lp_tautomer_probability>
0.999994

> <r_epik_Ionization_Penalty>
2.55677

> <r_epik_Ionization_Penalty_Charging>
2.55673

> <r_epik_Ionization_Penalty_Neutral>
3.71772e-05

> <r_epik_State_Penalty>
2.72571

> <r_epik_Charging_Adjusted_Penalty>
5.28244

> <i_epik_Tot_Q>
1

> <i_epik_Tot_abs_Q>
1

> <r_epik_Metal_State_Penalty>
2.73364

> <b_epik_Metal_Only>
0

> <s_lp_Force_Field>
OPLS_2005

> <r_lp_Energy>
19.4893

> <b_lp_Chiralities_Consistent>
1

> <s_lp_Variant>
AV-unprocessed.smi:1983-7

> <Gold.Version>
5.8.1

> <Gold.Id.Protein>
6NUR|6NUR_protein|mol2

> <Gold.PLP.Fitness>
50.2965

> <Gold.PLP.PLP>
-36.8599

> <Gold.PLP.part.hbond>
-3.8967

> <Gold.PLP.part.metal>
0.0000

> <Gold.PLP.part.buried>
-4.9292

> <Gold.PLP.part.nonpolar>
-29.7521

> <Gold.PLP.part.repulsive>
0.2429

> <Gold.PLP.ligand.clash>
0.0000

> <Gold.PLP.ligand.torsion>
0.6192

> <Gold.PLP.Chemscore.Hbond>
4.8160

> <Gold.PLP.Chemscore.CHOScore>
0.0000

> <Gold.PLP.Chemscore.Metal>
0.0000

> <Gold.Chemscore.Hbonds>
donor molecule, donor type, donor heavy atom, donor atom, acceptor molecule, acceptor atom, score
      L1  H     4    30       P1  7948  0.52
      L1  H     5    31       P1  7948  1.00
      L1  H     8    32       P1  7948  0.98
      L1  H    22    50       P1  8028  1.95

> <Gold.PLP.Chemscore.Internal.Correction>
0.2271

> <Gold.Rescore>
     Score         DG    S(hbond)    S(metal)    S(lipo)     H(rot)  DE(clash)    DE(int)     intcor
     21.62     -22.57       3.71        0.00      98.57       2.66       0.03       0.93       ----

> <Gold.Chemscore.Fitness>
21.6228

> <Gold.Chemscore.DG>
-22.5747

> <Gold.Chemscore.ZeroCoef>
-5.4800

> <Gold.Chemscore.Hbond>
3.7069

> <Gold.Chemscore.Metal>
0.0000

> <Gold.Chemscore.Lipo>
98.5703

> <Gold.Chemscore.Internal_Hbond>
0.0000

> <Gold.Chemscore.DEClash>
0.0259

> <Gold.Chemscore.DEInternal>
0.9260

> <Gold.Chemscore.Rot>
2.6637

> <Gold.Chemscore.Internal.Correction>
   9.000000E+99

> <Gold.Chemscore.Hbonds>
donor molecule, donor type, donor heavy atom, donor atom, acceptor molecule, acceptor atom, score
      L1  H     4    30       P1  7948  0.13
      L1  H     5    31       P1  7948  0.94
      L1  H     8    32       P1  7948  0.93
      L1  H    22    50       P1  8028  0.92

> <Gold.Chemscore.Hbond.Weighted>
-12.3811

> <Gold.Chemscore.Metal.Weighted>
-0.0000

> <Gold.Chemscore.Lipo.Weighted>
-11.5327

> <Gold.Chemscore.Internal_Hbond.Weighted>
0.0000

> <Gold.Chemscore.DEClash.Weighted>
0.0259

> <Gold.Chemscore.DEInternal.Weighted>
0.9260

> <Gold.Chemscore.Rot.Weighted>
6.8191

> <Gold.Chemscore.Internal.Correction.Weighted>
   9.000000E+99

> <Gold.Protein.RotatedTorsions>
[ 6907 6896 6895 6894 ] final  123.12 input  -60.11 | X-H torsion
[ 7974 7965 7964 7962 ] final -108.02 input  175.53 | X-H torsion
[ 8008 7997 7996 7995 ] final  -78.46 input   59.86 | X-H torsion
[ 10167 10162 10161 10158 ] final  133.29 input  -65.29 | X-H torsion
[ 10718 10713 10712 10709 ] final   83.60 input   66.30 | X-H torsion
[ 10763 10752 10751 10750 ] final    8.08 input  -60.55 | X-H torsion
[ 11005 11000 10999 10996 ] final   61.07 input  -57.11 | X-H torsion

> <Gold.Protein.ActiveResidues>
 VAL166  LYS551  ARG553  GLY616  TRP617  ASP618  TYR619  PRO620  LYS621  CYS622 
 ASP623  PHE694  ASN695  SER759  ASP760  ASP761  ALA762  ILE779  LEU786  VAL792 
 PHE793  MET794  SER795  GLU796  ALA797  LYS798  CYS799  TRP800  GLU811  SER814 

> <Gold.Protein.RotatedAtoms>
  152.4187  133.7081  159.6462 H   0  0  0  0  0  0  0  0  0  0  0  0  # atno 6907 bound_to 6896
  150.8064  133.8492  159.3209 H   0  0  0  0  0  0  0  0  0  0  0  0  # atno 6908 bound_to 6896
  151.6214  135.1033  160.0154 H   0  0  0  0  0  0  0  0  0  0  0  0  # atno 6909 bound_to 6896
  145.1980  140.9044  143.3386 H   0  0  0  0  0  0  0  0  0  0  0  0  # atno 7974 bound_to 7965
  154.5691  140.0694  156.8937 H   0  0  0  0  0  0  0  0  0  0  0  0  # atno 8008 bound_to 7997
  155.2667  140.3362  155.4250 H   0  0  0  0  0  0  0  0  0  0  0  0  # atno 8009 bound_to 7997
  156.2104  140.1757  156.7692 H   0  0  0  0  0  0  0  0  0  0  0  0  # atno 8010 bound_to 7997
  139.5303  144.6622  151.4975 H   0  0  0  0  0  0  0  0  0  0  0  0  # atno 10167 bound_to 10162
  157.6882  131.0098  150.2548 H   0  0  0  0  0  0  0  0  0  0  0  0  # atno 10718 bound_to 10713
  153.2291  135.6890  153.7911 H   0  0  0  0  0  0  0  0  0  0  0  0  # atno 10763 bound_to 10752
  153.7082  135.3286  155.3241 H   0  0  0  0  0  0  0  0  0  0  0  0  # atno 10764 bound_to 10752
  154.8305  135.4584  154.1169 H   0  0  0  0  0  0  0  0  0  0  0  0  # atno 10765 bound_to 10752
  140.0187  134.6186  155.9671 H   0  0  0  0  0  0  0  0  0  0  0  0  # atno 11005 bound_to 11000
  144.9975  139.3630  143.6184 LP  0  0  0  0  0  0  0  0  0  0  0  0  # atno 17320 bound_to 7965
  146.3423  139.9184  142.8770 LP  0  0  0  0  0  0  0  0  0  0  0  0  # atno 17321 bound_to 7965
  140.6476  143.8762  150.6753 LP  0  0  0  0  0  0  0  0  0  0  0  0  # atno 17342 bound_to 10162
  140.2116  143.3879  152.1713 LP  0  0  0  0  0  0  0  0  0  0  0  0  # atno 17343 bound_to 10162
  156.3138  130.3776  149.7637 LP  0  0  0  0  0  0  0  0  0  0  0  0  # atno 17370 bound_to 10713
  156.5229  130.8223  151.3210 LP  0  0  0  0  0  0  0  0  0  0  0  0  # atno 17371 bound_to 10713
  141.1760  133.6540  156.4829 LP  0  0  0  0  0  0  0  0  0  0  0  0  # atno 17394 bound_to 11000
  140.4425  134.7002  157.4999 LP  0  0  0  0  0  0  0  0  0  0  0  0  # atno 17395 bound_to 11000

$$$$
