AV-unprocessed.smi:2437|AV-procd|sdf|9594|dock10
  -GOLD-   2272013223D 1   1.00000     0.00000
 Structure written by MMmdl.
 34 35  0  0  0  0  0  0  0  0  3 V2000
  150.9845  141.7606  158.6587 O   0  0  0  0  0  0  0  0  0  0  0  0
  151.0516  142.4891  157.6674 C   0  0  0  0  0  0  0  0  0  0  0  0
  150.3120  142.1323  156.3696 C   0  0  0  0  0  0  0  0  0  0  0  0
  150.6612  140.8031  155.8399 N   0  0  0  0  0  0  0  0  0  0  0  0
  151.5572  140.0267  156.6010 C   0  0  0  0  0  0  0  0  0  0  0  0
  151.9527  138.7996  156.2091 C   0  0  0  0  0  0  0  0  0  0  0  0
  152.8735  138.0162  157.0035 N   0  3  0  0  0  0  0  0  0  0  0  0
  152.9480  136.8091  156.7978 O   0  0  0  0  0  0  0  0  0  0  0  0
  153.5503  138.5792  157.8589 O   0  5  0  0  0  0  0  0  0  0  0  0
  151.4249  138.2884  154.9590 C   0  0  0  0  0  0  0  0  0  0  0  0
  150.5690  139.0267  154.2254 C   0  0  0  0  0  0  0  0  0  0  0  0
  150.1390  140.3615  154.6545 C   0  0  0  0  0  0  0  0  0  0  0  0
  149.3581  141.0414  153.9886 O   0  0  0  0  0  0  0  0  0  0  0  0
  151.7487  143.6349  157.6453 N   0  0  0  0  0  0  0  0  0  0  0  0
  152.5320  144.1654  158.7583 C   0  0  0  0  0  0  0  0  0  0  0  0
  153.3795  143.0678  159.4339 C   0  0  0  0  0  0  0  0  0  0  0  0
  152.7298  142.8102  160.7937 C   0  0  0  0  0  0  0  0  0  0  0  0
  152.1243  144.1562  161.1778 C   0  0  0  0  0  0  0  0  0  0  0  0
  151.6102  144.7303  159.8565 C   0  0  0  0  0  0  0  0  0  0  0  0
  149.2398  142.1967  156.5600 H   0  0  0  0  0  0  0  0  0  0  0  0
  150.5137  142.9014  155.6215 H   0  0  0  0  0  0  0  0  0  0  0  0
  151.8982  140.4989  157.5110 H   0  0  0  0  0  0  0  0  0  0  0  0
  151.7138  137.3112  154.6008 H   0  0  0  0  0  0  0  0  0  0  0  0
  150.1896  138.6272  153.2963 H   0  0  0  0  0  0  0  0  0  0  0  0
  151.7430  144.1771  156.7934 H   0  0  0  0  0  0  0  0  0  0  0  0
  153.1882  144.9583  158.3940 H   0  0  0  0  0  0  0  0  0  0  0  0
  153.4644  142.1545  158.8436 H   0  0  0  0  0  0  0  0  0  0  0  0
  154.3922  143.4432  159.5861 H   0  0  0  0  0  0  0  0  0  0  0  0
  151.9382  142.0669  160.6890 H   0  0  0  0  0  0  0  0  0  0  0  0
  153.4387  142.4410  161.5351 H   0  0  0  0  0  0  0  0  0  0  0  0
  151.3409  144.0657  161.9307 H   0  0  0  0  0  0  0  0  0  0  0  0
  152.9024  144.8050  161.5823 H   0  0  0  0  0  0  0  0  0  0  0  0
  151.5982  145.8207  159.8637 H   0  0  0  0  0  0  0  0  0  0  0  0
  150.5814  144.3993  159.7041 H   0  0  0  0  0  0  0  0  0  0  0  0
  1  2  2  0  0  0  0
  2  3  1  0  0  0  0
  2 14  1  0  0  0  0
  3  4  1  0  0  0  0
  3 20  1  0  0  0  0
  3 21  1  0  0  0  0
  4 12  1  0  0  0  0
  4  5  1  0  0  0  0
  5  6  2  0  0  0  0
  5 22  1  0  0  0  0
  6  7  1  0  0  0  0
  6 10  1  0  0  0  0
  7  8  2  0  0  0  0
  7  9  1  0  0  0  0
 10 11  2  0  0  0  0
 10 23  1  0  0  0  0
 11 12  1  0  0  0  0
 11 24  1  0  0  0  0
 12 13  2  0  0  0  0
 14 15  1  0  0  0  0
 14 25  1  0  0  0  0
 15 19  1  0  0  0  0
 15 16  1  0  0  0  0
 15 26  1  0  0  0  0
 16 17  1  0  0  0  0
 16 27  1  0  0  0  0
 16 28  1  0  0  0  0
 17 18  1  0  0  0  0
 17 29  1  0  0  0  0
 17 30  1  0  0  0  0
 18 19  1  0  0  0  0
 18 31  1  0  0  0  0
 18 32  1  0  0  0  0
 19 33  1  0  0  0  0
 19 34  1  0  0  0  0
M  CHG  1   7   1
M  CHG  1   9  -1
M  END
> <s_m_source_file>
AV-unprocessed.smi

> <i_m_source_file_index>
2437

> <i_lp_mmshare_version>
43012

> <i_f3d_flags>
0

> <s_epik_input>
W0NIMl0xW0NIMl1bQ0gyXVtDSDJdW0NIXTFbTkhdQyg9TylbQ0gyXW4yW2NIXWMoW04rXSg9TylbTy1dKVtjSF1bY0hdYzI9Tw==

> <s_epik_cmdline>
J2VwaWtfcHl0aG9uJywgJy1waCcsICc3LjAnLCAnLXRuJywgJzgnLCAnLW1hJywgJzIwMCcsICctbWV0YWxfYmluZGluZycsICctaW1hZScsICc8aW5maWxlLm1hZT4nLCAnLW9tYWUnLCAnPG91dGZpbGUubWFlPic=

> <r_lp_tautomer_probability>
1

> <r_epik_Ionization_Penalty>
1.93821e-08

> <r_epik_Ionization_Penalty_Charging>
8.03436e-11

> <r_epik_Ionization_Penalty_Neutral>
1.93017e-08

> <r_epik_State_Penalty>
-0

> <r_epik_Charging_Adjusted_Penalty>
8.03436e-11

> <i_epik_Tot_Q>
0

> <i_epik_Tot_abs_Q>
2

> <r_epik_Metal_State_Penalty>
-0

> <b_epik_Metal_Only>
0

> <s_lp_Force_Field>
OPLS_2005

> <r_lp_Energy>
29.2975

> <b_lp_Chiralities_Consistent>
1

> <s_lp_Variant>
AV-unprocessed.smi:2437-1

> <Gold.Version>
5.8.1

> <Gold.Id.Protein>
6NUR|6NUR_protein|mol2

> <Gold.PLP.Fitness>
48.6491

> <Gold.PLP.PLP>
-42.3441

> <Gold.PLP.part.hbond>
-4.0000

> <Gold.PLP.part.metal>
0.0000

> <Gold.PLP.part.buried>
0.6722

> <Gold.PLP.part.nonpolar>
-39.1623

> <Gold.PLP.part.repulsive>
1.0810

> <Gold.PLP.ligand.clash>
0.7024

> <Gold.PLP.ligand.torsion>
0.3518

> <Gold.PLP.Chemscore.Hbond>
2.5681

> <Gold.PLP.Chemscore.CHOScore>
0.0000

> <Gold.PLP.Chemscore.Metal>
0.0000

> <Gold.Chemscore.Hbonds>
donor molecule, donor type, donor heavy atom, donor atom, acceptor molecule, acceptor atom, score
      P1  H  7997  8009       L1     9  1.00
      P1  H  8011  8017       L1    13  0.51
      P1  H 10752 10765       L1     8  0.80

> <Gold.PLP.Chemscore.Internal.Correction>
0.0067

> <Gold.Rescore>
     Score         DG    S(hbond)    S(metal)    S(lipo)     H(rot)  DE(clash)    DE(int)     intcor
     14.56     -19.24       1.87        0.00      98.82       1.58       0.47       4.21       ----

> <Gold.Chemscore.Fitness>
14.5566

> <Gold.Chemscore.DG>
-19.2362

> <Gold.Chemscore.ZeroCoef>
-5.4800

> <Gold.Chemscore.Hbond>
1.8702

> <Gold.Chemscore.Metal>
0.0000

> <Gold.Chemscore.Lipo>
98.8231

> <Gold.Chemscore.Internal_Hbond>
0.0000

> <Gold.Chemscore.DEClash>
0.4666

> <Gold.Chemscore.DEInternal>
4.2130

> <Gold.Chemscore.Rot>
1.5831

> <Gold.Chemscore.Internal.Correction>
   9.000000E+99

> <Gold.Chemscore.Hbonds>
donor molecule, donor type, donor heavy atom, donor atom, acceptor molecule, acceptor atom, score
      P1  H  7997  8009       L1     9  0.73
      P1  H  8011  8017       L1    13  0.50
      P1  H 10752 10765       L1     8  0.75

> <Gold.Chemscore.Hbond.Weighted>
-6.2466

> <Gold.Chemscore.Metal.Weighted>
-0.0000

> <Gold.Chemscore.Lipo.Weighted>
-11.5623

> <Gold.Chemscore.Internal_Hbond.Weighted>
0.0000

> <Gold.Chemscore.DEClash.Weighted>
0.4666

> <Gold.Chemscore.DEInternal.Weighted>
4.2130

> <Gold.Chemscore.Rot.Weighted>
4.0527

> <Gold.Chemscore.Internal.Correction.Weighted>
   9.000000E+99

> <Gold.Protein.RotatedTorsions>
[ 6907 6896 6895 6894 ] final    8.83 input  -60.11 | X-H torsion
[ 7974 7965 7964 7962 ] final  172.79 input  175.53 | X-H torsion
[ 8008 7997 7996 7995 ] final  151.90 input   59.86 | X-H torsion
[ 10167 10162 10161 10158 ] final   91.67 input  -65.29 | X-H torsion
[ 10718 10713 10712 10709 ] final  145.09 input   66.30 | X-H torsion
[ 10763 10752 10751 10750 ] final -126.48 input  -60.55 | X-H torsion
[ 11005 11000 10999 10996 ] final   95.28 input  -57.11 | X-H torsion

> <Gold.Protein.ActiveResidues>
 VAL166  LYS551  ARG553  GLY616  TRP617  ASP618  TYR619  PRO620  LYS621  CYS622 
 ASP623  PHE694  ASN695  SER759  ASP760  ASP761  ALA762  ILE779  LEU786  VAL792 
 PHE793  MET794  SER795  GLU796  ALA797  LYS798  CYS799  TRP800  GLU811  SER814 

> <Gold.Protein.RotatedAtoms>
  151.7124  135.0910  160.0269 H   0  0  0  0  0  0  0  0  0  0  0  0  # atno 6907 bound_to 6896
  152.3653  133.6345  159.6054 H   0  0  0  0  0  0  0  0  0  0  0  0  # atno 6908 bound_to 6896
  150.7634  133.9274  159.3458 H   0  0  0  0  0  0  0  0  0  0  0  0  # atno 6909 bound_to 6896
  144.7259  139.9551  143.6433 H   0  0  0  0  0  0  0  0  0  0  0  0  # atno 7974 bound_to 7965
  156.2653  140.2035  156.6249 H   0  0  0  0  0  0  0  0  0  0  0  0  # atno 8008 bound_to 7997
  154.6728  140.0548  157.0208 H   0  0  0  0  0  0  0  0  0  0  0  0  # atno 8009 bound_to 7997
  155.1112  140.3215  155.4524 H   0  0  0  0  0  0  0  0  0  0  0  0  # atno 8010 bound_to 7997
  139.8351  144.6668  150.9351 H   0  0  0  0  0  0  0  0  0  0  0  0  # atno 10167 bound_to 10162
  157.3494  131.0948  151.1013 H   0  0  0  0  0  0  0  0  0  0  0  0  # atno 10718 bound_to 10713
  154.8746  135.3994  154.3437 H   0  0  0  0  0  0  0  0  0  0  0  0  # atno 10763 bound_to 10752
  153.4233  135.7023  153.6285 H   0  0  0  0  0  0  0  0  0  0  0  0  # atno 10764 bound_to 10752
  153.4938  135.3742  155.2475 H   0  0  0  0  0  0  0  0  0  0  0  0  # atno 10765 bound_to 10752
  139.8790  134.8891  156.3988 H   0  0  0  0  0  0  0  0  0  0  0  0  # atno 11005 bound_to 11000
  146.0681  139.3671  143.0540 LP  0  0  0  0  0  0  0  0  0  0  0  0  # atno 17320 bound_to 7965
  145.8004  140.9773  143.1001 LP  0  0  0  0  0  0  0  0  0  0  0  0  # atno 17321 bound_to 7965
  140.7803  143.3964  151.1223 LP  0  0  0  0  0  0  0  0  0  0  0  0  # atno 17342 bound_to 10162
  139.7615  143.8629  152.3101 LP  0  0  0  0  0  0  0  0  0  0  0  0  # atno 17343 bound_to 10162
  157.2195  130.6475  149.5805 LP  0  0  0  0  0  0  0  0  0  0  0  0  # atno 17370 bound_to 10713
  155.9719  130.4634  150.6179 LP  0  0  0  0  0  0  0  0  0  0  0  0  # atno 17371 bound_to 10713
  140.9281  133.7598  155.9990 LP  0  0  0  0  0  0  0  0  0  0  0  0  # atno 17394 bound_to 11000
  140.8362  134.3120  157.5330 LP  0  0  0  0  0  0  0  0  0  0  0  0  # atno 17395 bound_to 11000

$$$$
