AV-unprocessed.smi:3245|AV-procd|sdf|12402|dock2
  -GOLD-   2272018273D 1   1.00000     0.00000
 Structure written by MMmdl.
 36 37  0  0  0  0  0  0  0  0  2 V2000
  153.5991  139.5010  159.7591 C   0  0  0  0  0  0  0  0  0  0  0  0
  152.9301  140.7285  159.1261 C   0  0  2  0  0  0  0  0  0  0  0  0
  153.2504  142.0022  159.9385 C   0  0  0  0  0  0  0  0  0  0  0  0
  152.4990  143.1626  159.4944 N   0  0  0  0  0  0  0  0  0  0  0  0
  152.3999  144.4010  160.0925 C   0  0  0  0  0  0  0  0  0  0  0  0
  151.6010  145.1723  159.2980 C   0  0  0  0  0  0  0  0  0  0  0  0
  151.2503  144.3054  158.2258 C   0  0  0  0  0  0  0  0  0  0  0  0
  151.7900  143.1030  158.3457 N   0  0  0  0  0  0  0  0  0  0  0  0
  151.4693  140.5025  159.0391 N   0  3  0  0  0  0  0  0  0  0  0  0
  151.0574  139.4394  158.0997 C   0  0  0  0  0  0  0  0  0  0  0  0
  151.4689  139.7886  156.6623 C   0  0  0  0  0  0  0  0  0  0  0  0
  151.0581  138.7414  155.7241 N   0  0  0  0  0  0  0  0  0  0  0  0
  151.4710  137.4689  155.7912 C   0  0  0  0  0  0  0  0  0  0  0  0
  152.2395  136.9749  156.6156 O   0  0  0  0  0  0  0  0  0  0  0  0
  150.8157  136.6930  154.6695 C   0  0  0  0  0  0  0  0  0  0  0  0
  150.0347  137.7564  154.0744 N   0  0  0  0  0  0  0  0  0  0  0  0
  150.1927  138.9243  154.7106 C   0  0  0  0  0  0  0  0  0  0  0  0
  149.6304  139.9768  154.4123 O   0  0  0  0  0  0  0  0  0  0  0  0
  154.6821  139.6220  159.8000 H   0  0  0  0  0  0  0  0  0  0  0  0
  153.3926  138.5985  159.1829 H   0  0  0  0  0  0  0  0  0  0  0  0
  153.2448  139.3350  160.7772 H   0  0  0  0  0  0  0  0  0  0  0  0
  153.3370  140.8353  158.1189 H   0  0  0  0  0  0  0  0  0  0  0  0
  153.0563  141.8389  161.0002 H   0  0  0  0  0  0  0  0  0  0  0  0
  154.3112  142.2412  159.8534 H   0  0  0  0  0  0  0  0  0  0  0  0
  152.9040  144.6291  161.0199 H   0  0  0  0  0  0  0  0  0  0  0  0
  151.3095  146.1997  159.4587 H   0  0  0  0  0  0  0  0  0  0  0  0
  150.6266  144.5137  157.3691 H   0  0  0  0  0  0  0  0  0  0  0  0
  151.1291  140.2487  159.9555 H   0  0  0  0  0  0  0  0  0  0  0  0
  151.5114  138.4915  158.3877 H   0  0  0  0  0  0  0  0  0  0  0  0
  149.9769  139.3053  158.1664 H   0  0  0  0  0  0  0  0  0  0  0  0
  151.0353  140.7471  156.3715 H   0  0  0  0  0  0  0  0  0  0  0  0
  152.5505  139.9243  156.6074 H   0  0  0  0  0  0  0  0  0  0  0  0
  151.5516  136.2938  153.9710 H   0  0  0  0  0  0  0  0  0  0  0  0
  150.1811  135.8920  155.0497 H   0  0  0  0  0  0  0  0  0  0  0  0
  149.4365  137.6171  153.2729 H   0  0  0  0  0  0  0  0  0  0  0  0
  151.0334  141.3713  158.7638 H   0  0  0  0  0  0  0  0  0  0  0  0
  1  2  1  0  0  0  0
  1 19  1  0  0  0  0
  1 20  1  0  0  0  0
  1 21  1  0  0  0  0
  2  3  1  0  0  0  0
  2  9  1  0  0  0  0
  2 22  1  0  0  0  0
  3  4  1  0  0  0  0
  3 23  1  0  0  0  0
  3 24  1  0  0  0  0
  4  8  1  0  0  0  0
  4  5  1  0  0  0  0
  5  6  2  0  0  0  0
  5 25  1  0  0  0  0
  6  7  1  0  0  0  0
  6 26  1  0  0  0  0
  7  8  2  0  0  0  0
  7 27  1  0  0  0  0
  9 10  1  0  0  0  0
  9 28  1  0  0  0  0
  9 36  1  0  0  0  0
 10 11  1  0  0  0  0
 10 29  1  0  0  0  0
 10 30  1  0  0  0  0
 11 12  1  0  0  0  0
 11 31  1  0  0  0  0
 11 32  1  0  0  0  0
 12 17  1  0  0  0  0
 12 13  1  0  0  0  0
 13 14  2  0  0  0  0
 13 15  1  0  0  0  0
 15 16  1  0  0  0  0
 15 33  1  0  0  0  0
 15 34  1  0  0  0  0
 16 17  1  0  0  0  0
 16 35  1  0  0  0  0
 17 18  2  0  0  0  0
M  CHG  1   9   1
M  END
> <s_m_source_file>
AV-unprocessed.smi

> <i_m_source_file_index>
3245

> <i_lp_mmshare_version>
43012

> <i_f3d_flags>
0

> <s_epik_input>
bjFbY0hdW2NIXVtjSF1uMVtDSDJdW0NAQEhdKFtDSDNdKVtOSF1bQ0gyXVtDSDJdTjJDKD1PKVtDSDJdW05IXUMyPU8=

> <s_epik_cmdline>
J2VwaWtfcHl0aG9uJywgJy1waCcsICc3LjAnLCAnLXRuJywgJzgnLCAnLW1hJywgJzIwMCcsICctbWV0YWxfYmluZGluZycsICctaW1hZScsICc8aW5maWxlLm1hZT4nLCAnLW9tYWUnLCAnPG91dGZpbGUubWFlPic=

> <r_lp_tautomer_probability>
1

> <r_epik_Ionization_Penalty>
0.0160742

> <r_epik_Ionization_Penalty_Charging>
0.0159586

> <r_epik_Ionization_Penalty_Neutral>
0.000115543

> <r_epik_State_Penalty>
0.0125702

> <r_epik_Charging_Adjusted_Penalty>
0.0285288

> <i_epik_Tot_Q>
1

> <i_epik_Tot_abs_Q>
1

> <r_epik_Metal_State_Penalty>
0.0881892

> <b_epik_Metal_Only>
0

> <s_lp_Force_Field>
OPLS_2005

> <r_lp_Energy>
19.7378

> <b_lp_Chiralities_Consistent>
1

> <s_lp_Variant>
AV-unprocessed.smi:3245-1

> <Gold.Version>
5.8.1

> <Gold.Id.Protein>
6NUR|6NUR_protein|mol2

> <Gold.PLP.Fitness>
47.0451

> <Gold.PLP.PLP>
-38.0351

> <Gold.PLP.part.hbond>
-3.3616

> <Gold.PLP.part.metal>
0.0000

> <Gold.PLP.part.buried>
-4.0139

> <Gold.PLP.part.nonpolar>
-32.3725

> <Gold.PLP.part.repulsive>
1.4125

> <Gold.PLP.ligand.clash>
0.0000

> <Gold.PLP.ligand.torsion>
0.1690

> <Gold.PLP.Chemscore.Hbond>
2.0723

> <Gold.PLP.Chemscore.CHOScore>
1.0000

> <Gold.PLP.Chemscore.Metal>
0.0000

> <Gold.Chemscore.Hbonds>
donor molecule, donor type, donor heavy atom, donor atom, acceptor molecule, acceptor atom, score
      L1  H    16    35       P1  7948  0.83
      P1  H  7989  7998       L1    18  0.09
      P1  H 10752 10765       L1    14  0.20
      L1  C     7    27       P1  8028  1.00

> <Gold.PLP.Chemscore.Internal.Correction>
0.1310

> <Gold.Rescore>
     Score         DG    S(hbond)    S(metal)    S(lipo)     H(rot)  DE(clash)    DE(int)     intcor
     11.82     -12.09       1.27        0.00      80.14       2.74       0.05       0.22       ----

> <Gold.Chemscore.Fitness>
11.8199

> <Gold.Chemscore.DG>
-12.0917

> <Gold.Chemscore.ZeroCoef>
-5.4800

> <Gold.Chemscore.Hbond>
1.2698

> <Gold.Chemscore.Metal>
0.0000

> <Gold.Chemscore.Lipo>
80.1446

> <Gold.Chemscore.Internal_Hbond>
0.0000

> <Gold.Chemscore.DEClash>
0.0479

> <Gold.Chemscore.DEInternal>
0.2239

> <Gold.Chemscore.Rot>
2.7369

> <Gold.Chemscore.Internal.Correction>
   9.000000E+99

> <Gold.Chemscore.Hbonds>
donor molecule, donor type, donor heavy atom, donor atom, acceptor molecule, acceptor atom, score
      L1  H    16    35       P1  7948  0.74
      P1  H  7989  7998       L1    18  0.01
      P1  H 10752 10765       L1    14  0.04

> <Gold.Chemscore.Hbond.Weighted>
-4.2412

> <Gold.Chemscore.Metal.Weighted>
-0.0000

> <Gold.Chemscore.Lipo.Weighted>
-9.3769

> <Gold.Chemscore.Internal_Hbond.Weighted>
0.0000

> <Gold.Chemscore.DEClash.Weighted>
0.0479

> <Gold.Chemscore.DEInternal.Weighted>
0.2239

> <Gold.Chemscore.Rot.Weighted>
7.0065

> <Gold.Chemscore.Internal.Correction.Weighted>
   9.000000E+99

> <Gold.Protein.RotatedTorsions>
[ 6907 6896 6895 6894 ] final   93.89 input  -60.11 | X-H torsion
[ 7974 7965 7964 7962 ] final -164.95 input  175.53 | X-H torsion
[ 8008 7997 7996 7995 ] final   59.31 input   59.86 | X-H torsion
[ 10167 10162 10161 10158 ] final  -77.32 input  -65.29 | X-H torsion
[ 10718 10713 10712 10709 ] final  -72.11 input   66.30 | X-H torsion
[ 10763 10752 10751 10750 ] final -133.87 input  -60.55 | X-H torsion
[ 11005 11000 10999 10996 ] final  173.64 input  -57.11 | X-H torsion

> <Gold.Protein.ActiveResidues>
 VAL166  LYS551  ARG553  GLY616  TRP617  ASP618  TYR619  PRO620  LYS621  CYS622 
 ASP623  PHE694  ASN695  SER759  ASP760  ASP761  ALA762  ILE779  LEU786  VAL792 
 PHE793  MET794  SER795  GLU796  ALA797  LYS798  CYS799  TRP800  GLU811  SER814 

> <Gold.Protein.RotatedAtoms>
  152.5451  134.1277  159.8425 H   0  0  0  0  0  0  0  0  0  0  0  0  # atno 6907 bound_to 6896
  151.1326  133.5019  159.2606 H   0  0  0  0  0  0  0  0  0  0  0  0  # atno 6908 bound_to 6896
  151.1658  135.0305  159.8785 H   0  0  0  0  0  0  0  0  0  0  0  0  # atno 6909 bound_to 6896
  144.7283  140.2886  143.6224 H   0  0  0  0  0  0  0  0  0  0  0  0  # atno 7974 bound_to 7965
  155.5641  140.3489  155.4498 H   0  0  0  0  0  0  0  0  0  0  0  0  # atno 8008 bound_to 7997
  156.0493  140.1314  157.0094 H   0  0  0  0  0  0  0  0  0  0  0  0  # atno 8009 bound_to 7997
  154.4427  140.1008  156.6337 H   0  0  0  0  0  0  0  0  0  0  0  0  # atno 8010 bound_to 7997
  140.4781  143.2409  151.8101 H   0  0  0  0  0  0  0  0  0  0  0  0  # atno 10167 bound_to 10162
  156.0334  130.4365  150.2544 H   0  0  0  0  0  0  0  0  0  0  0  0  # atno 10718 bound_to 10713
  154.8727  135.3752  154.4643 H   0  0  0  0  0  0  0  0  0  0  0  0  # atno 10763 bound_to 10752
  153.5308  135.7028  153.5689 H   0  0  0  0  0  0  0  0  0  0  0  0  # atno 10764 bound_to 10752
  153.3894  135.3976  155.1878 H   0  0  0  0  0  0  0  0  0  0  0  0  # atno 10765 bound_to 10752
  140.3426  134.7263  157.4213 H   0  0  0  0  0  0  0  0  0  0  0  0  # atno 11005 bound_to 11000
  145.7878  139.1915  143.2120 LP  0  0  0  0  0  0  0  0  0  0  0  0  # atno 17320 bound_to 7965
  146.0781  140.7795  142.9655 LP  0  0  0  0  0  0  0  0  0  0  0  0  # atno 17321 bound_to 7965
  139.4829  144.4808  151.9309 LP  0  0  0  0  0  0  0  0  0  0  0  0  # atno 17342 bound_to 10162
  140.3893  144.2636  150.5901 LP  0  0  0  0  0  0  0  0  0  0  0  0  # atno 17343 bound_to 10162
  157.0645  131.0099  151.3211 LP  0  0  0  0  0  0  0  0  0  0  0  0  # atno 17370 bound_to 10713
  157.5046  130.7901  149.7640 LP  0  0  0  0  0  0  0  0  0  0  0  0  # atno 17371 bound_to 10713
  140.0768  134.5786  155.8582 LP  0  0  0  0  0  0  0  0  0  0  0  0  # atno 17394 bound_to 11000
  141.2034  133.6632  156.6062 LP  0  0  0  0  0  0  0  0  0  0  0  0  # atno 17395 bound_to 11000

$$$$
