AV-unprocessed.smi:1986|AV-procd|sdf|8050|dock9
  -GOLD-   2272010253D 1   1.00000     0.00000
 Structure written by MMmdl.
 47 48  0  0  0  0  0  0  0  0  1 V2000
  147.3812  141.2459  154.0800 C   0  0  0  0  0  0  0  0  0  0  0  0
  147.0529  139.8017  154.5006 C   0  0  0  0  0  0  0  0  0  0  0  0
  147.6888  139.3289  155.8472 C   0  0  1  0  0  0  0  0  0  0  0  0
  147.1658  140.2960  156.9439 C   0  0  0  0  0  0  0  0  0  0  0  0
  147.1529  137.8968  156.1615 C   0  0  0  0  0  0  0  0  0  0  0  0
  147.9623  137.1945  157.1554 N   0  0  0  0  0  0  0  0  0  0  0  0
  147.5226  136.7206  158.3299 C   0  0  0  0  0  0  0  0  0  0  0  0
  146.3471  136.7854  158.6914 O   0  0  0  0  0  0  0  0  0  0  0  0
  148.5790  136.0538  159.2223 C   0  0  0  0  0  0  0  0  0  0  0  0
  147.9951  135.2873  160.3322 N   0  0  0  0  0  0  0  0  0  0  0  0
  148.0368  133.9124  160.1573 N   0  0  0  0  0  0  0  0  0  0  0  0
  147.5487  133.1328  161.0618 C   0  0  0  0  0  0  0  0  0  0  0  0
  147.6087  131.7779  160.8471 O   0  0  0  0  0  0  0  0  0  0  0  0
  146.9551  133.6652  162.2686 C   0  0  0  0  0  0  0  0  0  0  0  0
  146.9238  135.0058  162.4324 C   0  0  0  0  0  0  0  0  0  0  0  0
  147.4705  135.9191  161.4273 C   0  0  0  0  0  0  0  0  0  0  0  0
  147.4615  137.1437  161.5527 O   0  0  0  0  0  0  0  0  0  0  0  0
  149.1775  139.3710  155.7827 N   0  0  0  0  0  0  0  0  0  0  0  0
  149.7750  138.6449  154.6556 C   0  0  0  0  0  0  0  0  0  0  0  0
  151.3105  138.6118  154.7404 C   0  0  0  0  0  0  0  0  0  0  0  0
  151.8165  139.9397  154.8057 O   0  0  0  0  0  0  0  0  0  0  0  0
  151.3041  140.6619  155.9189 C   0  0  0  0  0  0  0  0  0  0  0  0
  149.7691  140.7134  155.8394 C   0  0  0  0  0  0  0  0  0  0  0  0
  148.3386  131.4746  161.3648 H   0  0  0  0  0  0  0  0  0  0  0  0
  146.9034  141.4825  153.1293 H   0  0  0  0  0  0  0  0  0  0  0  0
  148.4526  141.3981  153.9510 H   0  0  0  0  0  0  0  0  0  0  0  0
  147.0240  141.9713  154.8104 H   0  0  0  0  0  0  0  0  0  0  0  0
  145.9666  139.7193  154.5510 H   0  0  0  0  0  0  0  0  0  0  0  0
  147.3355  139.1273  153.6923 H   0  0  0  0  0  0  0  0  0  0  0  0
  146.0939  140.4763  156.8564 H   0  0  0  0  0  0  0  0  0  0  0  0
  147.6581  141.2675  156.8910 H   0  0  0  0  0  0  0  0  0  0  0  0
  147.3305  139.9029  157.9473 H   0  0  0  0  0  0  0  0  0  0  0  0
  146.1198  137.9517  156.5057 H   0  0  0  0  0  0  0  0  0  0  0  0
  147.1462  137.2755  155.2664 H   0  0  0  0  0  0  0  0  0  0  0  0
  148.9433  137.0867  156.9421 H   0  0  0  0  0  0  0  0  0  0  0  0
  149.1909  135.4058  158.5922 H   0  0  0  0  0  0  0  0  0  0  0  0
  149.2622  136.8085  159.6167 H   0  0  0  0  0  0  0  0  0  0  0  0
  146.5495  132.9986  163.0153 H   0  0  0  0  0  0  0  0  0  0  0  0
  146.4835  135.4172  163.3287 H   0  0  0  0  0  0  0  0  0  0  0  0
  149.4222  137.6156  154.6228 H   0  0  0  0  0  0  0  0  0  0  0  0
  149.4886  139.1087  153.7119 H   0  0  0  0  0  0  0  0  0  0  0  0
  151.6372  138.0464  155.6147 H   0  0  0  0  0  0  0  0  0  0  0  0
  151.7274  138.1154  153.8640 H   0  0  0  0  0  0  0  0  0  0  0  0
  151.6267  140.1908  156.8488 H   0  0  0  0  0  0  0  0  0  0  0  0
  151.7179  141.6702  155.9101 H   0  0  0  0  0  0  0  0  0  0  0  0
  149.4853  141.2901  154.9591 H   0  0  0  0  0  0  0  0  0  0  0  0
  149.4100  141.2639  156.7069 H   0  0  0  0  0  0  0  0  0  0  0  0
  1  2  1  0  0  0  0
  1 25  1  0  0  0  0
  1 26  1  0  0  0  0
  1 27  1  0  0  0  0
  2  3  1  0  0  0  0
  2 28  1  0  0  0  0
  2 29  1  0  0  0  0
  3  4  1  0  0  0  0
  3  5  1  0  0  0  0
  3 18  1  0  0  0  0
  4 30  1  0  0  0  0
  4 31  1  0  0  0  0
  4 32  1  0  0  0  0
  5  6  1  0  0  0  0
  5 33  1  0  0  0  0
  5 34  1  0  0  0  0
  6  7  1  0  0  0  0
  6 35  1  0  0  0  0
  7  8  2  0  0  0  0
  7  9  1  0  0  0  0
  9 36  1  0  0  0  0
  9 37  1  0  0  0  0
  9 10  1  0  0  0  0
 10 11  1  0  0  0  0
 10 16  1  0  0  0  0
 11 12  2  0  0  0  0
 12 13  1  0  0  0  0
 12 14  1  0  0  0  0
 13 24  1  0  0  0  0
 14 38  1  0  0  0  0
 14 15  2  0  0  0  0
 15 39  1  0  0  0  0
 15 16  1  0  0  0  0
 16 17  2  0  0  0  0
 18 23  1  0  0  0  0
 18 19  1  0  0  0  0
 19 20  1  0  0  0  0
 19 40  1  0  0  0  0
 19 41  1  0  0  0  0
 20 21  1  0  0  0  0
 20 42  1  0  0  0  0
 20 43  1  0  0  0  0
 21 22  1  0  0  0  0
 22 23  1  0  0  0  0
 22 44  1  0  0  0  0
 22 45  1  0  0  0  0
 23 46  1  0  0  0  0
 23 47  1  0  0  0  0
M  END
> <s_m_source_file>
AV-unprocessed.smi

> <i_m_source_file_index>
1986

> <i_lp_mmshare_version>
43012

> <i_f3d_flags>
0

> <s_epik_input>
W0NIMl0xW0NIMl1PW0NIMl1bQ0gyXU4xW0NAQF0oW0NIM10pKFtDSDJdW0NIM10pW0NIMl1bTkhdQyg9TylbQ0gyXW4yW25IXWMoPU8pW2NIXVtjSF1jMj1P

> <s_epik_cmdline>
J2VwaWtfcHl0aG9uJywgJy1waCcsICc3LjAnLCAnLXRuJywgJzgnLCAnLW1hJywgJzIwMCcsICctbWV0YWxfYmluZGluZycsICctaW1hZScsICc8aW5maWxlLm1hZT4nLCAnLW9tYWUnLCAnPG91dGZpbGUubWFlPic=

> <r_epik_Ionization_Penalty>
2.44436

> <r_epik_Ionization_Penalty_Charging>
3.63754e-08

> <r_epik_Ionization_Penalty_Neutral>
2.44436

> <r_epik_State_Penalty>
2.04701

> <r_epik_Charging_Adjusted_Penalty>
2.04701

> <i_epik_Tot_Q>
0

> <i_epik_Tot_abs_Q>
0

> <r_epik_Metal_State_Penalty>
2.04701

> <b_epik_Metal_Only>
0

> <s_lp_Force_Field>
OPLS_2005

> <r_lp_Energy>
55.4417

> <b_lp_Chiralities_Consistent>
1

> <s_lp_Variant>
AV-unprocessed.smi:1986-5

> <Gold.Version>
5.8.1

> <Gold.Id.Protein>
6NUR|6NUR_protein|mol2

> <Gold.PLP.Fitness>
41.7442

> <Gold.PLP.PLP>
-35.1284

> <Gold.PLP.part.hbond>
-3.0000

> <Gold.PLP.part.metal>
0.0000

> <Gold.PLP.part.buried>
-5.3270

> <Gold.PLP.part.nonpolar>
-27.4958

> <Gold.PLP.part.repulsive>
0.0843

> <Gold.PLP.ligand.clash>
0.0000

> <Gold.PLP.ligand.torsion>
0.8371

> <Gold.PLP.Chemscore.Hbond>
2.7200

> <Gold.PLP.Chemscore.CHOScore>
0.0000

> <Gold.PLP.Chemscore.Metal>
0.0000

> <Gold.Chemscore.Hbonds>
donor molecule, donor type, donor heavy atom, donor atom, acceptor molecule, acceptor atom, score
      P1  H  6931  6943       L1    17  0.96
      P1  H  6934  6947       L1    17  0.86
      P1  H  7989  7998       L1    21  0.98

> <Gold.PLP.Chemscore.Internal.Correction>
0.1300

> <Gold.Rescore>
     Score         DG    S(hbond)    S(metal)    S(lipo)     H(rot)  DE(clash)    DE(int)     intcor
     12.03     -12.97       2.50        0.00      59.59       3.06       0.00       0.94       ----

> <Gold.Chemscore.Fitness>
12.0331

> <Gold.Chemscore.DG>
-12.9701

> <Gold.Chemscore.ZeroCoef>
-5.4800

> <Gold.Chemscore.Hbond>
2.5021

> <Gold.Chemscore.Metal>
0.0000

> <Gold.Chemscore.Lipo>
59.5885

> <Gold.Chemscore.Internal_Hbond>
0.0000

> <Gold.Chemscore.DEClash>
0.0000

> <Gold.Chemscore.DEInternal>
0.9370

> <Gold.Chemscore.Rot>
3.0620

> <Gold.Chemscore.Internal.Correction>
   9.000000E+99

> <Gold.Chemscore.Hbonds>
donor molecule, donor type, donor heavy atom, donor atom, acceptor molecule, acceptor atom, score
      P1  H  6931  6943       L1    17  0.91
      P1  H  6934  6947       L1    17  0.82
      P1  H  7989  7998       L1    21  0.58

> <Gold.Chemscore.Hbond.Weighted>
-8.3569

> <Gold.Chemscore.Metal.Weighted>
-0.0000

> <Gold.Chemscore.Lipo.Weighted>
-6.9718

> <Gold.Chemscore.Internal_Hbond.Weighted>
0.0000

> <Gold.Chemscore.DEClash.Weighted>
0.0000

> <Gold.Chemscore.DEInternal.Weighted>
0.9370

> <Gold.Chemscore.Rot.Weighted>
7.8387

> <Gold.Chemscore.Internal.Correction.Weighted>
   9.000000E+99

> <Gold.Protein.RotatedTorsions>
[ 6907 6896 6895 6894 ] final -102.76 input  -60.11 | X-H torsion
[ 7974 7965 7964 7962 ] final   55.83 input  175.53 | X-H torsion
[ 8008 7997 7996 7995 ] final -152.04 input   59.86 | X-H torsion
[ 10167 10162 10161 10158 ] final   -1.66 input  -65.29 | X-H torsion
[ 10718 10713 10712 10709 ] final  -41.11 input   66.30 | X-H torsion
[ 10763 10752 10751 10750 ] final  153.24 input  -60.55 | X-H torsion
[ 11005 11000 10999 10996 ] final    2.70 input  -57.11 | X-H torsion

> <Gold.Protein.ActiveResidues>
 VAL166  LYS551  ARG553  GLY616  TRP617  ASP618  TYR619  PRO620  LYS621  CYS622 
 ASP623  PHE694  ASN695  SER759  ASP760  ASP761  ALA762  ILE779  LEU786  VAL792 
 PHE793  MET794  SER795  GLU796  ALA797  LYS798  CYS799  TRP800  GLU811  SER814 

> <Gold.Protein.RotatedAtoms>
  150.7210  134.0532  159.3805 H   0  0  0  0  0  0  0  0  0  0  0  0  # atno 6907 bound_to 6896
  151.8510  135.0555  160.0468 H   0  0  0  0  0  0  0  0  0  0  0  0  # atno 6908 bound_to 6896
  152.2790  133.5417  159.5522 H   0  0  0  0  0  0  0  0  0  0  0  0  # atno 6909 bound_to 6896
  145.9463  139.3932  143.0333 H   0  0  0  0  0  0  0  0  0  0  0  0  # atno 7974 bound_to 7965
  155.6489  140.0710  157.2593 H   0  0  0  0  0  0  0  0  0  0  0  0  # atno 8008 bound_to 7997
  154.4167  140.1737  156.1703 H   0  0  0  0  0  0  0  0  0  0  0  0  # atno 8009 bound_to 7997
  155.9793  140.3355  155.6651 H   0  0  0  0  0  0  0  0  0  0  0  0  # atno 8010 bound_to 7997
  140.6819  143.6749  150.8154 H   0  0  0  0  0  0  0  0  0  0  0  0  # atno 10167 bound_to 10162
  156.2739  130.4209  149.8408 H   0  0  0  0  0  0  0  0  0  0  0  0  # atno 10718 bound_to 10713
  154.1329  135.2825  155.3180 H   0  0  0  0  0  0  0  0  0  0  0  0  # atno 10763 bound_to 10752
  154.6342  135.5425  153.7718 H   0  0  0  0  0  0  0  0  0  0  0  0  # atno 10764 bound_to 10752
  153.0275  135.6470  154.1479 H   0  0  0  0  0  0  0  0  0  0  0  0  # atno 10765 bound_to 10752
  140.6014  133.9833  155.8133 H   0  0  0  0  0  0  0  0  0  0  0  0  # atno 11005 bound_to 11000
  145.8232  140.9668  143.0888 LP  0  0  0  0  0  0  0  0  0  0  0  0  # atno 17320 bound_to 7965
  144.6787  140.0068  143.7484 LP  0  0  0  0  0  0  0  0  0  0  0  0  # atno 17321 bound_to 7965
  140.0450  143.5307  152.2700 LP  0  0  0  0  0  0  0  0  0  0  0  0  # atno 17342 bound_to 10162
  139.6148  144.7617  151.2870 LP  0  0  0  0  0  0  0  0  0  0  0  0  # atno 17343 bound_to 10162
  156.5879  130.8494  151.3400 LP  0  0  0  0  0  0  0  0  0  0  0  0  # atno 17370 bound_to 10713
  157.7293  130.9669  150.1781 LP  0  0  0  0  0  0  0  0  0  0  0  0  # atno 17371 bound_to 10713
  141.0870  133.9976  157.3298 LP  0  0  0  0  0  0  0  0  0  0  0  0  # atno 17394 bound_to 11000
  139.9231  135.0201  156.8136 LP  0  0  0  0  0  0  0  0  0  0  0  0  # atno 17395 bound_to 11000

$$$$
