AV-unprocessed.smi:212|AV-procd|sdf|1626|dock1
  -GOLD-   2262019573D 1   1.00000     0.00000
 Structure written by MMmdl.
 65 68  0  0  0  0  0  0  0  0  2 V2000
  144.2411  137.8663  156.9403 C   0  0  0  0  0  0  0  0  0  0  0  0
  145.7288  137.4803  156.8791 C   0  0  1  0  0  0  0  0  0  0  0  0
  145.9851  136.3010  155.9164 C   0  0  0  0  0  0  0  0  0  0  0  0
  145.8568  136.7157  154.4952 N   0  3  2  0  0  0  0  0  0  0  0  0
  145.9709  135.5842  153.5380 C   0  0  0  0  0  0  0  0  0  0  0  0
  145.1368  135.8150  152.2572 C   0  0  0  0  0  0  0  0  0  0  0  0
  145.1779  134.5639  151.3638 C   0  0  0  0  0  0  0  0  0  0  0  0
  143.6786  136.1994  152.5698 C   0  0  0  0  0  0  0  0  0  0  0  0
  145.7250  136.8640  151.5131 O   0  0  0  0  0  0  0  0  0  0  0  0
  146.7409  137.8603  154.1597 C   0  0  0  0  0  0  0  0  0  0  0  0
  146.4970  139.0440  155.1135 C   0  0  0  0  0  0  0  0  0  0  0  0
  146.5700  138.6233  156.5140 N   0  0  0  0  0  0  0  0  0  0  0  0
  147.7599  138.7186  157.1645 C   0  0  0  0  0  0  0  0  0  0  0  0
  148.2236  137.6661  157.8901 N   0  0  0  0  0  0  0  0  0  0  0  0
  149.3868  137.7537  158.5424 C   0  0  0  0  0  0  0  0  0  0  0  0
  150.2339  138.7826  158.6021 N   0  0  0  0  0  0  0  0  0  0  0  0
  149.7789  139.8391  157.8705 C   0  0  0  0  0  0  0  0  0  0  0  0
  148.5659  139.8917  157.1276 C   0  0  0  0  0  0  0  0  0  0  0  0
  148.4491  141.1278  156.5012 N   0  0  0  0  0  0  0  0  0  0  0  0
  149.5281  141.7700  156.8581 C   0  0  0  0  0  0  0  0  0  0  0  0
  150.3772  141.0724  157.6871 N   0  0  0  0  0  0  0  0  0  0  0  0
  151.6404  141.5345  158.2339 C   0  0  0  0  0  0  0  0  0  0  0  0
  151.4770  142.7449  159.1910 C   0  0  2  0  0  0  0  0  0  0  0  0
  150.9967  144.0068  158.4357 C   0  0  0  0  0  0  0  0  0  0  0  0
  149.6107  144.2128  158.6127 O   0  0  0  0  0  0  0  0  0  0  0  0
  152.7522  143.0192  160.0382 C   0  0  1  0  0  0  0  0  0  0  0  0
  152.4606  143.6503  161.4031 C   0  0  0  0  0  0  0  0  0  0  0  0
  153.1686  142.7374  162.4031 C   0  0  0  0  0  0  0  0  0  0  0  0
  153.2359  141.4894  161.7341 O   0  0  0  0  0  0  0  0  0  0  0  0
  153.5797  141.7722  160.3877 C   0  0  0  0  0  0  0  0  0  0  0  0
  143.6344  137.0239  157.2732 H   0  0  0  0  0  0  0  0  0  0  0  0
  143.8575  138.1825  155.9701 H   0  0  0  0  0  0  0  0  0  0  0  0
  144.0801  138.6829  157.6446 H   0  0  0  0  0  0  0  0  0  0  0  0
  145.9959  137.1312  157.8764 H   0  0  0  0  0  0  0  0  0  0  0  0
  146.9896  135.9061  156.0784 H   0  0  0  0  0  0  0  0  0  0  0  0
  145.2893  135.4888  156.1312 H   0  0  0  0  0  0  0  0  0  0  0  0
  147.0177  135.4121  153.2808 H   0  0  0  0  0  0  0  0  0  0  0  0
  145.6368  134.6600  154.0124 H   0  0  0  0  0  0  0  0  0  0  0  0
  144.7373  133.7040  151.8693 H   0  0  0  0  0  0  0  0  0  0  0  0
  146.2012  134.2981  151.0957 H   0  0  0  0  0  0  0  0  0  0  0  0
  144.6251  134.7167  150.4360 H   0  0  0  0  0  0  0  0  0  0  0  0
  143.1855  135.4245  153.1579 H   0  0  0  0  0  0  0  0  0  0  0  0
  143.1002  136.3343  151.6549 H   0  0  0  0  0  0  0  0  0  0  0  0
  143.6141  137.1312  153.1327 H   0  0  0  0  0  0  0  0  0  0  0  0
  145.0392  137.3424  151.0713 H   0  0  0  0  0  0  0  0  0  0  0  0
  147.7817  137.5387  154.2149 H   0  0  0  0  0  0  0  0  0  0  0  0
  146.5625  138.1775  153.1319 H   0  0  0  0  0  0  0  0  0  0  0  0
  147.2009  139.8520  154.9092 H   0  0  0  0  0  0  0  0  0  0  0  0
  145.5074  139.4634  154.9317 H   0  0  0  0  0  0  0  0  0  0  0  0
  149.6810  136.8739  159.0957 H   0  0  0  0  0  0  0  0  0  0  0  0
  149.7331  142.7783  156.5281 H   0  0  0  0  0  0  0  0  0  0  0  0
  152.1034  140.6884  158.7409 H   0  0  0  0  0  0  0  0  0  0  0  0
  152.3000  141.7865  157.4033 H   0  0  0  0  0  0  0  0  0  0  0  0
  150.6851  142.4883  159.8968 H   0  0  0  0  0  0  0  0  0  0  0  0
  151.5384  144.8930  158.7660 H   0  0  0  0  0  0  0  0  0  0  0  0
  151.1694  143.9114  157.3642 H   0  0  0  0  0  0  0  0  0  0  0  0
  149.3537  144.9753  158.1172 H   0  0  0  0  0  0  0  0  0  0  0  0
  153.3952  143.7060  159.4870 H   0  0  0  0  0  0  0  0  0  0  0  0
  152.8293  144.6744  161.4703 H   0  0  0  0  0  0  0  0  0  0  0  0
  151.3918  143.6834  161.6133 H   0  0  0  0  0  0  0  0  0  0  0  0
  154.1792  143.0951  162.6060 H   0  0  0  0  0  0  0  0  0  0  0  0
  152.6357  142.6581  163.3510 H   0  0  0  0  0  0  0  0  0  0  0  0
  153.3929  140.9180  159.7372 H   0  0  0  0  0  0  0  0  0  0  0  0
  154.6466  141.9967  160.3356 H   0  0  0  0  0  0  0  0  0  0  0  0
  144.9120  137.0585  154.3957 H   0  0  0  0  0  0  0  0  0  0  0  0
  1  2  1  0  0  0  0
  1 31  1  0  0  0  0
  1 32  1  0  0  0  0
  1 33  1  0  0  0  0
  2 12  1  0  0  0  0
  2  3  1  0  0  0  0
  2 34  1  0  0  0  0
  3  4  1  0  0  0  0
  3 35  1  0  0  0  0
  3 36  1  0  0  0  0
  4  5  1  0  0  0  0
  4 10  1  0  0  0  0
  4 65  1  0  0  0  0
  5  6  1  0  0  0  0
  5 37  1  0  0  0  0
  5 38  1  0  0  0  0
  6  7  1  0  0  0  0
  6  8  1  0  0  0  0
  6  9  1  0  0  0  0
  7 39  1  0  0  0  0
  7 40  1  0  0  0  0
  7 41  1  0  0  0  0
  8 42  1  0  0  0  0
  8 43  1  0  0  0  0
  8 44  1  0  0  0  0
  9 45  1  0  0  0  0
 10 11  1  0  0  0  0
 10 46  1  0  0  0  0
 10 47  1  0  0  0  0
 11 12  1  0  0  0  0
 11 48  1  0  0  0  0
 11 49  1  0  0  0  0
 12 13  1  0  0  0  0
 13 18  1  0  0  0  0
 13 14  2  0  0  0  0
 14 15  1  0  0  0  0
 15 16  2  0  0  0  0
 15 50  1  0  0  0  0
 16 17  1  0  0  0  0
 17 21  1  0  0  0  0
 17 18  2  0  0  0  0
 18 19  1  0  0  0  0
 19 20  2  0  0  0  0
 20 21  1  0  0  0  0
 20 51  1  0  0  0  0
 21 22  1  0  0  0  0
 22 23  1  0  0  0  0
 22 52  1  0  0  0  0
 22 53  1  0  0  0  0
 23 24  1  0  0  0  0
 23 26  1  0  0  0  0
 23 54  1  0  0  0  0
 24 25  1  0  0  0  0
 24 55  1  0  0  0  0
 24 56  1  0  0  0  0
 25 57  1  0  0  0  0
 26 30  1  0  0  0  0
 26 27  1  0  0  0  0
 26 58  1  0  0  0  0
 27 28  1  0  0  0  0
 27 59  1  0  0  0  0
 27 60  1  0  0  0  0
 28 29  1  0  0  0  0
 28 61  1  0  0  0  0
 28 62  1  0  0  0  0
 29 30  1  0  0  0  0
 30 63  1  0  0  0  0
 30 64  1  0  0  0  0
M  CHG  1   4   1
M  END
> <s_m_source_file>
AV-unprocessed.smi

> <i_m_source_file_index>
212

> <i_lp_mmshare_version>
43012

> <i_f3d_flags>
0

> <s_epik_input>
W0NIM11bQ0BASF0xW0NIMl1OKFtDSDJdQyhbQ0gzXSkoW0NIM10pW09IXSlbQ0gyXVtDSDJdTjFjKG5bY0hdbjIpYyhjMjMpbltjSF1uM1tDSDJdW0NASF0oW0NIMl1bT0hdKVtDQEBIXTRbQ0gyXVtDSDJdT1tDSDJdNA==

> <s_epik_cmdline>
J2VwaWtfcHl0aG9uJywgJy1waCcsICc3LjAnLCAnLXRuJywgJzgnLCAnLW1hJywgJzIwMCcsICctbWV0YWxfYmluZGluZycsICctaW1hZScsICc8aW5maWxlLm1hZT4nLCAnLW9tYWUnLCAnPG91dGZpbGUubWFlPic=

> <r_lp_tautomer_probability>
1

> <r_epik_Ionization_Penalty>
0.00182193

> <r_epik_Ionization_Penalty_Charging>
0.00173996

> <r_epik_Ionization_Penalty_Neutral>
8.19718e-05

> <r_epik_State_Penalty>
-0

> <r_epik_Charging_Adjusted_Penalty>
0.00173996

> <i_epik_Tot_Q>
1

> <i_epik_Tot_abs_Q>
1

> <r_epik_Metal_State_Penalty>
-0

> <b_epik_Metal_Only>
0

> <s_lp_Force_Field>
OPLS_2005

> <r_lp_Energy>
61.088

> <b_lp_Chiralities_Consistent>
1

> <s_lp_Variant>
AV-unprocessed.smi:212-10

> <Gold.Version>
5.8.1

> <Gold.Id.Protein>
6NUR|6NUR_protein|mol2

> <Gold.PLP.Fitness>
47.2516

> <Gold.PLP.PLP>
-41.2526

> <Gold.PLP.part.hbond>
-2.5486

> <Gold.PLP.part.metal>
0.0000

> <Gold.PLP.part.buried>
-6.7289

> <Gold.PLP.part.nonpolar>
-31.8978

> <Gold.PLP.part.repulsive>
0.0906

> <Gold.PLP.ligand.clash>
0.0000

> <Gold.PLP.ligand.torsion>
2.0744

> <Gold.PLP.Chemscore.Hbond>
2.0000

> <Gold.PLP.Chemscore.CHOScore>
1.0000

> <Gold.PLP.Chemscore.Metal>
0.0000

> <Gold.Chemscore.Hbonds>
donor molecule, donor type, donor heavy atom, donor atom, acceptor molecule, acceptor atom, score
      L1  H     9    45       P1 10171  0.78
      L1  H    25    57       P1  8029  0.94
      L1  C    20    51       P1  8028  1.00

> <Gold.PLP.Chemscore.Internal.Correction>
1.1479

> <Gold.Rescore>
     Score         DG    S(hbond)    S(metal)    S(lipo)     H(rot)  DE(clash)    DE(int)     intcor
     11.81     -13.97       1.68        0.00      99.07       3.40       0.08       2.08       ----

> <Gold.Chemscore.Fitness>
11.8075

> <Gold.Chemscore.DG>
-13.9667

> <Gold.Chemscore.ZeroCoef>
-5.4800

> <Gold.Chemscore.Hbond>
1.6755

> <Gold.Chemscore.Metal>
0.0000

> <Gold.Chemscore.Lipo>
99.0688

> <Gold.Chemscore.Internal_Hbond>
0.0000

> <Gold.Chemscore.DEClash>
0.0763

> <Gold.Chemscore.DEInternal>
2.0829

> <Gold.Chemscore.Rot>
3.3986

> <Gold.Chemscore.Internal.Correction>
   9.000000E+99

> <Gold.Chemscore.Hbonds>
donor molecule, donor type, donor heavy atom, donor atom, acceptor molecule, acceptor atom, score
      L1  H     9    45       P1 10171  0.77
      L1  H    25    57       P1  8029  0.27

> <Gold.Chemscore.Hbond.Weighted>
-5.5962

> <Gold.Chemscore.Metal.Weighted>
-0.0000

> <Gold.Chemscore.Lipo.Weighted>
-11.5911

> <Gold.Chemscore.Internal_Hbond.Weighted>
0.0000

> <Gold.Chemscore.DEClash.Weighted>
0.0763

> <Gold.Chemscore.DEInternal.Weighted>
2.0829

> <Gold.Chemscore.Rot.Weighted>
8.7005

> <Gold.Chemscore.Internal.Correction.Weighted>
   9.000000E+99

> <Gold.Protein.RotatedTorsions>
[ 6907 6896 6895 6894 ] final -166.95 input  -60.11 | X-H torsion
[ 7974 7965 7964 7962 ] final  156.80 input  175.53 | X-H torsion
[ 8008 7997 7996 7995 ] final -111.28 input   59.86 | X-H torsion
[ 10167 10162 10161 10158 ] final  -92.73 input  -65.29 | X-H torsion
[ 10718 10713 10712 10709 ] final   29.72 input   66.30 | X-H torsion
[ 10763 10752 10751 10750 ] final -140.64 input  -60.55 | X-H torsion
[ 11005 11000 10999 10996 ] final  -51.30 input  -57.11 | X-H torsion

> <Gold.Protein.ActiveResidues>
 VAL166  LYS551  ARG553  GLY616  TRP617  ASP618  TYR619  PRO620  LYS621  CYS622 
 ASP623  PHE694  ASN695  SER759  ASP760  ASP761  ALA762  ILE779  LEU786  VAL792 
 PHE793  MET794  SER795  GLU796  ALA797  LYS798  CYS799  TRP800  GLU811  SER814 

> <Gold.Protein.RotatedAtoms>
  151.4518  133.3615  159.2796 H   0  0  0  0  0  0  0  0  0  0  0  0  # atno 6907 bound_to 6896
  150.9086  134.8503  159.7420 H   0  0  0  0  0  0  0  0  0  0  0  0  # atno 6908 bound_to 6896
  152.4919  134.4445  159.9606 H   0  0  0  0  0  0  0  0  0  0  0  0  # atno 6909 bound_to 6896
  144.7941  139.7253  143.6209 H   0  0  0  0  0  0  0  0  0  0  0  0  # atno 7974 bound_to 7965
  154.9874  140.0395  157.2304 H   0  0  0  0  0  0  0  0  0  0  0  0  # atno 8008 bound_to 7997
  154.7659  140.2793  155.6154 H   0  0  0  0  0  0  0  0  0  0  0  0  # atno 8009 bound_to 7997
  156.2912  140.2619  156.2449 H   0  0  0  0  0  0  0  0  0  0  0  0  # atno 8010 bound_to 7997
  140.3318  143.2990  151.9933 H   0  0  0  0  0  0  0  0  0  0  0  0  # atno 10167 bound_to 10162
  157.2502  130.7111  149.6402 H   0  0  0  0  0  0  0  0  0  0  0  0  # atno 10718 bound_to 10713
  154.8572  135.3547  154.5739 H   0  0  0  0  0  0  0  0  0  0  0  0  # atno 10763 bound_to 10752
  153.6352  135.7000  153.5266 H   0  0  0  0  0  0  0  0  0  0  0  0  # atno 10764 bound_to 10752
  153.3017  135.4204  155.1217 H   0  0  0  0  0  0  0  0  0  0  0  0  # atno 10765 bound_to 10752
  141.0863  133.6642  156.3857 H   0  0  0  0  0  0  0  0  0  0  0  0  # atno 11005 bound_to 11000
  146.2204  139.5625  142.9622 LP  0  0  0  0  0  0  0  0  0  0  0  0  # atno 17320 bound_to 7965
  145.5718  141.0393  143.2170 LP  0  0  0  0  0  0  0  0  0  0  0  0  # atno 17321 bound_to 7965
  139.4855  144.6229  151.7221 LP  0  0  0  0  0  0  0  0  0  0  0  0  # atno 17342 bound_to 10162
  140.5390  144.0609  150.6081 LP  0  0  0  0  0  0  0  0  0  0  0  0  # atno 17343 bound_to 10162
  155.9666  130.4430  150.5403 LP  0  0  0  0  0  0  0  0  0  0  0  0  # atno 17370 bound_to 10713
  157.3285  131.0695  151.1878 LP  0  0  0  0  0  0  0  0  0  0  0  0  # atno 17371 bound_to 10713
  140.5355  134.6171  157.5363 LP  0  0  0  0  0  0  0  0  0  0  0  0  # atno 17394 bound_to 11000
  139.9682  134.7337  156.0095 LP  0  0  0  0  0  0  0  0  0  0  0  0  # atno 17395 bound_to 11000

$$$$
