AV-unprocessed.smi:2706|AV-procd|sdf|10444|dock10
  -GOLD-   2272014483D 1   1.00000     0.00000
 Structure written by MMmdl.
 43 46  0  0  0  0  0  0  0  0  1 V2000
  145.3951  131.6354  151.6797 C   0  0  0  0  0  0  0  0  0  0  0  0
  146.2524  130.6278  152.2915 N   0  0  0  0  0  0  0  0  0  0  0  0
  145.9525  129.2103  152.1147 C   0  0  0  0  0  0  0  0  0  0  0  0
  147.4042  131.0165  153.0128 C   0  0  0  0  0  0  0  0  0  0  0  0
  148.2185  130.0683  153.6776 C   0  0  0  0  0  0  0  0  0  0  0  0
  149.3507  130.5175  154.3804 C   0  0  0  0  0  0  0  0  0  0  0  0
  149.6390  131.8937  154.4016 C   0  0  0  0  0  0  0  0  0  0  0  0
  148.7875  132.7859  153.7171 C   0  0  0  0  0  0  0  0  0  0  0  0
  149.1568  134.1550  153.7950 N   0  0  0  0  0  0  0  0  0  0  0  0
  149.7461  134.8001  154.8175 C   0  0  0  0  0  0  0  0  0  0  0  0
  150.0604  134.2909  155.8941 O   0  0  0  0  0  0  0  0  0  0  0  0
  149.9525  136.0902  154.5185 N   0  0  0  0  0  0  0  0  0  0  0  0
  150.5472  137.0578  155.3825 C   0  0  2  0  0  0  0  0  0  0  0  0
  149.7850  138.3505  155.5913 C   0  0  1  0  0  0  0  0  0  0  0  0
  150.0766  139.4336  156.6271 C   0  0  1  0  0  0  0  0  0  0  0  0
  151.1488  138.9709  157.6352 C   0  0  0  0  0  0  0  0  0  0  0  0
  152.4315  138.9565  156.7741 C   0  0  0  0  0  0  0  0  0  0  0  0
  151.9117  139.4130  155.3949 C   0  0  2  0  0  0  0  0  0  0  0  0
  150.8704  140.4477  155.8092 C   0  0  0  0  0  0  0  0  0  0  0  0
  151.0459  138.3372  154.7436 C   0  0  1  0  0  0  0  0  0  0  0  0
  147.6998  132.3386  153.0439 N   0  0  0  0  0  0  0  0  0  0  0  0
  144.9746  132.2935  152.4404 H   0  0  0  0  0  0  0  0  0  0  0  0
  144.5651  131.1767  151.1421 H   0  0  0  0  0  0  0  0  0  0  0  0
  145.9597  132.2381  150.9675 H   0  0  0  0  0  0  0  0  0  0  0  0
  145.8300  128.7207  153.0813 H   0  0  0  0  0  0  0  0  0  0  0  0
  146.7592  128.7126  151.5753 H   0  0  0  0  0  0  0  0  0  0  0  0
  145.0324  129.0645  151.5486 H   0  0  0  0  0  0  0  0  0  0  0  0
  147.9994  129.0114  153.6624 H   0  0  0  0  0  0  0  0  0  0  0  0
  149.9890  129.8159  154.8966 H   0  0  0  0  0  0  0  0  0  0  0  0
  150.5048  132.2545  154.9376 H   0  0  0  0  0  0  0  0  0  0  0  0
  148.9492  134.7070  152.9762 H   0  0  0  0  0  0  0  0  0  0  0  0
  149.6616  136.4171  153.6089 H   0  0  0  0  0  0  0  0  0  0  0  0
  151.1078  136.6633  156.2265 H   0  0  0  0  0  0  0  0  0  0  0  0
  148.8529  138.4834  155.0444 H   0  0  0  0  0  0  0  0  0  0  0  0
  149.1673  139.8223  157.0861 H   0  0  0  0  0  0  0  0  0  0  0  0
  151.2462  139.6890  158.4506 H   0  0  0  0  0  0  0  0  0  0  0  0
  150.9179  138.0018  158.0780 H   0  0  0  0  0  0  0  0  0  0  0  0
  153.1602  139.6672  157.1661 H   0  0  0  0  0  0  0  0  0  0  0  0
  152.9134  137.9791  156.7386 H   0  0  0  0  0  0  0  0  0  0  0  0
  152.6866  139.7827  154.7229 H   0  0  0  0  0  0  0  0  0  0  0  0
  150.3090  140.8554  154.9665 H   0  0  0  0  0  0  0  0  0  0  0  0
  151.2771  141.2698  156.4013 H   0  0  0  0  0  0  0  0  0  0  0  0
  150.8948  138.4606  153.6725 H   0  0  0  0  0  0  0  0  0  0  0  0
  1  2  1  0  0  0  0
  1 22  1  0  0  0  0
  1 23  1  0  0  0  0
  1 24  1  0  0  0  0
  2  3  1  0  0  0  0
  2  4  1  0  0  0  0
  3 25  1  0  0  0  0
  3 26  1  0  0  0  0
  3 27  1  0  0  0  0
  4 21  1  0  0  0  0
  4  5  2  0  0  0  0
  5  6  1  0  0  0  0
  5 28  1  0  0  0  0
  6  7  2  0  0  0  0
  6 29  1  0  0  0  0
  7  8  1  0  0  0  0
  7 30  1  0  0  0  0
  8  9  1  0  0  0  0
  8 21  2  0  0  0  0
  9 10  1  0  0  0  0
  9 31  1  0  0  0  0
 10 11  2  0  0  0  0
 10 12  1  0  0  0  0
 12 13  1  0  0  0  0
 12 32  1  0  0  0  0
 13 20  1  0  0  0  0
 13 14  1  0  0  0  0
 13 33  1  0  0  0  0
 14 20  1  0  0  0  0
 14 15  1  0  0  0  0
 14 34  1  0  0  0  0
 15 19  1  0  0  0  0
 15 16  1  0  0  0  0
 15 35  1  0  0  0  0
 16 17  1  0  0  0  0
 16 36  1  0  0  0  0
 16 37  1  0  0  0  0
 17 18  1  0  0  0  0
 17 38  1  0  0  0  0
 17 39  1  0  0  0  0
 18 19  1  0  0  0  0
 18 20  1  0  0  0  0
 18 40  1  0  0  0  0
 19 41  1  0  0  0  0
 19 42  1  0  0  0  0
 20 43  1  0  0  0  0
M  END
> <s_m_source_file>
AV-unprocessed.smi

> <i_m_source_file_index>
2706

> <i_lp_mmshare_version>
43012

> <i_f3d_flags>
0

> <s_epik_input>
W0NIM11OKFtDSDNdKWMxW2NIXVtjSF1bY0hdYyhuMSlbTkhdQyg9TylbTkhdW0NASF0yW0NAQEhdM1tDQEBIXShbQ0gyXTQpW0NIMl1bQ0gyXVtDQEBIXTRbQ0BIXTIz

> <s_epik_cmdline>
J2VwaWtfcHl0aG9uJywgJy1waCcsICc3LjAnLCAnLXRuJywgJzgnLCAnLW1hJywgJzIwMCcsICctbWV0YWxfYmluZGluZycsICctaW1hZScsICc8aW5maWxlLm1hZT4nLCAnLW9tYWUnLCAnPG91dGZpbGUubWFlPic=

> <r_lp_tautomer_probability>
1

> <r_epik_Ionization_Penalty>
0.0296788

> <r_epik_Ionization_Penalty_Charging>
0

> <r_epik_Ionization_Penalty_Neutral>
0.0296788

> <r_epik_State_Penalty>
0.0248512

> <r_epik_Charging_Adjusted_Penalty>
0.0248512

> <i_epik_Tot_Q>
0

> <i_epik_Tot_abs_Q>
0

> <r_epik_Metal_State_Penalty>
0.0237882

> <b_epik_Metal_Only>
0

> <s_lp_Force_Field>
OPLS_2005

> <r_lp_Energy>
79.5337

> <b_lp_Chiralities_Consistent>
1

> <s_lp_Variant>
AV-unprocessed.smi:2706-1

> <Gold.Version>
5.8.1

> <Gold.Id.Protein>
6NUR|6NUR_protein|mol2

> <Gold.PLP.Fitness>
40.5691

> <Gold.PLP.PLP>
-36.3466

> <Gold.PLP.part.hbond>
-2.4360

> <Gold.PLP.part.metal>
0.0000

> <Gold.PLP.part.buried>
-1.5608

> <Gold.PLP.part.nonpolar>
-31.5237

> <Gold.PLP.part.repulsive>
0.2182

> <Gold.PLP.ligand.clash>
0.0000

> <Gold.PLP.ligand.torsion>
0.3835

> <Gold.PLP.Chemscore.Hbond>
1.6500

> <Gold.PLP.Chemscore.CHOScore>
0.0000

> <Gold.PLP.Chemscore.Metal>
0.0000

> <Gold.Chemscore.Hbonds>
donor molecule, donor type, donor heavy atom, donor atom, acceptor molecule, acceptor atom, score
      L1  H     9    31       P1  7948  0.65
      L1  H    12    32       P1  7948  1.00

> <Gold.PLP.Chemscore.Internal.Correction>
0.0397

> <Gold.Rescore>
     Score         DG    S(hbond)    S(metal)    S(lipo)     H(rot)  DE(clash)    DE(int)     intcor
     13.75     -15.46       1.11        0.00      75.35       1.00       0.06       1.65       ----

> <Gold.Chemscore.Fitness>
13.7463

> <Gold.Chemscore.DG>
-15.4574

> <Gold.Chemscore.ZeroCoef>
-5.4800

> <Gold.Chemscore.Hbond>
1.1141

> <Gold.Chemscore.Metal>
0.0000

> <Gold.Chemscore.Lipo>
75.3535

> <Gold.Chemscore.Internal_Hbond>
0.0000

> <Gold.Chemscore.DEClash>
0.0621

> <Gold.Chemscore.DEInternal>
1.6491

> <Gold.Chemscore.Rot>
1.0000

> <Gold.Chemscore.Internal.Correction>
   9.000000E+99

> <Gold.Chemscore.Hbonds>
donor molecule, donor type, donor heavy atom, donor atom, acceptor molecule, acceptor atom, score
      L1  H     9    31       P1  7948  0.06
      L1  H    12    32       P1  7948  0.49

> <Gold.Chemscore.Hbond.Weighted>
-3.7211

> <Gold.Chemscore.Metal.Weighted>
-0.0000

> <Gold.Chemscore.Lipo.Weighted>
-8.8164

> <Gold.Chemscore.Internal_Hbond.Weighted>
0.0000

> <Gold.Chemscore.DEClash.Weighted>
0.0621

> <Gold.Chemscore.DEInternal.Weighted>
1.6491

> <Gold.Chemscore.Rot.Weighted>
2.5600

> <Gold.Chemscore.Internal.Correction.Weighted>
   9.000000E+99

> <Gold.Protein.RotatedTorsions>
[ 6907 6896 6895 6894 ] final -119.81 input  -60.11 | X-H torsion
[ 7974 7965 7964 7962 ] final  159.43 input  175.53 | X-H torsion
[ 8008 7997 7996 7995 ] final  151.84 input   59.86 | X-H torsion
[ 10167 10162 10161 10158 ] final -156.37 input  -65.29 | X-H torsion
[ 10718 10713 10712 10709 ] final  164.13 input   66.30 | X-H torsion
[ 10763 10752 10751 10750 ] final -102.24 input  -60.55 | X-H torsion
[ 11005 11000 10999 10996 ] final -171.34 input  -57.11 | X-H torsion

> <Gold.Protein.ActiveResidues>
 VAL166  LYS551  ARG553  GLY616  TRP617  ASP618  TYR619  PRO620  LYS621  CYS622 
 ASP623  PHE694  ASN695  SER759  ASP760  ASP761  ALA762  ILE779  LEU786  VAL792 
 PHE793  MET794  SER795  GLU796  ALA797  LYS798  CYS799  TRP800  GLU811  SER814 

> <Gold.Protein.RotatedAtoms>
  150.8337  133.8048  159.3087 H   0  0  0  0  0  0  0  0  0  0  0  0  # atno 6907 bound_to 6896
  151.5770  135.1058  160.0018 H   0  0  0  0  0  0  0  0  0  0  0  0  # atno 6908 bound_to 6896
  152.4413  133.7411  159.6698 H   0  0  0  0  0  0  0  0  0  0  0  0  # atno 6909 bound_to 6896
  144.7790  139.7617  143.6267 H   0  0  0  0  0  0  0  0  0  0  0  0  # atno 7974 bound_to 7965
  156.2656  140.2037  156.6240 H   0  0  0  0  0  0  0  0  0  0  0  0  # atno 8008 bound_to 7997
  154.6735  140.0547  157.0215 H   0  0  0  0  0  0  0  0  0  0  0  0  # atno 8009 bound_to 7997
  155.1103  140.3215  155.4526 H   0  0  0  0  0  0  0  0  0  0  0  0  # atno 8010 bound_to 7997
  139.6856  143.9507  152.2359 H   0  0  0  0  0  0  0  0  0  0  0  0  # atno 10167 bound_to 10162
  157.0988  131.0437  151.2507 H   0  0  0  0  0  0  0  0  0  0  0  0  # atno 10718 bound_to 10713
  154.7719  135.4868  153.9666 H   0  0  0  0  0  0  0  0  0  0  0  0  # atno 10763 bound_to 10752
  153.1379  135.6766  153.9081 H   0  0  0  0  0  0  0  0  0  0  0  0  # atno 10764 bound_to 10752
  153.8765  135.3137  155.3422 H   0  0  0  0  0  0  0  0  0  0  0  0  # atno 10765 bound_to 10752
  140.5093  134.5817  157.5014 H   0  0  0  0  0  0  0  0  0  0  0  0  # atno 11005 bound_to 11000
  146.1988  139.5270  142.9757 LP  0  0  0  0  0  0  0  0  0  0  0  0  # atno 17320 bound_to 7965
  145.6103  141.0341  143.1970 LP  0  0  0  0  0  0  0  0  0  0  0  0  # atno 17321 bound_to 7965
  139.9309  144.6742  150.8364 LP  0  0  0  0  0  0  0  0  0  0  0  0  # atno 17342 bound_to 10162
  140.7666  143.3309  151.2412 LP  0  0  0  0  0  0  0  0  0  0  0  0  # atno 17343 bound_to 10162
  157.4659  130.7680  149.7278 LP  0  0  0  0  0  0  0  0  0  0  0  0  # atno 17370 bound_to 10713
  155.9879  130.3963  150.3144 LP  0  0  0  0  0  0  0  0  0  0  0  0  # atno 17371 bound_to 10713
  139.9668  134.7360  156.0123 LP  0  0  0  0  0  0  0  0  0  0  0  0  # atno 17394 bound_to 11000
  141.1394  133.6568  156.3685 LP  0  0  0  0  0  0  0  0  0  0  0  0  # atno 17395 bound_to 11000

$$$$
