AV-unprocessed.smi:942|AV-procd|sdf|4223|dock2
  -GOLD-   22720 2133D 1   1.00000     0.00000
 Structure written by MMmdl.
 43 45  0  0  0  0  0  0  0  0  2 V2000
  152.2965  140.2003  156.5608 O   0  0  0  0  0  0  0  0  0  0  0  0
  151.3559  140.3930  157.3321 C   0  0  0  0  0  0  0  0  0  0  0  0
  150.2387  139.6484  157.3287 N   0  0  0  0  0  0  0  0  0  0  0  0
  149.9689  138.5208  156.4334 C   0  0  2  0  0  0  0  0  0  0  0  0
  151.2144  137.6131  156.3440 C   0  0  0  0  0  0  0  0  0  0  0  0
  151.6808  137.6354  154.8812 C   0  0  0  0  0  0  0  0  0  0  0  0
  151.0445  138.8833  154.2739 C   0  0  0  0  0  0  0  0  0  0  0  0
  149.6852  138.9543  154.9750 C   0  0  2  0  0  0  0  0  0  0  0  0
  148.9597  140.2283  154.8132 N   0  0  0  0  0  0  0  0  0  0  0  0
  147.6585  140.4345  154.4209 C   0  0  0  0  0  0  0  0  0  0  0  0
  147.4711  141.7917  154.3765 C   0  0  0  0  0  0  0  0  0  0  0  0
  148.6640  142.3594  154.7321 N   0  3  0  0  0  0  0  0  0  0  0  0
  149.5667  141.4094  154.9937 C   0  0  0  0  0  0  0  0  0  0  0  0
  151.4327  141.5073  158.3835 C   0  0  0  0  0  0  0  0  0  0  0  0
  151.4727  142.9002  157.7186 C   0  0  0  0  0  0  0  0  0  0  0  0
  151.5765  144.0191  158.7680 C   0  0  0  0  0  0  0  0  0  0  0  0
  152.7977  143.8163  159.6787 C   0  0  0  0  0  0  0  0  0  0  0  0
  152.7722  142.4304  160.3421 C   0  0  0  0  0  0  0  0  0  0  0  0
  152.6649  141.3119  159.2930 C   0  0  0  0  0  0  0  0  0  0  0  0
  149.5175  139.8788  157.9970 H   0  0  0  0  0  0  0  0  0  0  0  0
  149.1250  137.9437  156.8164 H   0  0  0  0  0  0  0  0  0  0  0  0
  152.0142  137.9712  156.9942 H   0  0  0  0  0  0  0  0  0  0  0  0
  150.9867  136.5942  156.6591 H   0  0  0  0  0  0  0  0  0  0  0  0
  152.7672  137.6342  154.7884 H   0  0  0  0  0  0  0  0  0  0  0  0
  151.3065  136.7499  154.3659 H   0  0  0  0  0  0  0  0  0  0  0  0
  151.6607  139.7487  154.5184 H   0  0  0  0  0  0  0  0  0  0  0  0
  150.9579  138.8239  153.1884 H   0  0  0  0  0  0  0  0  0  0  0  0
  149.0572  138.1852  154.5207 H   0  0  0  0  0  0  0  0  0  0  0  0
  146.9758  139.6278  154.2001 H   0  0  0  0  0  0  0  0  0  0  0  0
  146.6032  142.3804  154.1175 H   0  0  0  0  0  0  0  0  0  0  0  0
  150.5910  141.5660  155.2825 H   0  0  0  0  0  0  0  0  0  0  0  0
  150.5376  141.4549  159.0062 H   0  0  0  0  0  0  0  0  0  0  0  0
  152.3235  142.9697  157.0389 H   0  0  0  0  0  0  0  0  0  0  0  0
  150.5799  143.0535  157.1109 H   0  0  0  0  0  0  0  0  0  0  0  0
  151.6404  144.9881  158.2722 H   0  0  0  0  0  0  0  0  0  0  0  0
  150.6689  144.0398  159.3724 H   0  0  0  0  0  0  0  0  0  0  0  0
  153.7117  143.9248  159.0932 H   0  0  0  0  0  0  0  0  0  0  0  0
  152.8255  144.5939  160.4427 H   0  0  0  0  0  0  0  0  0  0  0  0
  153.6703  142.2900  160.9444 H   0  0  0  0  0  0  0  0  0  0  0  0
  151.9270  142.3694  161.0286 H   0  0  0  0  0  0  0  0  0  0  0  0
  152.6087  140.3475  159.7987 H   0  0  0  0  0  0  0  0  0  0  0  0
  153.5766  141.2934  158.6938 H   0  0  0  0  0  0  0  0  0  0  0  0
  148.8432  143.3545  154.7823 H   0  0  0  0  0  0  0  0  0  0  0  0
  1  2  2  0  0  0  0
  2  3  1  0  0  0  0
  2 14  1  0  0  0  0
  3  4  1  0  0  0  0
  3 20  1  0  0  0  0
  4  8  1  0  0  0  0
  4  5  1  0  0  0  0
  4 21  1  0  0  0  0
  5  6  1  0  0  0  0
  5 22  1  0  0  0  0
  5 23  1  0  0  0  0
  6  7  1  0  0  0  0
  6 24  1  0  0  0  0
  6 25  1  0  0  0  0
  7  8  1  0  0  0  0
  7 26  1  0  0  0  0
  7 27  1  0  0  0  0
  8  9  1  0  0  0  0
  8 28  1  0  0  0  0
  9 13  1  0  0  0  0
  9 10  1  0  0  0  0
 10 11  2  0  0  0  0
 10 29  1  0  0  0  0
 11 12  1  0  0  0  0
 11 30  1  0  0  0  0
 12 13  2  0  0  0  0
 12 43  1  0  0  0  0
 13 31  1  0  0  0  0
 14 19  1  0  0  0  0
 14 15  1  0  0  0  0
 14 32  1  0  0  0  0
 15 16  1  0  0  0  0
 15 33  1  0  0  0  0
 15 34  1  0  0  0  0
 16 17  1  0  0  0  0
 16 35  1  0  0  0  0
 16 36  1  0  0  0  0
 17 18  1  0  0  0  0
 17 37  1  0  0  0  0
 17 38  1  0  0  0  0
 18 19  1  0  0  0  0
 18 39  1  0  0  0  0
 18 40  1  0  0  0  0
 19 41  1  0  0  0  0
 19 42  1  0  0  0  0
M  CHG  1  12   1
M  END
> <s_m_source_file>
AV-unprocessed.smi

> <i_m_source_file_index>
942

> <i_lp_mmshare_version>
43012

> <i_f3d_flags>
0

> <s_epik_input>
W0NIMl0xW0NIMl1bQ0gyXVtDSDJdW0NIMl1bQ0hdMUMoPU8pW05IXVtDQEBIXTJbQ0gyXVtDSDJdW0NIMl1bQ0BIXTJuM1tjSF1bY0hdbltjSF0z

> <s_epik_cmdline>
J2VwaWtfcHl0aG9uJywgJy1waCcsICc3LjAnLCAnLXRuJywgJzgnLCAnLW1hJywgJzIwMCcsICctbWV0YWxfYmluZGluZycsICctaW1hZScsICc8aW5maWxlLm1hZT4nLCAnLW9tYWUnLCAnPG91dGZpbGUubWFlPic=

> <r_lp_tautomer_probability>
1

> <r_epik_Ionization_Penalty>
0.185467

> <r_epik_Ionization_Penalty_Charging>
0

> <r_epik_Ionization_Penalty_Neutral>
0.185467

> <r_epik_State_Penalty>
0.175036

> <r_epik_Charging_Adjusted_Penalty>
0.175036

> <i_epik_Tot_Q>
1

> <i_epik_Tot_abs_Q>
1

> <r_epik_Metal_State_Penalty>
0.487091

> <b_epik_Metal_Only>
0

> <s_lp_Force_Field>
OPLS_2005

> <r_lp_Energy>
33.7474

> <b_lp_Chiralities_Consistent>
1

> <s_lp_Variant>
AV-unprocessed.smi:942-3

> <Gold.Version>
5.8.1

> <Gold.Id.Protein>
6NUR|6NUR_protein|mol2

> <Gold.PLP.Fitness>
45.8803

> <Gold.PLP.PLP>
-37.8537

> <Gold.PLP.part.hbond>
-1.9824

> <Gold.PLP.part.metal>
0.0000

> <Gold.PLP.part.buried>
-4.2615

> <Gold.PLP.part.nonpolar>
-32.3493

> <Gold.PLP.part.repulsive>
0.4990

> <Gold.PLP.ligand.clash>
0.0000

> <Gold.PLP.ligand.torsion>
0.4763

> <Gold.PLP.Chemscore.Hbond>
2.9753

> <Gold.PLP.Chemscore.CHOScore>
0.0000

> <Gold.PLP.Chemscore.Metal>
0.0000

> <Gold.Chemscore.Hbonds>
donor molecule, donor type, donor heavy atom, donor atom, acceptor molecule, acceptor atom, score
      L1  H    12    43       P1  8028  2.00
      P1  H  7997  8010       L1     1  0.98

> <Gold.PLP.Chemscore.Internal.Correction>
0.0534

> <Gold.Rescore>
     Score         DG    S(hbond)    S(metal)    S(lipo)     H(rot)  DE(clash)    DE(int)     intcor
     15.68     -19.85       1.85        0.00     102.40       1.48       0.04       4.12       ----

> <Gold.Chemscore.Fitness>
15.6836

> <Gold.Chemscore.DG>
-19.8490

> <Gold.Chemscore.ZeroCoef>
-5.4800

> <Gold.Chemscore.Hbond>
1.8485

> <Gold.Chemscore.Metal>
0.0000

> <Gold.Chemscore.Lipo>
102.4039

> <Gold.Chemscore.Internal_Hbond>
0.0000

> <Gold.Chemscore.DEClash>
0.0446

> <Gold.Chemscore.DEInternal>
4.1209

> <Gold.Chemscore.Rot>
1.4790

> <Gold.Chemscore.Internal.Correction>
   9.000000E+99

> <Gold.Chemscore.Hbonds>
donor molecule, donor type, donor heavy atom, donor atom, acceptor molecule, acceptor atom, score
      L1  H    12    43       P1  8028  0.93
      P1  H  7997  8010       L1     1  0.89

> <Gold.Chemscore.Hbond.Weighted>
-6.1741

> <Gold.Chemscore.Metal.Weighted>
-0.0000

> <Gold.Chemscore.Lipo.Weighted>
-11.9813

> <Gold.Chemscore.Internal_Hbond.Weighted>
0.0000

> <Gold.Chemscore.DEClash.Weighted>
0.0446

> <Gold.Chemscore.DEInternal.Weighted>
4.1209

> <Gold.Chemscore.Rot.Weighted>
3.7863

> <Gold.Chemscore.Internal.Correction.Weighted>
   9.000000E+99

> <Gold.Protein.RotatedTorsions>
[ 6907 6896 6895 6894 ] final   91.37 input  -60.11 | X-H torsion
[ 7974 7965 7964 7962 ] final   54.84 input  175.53 | X-H torsion
[ 8008 7997 7996 7995 ] final   72.80 input   59.86 | X-H torsion
[ 10167 10162 10161 10158 ] final  -46.15 input  -65.29 | X-H torsion
[ 10718 10713 10712 10709 ] final -125.27 input   66.30 | X-H torsion
[ 10763 10752 10751 10750 ] final -158.03 input  -60.55 | X-H torsion
[ 11005 11000 10999 10996 ] final  145.32 input  -57.11 | X-H torsion

> <Gold.Protein.ActiveResidues>
 VAL166  LYS551  ARG553  GLY616  TRP617  ASP618  TYR619  PRO620  LYS621  CYS622 
 ASP623  PHE694  ASN695  SER759  ASP760  ASP761  ALA762  ILE779  LEU786  VAL792 
 PHE793  MET794  SER795  GLU796  ALA797  LYS798  CYS799  TRP800  GLU811  SER814 

> <Gold.Protein.RotatedAtoms>
  152.5449  134.1667  159.8579 H   0  0  0  0  0  0  0  0  0  0  0  0  # atno 6907 bound_to 6896
  151.1680  133.4795  159.2601 H   0  0  0  0  0  0  0  0  0  0  0  0  # atno 6908 bound_to 6896
  151.1304  135.0138  159.8635 H   0  0  0  0  0  0  0  0  0  0  0  0  # atno 6909 bound_to 6896
  145.9566  139.4021  143.0273 H   0  0  0  0  0  0  0  0  0  0  0  0  # atno 7974 bound_to 7965
  155.7742  140.3483  155.5263 H   0  0  0  0  0  0  0  0  0  0  0  0  # atno 8008 bound_to 7997
  155.8792  140.0999  157.1517 H   0  0  0  0  0  0  0  0  0  0  0  0  # atno 8009 bound_to 7997
  154.4023  140.1325  156.4163 H   0  0  0  0  0  0  0  0  0  0  0  0  # atno 8010 bound_to 7997
  140.6829  143.2845  151.3741 H   0  0  0  0  0  0  0  0  0  0  0  0  # atno 10167 bound_to 10162
  156.1660  130.6635  151.0116 H   0  0  0  0  0  0  0  0  0  0  0  0  # atno 10718 bound_to 10713
  154.7589  135.3112  154.8416 H   0  0  0  0  0  0  0  0  0  0  0  0  # atno 10763 bound_to 10752
  153.9183  135.6798  153.4753 H   0  0  0  0  0  0  0  0  0  0  0  0  # atno 10764 bound_to 10752
  153.1188  135.4832  154.9091 H   0  0  0  0  0  0  0  0  0  0  0  0  # atno 10765 bound_to 10752
  140.0702  134.9156  157.1333 H   0  0  0  0  0  0  0  0  0  0  0  0  # atno 11005 bound_to 11000
  145.8097  140.9732  143.0955 LP  0  0  0  0  0  0  0  0  0  0  0  0  # atno 17320 bound_to 7965
  144.6806  139.9906  143.7484 LP  0  0  0  0  0  0  0  0  0  0  0  0  # atno 17321 bound_to 7965
  139.6165  144.0993  152.2350 LP  0  0  0  0  0  0  0  0  0  0  0  0  # atno 17342 bound_to 10162
  140.0423  144.5997  150.7401 LP  0  0  0  0  0  0  0  0  0  0  0  0  # atno 17343 bound_to 10162
  157.6768  131.0848  150.7473 LP  0  0  0  0  0  0  0  0  0  0  0  0  # atno 17370 bound_to 10713
  156.7534  130.4775  149.5452 LP  0  0  0  0  0  0  0  0  0  0  0  0  # atno 17371 bound_to 10713
  140.3638  134.2465  155.7184 LP  0  0  0  0  0  0  0  0  0  0  0  0  # atno 17394 bound_to 11000
  141.2009  133.7976  157.0467 LP  0  0  0  0  0  0  0  0  0  0  0  0  # atno 17395 bound_to 11000

$$$$
