AV-unprocessed.smi:1057|AV-procd|sdf|4651|dock5
  -GOLD-   22720 3163D 1   1.00000     0.00000
 Structure written by MMmdl.
 45 46  0  0  0  0  0  0  0  0  2 V2000
  147.8005  136.9420  163.4363 C   0  0  0  0  0  0  0  0  0  0  0  0
  147.4975  135.9755  162.7544 C   0  0  0  0  0  0  0  0  0  0  0  0
  147.1297  134.8203  161.9224 C   0  0  0  0  0  0  0  0  0  0  0  0
  147.6975  134.9120  160.5857 N   0  0  0  0  0  0  0  0  0  0  0  0
  147.7360  136.0358  159.8560 C   0  0  0  0  0  0  0  0  0  0  0  0
  147.2949  137.1142  160.2568 O   0  0  0  0  0  0  0  0  0  0  0  0
  148.3923  135.9172  158.4751 C   0  0  0  0  0  0  0  0  0  0  0  0
  148.5339  137.2056  157.8006 N   0  0  0  0  0  0  0  0  0  0  0  0
  149.3381  138.2012  158.2006 C   0  0  0  0  0  0  0  0  0  0  0  0
  150.0336  138.1496  159.2148 O   0  0  0  0  0  0  0  0  0  0  0  0
  149.2985  139.2343  157.3431 N   0  0  0  0  0  0  0  0  0  0  0  0
  150.0178  140.4606  157.4145 C   0  0  0  0  0  0  0  0  0  0  0  0
  151.1768  140.6211  158.2159 C   0  0  0  0  0  0  0  0  0  0  0  0
  151.8269  141.8708  158.2602 C   0  0  0  0  0  0  0  0  0  0  0  0
  151.3053  142.9421  157.5112 C   0  0  0  0  0  0  0  0  0  0  0  0
  150.1925  142.7611  156.7691 N   0  3  0  0  0  0  0  0  0  0  0  0
  149.5320  141.5800  156.6925 C   0  0  0  0  0  0  0  0  0  0  0  0
  148.3824  141.5034  155.8900 N   0  0  0  0  0  0  0  0  0  0  0  0
  147.2697  142.3040  156.3936 C   0  0  0  0  0  0  0  0  0  0  0  0
  145.9797  141.9915  155.6157 C   0  0  0  0  0  0  0  0  0  0  0  0
  146.1939  142.1638  154.1030 C   0  0  0  0  0  0  0  0  0  0  0  0
  147.3952  141.3256  153.6359 C   0  0  0  0  0  0  0  0  0  0  0  0
  148.6500  141.6559  154.4623 C   0  0  0  0  0  0  0  0  0  0  0  0
  148.0665  137.7889  164.0284 H   0  0  0  0  0  0  0  0  0  0  0  0
  147.4798  133.9157  162.4216 H   0  0  0  0  0  0  0  0  0  0  0  0
  146.0415  134.7723  161.8654 H   0  0  0  0  0  0  0  0  0  0  0  0
  148.0838  134.0672  160.1897 H   0  0  0  0  0  0  0  0  0  0  0  0
  149.3853  135.4849  158.5996 H   0  0  0  0  0  0  0  0  0  0  0  0
  147.8254  135.2235  157.8514 H   0  0  0  0  0  0  0  0  0  0  0  0
  148.0050  137.3298  156.9498 H   0  0  0  0  0  0  0  0  0  0  0  0
  148.7619  139.0918  156.4998 H   0  0  0  0  0  0  0  0  0  0  0  0
  151.5700  139.8099  158.8097 H   0  0  0  0  0  0  0  0  0  0  0  0
  152.7109  142.0061  158.8662 H   0  0  0  0  0  0  0  0  0  0  0  0
  151.7371  143.9322  157.4885 H   0  0  0  0  0  0  0  0  0  0  0  0
  147.1207  142.1036  157.4555 H   0  0  0  0  0  0  0  0  0  0  0  0
  147.5123  143.3633  156.2985 H   0  0  0  0  0  0  0  0  0  0  0  0
  145.6667  140.9676  155.8250 H   0  0  0  0  0  0  0  0  0  0  0  0
  145.1710  142.6385  155.9563 H   0  0  0  0  0  0  0  0  0  0  0  0
  145.2956  141.8713  153.5586 H   0  0  0  0  0  0  0  0  0  0  0  0
  146.3697  143.2157  153.8744 H   0  0  0  0  0  0  0  0  0  0  0  0
  147.1608  140.2649  153.7365 H   0  0  0  0  0  0  0  0  0  0  0  0
  147.5869  141.5019  152.5772 H   0  0  0  0  0  0  0  0  0  0  0  0
  148.9683  142.6791  154.2577 H   0  0  0  0  0  0  0  0  0  0  0  0
  149.4710  141.0001  154.1692 H   0  0  0  0  0  0  0  0  0  0  0  0
  149.8310  143.5546  156.2394 H   0  0  0  0  0  0  0  0  0  0  0  0
  1  2  3  0  0  0  0
  1 24  1  0  0  0  0
  2  3  1  0  0  0  0
  3  4  1  0  0  0  0
  3 25  1  0  0  0  0
  3 26  1  0  0  0  0
  4  5  1  0  0  0  0
  4 27  1  0  0  0  0
  5  6  2  0  0  0  0
  5  7  1  0  0  0  0
  7  8  1  0  0  0  0
  7 28  1  0  0  0  0
  7 29  1  0  0  0  0
  8  9  1  0  0  0  0
  8 30  1  0  0  0  0
  9 10  2  0  0  0  0
  9 11  1  0  0  0  0
 11 12  1  0  0  0  0
 11 31  1  0  0  0  0
 12 17  1  0  0  0  0
 12 13  2  0  0  0  0
 13 14  1  0  0  0  0
 13 32  1  0  0  0  0
 14 15  2  0  0  0  0
 14 33  1  0  0  0  0
 15 16  1  0  0  0  0
 15 34  1  0  0  0  0
 16 17  2  0  0  0  0
 16 45  1  0  0  0  0
 17 18  1  0  0  0  0
 18 23  1  0  0  0  0
 18 19  1  0  0  0  0
 19 20  1  0  0  0  0
 19 35  1  0  0  0  0
 19 36  1  0  0  0  0
 20 21  1  0  0  0  0
 20 37  1  0  0  0  0
 20 38  1  0  0  0  0
 21 22  1  0  0  0  0
 21 39  1  0  0  0  0
 21 40  1  0  0  0  0
 22 23  1  0  0  0  0
 22 41  1  0  0  0  0
 22 42  1  0  0  0  0
 23 43  1  0  0  0  0
 23 44  1  0  0  0  0
M  CHG  1  16   1
M  END
> <s_m_source_file>
AV-unprocessed.smi

> <i_m_source_file_index>
1057

> <i_lp_mmshare_version>
43012

> <i_f3d_flags>
0

> <s_epik_input>
W0NIXSNDW0NIMl1bTkhdQyg9TylbQ0gyXVtOSF1DKD1PKVtOSF1jMVtjSF1bY0hdW2NIXW5jMU4yW0NIMl1bQ0gyXVtDSDJdW0NIMl1bQ0gyXTI=

> <s_epik_cmdline>
J2VwaWtfcHl0aG9uJywgJy1waCcsICc3LjAnLCAnLXRuJywgJzgnLCAnLW1hJywgJzIwMCcsICctbWV0YWxfYmluZGluZycsICctaW1hZScsICc8aW5maWxlLm1hZT4nLCAnLW9tYWUnLCAnPG91dGZpbGUubWFlPic=

> <r_lp_tautomer_probability>
0.999994

> <r_epik_Ionization_Penalty>
0.641093

> <r_epik_Ionization_Penalty_Charging>
0.641074

> <r_epik_Ionization_Penalty_Neutral>
1.89753e-05

> <r_epik_State_Penalty>
0.658761

> <r_epik_Charging_Adjusted_Penalty>
1.29984

> <i_epik_Tot_Q>
1

> <i_epik_Tot_abs_Q>
1

> <r_epik_Metal_State_Penalty>
0.833895

> <b_epik_Metal_Only>
0

> <s_lp_Force_Field>
OPLS_2005

> <r_lp_Energy>
23.0781

> <b_lp_Chiralities_Consistent>
1

> <s_lp_Variant>
AV-unprocessed.smi:1057-2

> <Gold.Version>
5.8.1

> <Gold.Id.Protein>
6NUR|6NUR_protein|mol2

> <Gold.PLP.Fitness>
47.2150

> <Gold.PLP.PLP>
-38.7271

> <Gold.PLP.part.hbond>
-3.0000

> <Gold.PLP.part.metal>
0.0000

> <Gold.PLP.part.buried>
-3.6037

> <Gold.PLP.part.nonpolar>
-31.8822

> <Gold.PLP.part.repulsive>
0.3237

> <Gold.PLP.ligand.clash>
0.0000

> <Gold.PLP.ligand.torsion>
0.3601

> <Gold.PLP.Chemscore.Hbond>
3.0000

> <Gold.PLP.Chemscore.CHOScore>
0.0000

> <Gold.PLP.Chemscore.Metal>
0.0000

> <Gold.Chemscore.Hbonds>
donor molecule, donor type, donor heavy atom, donor atom, acceptor molecule, acceptor atom, score
      L1  H    16    45       P1  8028  2.00
      P1  H  6934  6947       L1     6  1.00

> <Gold.PLP.Chemscore.Internal.Correction>
0.2081

> <Gold.Rescore>
     Score         DG    S(hbond)    S(metal)    S(lipo)     H(rot)  DE(clash)    DE(int)     intcor
     15.18     -18.41       2.20        0.00      87.51       1.82       0.27       2.97       ----

> <Gold.Chemscore.Fitness>
15.1817

> <Gold.Chemscore.DG>
-18.4129

> <Gold.Chemscore.ZeroCoef>
-5.4800

> <Gold.Chemscore.Hbond>
2.1984

> <Gold.Chemscore.Metal>
0.0000

> <Gold.Chemscore.Lipo>
87.5131

> <Gold.Chemscore.Internal_Hbond>
0.0000

> <Gold.Chemscore.DEClash>
0.2651

> <Gold.Chemscore.DEInternal>
2.9661

> <Gold.Chemscore.Rot>
1.8159

> <Gold.Chemscore.Internal.Correction>
   9.000000E+99

> <Gold.Chemscore.Hbonds>
donor molecule, donor type, donor heavy atom, donor atom, acceptor molecule, acceptor atom, score
      L1  H    16    45       P1  8028  0.99
      P1  H  6934  6947       L1     6  0.92

> <Gold.Chemscore.Hbond.Weighted>
-7.3425

> <Gold.Chemscore.Metal.Weighted>
-0.0000

> <Gold.Chemscore.Lipo.Weighted>
-10.2390

> <Gold.Chemscore.Internal_Hbond.Weighted>
0.0000

> <Gold.Chemscore.DEClash.Weighted>
0.2651

> <Gold.Chemscore.DEInternal.Weighted>
2.9661

> <Gold.Chemscore.Rot.Weighted>
4.6486

> <Gold.Chemscore.Internal.Correction.Weighted>
   9.000000E+99

> <Gold.Protein.RotatedTorsions>
[ 6907 6896 6895 6894 ] final   27.37 input  -60.11 | X-H torsion
[ 7974 7965 7964 7962 ] final  -31.45 input  175.53 | X-H torsion
[ 8008 7997 7996 7995 ] final   46.30 input   59.86 | X-H torsion
[ 10167 10162 10161 10158 ] final   21.27 input  -65.29 | X-H torsion
[ 10718 10713 10712 10709 ] final   -1.57 input   66.30 | X-H torsion
[ 10763 10752 10751 10750 ] final  -49.38 input  -60.55 | X-H torsion
[ 11005 11000 10999 10996 ] final -109.51 input  -57.11 | X-H torsion

> <Gold.Protein.ActiveResidues>
 VAL166  LYS551  ARG553  GLY616  TRP617  ASP618  TYR619  PRO620  LYS621  CYS622 
 ASP623  PHE694  ASN695  SER759  ASP760  ASP761  ALA762  ILE779  LEU786  VAL792 
 PHE793  MET794  SER795  GLU796  ALA797  LYS798  CYS799  TRP800  GLU811  SER814 

> <Gold.Protein.RotatedAtoms>
  152.0012  134.9927  160.0564 H   0  0  0  0  0  0  0  0  0  0  0  0  # atno 6907 bound_to 6896
  152.1517  133.4521  159.4825 H   0  0  0  0  0  0  0  0  0  0  0  0  # atno 6908 bound_to 6896
  150.6876  134.2099  159.4398 H   0  0  0  0  0  0  0  0  0  0  0  0  # atno 6909 bound_to 6896
  146.1067  140.5668  142.8796 H   0  0  0  0  0  0  0  0  0  0  0  0  # atno 7974 bound_to 7965
  155.3501  140.3413  155.4239 H   0  0  0  0  0  0  0  0  0  0  0  0  # atno 8008 bound_to 7997
  156.1768  140.1650  156.8383 H   0  0  0  0  0  0  0  0  0  0  0  0  # atno 8009 bound_to 7997
  154.5291  140.0749  156.8295 H   0  0  0  0  0  0  0  0  0  0  0  0  # atno 8010 bound_to 7997
  140.5440  143.9627  150.6536 H   0  0  0  0  0  0  0  0  0  0  0  0  # atno 10167 bound_to 10162
  156.8036  130.5401  149.5718 H   0  0  0  0  0  0  0  0  0  0  0  0  # atno 10718 bound_to 10713
  154.0932  135.6574  153.4856 H   0  0  0  0  0  0  0  0  0  0  0  0  # atno 10763 bound_to 10752
  153.0314  135.5207  154.7360 H   0  0  0  0  0  0  0  0  0  0  0  0  # atno 10764 bound_to 10752
  154.6490  135.2998  154.9979 H   0  0  0  0  0  0  0  0  0  0  0  0  # atno 10765 bound_to 10752
  141.0843  133.9166  157.2220 H   0  0  0  0  0  0  0  0  0  0  0  0  # atno 11005 bound_to 11000
  144.7476  140.5109  143.6824 LP  0  0  0  0  0  0  0  0  0  0  0  0  # atno 17320 bound_to 7965
  145.5747  139.1485  143.3268 LP  0  0  0  0  0  0  0  0  0  0  0  0  # atno 17321 bound_to 7965
  140.3036  143.3244  152.0948 LP  0  0  0  0  0  0  0  0  0  0  0  0  # atno 17342 bound_to 10162
  139.5000  144.6681  151.6307 LP  0  0  0  0  0  0  0  0  0  0  0  0  # atno 17343 bound_to 10162
  156.1086  130.6023  151.0011 LP  0  0  0  0  0  0  0  0  0  0  0  0  # atno 17370 bound_to 10713
  157.6541  131.0892  150.7986 LP  0  0  0  0  0  0  0  0  0  0  0  0  # atno 17371 bound_to 10713
  139.9660  135.0142  156.9387 LP  0  0  0  0  0  0  0  0  0  0  0  0  # atno 17394 bound_to 11000
  140.5398  134.0731  155.7338 LP  0  0  0  0  0  0  0  0  0  0  0  0  # atno 17395 bound_to 11000

$$$$
