AV-unprocessed.smi:1964|AV-procd|sdf|7930|dock4
  -GOLD-   2272010103D 1   1.00000     0.00000
 Structure written by MMmdl.
 46 48  0  0  0  0  0  0  0  0  1 V2000
  147.4871  132.2846  161.7999 C   0  0  0  0  0  0  0  0  0  0  0  0
  146.6498  133.5094  162.2077 C   0  0  2  0  0  0  0  0  0  0  0  0
  145.2600  133.4912  161.5382 C   0  0  0  0  0  0  0  0  0  0  0  0
  144.3968  134.6786  161.9940 C   0  0  0  0  0  0  0  0  0  0  0  0
  145.1063  136.0164  161.7376 C   0  0  0  0  0  0  0  0  0  0  0  0
  146.4955  136.0468  162.3985 C   0  0  0  0  0  0  0  0  0  0  0  0
  147.3764  134.8581  161.9640 C   0  0  2  0  0  0  0  0  0  0  0  0
  147.7702  135.0186  160.5630 N   0  0  0  0  0  0  0  0  0  0  0  0
  148.1474  136.1625  159.9717 C   0  0  0  0  0  0  0  0  0  0  0  0
  148.1801  137.2483  160.5525 O   0  0  0  0  0  0  0  0  0  0  0  0
  148.5479  136.0491  158.4935 C   0  0  0  0  0  0  0  0  0  0  0  0
  149.1816  137.2783  157.9691 N   0  0  0  0  0  0  0  0  0  0  0  0
  150.5314  137.5404  158.3174 C   0  0  0  0  0  0  0  0  0  0  0  0
  151.1710  136.7518  159.0161 O   0  0  0  0  0  0  0  0  0  0  0  0
  151.0805  138.7945  157.8078 C   0  0  0  0  0  0  0  0  0  0  0  0
  152.4238  139.1098  158.1656 C   0  0  0  0  0  0  0  0  0  0  0  0
  153.5182  139.3749  158.4338 N   0  0  0  0  0  0  0  0  0  0  0  0
  150.3377  139.6162  157.0381 C   0  0  0  0  0  0  0  0  0  0  0  0
  149.0405  139.3233  156.6778 N   0  0  0  0  0  0  0  0  0  0  0  0
  148.2206  140.2805  155.9902 C   0  0  0  0  0  0  0  0  0  0  0  0
  148.4559  140.5764  154.5218 C   0  0  0  0  0  0  0  0  0  0  0  0
  148.8310  141.5988  155.5667 C   0  0  0  0  0  0  0  0  0  0  0  0
  148.4082  138.1654  157.1818 C   0  0  0  0  0  0  0  0  0  0  0  0
  147.2174  137.9385  156.9539 O   0  0  0  0  0  0  0  0  0  0  0  0
  147.6417  132.2397  160.7215 H   0  0  0  0  0  0  0  0  0  0  0  0
  146.9945  131.3590  162.0978 H   0  0  0  0  0  0  0  0  0  0  0  0
  148.4675  132.3030  162.2769 H   0  0  0  0  0  0  0  0  0  0  0  0
  146.4877  133.4283  163.2836 H   0  0  0  0  0  0  0  0  0  0  0  0
  145.3683  133.5133  160.4530 H   0  0  0  0  0  0  0  0  0  0  0  0
  144.7459  132.5591  161.7747 H   0  0  0  0  0  0  0  0  0  0  0  0
  143.4377  134.6611  161.4757 H   0  0  0  0  0  0  0  0  0  0  0  0
  144.1748  134.5816  163.0575 H   0  0  0  0  0  0  0  0  0  0  0  0
  145.2033  136.1794  160.6636 H   0  0  0  0  0  0  0  0  0  0  0  0
  144.4974  136.8370  162.1178 H   0  0  0  0  0  0  0  0  0  0  0  0
  146.9956  136.9895  162.1730 H   0  0  0  0  0  0  0  0  0  0  0  0
  146.3732  136.0225  163.4821 H   0  0  0  0  0  0  0  0  0  0  0  0
  148.2702  134.8780  162.5902 H   0  0  0  0  0  0  0  0  0  0  0  0
  147.7732  134.1796  160.0009 H   0  0  0  0  0  0  0  0  0  0  0  0
  149.2175  135.1965  158.3666 H   0  0  0  0  0  0  0  0  0  0  0  0
  147.6605  135.7758  157.9211 H   0  0  0  0  0  0  0  0  0  0  0  0
  150.7761  140.5385  156.6844 H   0  0  0  0  0  0  0  0  0  0  0  0
  147.1841  140.3237  156.3206 H   0  0  0  0  0  0  0  0  0  0  0  0
  149.2712  140.0626  154.0158 H   0  0  0  0  0  0  0  0  0  0  0  0
  147.5822  140.7813  153.9066 H   0  0  0  0  0  0  0  0  0  0  0  0
  148.2087  142.4875  155.6480 H   0  0  0  0  0  0  0  0  0  0  0  0
  149.8923  141.7556  155.7499 H   0  0  0  0  0  0  0  0  0  0  0  0
  1  2  1  0  0  0  0
  1 25  1  0  0  0  0
  1 26  1  0  0  0  0
  1 27  1  0  0  0  0
  2  7  1  0  0  0  0
  2  3  1  0  0  0  0
  2 28  1  0  0  0  0
  3  4  1  0  0  0  0
  3 29  1  0  0  0  0
  3 30  1  0  0  0  0
  4  5  1  0  0  0  0
  4 31  1  0  0  0  0
  4 32  1  0  0  0  0
  5  6  1  0  0  0  0
  5 33  1  0  0  0  0
  5 34  1  0  0  0  0
  6  7  1  0  0  0  0
  6 35  1  0  0  0  0
  6 36  1  0  0  0  0
  7  8  1  0  0  0  0
  7 37  1  0  0  0  0
  8  9  1  0  0  0  0
  8 38  1  0  0  0  0
  9 10  2  0  0  0  0
  9 11  1  0  0  0  0
 11 12  1  0  0  0  0
 11 39  1  0  0  0  0
 11 40  1  0  0  0  0
 12 23  1  0  0  0  0
 12 13  1  0  0  0  0
 13 14  2  0  0  0  0
 13 15  1  0  0  0  0
 15 16  1  0  0  0  0
 15 18  2  0  0  0  0
 16 17  3  0  0  0  0
 18 19  1  0  0  0  0
 18 41  1  0  0  0  0
 19 20  1  0  0  0  0
 19 23  1  0  0  0  0
 20 22  1  0  0  0  0
 20 21  1  0  0  0  0
 20 42  1  0  0  0  0
 21 22  1  0  0  0  0
 21 43  1  0  0  0  0
 21 44  1  0  0  0  0
 22 45  1  0  0  0  0
 22 46  1  0  0  0  0
 23 24  2  0  0  0  0
M  END
> <s_m_source_file>
AV-unprocessed.smi

> <i_m_source_file_index>
1964

> <i_lp_mmshare_version>
43012

> <i_f3d_flags>
0

> <s_epik_input>
W0NIM11bQ0BASF0xW0NIMl1bQ0gyXVtDSDJdW0NIMl1bQ0BIXTFbTkhdQyg9TylbQ0gyXW4yYyg9TyljKEMjTilbY0hdbihjMj1PKVtDSF0zW0NIMl1bQ0gyXTM=

> <s_epik_cmdline>
J2VwaWtfcHl0aG9uJywgJy1waCcsICc3LjAnLCAnLXRuJywgJzgnLCAnLW1hJywgJzIwMCcsICctbWV0YWxfYmluZGluZycsICctaW1hZScsICc8aW5maWxlLm1hZT4nLCAnLW9tYWUnLCAnPG91dGZpbGUubWFlPic=

> <r_lp_tautomer_probability>
1

> <r_epik_Ionization_Penalty>
1.91372e-08

> <r_epik_Ionization_Penalty_Charging>
9.0283e-11

> <r_epik_Ionization_Penalty_Neutral>
1.90469e-08

> <r_epik_State_Penalty>
-0

> <r_epik_Charging_Adjusted_Penalty>
9.0283e-11

> <i_epik_Tot_Q>
0

> <i_epik_Tot_abs_Q>
0

> <r_epik_Metal_State_Penalty>
-0

> <b_epik_Metal_Only>
0

> <s_lp_Force_Field>
OPLS_2005

> <r_lp_Energy>
35.1398

> <b_lp_Chiralities_Consistent>
1

> <s_lp_Variant>
AV-unprocessed.smi:1964-3

> <Gold.Version>
5.8.1

> <Gold.Id.Protein>
6NUR|6NUR_protein|mol2

> <Gold.PLP.Fitness>
42.5329

> <Gold.PLP.PLP>
-33.7553

> <Gold.PLP.part.hbond>
-4.0000

> <Gold.PLP.part.metal>
0.0000

> <Gold.PLP.part.buried>
-5.0200

> <Gold.PLP.part.nonpolar>
-26.2716

> <Gold.PLP.part.repulsive>
0.0940

> <Gold.PLP.ligand.clash>
0.0000

> <Gold.PLP.ligand.torsion>
0.6902

> <Gold.PLP.Chemscore.Hbond>
3.3120

> <Gold.PLP.Chemscore.CHOScore>
0.0000

> <Gold.PLP.Chemscore.Metal>
0.0000

> <Gold.Chemscore.Hbonds>
donor molecule, donor type, donor heavy atom, donor atom, acceptor molecule, acceptor atom, score
      P1  H  6896  6908       L1    14  1.00
      P1  H  6931  6943       L1    10  0.75
      P1  H  6934  6947       L1    10  0.61
      P1  H  7997  8010       L1    17  1.00

> <Gold.PLP.Chemscore.Internal.Correction>
0.2219

> <Gold.Rescore>
     Score         DG    S(hbond)    S(metal)    S(lipo)     H(rot)  DE(clash)    DE(int)     intcor
     18.69     -20.98       3.29        0.00      75.79       1.70       0.07       2.22       ----

> <Gold.Chemscore.Fitness>
18.6870

> <Gold.Chemscore.DG>
-20.9787

> <Gold.Chemscore.ZeroCoef>
-5.4800

> <Gold.Chemscore.Hbond>
3.2912

> <Gold.Chemscore.Metal>
0.0000

> <Gold.Chemscore.Lipo>
75.7937

> <Gold.Chemscore.Internal_Hbond>
0.0000

> <Gold.Chemscore.DEClash>
0.0727

> <Gold.Chemscore.DEInternal>
2.2189

> <Gold.Chemscore.Rot>
1.7038

> <Gold.Chemscore.Internal.Correction>
   9.000000E+99

> <Gold.Chemscore.Hbonds>
donor molecule, donor type, donor heavy atom, donor atom, acceptor molecule, acceptor atom, score
      P1  H  6896  6908       L1    14  0.96
      P1  H  6931  6943       L1    10  0.74
      P1  H  6934  6947       L1    10  0.58
      P1  H  7997  8010       L1    17  0.99

> <Gold.Chemscore.Hbond.Weighted>
-10.9926

> <Gold.Chemscore.Metal.Weighted>
-0.0000

> <Gold.Chemscore.Lipo.Weighted>
-8.8679

> <Gold.Chemscore.Internal_Hbond.Weighted>
0.0000

> <Gold.Chemscore.DEClash.Weighted>
0.0727

> <Gold.Chemscore.DEInternal.Weighted>
2.2189

> <Gold.Chemscore.Rot.Weighted>
4.3618

> <Gold.Chemscore.Internal.Correction.Weighted>
   9.000000E+99

> <Gold.Protein.RotatedTorsions>
[ 6907 6896 6895 6894 ] final -134.63 input  -60.11 | X-H torsion
[ 7974 7965 7964 7962 ] final -148.44 input  175.53 | X-H torsion
[ 8008 7997 7996 7995 ] final   19.84 input   59.86 | X-H torsion
[ 10167 10162 10161 10158 ] final  -93.89 input  -65.29 | X-H torsion
[ 10718 10713 10712 10709 ] final   74.18 input   66.30 | X-H torsion
[ 10763 10752 10751 10750 ] final   72.94 input  -60.55 | X-H torsion
[ 11005 11000 10999 10996 ] final  153.15 input  -57.11 | X-H torsion

> <Gold.Protein.ActiveResidues>
 VAL166  LYS551  ARG553  GLY616  TRP617  ASP618  TYR619  PRO620  LYS621  CYS622 
 ASP623  PHE694  ASN695  SER759  ASP760  ASP761  ALA762  ILE779  LEU786  VAL792 
 PHE793  MET794  SER795  GLU796  ALA797  LYS798  CYS799  TRP800  GLU811  SER814 

> <Gold.Protein.RotatedAtoms>
  150.9881  133.6177  159.2712 H   0  0  0  0  0  0  0  0  0  0  0  0  # atno 6907 bound_to 6896
  151.3408  135.0862  159.9380 H   0  0  0  0  0  0  0  0  0  0  0  0  # atno 6908 bound_to 6896
  152.5237  133.9493  159.7718 H   0  0  0  0  0  0  0  0  0  0  0  0  # atno 6909 bound_to 6896
  144.8029  140.5196  143.5694 H   0  0  0  0  0  0  0  0  0  0  0  0  # atno 7974 bound_to 7965
  154.9268  140.3035  155.5188 H   0  0  0  0  0  0  0  0  0  0  0  0  # atno 8008 bound_to 7997
  156.3006  140.2361  156.4260 H   0  0  0  0  0  0  0  0  0  0  0  0  # atno 8009 bound_to 7997
  154.8277  140.0420  157.1443 H   0  0  0  0  0  0  0  0  0  0  0  0  # atno 8010 bound_to 7997
  140.3200  143.3054  152.0056 H   0  0  0  0  0  0  0  0  0  0  0  0  # atno 10167 bound_to 10162
  157.6581  130.9665  150.1174 H   0  0  0  0  0  0  0  0  0  0  0  0  # atno 10718 bound_to 10713
  153.0490  135.5081  154.7820 H   0  0  0  0  0  0  0  0  0  0  0  0  # atno 10763 bound_to 10752
  154.6697  135.2951  154.9761 H   0  0  0  0  0  0  0  0  0  0  0  0  # atno 10764 bound_to 10752
  154.0583  135.6694  153.4861 H   0  0  0  0  0  0  0  0  0  0  0  0  # atno 10765 bound_to 10752
  140.1371  134.8763  157.2282 H   0  0  0  0  0  0  0  0  0  0  0  0  # atno 11005 bound_to 11000
  145.5508  139.1476  143.3395 LP  0  0  0  0  0  0  0  0  0  0  0  0  # atno 17320 bound_to 7965
  146.2315  140.5646  142.8973 LP  0  0  0  0  0  0  0  0  0  0  0  0  # atno 17321 bound_to 7965
  139.4876  144.6318  151.7055 LP  0  0  0  0  0  0  0  0  0  0  0  0  # atno 17342 bound_to 10162
  140.5492  144.0454  150.6119 LP  0  0  0  0  0  0  0  0  0  0  0  0  # atno 17343 bound_to 10162
  156.2055  130.3663  149.8735 LP  0  0  0  0  0  0  0  0  0  0  0  0  # atno 17370 bound_to 10713
  156.6628  130.8789  151.3550 LP  0  0  0  0  0  0  0  0  0  0  0  0  # atno 17371 bound_to 10713
  140.2768  134.3396  155.7355 LP  0  0  0  0  0  0  0  0  0  0  0  0  # atno 17394 bound_to 11000
  141.2180  133.7455  156.9305 LP  0  0  0  0  0  0  0  0  0  0  0  0  # atno 17395 bound_to 11000

$$$$
