AV-unprocessed.smi:1780|AV-procd|sdf|7185|dock2
  -GOLD-   22720 8423D 1   1.00000     0.00000
 Structure written by MMmdl.
 44 45  0  0  0  0  0  0  0  0  2 V2000
  152.8602  142.9228  162.1587 C   0  0  0  0  0  0  0  0  0  0  0  0
  153.3691  142.4550  160.7901 C   0  0  0  0  0  0  0  0  0  0  0  0
  152.5381  142.9494  159.7096 N   0  0  0  0  0  0  0  0  0  0  0  0
  151.8301  142.2196  158.7754 C   0  0  0  0  0  0  0  0  0  0  0  0
  151.2140  143.1409  157.9766 C   0  0  0  0  0  0  0  0  0  0  0  0
  150.3614  142.9386  156.8618 N   0  0  0  0  0  0  0  0  0  0  0  0
  150.1302  141.7869  156.2110 C   0  0  0  0  0  0  0  0  0  0  0  0
  150.6584  140.7057  156.4721 O   0  0  0  0  0  0  0  0  0  0  0  0
  149.2397  141.9545  155.2230 N   0  0  0  0  0  0  0  0  0  0  0  0
  148.7564  140.8938  154.3431 C   0  0  0  0  0  0  0  0  0  0  0  0
  147.3672  141.2007  153.7143 C   0  0  2  0  0  0  0  0  0  0  0  0
  146.5429  142.1058  154.6596 C   0  0  0  0  0  0  0  0  0  0  0  0
  146.5867  139.9698  153.3562 N   0  3  0  0  0  0  0  0  0  0  0  0
  147.2298  139.1770  152.2717 C   0  0  0  0  0  0  0  0  0  0  0  0
  146.3688  137.9654  151.8794 C   0  0  0  0  0  0  0  0  0  0  0  0
  146.1491  137.1506  153.0204 O   0  0  0  0  0  0  0  0  0  0  0  0
  145.4389  137.8523  154.0291 C   0  0  0  0  0  0  0  0  0  0  0  0
  146.2550  139.0699  154.4962 C   0  0  0  0  0  0  0  0  0  0  0  0
  151.5946  144.4101  158.4848 C   0  0  0  0  0  0  0  0  0  0  0  0
  152.3949  144.2863  159.5328 N   0  0  0  0  0  0  0  0  0  0  0  0
  153.5052  142.5576  162.9577 H   0  0  0  0  0  0  0  0  0  0  0  0
  151.8517  142.5566  162.3522 H   0  0  0  0  0  0  0  0  0  0  0  0
  152.8391  144.0113  162.2189 H   0  0  0  0  0  0  0  0  0  0  0  0
  154.3907  142.8015  160.6306 H   0  0  0  0  0  0  0  0  0  0  0  0
  153.3935  141.3653  160.7454 H   0  0  0  0  0  0  0  0  0  0  0  0
  151.8335  141.1397  158.7692 H   0  0  0  0  0  0  0  0  0  0  0  0
  149.8620  143.7542  156.5385 H   0  0  0  0  0  0  0  0  0  0  0  0
  148.8580  142.8779  155.0777 H   0  0  0  0  0  0  0  0  0  0  0  0
  149.5180  140.7448  153.5767 H   0  0  0  0  0  0  0  0  0  0  0  0
  148.7096  139.9716  154.9234 H   0  0  0  0  0  0  0  0  0  0  0  0
  147.5470  141.7493  152.7883 H   0  0  0  0  0  0  0  0  0  0  0  0
  147.0816  143.0162  154.9219 H   0  0  0  0  0  0  0  0  0  0  0  0
  146.3035  141.5880  155.5888 H   0  0  0  0  0  0  0  0  0  0  0  0
  145.6070  142.4386  154.2151 H   0  0  0  0  0  0  0  0  0  0  0  0
  147.3883  139.7812  151.3809 H   0  0  0  0  0  0  0  0  0  0  0  0
  148.2124  138.8370  152.6026 H   0  0  0  0  0  0  0  0  0  0  0  0
  145.4176  138.2835  151.4495 H   0  0  0  0  0  0  0  0  0  0  0  0
  146.8791  137.3737  151.1192 H   0  0  0  0  0  0  0  0  0  0  0  0
  144.4606  138.1598  153.6561 H   0  0  0  0  0  0  0  0  0  0  0  0
  145.2602  137.1780  154.8670 H   0  0  0  0  0  0  0  0  0  0  0  0
  147.1744  138.7417  154.9837 H   0  0  0  0  0  0  0  0  0  0  0  0
  145.6536  139.5897  155.2409 H   0  0  0  0  0  0  0  0  0  0  0  0
  151.3222  145.3958  158.1375 H   0  0  0  0  0  0  0  0  0  0  0  0
  145.7001  140.2927  152.9957 H   0  0  0  0  0  0  0  0  0  0  0  0
  1  2  1  0  0  0  0
  1 21  1  0  0  0  0
  1 22  1  0  0  0  0
  1 23  1  0  0  0  0
  2  3  1  0  0  0  0
  2 24  1  0  0  0  0
  2 25  1  0  0  0  0
  3 20  1  0  0  0  0
  3  4  1  0  0  0  0
  4  5  2  0  0  0  0
  4 26  1  0  0  0  0
  5  6  1  0  0  0  0
  5 19  1  0  0  0  0
  6  7  1  0  0  0  0
  6 27  1  0  0  0  0
  7  8  2  0  0  0  0
  7  9  1  0  0  0  0
  9 10  1  0  0  0  0
  9 28  1  0  0  0  0
 10 11  1  0  0  0  0
 10 29  1  0  0  0  0
 10 30  1  0  0  0  0
 11 12  1  0  0  0  0
 11 13  1  0  0  0  0
 11 31  1  0  0  0  0
 12 32  1  0  0  0  0
 12 33  1  0  0  0  0
 12 34  1  0  0  0  0
 13 18  1  0  0  0  0
 13 14  1  0  0  0  0
 13 44  1  0  0  0  0
 14 15  1  0  0  0  0
 14 35  1  0  0  0  0
 14 36  1  0  0  0  0
 15 16  1  0  0  0  0
 15 37  1  0  0  0  0
 15 38  1  0  0  0  0
 16 17  1  0  0  0  0
 17 18  1  0  0  0  0
 17 39  1  0  0  0  0
 17 40  1  0  0  0  0
 18 41  1  0  0  0  0
 18 42  1  0  0  0  0
 19 20  2  0  0  0  0
 19 43  1  0  0  0  0
M  CHG  1  13   1
M  END
> <s_m_source_file>
AV-unprocessed.smi

> <i_m_source_file_index>
1780

> <i_lp_mmshare_version>
43012

> <i_f3d_flags>
0

> <s_epik_input>
W0NIM11bQ0gyXW4xW2NIXWMoW2NIXW4xKVtOSF1DKD1PKVtOSF1bQ0gyXVtDQEhdKFtDSDNdKU4yW0NIMl1bQ0gyXU9bQ0gyXVtDSDJdMg==

> <s_epik_cmdline>
J2VwaWtfcHl0aG9uJywgJy1waCcsICc3LjAnLCAnLXRuJywgJzgnLCAnLW1hJywgJzIwMCcsICctbWV0YWxfYmluZGluZycsICctaW1hZScsICc8aW5maWxlLm1hZT4nLCAnLW9tYWUnLCAnPG91dGZpbGUubWFlPic=

> <r_lp_tautomer_probability>
1

> <r_epik_Ionization_Penalty>
0.64612

> <r_epik_Ionization_Penalty_Charging>
0.645968

> <r_epik_Ionization_Penalty_Neutral>
0.000152026

> <r_epik_State_Penalty>
0.664063

> <r_epik_Charging_Adjusted_Penalty>
1.31003

> <i_epik_Tot_Q>
1

> <i_epik_Tot_abs_Q>
1

> <r_epik_Metal_State_Penalty>
0.664075

> <b_epik_Metal_Only>
0

> <s_lp_Force_Field>
OPLS_2005

> <r_lp_Energy>
24.4997

> <b_lp_Chiralities_Consistent>
1

> <s_lp_Variant>
AV-unprocessed.smi:1780-3

> <Gold.Version>
5.8.1

> <Gold.Id.Protein>
6NUR|6NUR_protein|mol2

> <Gold.PLP.Fitness>
54.2107

> <Gold.PLP.PLP>
-43.5973

> <Gold.PLP.part.hbond>
-3.0000

> <Gold.PLP.part.metal>
0.0000

> <Gold.PLP.part.buried>
-5.7985

> <Gold.PLP.part.nonpolar>
-36.6690

> <Gold.PLP.part.repulsive>
0.4016

> <Gold.PLP.ligand.clash>
0.0000

> <Gold.PLP.ligand.torsion>
0.5793

> <Gold.PLP.Chemscore.Hbond>
3.8960

> <Gold.PLP.Chemscore.CHOScore>
0.0000

> <Gold.PLP.Chemscore.Metal>
0.0000

> <Gold.Chemscore.Hbonds>
donor molecule, donor type, donor heavy atom, donor atom, acceptor molecule, acceptor atom, score
      L1  H     6    27       P1  8028  1.00
      L1  H     9    28       P1  8028  0.93
      L1  H    13    44       P1 10175  1.72

> <Gold.PLP.Chemscore.Internal.Correction>
0.0839

> <Gold.Rescore>
     Score         DG    S(hbond)    S(metal)    S(lipo)     H(rot)  DE(clash)    DE(int)     intcor
     19.98     -21.52       2.88        0.00      91.28       1.67       0.02       1.51       ----

> <Gold.Chemscore.Fitness>
19.9768

> <Gold.Chemscore.DG>
-21.5151

> <Gold.Chemscore.ZeroCoef>
-5.4800

> <Gold.Chemscore.Hbond>
2.8841

> <Gold.Chemscore.Metal>
0.0000

> <Gold.Chemscore.Lipo>
91.2780

> <Gold.Chemscore.Internal_Hbond>
0.0000

> <Gold.Chemscore.DEClash>
0.0234

> <Gold.Chemscore.DEInternal>
1.5149

> <Gold.Chemscore.Rot>
1.6708

> <Gold.Chemscore.Internal.Correction>
   9.000000E+99

> <Gold.Chemscore.Hbonds>
donor molecule, donor type, donor heavy atom, donor atom, acceptor molecule, acceptor atom, score
      L1  H     6    27       P1  8028  0.99
      L1  H     9    28       P1  8028  0.91
      L1  H    13    44       P1 10175  0.79

> <Gold.Chemscore.Hbond.Weighted>
-9.6329

> <Gold.Chemscore.Metal.Weighted>
-0.0000

> <Gold.Chemscore.Lipo.Weighted>
-10.6795

> <Gold.Chemscore.Internal_Hbond.Weighted>
0.0000

> <Gold.Chemscore.DEClash.Weighted>
0.0234

> <Gold.Chemscore.DEInternal.Weighted>
1.5149

> <Gold.Chemscore.Rot.Weighted>
4.2773

> <Gold.Chemscore.Internal.Correction.Weighted>
   9.000000E+99

> <Gold.Protein.RotatedTorsions>
[ 6907 6896 6895 6894 ] final  -31.21 input  -60.11 | X-H torsion
[ 7974 7965 7964 7962 ] final  168.24 input  175.53 | X-H torsion
[ 8008 7997 7996 7995 ] final  -80.56 input   59.86 | X-H torsion
[ 10167 10162 10161 10158 ] final  -63.87 input  -65.29 | X-H torsion
[ 10718 10713 10712 10709 ] final   77.69 input   66.30 | X-H torsion
[ 10763 10752 10751 10750 ] final -139.92 input  -60.55 | X-H torsion
[ 11005 11000 10999 10996 ] final   60.08 input  -57.11 | X-H torsion

> <Gold.Protein.ActiveResidues>
 VAL166  LYS551  ARG553  GLY616  TRP617  ASP618  TYR619  PRO620  LYS621  CYS622 
 ASP623  PHE694  ASN695  SER759  ASP760  ASP761  ALA762  ILE779  LEU786  VAL792 
 PHE793  MET794  SER795  GLU796  ALA797  LYS798  CYS799  TRP800  GLU811  SER814 

> <Gold.Protein.RotatedAtoms>
  151.0952  134.9940  159.8421 H   0  0  0  0  0  0  0  0  0  0  0  0  # atno 6907 bound_to 6896
  152.5432  134.2017  159.8725 H   0  0  0  0  0  0  0  0  0  0  0  0  # atno 6908 bound_to 6896
  151.2056  133.4541  159.2630 H   0  0  0  0  0  0  0  0  0  0  0  0  # atno 6909 bound_to 6896
  144.7395  139.8878  143.6401 H   0  0  0  0  0  0  0  0  0  0  0  0  # atno 7974 bound_to 7965
  154.5895  140.0661  156.9219 H   0  0  0  0  0  0  0  0  0  0  0  0  # atno 8008 bound_to 7997
  155.2319  140.3338  155.4284 H   0  0  0  0  0  0  0  0  0  0  0  0  # atno 8009 bound_to 7997
  156.2246  140.1813  156.7378 H   0  0  0  0  0  0  0  0  0  0  0  0  # atno 8010 bound_to 7997
  140.5841  143.2331  151.6281 H   0  0  0  0  0  0  0  0  0  0  0  0  # atno 10167 bound_to 10162
  157.6719  130.9833  150.1677 H   0  0  0  0  0  0  0  0  0  0  0  0  # atno 10718 bound_to 10713
  154.8595  135.3568  154.5623 H   0  0  0  0  0  0  0  0  0  0  0  0  # atno 10763 bound_to 10752
  153.6238  135.7005  153.5305 H   0  0  0  0  0  0  0  0  0  0  0  0  # atno 10764 bound_to 10752
  153.3106  135.4179  155.1292 H   0  0  0  0  0  0  0  0  0  0  0  0  # atno 10765 bound_to 10752
  140.0257  134.6086  155.9576 H   0  0  0  0  0  0  0  0  0  0  0  0  # atno 11005 bound_to 11000
  146.1164  139.4175  143.0256 LP  0  0  0  0  0  0  0  0  0  0  0  0  # atno 17320 bound_to 7965
  145.7369  141.0022  143.1322 LP  0  0  0  0  0  0  0  0  0  0  0  0  # atno 17321 bound_to 7965
  139.5187  144.3277  152.0854 LP  0  0  0  0  0  0  0  0  0  0  0  0  # atno 17342 bound_to 10162
  140.2431  144.4248  150.6252 LP  0  0  0  0  0  0  0  0  0  0  0  0  # atno 17343 bound_to 10162
  156.2439  130.3693  149.8307 LP  0  0  0  0  0  0  0  0  0  0  0  0  # atno 17370 bound_to 10713
  156.6099  130.8582  151.3452 LP  0  0  0  0  0  0  0  0  0  0  0  0  # atno 17371 bound_to 10713
  141.1801  133.6545  156.4987 LP  0  0  0  0  0  0  0  0  0  0  0  0  # atno 17394 bound_to 11000
  140.4310  134.7102  157.4942 LP  0  0  0  0  0  0  0  0  0  0  0  0  # atno 17395 bound_to 11000

$$$$
