AV-unprocessed.smi:17|AV-procd|sdf|105|dock7
  -GOLD-   2262015263D 1   1.00000     0.00000
 Structure written by MMmdl.
 57 59  0  0  0  0  0  0  0  0  1 V2000
  146.7895  142.4435  153.8516 C   0  0  0  0  0  0  0  0  0  0  0  0
  148.2286  141.9033  153.8081 C   0  0  0  0  0  0  0  0  0  0  0  0
  148.4478  140.7651  154.7063 N   0  0  0  0  0  0  0  0  0  0  0  0
  147.5239  139.7647  154.6949 C   0  0  0  0  0  0  0  0  0  0  0  0
  146.9766  139.3546  155.8707 N   0  0  0  0  0  0  0  0  0  0  0  0
  146.0851  138.3604  155.8974 C   0  0  0  0  0  0  0  0  0  0  0  0
  145.6049  137.6442  154.8803 N   0  0  0  0  0  0  0  0  0  0  0  0
  146.1431  138.0504  153.6958 C   0  0  0  0  0  0  0  0  0  0  0  0
  147.0988  139.0910  153.5120 C   0  0  0  0  0  0  0  0  0  0  0  0
  147.3963  139.2153  152.1591 N   0  0  0  0  0  0  0  0  0  0  0  0
  146.6683  138.3002  151.5808 C   0  0  0  0  0  0  0  0  0  0  0  0
  145.8905  137.5499  152.4317 N   0  0  0  0  0  0  0  0  0  0  0  0
  144.9929  136.4685  152.0667 C   0  0  0  0  0  0  0  0  0  0  0  0
  145.6815  135.3841  151.1971 C   0  0  2  0  0  0  0  0  0  0  0  0
  144.9468  135.1104  149.8634 C   0  0  0  0  0  0  0  0  0  0  0  0
  145.4415  135.9157  148.8132 O   0  0  0  0  0  0  0  0  0  0  0  0
  146.0371  134.0726  151.9485 C   0  0  1  0  0  0  0  0  0  0  0  0
  144.8647  133.1855  152.3259 C   0  0  0  0  0  0  0  0  0  0  0  0
  145.5752  131.8918  152.7080 C   0  0  0  0  0  0  0  0  0  0  0  0
  146.7065  131.8093  151.8467 O   0  0  0  0  0  0  0  0  0  0  0  0
  146.9536  133.0726  151.2338 C   0  0  0  0  0  0  0  0  0  0  0  0
  149.7785  140.5040  155.2748 C   0  0  1  0  0  0  0  0  0  0  0  0
  150.2281  141.6340  156.2172 C   0  0  0  0  0  0  0  0  0  0  0  0
  149.8722  139.1229  155.9598 C   0  0  0  0  0  0  0  0  0  0  0  0
  151.6157  138.5688  156.2499 S   0  0  0  0  0  0  0  0  0  0  0  0
  151.7616  138.6165  158.0841 C   0  0  0  0  0  0  0  0  0  0  0  0
  151.7606  137.1706  155.8162 O   0  0  0  0  0  0  0  0  0  0  0  0
  152.5136  139.5997  155.7073 O   0  0  0  0  0  0  0  0  0  0  0  0
  146.6633  143.2541  153.1342 H   0  0  0  0  0  0  0  0  0  0  0  0
  146.5366  142.8370  154.8364 H   0  0  0  0  0  0  0  0  0  0  0  0
  146.0635  141.6689  153.6052 H   0  0  0  0  0  0  0  0  0  0  0  0
  148.4475  141.6011  152.7850 H   0  0  0  0  0  0  0  0  0  0  0  0
  148.9367  142.7006  154.0275 H   0  0  0  0  0  0  0  0  0  0  0  0
  145.7043  138.1004  156.8739 H   0  0  0  0  0  0  0  0  0  0  0  0
  146.6833  138.1414  150.5123 H   0  0  0  0  0  0  0  0  0  0  0  0
  144.6041  136.0413  152.9901 H   0  0  0  0  0  0  0  0  0  0  0  0
  144.1413  136.9032  151.5441 H   0  0  0  0  0  0  0  0  0  0  0  0
  146.6437  135.8057  150.9031 H   0  0  0  0  0  0  0  0  0  0  0  0
  145.0487  134.0644  149.5733 H   0  0  0  0  0  0  0  0  0  0  0  0
  143.8774  135.2930  149.9716 H   0  0  0  0  0  0  0  0  0  0  0  0
  145.3410  136.8232  149.0574 H   0  0  0  0  0  0  0  0  0  0  0  0
  146.5270  134.3503  152.8835 H   0  0  0  0  0  0  0  0  0  0  0  0
  144.2630  133.5926  153.1389 H   0  0  0  0  0  0  0  0  0  0  0  0
  144.2100  133.0012  151.4747 H   0  0  0  0  0  0  0  0  0  0  0  0
  145.9265  131.9421  153.7394 H   0  0  0  0  0  0  0  0  0  0  0  0
  144.9333  131.0160  152.6109 H   0  0  0  0  0  0  0  0  0  0  0  0
  146.7108  132.9805  150.1762 H   0  0  0  0  0  0  0  0  0  0  0  0
  148.0062  133.3445  151.3142 H   0  0  0  0  0  0  0  0  0  0  0  0
  150.5084  140.4761  154.4658 H   0  0  0  0  0  0  0  0  0  0  0  0
  151.2549  141.4791  156.5489 H   0  0  0  0  0  0  0  0  0  0  0  0
  149.6004  141.6910  157.1067 H   0  0  0  0  0  0  0  0  0  0  0  0
  150.1906  142.6026  155.7182 H   0  0  0  0  0  0  0  0  0  0  0  0
  149.4095  139.1878  156.9449 H   0  0  0  0  0  0  0  0  0  0  0  0
  149.3370  138.3429  155.4201 H   0  0  0  0  0  0  0  0  0  0  0  0
  152.7970  138.4263  158.3660 H   0  0  0  0  0  0  0  0  0  0  0  0
  151.1312  137.8504  158.5295 H   0  0  0  0  0  0  0  0  0  0  0  0
  151.4634  139.5978  158.4520 H   0  0  0  0  0  0  0  0  0  0  0  0
  1  2  1  0  0  0  0
  1 29  1  0  0  0  0
  1 30  1  0  0  0  0
  1 31  1  0  0  0  0
  2  3  1  0  0  0  0
  2 32  1  0  0  0  0
  2 33  1  0  0  0  0
  3  4  1  0  0  0  0
  3 22  1  0  0  0  0
  4  9  1  0  0  0  0
  4  5  2  0  0  0  0
  5  6  1  0  0  0  0
  6  7  2  0  0  0  0
  6 34  1  0  0  0  0
  7  8  1  0  0  0  0
  8 12  1  0  0  0  0
  8  9  2  0  0  0  0
  9 10  1  0  0  0  0
 10 11  2  0  0  0  0
 11 12  1  0  0  0  0
 11 35  1  0  0  0  0
 12 13  1  0  0  0  0
 13 14  1  0  0  0  0
 13 36  1  0  0  0  0
 13 37  1  0  0  0  0
 14 15  1  0  0  0  0
 14 17  1  0  0  0  0
 14 38  1  0  0  0  0
 15 16  1  0  0  0  0
 15 39  1  0  0  0  0
 15 40  1  0  0  0  0
 16 41  1  0  0  0  0
 17 21  1  0  0  0  0
 17 18  1  0  0  0  0
 17 42  1  0  0  0  0
 18 19  1  0  0  0  0
 18 43  1  0  0  0  0
 18 44  1  0  0  0  0
 19 20  1  0  0  0  0
 19 45  1  0  0  0  0
 19 46  1  0  0  0  0
 20 21  1  0  0  0  0
 21 47  1  0  0  0  0
 21 48  1  0  0  0  0
 22 23  1  0  0  0  0
 22 24  1  0  0  0  0
 22 49  1  0  0  0  0
 23 50  1  0  0  0  0
 23 51  1  0  0  0  0
 23 52  1  0  0  0  0
 24 25  1  0  0  0  0
 24 53  1  0  0  0  0
 24 54  1  0  0  0  0
 25 26  1  0  0  0  0
 25 27  2  0  0  0  0
 25 28  2  0  0  0  0
 26 55  1  0  0  0  0
 26 56  1  0  0  0  0
 26 57  1  0  0  0  0
M  END
> <s_m_source_file>
AV-unprocessed.smi

> <i_m_source_file_index>
17

> <i_lp_mmshare_version>
43012

> <i_f3d_flags>
0

> <s_epik_input>
W0NIM11TKD1PKSg9TylbQ0gyXVtDQEBIXShbQ0gzXSlOKFtDSDJdW0NIM10pYyhuW2NIXW4xKWMoYzEyKW5bY0hdbjJbQ0gyXVtDQEhdKFtDSDJdW09IXSlbQ0BASF0zW0NIMl1bQ0gyXU9bQ0gyXTM=

> <s_epik_cmdline>
J2VwaWtfcHl0aG9uJywgJy1waCcsICc3LjAnLCAnLXRuJywgJzgnLCAnLW1hJywgJzIwMCcsICctbWV0YWxfYmluZGluZycsICctaW1hZScsICc8aW5maWxlLm1hZT4nLCAnLW9tYWUnLCAnPG91dGZpbGUubWFlPic=

> <r_lp_tautomer_probability>
1

> <r_epik_Ionization_Penalty>
0.00119955

> <r_epik_Ionization_Penalty_Charging>
0

> <r_epik_Ionization_Penalty_Neutral>
0.00119955

> <r_epik_State_Penalty>
0.000665399

> <r_epik_Charging_Adjusted_Penalty>
0.000665399

> <i_epik_Tot_Q>
0

> <i_epik_Tot_abs_Q>
0

> <r_epik_Metal_State_Penalty>
-0

> <b_epik_Metal_Only>
0

> <s_lp_Force_Field>
OPLS_2005

> <r_lp_Energy>
34.6832

> <b_lp_Chiralities_Consistent>
1

> <s_lp_Variant>
AV-unprocessed.smi:17-7

> <Gold.Version>
5.8.1

> <Gold.Id.Protein>
6NUR|6NUR_protein|mol2

> <Gold.PLP.Fitness>
48.6332

> <Gold.PLP.PLP>
-41.8720

> <Gold.PLP.part.hbond>
-4.8978

> <Gold.PLP.part.metal>
0.0000

> <Gold.PLP.part.buried>
-5.0430

> <Gold.PLP.part.nonpolar>
-36.3730

> <Gold.PLP.part.repulsive>
3.8194

> <Gold.PLP.ligand.clash>
0.2405

> <Gold.PLP.ligand.torsion>
3.0991

> <Gold.PLP.Chemscore.Hbond>
3.1783

> <Gold.PLP.Chemscore.CHOScore>
0.8496

> <Gold.PLP.Chemscore.Metal>
0.0000

> <Gold.Chemscore.Hbonds>
donor molecule, donor type, donor heavy atom, donor atom, acceptor molecule, acceptor atom, score
      L1  H    16    41       P1 10171  0.12
      P1  H  7997  8010       L1    28  1.00
      P1  H 10752 10765       L1    27  0.39
      L1  C    11    35       P1 10171  0.02

> <Gold.PLP.Chemscore.Internal.Correction>
1.1163

> <Gold.Rescore>
     Score         DG    S(hbond)    S(metal)    S(lipo)     H(rot)  DE(clash)    DE(int)     intcor
      9.64     -15.29       2.97        0.00      75.91       3.51       1.36       4.29       ----

> <Gold.Chemscore.Fitness>
9.6441

> <Gold.Chemscore.DG>
-15.2909

> <Gold.Chemscore.ZeroCoef>
-5.4800

> <Gold.Chemscore.Hbond>
2.9654

> <Gold.Chemscore.Metal>
0.0000

> <Gold.Chemscore.Lipo>
75.9099

> <Gold.Chemscore.Internal_Hbond>
0.0000

> <Gold.Chemscore.DEClash>
1.3590

> <Gold.Chemscore.DEInternal>
4.2878

> <Gold.Chemscore.Rot>
3.5059

> <Gold.Chemscore.Internal.Correction>
   9.000000E+99

> <Gold.Chemscore.Hbonds>
donor molecule, donor type, donor heavy atom, donor atom, acceptor molecule, acceptor atom, score
      L1  H    16    41       P1 10171  0.15
      P1  H  7997  8010       L1    28  0.98
      P1  H 10752 10765       L1    27  0.38

> <Gold.Chemscore.Hbond.Weighted>
-9.9044

> <Gold.Chemscore.Metal.Weighted>
-0.0000

> <Gold.Chemscore.Lipo.Weighted>
-8.8815

> <Gold.Chemscore.Internal_Hbond.Weighted>
0.0000

> <Gold.Chemscore.DEClash.Weighted>
1.3590

> <Gold.Chemscore.DEInternal.Weighted>
4.2878

> <Gold.Chemscore.Rot.Weighted>
8.9750

> <Gold.Chemscore.Internal.Correction.Weighted>
   9.000000E+99

> <Gold.Protein.RotatedTorsions>
[ 6907 6896 6895 6894 ] final  -51.73 input  -60.11 | X-H torsion
[ 7974 7965 7964 7962 ] final -134.30 input  175.53 | X-H torsion
[ 8008 7997 7996 7995 ] final   83.13 input   59.86 | X-H torsion
[ 10167 10162 10161 10158 ] final   63.56 input  -65.29 | X-H torsion
[ 10718 10713 10712 10709 ] final    9.03 input   66.30 | X-H torsion
[ 10763 10752 10751 10750 ] final -171.61 input  -60.55 | X-H torsion
[ 11005 11000 10999 10996 ] final -142.19 input  -57.11 | X-H torsion

> <Gold.Protein.ActiveResidues>
 VAL166  LYS551  ARG553  GLY616  TRP617  ASP618  TYR619  PRO620  LYS621  CYS622 
 ASP623  PHE694  ASN695  SER759  ASP760  ASP761  ALA762  ILE779  LEU786  VAL792 
 PHE793  MET794  SER795  GLU796  ALA797  LYS798  CYS799  TRP800  GLU811  SER814 

> <Gold.Protein.RotatedAtoms>
  150.8584  134.7929  159.7063 H   0  0  0  0  0  0  0  0  0  0  0  0  # atno 6907 bound_to 6896
  152.4628  134.5141  159.9772 H   0  0  0  0  0  0  0  0  0  0  0  0  # atno 6908 bound_to 6896
  151.5249  133.3421  159.2943 H   0  0  0  0  0  0  0  0  0  0  0  0  # atno 6909 bound_to 6896
  144.9115  140.6901  143.5022 H   0  0  0  0  0  0  0  0  0  0  0  0  # atno 7974 bound_to 7965
  155.9198  140.3422  155.6164 H   0  0  0  0  0  0  0  0  0  0  0  0  # atno 8008 bound_to 7997
  155.7287  140.0792  157.2317 H   0  0  0  0  0  0  0  0  0  0  0  0  # atno 8009 bound_to 7997
  154.4068  140.1592  156.2472 H   0  0  0  0  0  0  0  0  0  0  0  0  # atno 8010 bound_to 7997
  140.1317  144.4637  150.6861 H   0  0  0  0  0  0  0  0  0  0  0  0  # atno 10167 bound_to 10162
  156.9604  130.5930  149.5662 H   0  0  0  0  0  0  0  0  0  0  0  0  # atno 10718 bound_to 10713
  154.6286  135.2884  155.0243 H   0  0  0  0  0  0  0  0  0  0  0  0  # atno 10763 bound_to 10752
  154.1412  135.6518  153.4946 H   0  0  0  0  0  0  0  0  0  0  0  0  # atno 10764 bound_to 10752
  153.0269  135.5333  154.7104 H   0  0  0  0  0  0  0  0  0  0  0  0  # atno 10765 bound_to 10752
  140.8250  134.2585  157.4883 H   0  0  0  0  0  0  0  0  0  0  0  0  # atno 11005 bound_to 11000
  145.3446  139.1723  143.4467 LP  0  0  0  0  0  0  0  0  0  0  0  0  # atno 17320 bound_to 7965
  146.3161  140.3491  142.8654 LP  0  0  0  0  0  0  0  0  0  0  0  0  # atno 17321 bound_to 7965
  140.6813  143.2328  151.5377 LP  0  0  0  0  0  0  0  0  0  0  0  0  # atno 17342 bound_to 10162
  139.5516  144.2381  152.1540 LP  0  0  0  0  0  0  0  0  0  0  0  0  # atno 17343 bound_to 10162
  156.0325  130.5415  150.8570 LP  0  0  0  0  0  0  0  0  0  0  0  0  # atno 17370 bound_to 10713
  157.5662  131.0946  150.9486 LP  0  0  0  0  0  0  0  0  0  0  0  0  # atno 17371 bound_to 10713
  139.8707  134.9556  156.4211 LP  0  0  0  0  0  0  0  0  0  0  0  0  # atno 17394 bound_to 11000
  140.9059  133.7746  155.9734 LP  0  0  0  0  0  0  0  0  0  0  0  0  # atno 17395 bound_to 11000

$$$$
