AV-unprocessed.smi:1149|AV-procd|sdf|4892|dock2
  -GOLD-   22720 3463D 1   1.00000     0.00000
 Structure written by MMmdl.
 50 51  0  0  0  0  0  0  0  0  1 V2000
  148.6304  129.6162  153.9592 C   0  0  0  0  0  0  0  0  0  0  0  0
  149.1790  130.3268  155.0640 O   0  0  0  0  0  0  0  0  0  0  0  0
  149.3544  131.6904  154.9438 C   0  0  0  0  0  0  0  0  0  0  0  0
  150.2494  132.3351  155.8204 C   0  0  0  0  0  0  0  0  0  0  0  0
  150.4304  133.7260  155.7022 C   0  0  0  0  0  0  0  0  0  0  0  0
  149.7065  134.4331  154.7212 C   0  0  0  0  0  0  0  0  0  0  0  0
  149.9230  135.8328  154.6086 N   0  0  0  0  0  0  0  0  0  0  0  0
  150.7387  136.6111  155.3401 C   0  0  0  0  0  0  0  0  0  0  0  0
  151.5008  136.2105  156.2195 O   0  0  0  0  0  0  0  0  0  0  0  0
  150.6392  137.8951  154.9694 N   0  0  0  0  0  0  0  0  0  0  0  0
  151.4101  139.0101  155.5194 C   0  0  0  0  0  0  0  0  0  0  0  0
  150.5006  140.1615  156.0388 C   0  0  0  0  0  0  0  0  0  0  0  0
  149.8917  140.8594  154.7986 C   0  0  0  0  0  0  0  0  0  0  0  0
  149.3342  139.4846  156.8027 C   0  0  0  0  0  0  0  0  0  0  0  0
  151.2497  141.0964  156.9249 N   0  0  0  0  0  0  0  0  0  0  0  0
  150.4939  142.2879  157.3456 C   0  0  0  0  0  0  0  0  0  0  0  0
  151.3745  143.2743  158.1342 C   0  0  0  0  0  0  0  0  0  0  0  0
  151.9452  142.6484  159.3228 N   0  0  0  0  0  0  0  0  0  0  0  0
  152.7680  143.5827  160.0753 C   0  0  0  0  0  0  0  0  0  0  0  0
  152.7062  141.4721  158.9131 C   0  0  0  0  0  0  0  0  0  0  0  0
  151.8301  140.4785  158.1282 C   0  0  0  0  0  0  0  0  0  0  0  0
  148.8405  133.6930  153.8800 C   0  0  0  0  0  0  0  0  0  0  0  0
  148.6646  132.3586  153.9866 N   0  0  0  0  0  0  0  0  0  0  0  0
  148.5495  128.5595  154.2134 H   0  0  0  0  0  0  0  0  0  0  0  0
  149.2682  129.6959  153.0777 H   0  0  0  0  0  0  0  0  0  0  0  0
  147.6300  129.9735  153.7109 H   0  0  0  0  0  0  0  0  0  0  0  0
  150.7879  131.7730  156.5689 H   0  0  0  0  0  0  0  0  0  0  0  0
  151.1139  134.2411  156.3614 H   0  0  0  0  0  0  0  0  0  0  0  0
  149.4326  136.2886  153.8528 H   0  0  0  0  0  0  0  0  0  0  0  0
  149.9961  138.1229  154.2253 H   0  0  0  0  0  0  0  0  0  0  0  0
  152.0439  138.6192  156.3148 H   0  0  0  0  0  0  0  0  0  0  0  0
  152.1135  139.3970  154.7798 H   0  0  0  0  0  0  0  0  0  0  0  0
  149.3427  140.1481  154.1804 H   0  0  0  0  0  0  0  0  0  0  0  0
  150.6551  141.3047  154.1607 H   0  0  0  0  0  0  0  0  0  0  0  0
  149.1878  141.6452  155.0717 H   0  0  0  0  0  0  0  0  0  0  0  0
  148.8957  138.6706  156.2241 H   0  0  0  0  0  0  0  0  0  0  0  0
  148.5207  140.1784  157.0144 H   0  0  0  0  0  0  0  0  0  0  0  0
  149.6653  139.0643  157.7532 H   0  0  0  0  0  0  0  0  0  0  0  0
  150.0968  142.8204  156.4838 H   0  0  0  0  0  0  0  0  0  0  0  0
  149.6409  142.0008  157.9608 H   0  0  0  0  0  0  0  0  0  0  0  0
  152.1705  143.6501  157.4892 H   0  0  0  0  0  0  0  0  0  0  0  0
  150.7751  144.1376  158.4256 H   0  0  0  0  0  0  0  0  0  0  0  0
  153.1682  143.1088  160.9723 H   0  0  0  0  0  0  0  0  0  0  0  0
  152.1817  144.4468  160.3896 H   0  0  0  0  0  0  0  0  0  0  0  0
  153.6067  143.9405  159.4766 H   0  0  0  0  0  0  0  0  0  0  0  0
  153.5574  141.7718  158.2995 H   0  0  0  0  0  0  0  0  0  0  0  0
  153.1154  140.9741  159.7928 H   0  0  0  0  0  0  0  0  0  0  0  0
  151.0429  140.1012  158.7816 H   0  0  0  0  0  0  0  0  0  0  0  0
  152.4559  139.6282  157.8639 H   0  0  0  0  0  0  0  0  0  0  0  0
  148.2835  134.1583  153.0818 H   0  0  0  0  0  0  0  0  0  0  0  0
  1  2  1  0  0  0  0
  1 24  1  0  0  0  0
  1 25  1  0  0  0  0
  1 26  1  0  0  0  0
  2  3  1  0  0  0  0
  3 23  1  0  0  0  0
  3  4  2  0  0  0  0
  4  5  1  0  0  0  0
  4 27  1  0  0  0  0
  5  6  2  0  0  0  0
  5 28  1  0  0  0  0
  6  7  1  0  0  0  0
  6 22  1  0  0  0  0
  7  8  1  0  0  0  0
  7 29  1  0  0  0  0
  8  9  2  0  0  0  0
  8 10  1  0  0  0  0
 10 11  1  0  0  0  0
 10 30  1  0  0  0  0
 11 12  1  0  0  0  0
 11 31  1  0  0  0  0
 11 32  1  0  0  0  0
 12 13  1  0  0  0  0
 12 14  1  0  0  0  0
 12 15  1  0  0  0  0
 13 33  1  0  0  0  0
 13 34  1  0  0  0  0
 13 35  1  0  0  0  0
 14 36  1  0  0  0  0
 14 37  1  0  0  0  0
 14 38  1  0  0  0  0
 15 21  1  0  0  0  0
 15 16  1  0  0  0  0
 16 17  1  0  0  0  0
 16 39  1  0  0  0  0
 16 40  1  0  0  0  0
 17 18  1  0  0  0  0
 17 41  1  0  0  0  0
 17 42  1  0  0  0  0
 18 19  1  0  0  0  0
 18 20  1  0  0  0  0
 19 43  1  0  0  0  0
 19 44  1  0  0  0  0
 19 45  1  0  0  0  0
 20 21  1  0  0  0  0
 20 46  1  0  0  0  0
 20 47  1  0  0  0  0
 21 48  1  0  0  0  0
 21 49  1  0  0  0  0
 22 23  2  0  0  0  0
 22 50  1  0  0  0  0
M  END
> <s_m_source_file>
AV-unprocessed.smi

> <i_m_source_file_index>
1149

> <i_lp_mmshare_version>
43012

> <i_f3d_flags>
0

> <s_epik_input>
W0NIM11PYzFbY0hdW2NIXWMoW2NIXW4xKVtOSF1DKD1PKVtOSF1bQ0gyXUMoW0NIM10pKFtDSDNdKU4yW0NIMl1bQ0gyXU4oW0NIM10pW0NIMl1bQ0gyXTI=

> <s_epik_cmdline>
J2VwaWtfcHl0aG9uJywgJy1waCcsICc3LjAnLCAnLXRuJywgJzgnLCAnLW1hJywgJzIwMCcsICctbWV0YWxfYmluZGluZycsICctaW1hZScsICc8aW5maWxlLm1hZT4nLCAnLW9tYWUnLCAnPG91dGZpbGUubWFlPic=

> <r_lp_tautomer_probability>
1

> <r_epik_Ionization_Penalty>
3.08543

> <r_epik_Ionization_Penalty_Charging>
0

> <r_epik_Ionization_Penalty_Neutral>
3.08543

> <r_epik_State_Penalty>
2.1584

> <r_epik_Charging_Adjusted_Penalty>
2.1584

> <i_epik_Tot_Q>
0

> <i_epik_Tot_abs_Q>
0

> <r_epik_Metal_State_Penalty>
2.1584

> <b_epik_Metal_Only>
0

> <s_lp_Force_Field>
OPLS_2005

> <r_lp_Energy>
53.6816

> <b_lp_Chiralities_Consistent>
1

> <s_lp_Variant>
AV-unprocessed.smi:1149-3

> <Gold.Version>
5.8.1

> <Gold.Id.Protein>
6NUR|6NUR_protein|mol2

> <Gold.PLP.Fitness>
44.9261

> <Gold.PLP.PLP>
-37.7862

> <Gold.PLP.part.hbond>
-2.2360

> <Gold.PLP.part.metal>
0.0000

> <Gold.PLP.part.buried>
-5.4554

> <Gold.PLP.part.nonpolar>
-30.7057

> <Gold.PLP.part.repulsive>
0.2818

> <Gold.PLP.ligand.clash>
0.0000

> <Gold.PLP.ligand.torsion>
0.4893

> <Gold.PLP.Chemscore.Hbond>
1.9120

> <Gold.PLP.Chemscore.CHOScore>
0.7785

> <Gold.PLP.Chemscore.Metal>
0.0000

> <Gold.Chemscore.Hbonds>
donor molecule, donor type, donor heavy atom, donor atom, acceptor molecule, acceptor atom, score
      L1  H     7    29       P1  7948  0.90
      P1  H 10752 10764       L1     9  0.73
      L1  C    22    50       P1  7948  0.91

> <Gold.PLP.Chemscore.Internal.Correction>
0.0471

> <Gold.Rescore>
     Score         DG    S(hbond)    S(metal)    S(lipo)     H(rot)  DE(clash)    DE(int)     intcor
     15.20     -17.28       1.68        0.00      89.56       1.67       0.01       2.07       ----

> <Gold.Chemscore.Fitness>
15.2045

> <Gold.Chemscore.DG>
-17.2811

> <Gold.Chemscore.ZeroCoef>
-5.4800

> <Gold.Chemscore.Hbond>
1.6790

> <Gold.Chemscore.Metal>
0.0000

> <Gold.Chemscore.Lipo>
89.5564

> <Gold.Chemscore.Internal_Hbond>
0.0000

> <Gold.Chemscore.DEClash>
0.0111

> <Gold.Chemscore.DEInternal>
2.0654

> <Gold.Chemscore.Rot>
1.6737

> <Gold.Chemscore.Internal.Correction>
   9.000000E+99

> <Gold.Chemscore.Hbonds>
donor molecule, donor type, donor heavy atom, donor atom, acceptor molecule, acceptor atom, score
      L1  H     7    29       P1  7948  0.65
      P1  H 10752 10764       L1     9  0.19

> <Gold.Chemscore.Hbond.Weighted>
-5.6077

> <Gold.Chemscore.Metal.Weighted>
-0.0000

> <Gold.Chemscore.Lipo.Weighted>
-10.4781

> <Gold.Chemscore.Internal_Hbond.Weighted>
0.0000

> <Gold.Chemscore.DEClash.Weighted>
0.0111

> <Gold.Chemscore.DEInternal.Weighted>
2.0654

> <Gold.Chemscore.Rot.Weighted>
4.2848

> <Gold.Chemscore.Internal.Correction.Weighted>
   9.000000E+99

> <Gold.Protein.RotatedTorsions>
[ 6907 6896 6895 6894 ] final -134.69 input  -60.11 | X-H torsion
[ 7974 7965 7964 7962 ] final  -11.00 input  175.53 | X-H torsion
[ 8008 7997 7996 7995 ] final -117.74 input   59.86 | X-H torsion
[ 10167 10162 10161 10158 ] final -142.54 input  -65.29 | X-H torsion
[ 10718 10713 10712 10709 ] final -111.85 input   66.30 | X-H torsion
[ 10763 10752 10751 10750 ] final  -32.47 input  -60.55 | X-H torsion
[ 11005 11000 10999 10996 ] final -144.43 input  -57.11 | X-H torsion

> <Gold.Protein.ActiveResidues>
 VAL166  LYS551  ARG553  GLY616  TRP617  ASP618  TYR619  PRO620  LYS621  CYS622 
 ASP623  PHE694  ASN695  SER759  ASP760  ASP761  ALA762  ILE779  LEU786  VAL792 
 PHE793  MET794  SER795  GLU796  ALA797  LYS798  CYS799  TRP800  GLU811  SER814 

> <Gold.Protein.RotatedAtoms>
  150.9889  133.6169  159.2711 H   0  0  0  0  0  0  0  0  0  0  0  0  # atno 6907 bound_to 6896
  151.3397  135.0860  159.9376 H   0  0  0  0  0  0  0  0  0  0  0  0  # atno 6908 bound_to 6896
  152.5239  133.9503  159.7723 H   0  0  0  0  0  0  0  0  0  0  0  0  # atno 6909 bound_to 6896
  146.2202  140.2846  142.8364 H   0  0  0  0  0  0  0  0  0  0  0  0  # atno 7974 bound_to 7965
  155.0886  140.0395  157.2661 H   0  0  0  0  0  0  0  0  0  0  0  0  # atno 8008 bound_to 7997
  154.6850  140.2641  155.6845 H   0  0  0  0  0  0  0  0  0  0  0  0  # atno 8009 bound_to 7997
  156.2708  140.2771  156.1408 H   0  0  0  0  0  0  0  0  0  0  0  0  # atno 8010 bound_to 7997
  139.8079  143.7743  152.2662 H   0  0  0  0  0  0  0  0  0  0  0  0  # atno 10167 bound_to 10162
  156.0671  130.5889  150.8429 H   0  0  0  0  0  0  0  0  0  0  0  0  # atno 10718 bound_to 10713
  153.8144  135.6879  153.4836 H   0  0  0  0  0  0  0  0  0  0  0  0  # atno 10763 bound_to 10752
  153.1608  135.4580  154.9768 H   0  0  0  0  0  0  0  0  0  0  0  0  # atno 10764 bound_to 10752
  154.7954  135.3317  154.7621 H   0  0  0  0  0  0  0  0  0  0  0  0  # atno 10765 bound_to 10752
  140.8025  134.2839  157.4973 H   0  0  0  0  0  0  0  0  0  0  0  0  # atno 11005 bound_to 11000
  144.9171  140.7825  143.5771 LP  0  0  0  0  0  0  0  0  0  0  0  0  # atno 17320 bound_to 7965
  145.2781  139.1929  143.4806 LP  0  0  0  0  0  0  0  0  0  0  0  0  # atno 17321 bound_to 7965
  139.7883  144.7419  150.9991 LP  0  0  0  0  0  0  0  0  0  0  0  0  # atno 17342 bound_to 10162
  140.7818  143.4469  151.0470 LP  0  0  0  0  0  0  0  0  0  0  0  0  # atno 17343 bound_to 10162
  157.5719  131.0946  150.9404 LP  0  0  0  0  0  0  0  0  0  0  0  0  # atno 17370 bound_to 10713
  156.9619  130.5458  149.5286 LP  0  0  0  0  0  0  0  0  0  0  0  0  # atno 17371 bound_to 10713
  139.8720  134.9438  156.3862 LP  0  0  0  0  0  0  0  0  0  0  0  0  # atno 17394 bound_to 11000
  140.9280  133.7599  155.9988 LP  0  0  0  0  0  0  0  0  0  0  0  0  # atno 17395 bound_to 11000

$$$$
