AV-unprocessed.smi:3068|AV-procd|sdf|11703|dock9
  -GOLD-   2272017103D 1   1.00000     0.00000
 Structure written by MMmdl.
 40 42  0  0  0  0  0  0  0  0  2 V2000
  149.8748  136.5053  159.2370 N   0  0  0  0  0  0  0  0  0  0  0  0
  150.2806  136.8444  158.2078 C   0  0  0  0  0  0  0  0  0  0  0  0
  150.7915  137.2701  156.9109 C   0  0  0  0  0  0  0  0  0  0  0  0
  151.3413  138.5050  156.8504 N   0  0  0  0  0  0  0  0  0  0  0  0
  151.8162  138.9133  155.6546 C   0  0  0  0  0  0  0  0  0  0  0  0
  151.7439  138.0914  154.5133 C   0  0  0  0  0  0  0  0  0  0  0  0
  151.1961  136.8586  154.5639 N   0  0  0  0  0  0  0  0  0  0  0  0
  150.7148  136.4356  155.7599 C   0  0  0  0  0  0  0  0  0  0  0  0
  150.1408  135.1523  155.8288 N   0  0  0  0  0  0  0  0  0  0  0  0
  150.2841  134.1823  154.7493 C   0  0  0  0  0  0  0  0  0  0  0  0
  148.9379  133.8249  154.0966 C   0  0  1  0  0  0  0  0  0  0  0  0
  149.1366  132.9488  152.8402 C   0  0  0  0  0  0  0  0  0  0  0  0
  147.8401  132.4984  152.2784 N   0  3  2  0  0  0  0  0  0  0  0  0
  147.1304  133.5544  151.5060 C   0  0  0  0  0  0  0  0  0  0  0  0
  145.8313  133.0166  150.8889 C   0  0  0  0  0  0  0  0  0  0  0  0
  144.9155  132.4407  151.9745 C   0  0  0  0  0  0  0  0  0  0  0  0
  145.6595  131.3526  152.7603 C   0  0  0  0  0  0  0  0  0  0  0  0
  147.0068  131.8482  153.3277 C   0  0  2  0  0  0  0  0  0  0  0  0
  146.8674  132.7661  154.5603 C   0  0  0  0  0  0  0  0  0  0  0  0
  148.1635  133.0968  155.0456 O   0  0  0  0  0  0  0  0  0  0  0  0
  152.2550  139.8991  155.6086 H   0  0  0  0  0  0  0  0  0  0  0  0
  152.1256  138.4227  153.5590 H   0  0  0  0  0  0  0  0  0  0  0  0
  149.5262  134.9255  156.5983 H   0  0  0  0  0  0  0  0  0  0  0  0
  150.9766  134.5718  154.0023 H   0  0  0  0  0  0  0  0  0  0  0  0
  150.7507  133.2832  155.1526 H   0  0  0  0  0  0  0  0  0  0  0  0
  148.4136  134.7422  153.8267 H   0  0  0  0  0  0  0  0  0  0  0  0
  149.7090  133.4835  152.0812 H   0  0  0  0  0  0  0  0  0  0  0  0
  149.7206  132.0648  153.1007 H   0  0  0  0  0  0  0  0  0  0  0  0
  146.9034  134.4100  152.1422 H   0  0  0  0  0  0  0  0  0  0  0  0
  147.7835  133.9199  150.7127 H   0  0  0  0  0  0  0  0  0  0  0  0
  145.3166  133.8129  150.3505 H   0  0  0  0  0  0  0  0  0  0  0  0
  146.0636  132.2450  150.1537 H   0  0  0  0  0  0  0  0  0  0  0  0
  144.5887  133.2347  152.6469 H   0  0  0  0  0  0  0  0  0  0  0  0
  144.0139  132.0256  151.5228 H   0  0  0  0  0  0  0  0  0  0  0  0
  145.0282  130.9705  153.5633 H   0  0  0  0  0  0  0  0  0  0  0  0
  145.8454  130.5075  152.0960 H   0  0  0  0  0  0  0  0  0  0  0  0
  147.5530  130.9627  153.6572 H   0  0  0  0  0  0  0  0  0  0  0  0
  146.3073  133.6742  154.3340 H   0  0  0  0  0  0  0  0  0  0  0  0
  146.3239  132.2509  155.3526 H   0  0  0  0  0  0  0  0  0  0  0  0
  148.0578  131.7782  151.6046 H   0  0  0  0  0  0  0  0  0  0  0  0
  1  2  3  0  0  0  0
  2  3  1  0  0  0  0
  3  8  1  0  0  0  0
  3  4  2  0  0  0  0
  4  5  1  0  0  0  0
  5  6  2  0  0  0  0
  5 21  1  0  0  0  0
  6  7  1  0  0  0  0
  6 22  1  0  0  0  0
  7  8  2  0  0  0  0
  8  9  1  0  0  0  0
  9 10  1  0  0  0  0
  9 23  1  0  0  0  0
 10 11  1  0  0  0  0
 10 24  1  0  0  0  0
 10 25  1  0  0  0  0
 11 20  1  0  0  0  0
 11 12  1  0  0  0  0
 11 26  1  0  0  0  0
 12 13  1  0  0  0  0
 12 27  1  0  0  0  0
 12 28  1  0  0  0  0
 13 18  1  0  0  0  0
 13 14  1  0  0  0  0
 13 40  1  0  0  0  0
 14 15  1  0  0  0  0
 14 29  1  0  0  0  0
 14 30  1  0  0  0  0
 15 16  1  0  0  0  0
 15 31  1  0  0  0  0
 15 32  1  0  0  0  0
 16 17  1  0  0  0  0
 16 33  1  0  0  0  0
 16 34  1  0  0  0  0
 17 18  1  0  0  0  0
 17 35  1  0  0  0  0
 17 36  1  0  0  0  0
 18 19  1  0  0  0  0
 18 37  1  0  0  0  0
 19 20  1  0  0  0  0
 19 38  1  0  0  0  0
 19 39  1  0  0  0  0
M  CHG  1  13   1
M  END
> <s_m_source_file>
AV-unprocessed.smi

> <i_m_source_file_index>
3068

> <i_lp_mmshare_version>
43012

> <i_f3d_flags>
0

> <s_epik_input>
TiNDYzFuW2NIXVtjSF1uYzFbTkhdW0NIMl1bQ0BIXShbQ0gyXTIpT1tDSDJdW0NAQEhdKE4yMylbQ0gyXVtDSDJdW0NIMl1bQ0gyXTM=

> <s_epik_cmdline>
J2VwaWtfcHl0aG9uJywgJy1waCcsICc3LjAnLCAnLXRuJywgJzgnLCAnLW1hJywgJzIwMCcsICctbWV0YWxfYmluZGluZycsICctaW1hZScsICc8aW5maWxlLm1hZT4nLCAnLW9tYWUnLCAnPG91dGZpbGUubWFlPic=

> <r_epik_Ionization_Penalty>
0.0804321

> <r_epik_Ionization_Penalty_Charging>
0.0803403

> <r_epik_Ionization_Penalty_Neutral>
9.17277e-05

> <r_epik_State_Penalty>
0.0711481

> <r_epik_Charging_Adjusted_Penalty>
0.151488

> <i_epik_Tot_Q>
1

> <i_epik_Tot_abs_Q>
1

> <r_epik_Metal_State_Penalty>
0.0711481

> <b_epik_Metal_Only>
0

> <s_lp_Force_Field>
OPLS_2005

> <r_lp_Energy>
39.7851

> <b_lp_Chiralities_Consistent>
1

> <s_lp_Variant>
AV-unprocessed.smi:3068-6

> <Gold.Version>
5.8.1

> <Gold.Id.Protein>
6NUR|6NUR_protein|mol2

> <Gold.PLP.Fitness>
36.1146

> <Gold.PLP.PLP>
-27.2863

> <Gold.PLP.part.hbond>
-3.0000

> <Gold.PLP.part.metal>
0.0000

> <Gold.PLP.part.buried>
-5.5210

> <Gold.PLP.part.nonpolar>
-18.5786

> <Gold.PLP.part.repulsive>
0.2834

> <Gold.PLP.ligand.clash>
0.0000

> <Gold.PLP.ligand.torsion>
0.0744

> <Gold.PLP.Chemscore.Hbond>
2.9913

> <Gold.PLP.Chemscore.CHOScore>
0.0000

> <Gold.PLP.Chemscore.Metal>
0.0000

> <Gold.Chemscore.Hbonds>
donor molecule, donor type, donor heavy atom, donor atom, acceptor molecule, acceptor atom, score
      L1  H    13    40       P1 10747  1.00
      P1  H  6896  6908       L1     1  1.00
      P1  H 10752 10764       L1     7  0.73

> <Gold.PLP.Chemscore.Internal.Correction>
0.0035

> <Gold.Rescore>
     Score         DG    S(hbond)    S(metal)    S(lipo)     H(rot)  DE(clash)    DE(int)     intcor
     16.38     -16.96       1.98        0.00      70.49       1.32       0.45       0.13       ----

> <Gold.Chemscore.Fitness>
16.3790

> <Gold.Chemscore.DG>
-16.9575

> <Gold.Chemscore.ZeroCoef>
-5.4800

> <Gold.Chemscore.Hbond>
1.9782

> <Gold.Chemscore.Metal>
0.0000

> <Gold.Chemscore.Lipo>
70.4941

> <Gold.Chemscore.Internal_Hbond>
0.0000

> <Gold.Chemscore.DEClash>
0.4486

> <Gold.Chemscore.DEInternal>
0.1298

> <Gold.Chemscore.Rot>
1.3193

> <Gold.Chemscore.Internal.Correction>
   9.000000E+99

> <Gold.Chemscore.Hbonds>
donor molecule, donor type, donor heavy atom, donor atom, acceptor molecule, acceptor atom, score
      L1  H    13    40       P1 10747  0.99
      P1  H  6896  6908       L1     1  0.55
      P1  H 10752 10764       L1     7  0.05

> <Gold.Chemscore.Hbond.Weighted>
-6.6070

> <Gold.Chemscore.Metal.Weighted>
-0.0000

> <Gold.Chemscore.Lipo.Weighted>
-8.2478

> <Gold.Chemscore.Internal_Hbond.Weighted>
0.0000

> <Gold.Chemscore.DEClash.Weighted>
0.4486

> <Gold.Chemscore.DEInternal.Weighted>
0.1298

> <Gold.Chemscore.Rot.Weighted>
3.3774

> <Gold.Chemscore.Internal.Correction.Weighted>
   9.000000E+99

> <Gold.Protein.RotatedTorsions>
[ 6907 6896 6895 6894 ] final -168.09 input  -60.11 | X-H torsion
[ 7974 7965 7964 7962 ] final    7.36 input  175.53 | X-H torsion
[ 8008 7997 7996 7995 ] final   75.15 input   59.86 | X-H torsion
[ 10167 10162 10161 10158 ] final  -89.10 input  -65.29 | X-H torsion
[ 10718 10713 10712 10709 ] final  137.12 input   66.30 | X-H torsion
[ 10763 10752 10751 10750 ] final  -67.03 input  -60.55 | X-H torsion
[ 11005 11000 10999 10996 ] final  113.11 input  -57.11 | X-H torsion

> <Gold.Protein.ActiveResidues>
 VAL166  LYS551  ARG553  GLY616  TRP617  ASP618  TYR619  PRO620  LYS621  CYS622 
 ASP623  PHE694  ASN695  SER759  ASP760  ASP761  ALA762  ILE779  LEU786  VAL792 
 PHE793  MET794  SER795  GLU796  ALA797  LYS798  CYS799  TRP800  GLU811  SER814 

> <Gold.Protein.RotatedAtoms>
  151.4700  133.3571  159.2821 H   0  0  0  0  0  0  0  0  0  0  0  0  # atno 6907 bound_to 6896
  150.8967  134.8378  159.7342 H   0  0  0  0  0  0  0  0  0  0  0  0  # atno 6908 bound_to 6896
  152.4855  134.4616  159.9659 H   0  0  0  0  0  0  0  0  0  0  0  0  # atno 6909 bound_to 6896
  146.2427  140.0095  142.8408 H   0  0  0  0  0  0  0  0  0  0  0  0  # atno 7974 bound_to 7965
  155.8087  140.3474  155.5445 H   0  0  0  0  0  0  0  0  0  0  0  0  # atno 8008 bound_to 7997
  155.8463  140.0949  157.1723 H   0  0  0  0  0  0  0  0  0  0  0  0  # atno 8009 bound_to 7997
  154.4006  140.1385  156.3777 H   0  0  0  0  0  0  0  0  0  0  0  0  # atno 8010 bound_to 7997
  140.3682  143.2807  151.9532 H   0  0  0  0  0  0  0  0  0  0  0  0  # atno 10167 bound_to 10162
  157.4394  131.1056  151.0160 H   0  0  0  0  0  0  0  0  0  0  0  0  # atno 10718 bound_to 10713
  154.3685  135.6100  153.5727 H   0  0  0  0  0  0  0  0  0  0  0  0  # atno 10763 bound_to 10752
  152.9791  135.5832  154.4550 H   0  0  0  0  0  0  0  0  0  0  0  0  # atno 10764 bound_to 10752
  154.4300  135.2847  155.1896 H   0  0  0  0  0  0  0  0  0  0  0  0  # atno 10765 bound_to 10752
  139.8944  134.9543  156.6689 H   0  0  0  0  0  0  0  0  0  0  0  0  # atno 11005 bound_to 11000
  145.1341  140.9534  143.4527 LP  0  0  0  0  0  0  0  0  0  0  0  0  # atno 17320 bound_to 7965
  145.0359  139.3301  143.6001 LP  0  0  0  0  0  0  0  0  0  0  0  0  # atno 17321 bound_to 7965
  139.4806  144.5931  151.7737 LP  0  0  0  0  0  0  0  0  0  0  0  0  # atno 17342 bound_to 10162
  140.5060  144.1098  150.5982 LP  0  0  0  0  0  0  0  0  0  0  0  0  # atno 17343 bound_to 10162
  157.1029  130.5989  149.5464 LP  0  0  0  0  0  0  0  0  0  0  0  0  # atno 17370 bound_to 10713
  155.9943  130.5006  150.7414 LP  0  0  0  0  0  0  0  0  0  0  0  0  # atno 17371 bound_to 10713
  140.7389  133.8995  155.8263 LP  0  0  0  0  0  0  0  0  0  0  0  0  # atno 17394 bound_to 11000
  141.0094  134.1041  157.4237 LP  0  0  0  0  0  0  0  0  0  0  0  0  # atno 17395 bound_to 11000

$$$$
