AV-unprocessed.smi:649|AV-procd|sdf|3181|dock1
  -GOLD-   22720 0103D 1   1.00000     0.00000
 Structure written by MMmdl.
 34 35  0  0  0  0  0  0  0  0  2 V2000
  151.8827  144.4899  157.7015 C   0  0  0  0  0  0  0  0  0  0  0  0
  152.2571  143.9446  159.0639 C   0  0  0  0  0  0  0  0  0  0  0  0
  151.7337  144.5264  160.2326 C   0  0  0  0  0  0  0  0  0  0  0  0
  152.0754  144.0002  161.4911 C   0  0  0  0  0  0  0  0  0  0  0  0
  152.9372  142.8872  161.6014 C   0  0  0  0  0  0  0  0  0  0  0  0
  153.2467  142.3657  162.9954 C   0  0  0  0  0  0  0  0  0  0  0  0
  153.4739  142.2966  160.4222 C   0  0  0  0  0  0  0  0  0  0  0  0
  154.3885  141.0660  160.4283 C   0  0  1  0  0  0  0  0  0  0  0  0
  155.6373  141.2905  161.0495 O   0  0  0  0  0  0  0  0  0  0  0  0
  153.7334  139.7949  161.0219 C   0  0  0  0  0  0  0  0  0  0  0  0
  153.6418  138.6952  160.0483 N   0  0  0  0  0  0  0  0  0  0  0  0
  153.4249  139.0277  158.6996 C   0  0  0  0  0  0  0  0  0  0  0  0
  153.3687  138.0919  157.7328 C   0  0  0  0  0  0  0  0  0  0  0  0
  153.1184  138.5325  156.0812 Cl  0  0  0  0  0  0  0  0  0  0  0  0
  153.5341  136.6930  158.1219 C   0  0  0  0  0  0  0  0  0  0  0  0
  153.4872  135.8123  157.2641 O   0  0  0  0  0  0  0  0  0  0  0  0
  153.7372  136.4224  159.4448 N   0  5  0  0  0  0  0  0  0  0  0  0
  153.7989  137.3884  160.4124 C   0  0  0  0  0  0  0  0  0  0  0  0
  153.9982  137.1216  161.5977 O   0  0  0  0  0  0  0  0  0  0  0  0
  153.1235  142.8402  159.1652 C   0  0  0  0  0  0  0  0  0  0  0  0
  151.5022  145.5089  157.7757 H   0  0  0  0  0  0  0  0  0  0  0  0
  151.1116  143.8667  157.2480 H   0  0  0  0  0  0  0  0  0  0  0  0
  152.7496  144.4994  157.0403 H   0  0  0  0  0  0  0  0  0  0  0  0
  151.0660  145.3730  160.1692 H   0  0  0  0  0  0  0  0  0  0  0  0
  151.6625  144.4566  162.3785 H   0  0  0  0  0  0  0  0  0  0  0  0
  154.2779  142.5893  163.2680 H   0  0  0  0  0  0  0  0  0  0  0  0
  153.0903  141.2911  163.0626 H   0  0  0  0  0  0  0  0  0  0  0  0
  152.6021  142.8308  163.7416 H   0  0  0  0  0  0  0  0  0  0  0  0
  154.6353  140.8454  159.3892 H   0  0  0  0  0  0  0  0  0  0  0  0
  156.2441  140.6360  160.7393 H   0  0  0  0  0  0  0  0  0  0  0  0
  154.2849  139.4710  161.9063 H   0  0  0  0  0  0  0  0  0  0  0  0
  152.7361  140.0247  161.3944 H   0  0  0  0  0  0  0  0  0  0  0  0
  153.3241  140.0841  158.4983 H   0  0  0  0  0  0  0  0  0  0  0  0
  153.5095  142.3923  158.2607 H   0  0  0  0  0  0  0  0  0  0  0  0
  1  2  1  0  0  0  0
  1 21  1  0  0  0  0
  1 22  1  0  0  0  0
  1 23  1  0  0  0  0
  2 20  1  0  0  0  0
  2  3  2  0  0  0  0
  3  4  1  0  0  0  0
  3 24  1  0  0  0  0
  4  5  2  0  0  0  0
  4 25  1  0  0  0  0
  5  6  1  0  0  0  0
  5  7  1  0  0  0  0
  6 26  1  0  0  0  0
  6 27  1  0  0  0  0
  6 28  1  0  0  0  0
  7  8  1  0  0  0  0
  7 20  2  0  0  0  0
  8  9  1  0  0  0  0
  8 10  1  0  0  0  0
  8 29  1  0  0  0  0
  9 30  1  0  0  0  0
 10 11  1  0  0  0  0
 10 31  1  0  0  0  0
 10 32  1  0  0  0  0
 11 18  1  0  0  0  0
 11 12  1  0  0  0  0
 12 13  2  0  0  0  0
 12 33  1  0  0  0  0
 13 14  1  0  0  0  0
 13 15  1  0  0  0  0
 15 16  2  0  0  0  0
 15 17  1  0  0  0  0
 17 18  1  0  0  0  0
 18 19  2  0  0  0  0
 20 34  1  0  0  0  0
M  CHG  1  17  -1
M  END
> <s_m_source_file>
AV-unprocessed.smi

> <i_m_source_file_index>
649

> <i_lp_mmshare_version>
43012

> <i_f3d_flags>
0

> <s_epik_input>
W0NIM11jMVtjSF1bY0hdYyhbQ0gzXSljKFtjSF0xKVtDQEhdKFtPSF0pW0NIMl1uMltjSF1jKENsKWMoPU8pW25IXWMyPU8=

> <s_epik_cmdline>
J2VwaWtfcHl0aG9uJywgJy1waCcsICc3LjAnLCAnLXRuJywgJzgnLCAnLW1hJywgJzIwMCcsICctbWV0YWxfYmluZGluZycsICctaW1hZScsICc8aW5maWxlLm1hZT4nLCAnLW9tYWUnLCAnPG91dGZpbGUubWFlPic=

> <r_epik_Ionization_Penalty>
1.7979

> <r_epik_Ionization_Penalty_Charging>
3.23819e-08

> <r_epik_Ionization_Penalty_Neutral>
1.7979

> <r_epik_State_Penalty>
1.91135

> <r_epik_Charging_Adjusted_Penalty>
1.91135

> <i_epik_Tot_Q>
-1

> <i_epik_Tot_abs_Q>
1

> <r_epik_Metal_State_Penalty>
0.014155

> <b_epik_Metal_Only>
0

> <s_lp_Force_Field>
OPLS_2005

> <r_lp_Energy>
20.3663

> <b_lp_Chiralities_Consistent>
1

> <s_lp_Variant>
AV-unprocessed.smi:649-4

> <Gold.Version>
5.8.1

> <Gold.Id.Protein>
6NUR|6NUR_protein|mol2

> <Gold.PLP.Fitness>
52.7193

> <Gold.PLP.PLP>
-45.8658

> <Gold.PLP.part.hbond>
-3.0000

> <Gold.PLP.part.metal>
0.0000

> <Gold.PLP.part.buried>
-4.8700

> <Gold.PLP.part.nonpolar>
-38.7023

> <Gold.PLP.part.repulsive>
0.0000

> <Gold.PLP.ligand.clash>
0.0000

> <Gold.PLP.ligand.torsion>
1.1119

> <Gold.PLP.Chemscore.Hbond>
3.0000

> <Gold.PLP.Chemscore.CHOScore>
0.0000

> <Gold.PLP.Chemscore.Metal>
0.0000

> <Gold.Chemscore.Hbonds>
donor molecule, donor type, donor heavy atom, donor atom, acceptor molecule, acceptor atom, score
      P1  H  6896  6909       L1    17  1.01
      P1  H 10752 10765       L1    16  1.00

> <Gold.PLP.Chemscore.Internal.Correction>
0.0774

> <Gold.Rescore>
     Score         DG    S(hbond)    S(metal)    S(lipo)     H(rot)  DE(clash)    DE(int)     intcor
     18.62     -20.46       1.71        0.00     125.00       2.09       0.86       0.98       ----

> <Gold.Chemscore.Fitness>
18.6210

> <Gold.Chemscore.DG>
-20.4603

> <Gold.Chemscore.ZeroCoef>
-5.4800

> <Gold.Chemscore.Hbond>
1.7060

> <Gold.Chemscore.Metal>
0.0000

> <Gold.Chemscore.Lipo>
124.9965

> <Gold.Chemscore.Internal_Hbond>
0.0000

> <Gold.Chemscore.DEClash>
0.8555

> <Gold.Chemscore.DEInternal>
0.9838

> <Gold.Chemscore.Rot>
2.0868

> <Gold.Chemscore.Internal.Correction>
   9.000000E+99

> <Gold.Chemscore.Hbonds>
donor molecule, donor type, donor heavy atom, donor atom, acceptor molecule, acceptor atom, score
      P1  H  6896  6909       L1    17  0.16
      P1  H 10752 10765       L1    16  0.99

> <Gold.Chemscore.Hbond.Weighted>
-5.6980

> <Gold.Chemscore.Metal.Weighted>
-0.0000

> <Gold.Chemscore.Lipo.Weighted>
-14.6246

> <Gold.Chemscore.Internal_Hbond.Weighted>
0.0000

> <Gold.Chemscore.DEClash.Weighted>
0.8555

> <Gold.Chemscore.DEInternal.Weighted>
0.9838

> <Gold.Chemscore.Rot.Weighted>
5.3423

> <Gold.Chemscore.Internal.Correction.Weighted>
   9.000000E+99

> <Gold.Protein.RotatedTorsions>
[ 6907 6896 6895 6894 ] final  153.68 input  -60.11 | X-H torsion
[ 7974 7965 7964 7962 ] final   70.94 input  175.53 | X-H torsion
[ 8008 7997 7996 7995 ] final -173.13 input   59.86 | X-H torsion
[ 10167 10162 10161 10158 ] final  100.74 input  -65.29 | X-H torsion
[ 10718 10713 10712 10709 ] final   53.14 input   66.30 | X-H torsion
[ 10763 10752 10751 10750 ] final -102.04 input  -60.55 | X-H torsion
[ 11005 11000 10999 10996 ] final   32.29 input  -57.11 | X-H torsion

> <Gold.Protein.ActiveResidues>
 VAL166  LYS551  ARG553  GLY616  TRP617  ASP618  TYR619  PRO620  LYS621  CYS622 
 ASP623  PHE694  ASN695  SER759  ASP760  ASP761  ALA762  ILE779  LEU786  VAL792 
 PHE793  MET794  SER795  GLU796  ALA797  LYS798  CYS799  TRP800  GLU811  SER814 

> <Gold.Protein.RotatedAtoms>
  152.0693  133.4099  159.4451 H   0  0  0  0  0  0  0  0  0  0  0  0  # atno 6907 bound_to 6896
  150.6864  134.3111  159.4756 H   0  0  0  0  0  0  0  0  0  0  0  0  # atno 6908 bound_to 6896
  152.0940  134.9387  160.0622 H   0  0  0  0  0  0  0  0  0  0  0  0  # atno 6909 bound_to 6896
  145.7719  139.2847  143.1316 H   0  0  0  0  0  0  0  0  0  0  0  0  # atno 7974 bound_to 7965
  155.9535  140.1131  157.0957 H   0  0  0  0  0  0  0  0  0  0  0  0  # atno 8008 bound_to 7997
  154.4115  140.1196  156.5150 H   0  0  0  0  0  0  0  0  0  0  0  0  # atno 8009 bound_to 7997
  155.6812  140.3473  155.4858 H   0  0  0  0  0  0  0  0  0  0  0  0  # atno 8010 bound_to 7997
  139.7500  144.6987  151.0447 H   0  0  0  0  0  0  0  0  0  0  0  0  # atno 10167 bound_to 10162
  157.5139  130.8519  149.8471 H   0  0  0  0  0  0  0  0  0  0  0  0  # atno 10718 bound_to 10713
  154.7704  135.4875  153.9637 H   0  0  0  0  0  0  0  0  0  0  0  0  # atno 10763 bound_to 10752
  153.1360  135.6763  153.9110 H   0  0  0  0  0  0  0  0  0  0  0  0  # atno 10764 bound_to 10752
  153.8799  135.3133  155.3423 H   0  0  0  0  0  0  0  0  0  0  0  0  # atno 10765 bound_to 10752
  140.2750  134.3039  155.7817 H   0  0  0  0  0  0  0  0  0  0  0  0  # atno 11005 bound_to 11000
  146.0161  140.8391  142.9947 LP  0  0  0  0  0  0  0  0  0  0  0  0  # atno 17320 bound_to 7965
  144.6811  140.2560  143.7325 LP  0  0  0  0  0  0  0  0  0  0  0  0  # atno 17321 bound_to 7965
  140.7796  143.4820  151.0005 LP  0  0  0  0  0  0  0  0  0  0  0  0  # atno 17342 bound_to 10162
  139.8508  143.7441  152.3178 LP  0  0  0  0  0  0  0  0  0  0  0  0  # atno 17343 bound_to 10162
  156.0307  130.3765  150.1694 LP  0  0  0  0  0  0  0  0  0  0  0  0  # atno 17370 bound_to 10713
  156.9884  130.9885  151.3421 LP  0  0  0  0  0  0  0  0  0  0  0  0  # atno 17371 bound_to 10713
  141.2172  133.7490  156.9392 LP  0  0  0  0  0  0  0  0  0  0  0  0  # atno 17394 bound_to 11000
  140.1337  134.9339  157.2373 LP  0  0  0  0  0  0  0  0  0  0  0  0  # atno 17395 bound_to 11000

$$$$
