AV-unprocessed.smi:718|AV-procd|sdf|3491|dock7
  -GOLD-   22720 0483D 1   1.00000     0.00000
 Structure written by MMmdl.
 27 28  0  0  0  0  0  0  0  0  1 V2000
  152.6372  139.8310  157.6442 O   0  0  0  0  0  0  0  0  0  0  0  0
  151.9056  140.7543  157.2852 C   0  0  0  0  0  0  0  0  0  0  0  0
  151.6130  141.8282  158.0441 N   0  0  0  0  0  0  0  0  0  0  0  0
  152.0761  142.1407  159.3495 C   0  0  0  0  0  0  0  0  0  0  0  0
  153.1170  141.3142  159.8284 C   0  0  0  0  0  0  0  0  0  0  0  0
  153.6480  141.5396  161.1136 C   0  0  0  0  0  0  0  0  0  0  0  0
  154.9212  140.5345  161.7078 Cl  0  0  0  0  0  0  0  0  0  0  0  0
  153.1209  142.5918  161.8894 C   0  0  0  0  0  0  0  0  0  0  0  0
  153.7146  142.9361  163.4746 Cl  0  0  0  0  0  0  0  0  0  0  0  0
  152.0850  143.3667  161.3358 C   0  0  0  0  0  0  0  0  0  0  0  0
  151.5762  143.1506  160.1045 N   0  0  0  0  0  0  0  0  0  0  0  0
  151.2383  140.7102  155.9018 C   0  0  2  0  0  0  0  0  0  0  0  0
  150.1018  141.7480  155.7496 C   0  0  0  0  0  0  0  0  0  0  0  0
  149.5143  141.6178  154.4615 O   0  0  0  0  0  0  0  0  0  0  0  0
  148.9750  140.3182  154.2664 C   0  0  0  0  0  0  0  0  0  0  0  0
  150.1044  139.2846  154.4034 C   0  0  0  0  0  0  0  0  0  0  0  0
  150.6919  139.4096  155.6915 O   0  0  0  0  0  0  0  0  0  0  0  0
  150.9930  142.5070  157.6269 H   0  0  0  0  0  0  0  0  0  0  0  0
  153.5079  140.5126  159.2184 H   0  0  0  0  0  0  0  0  0  0  0  0
  151.6518  144.1832  161.8945 H   0  0  0  0  0  0  0  0  0  0  0  0
  152.0127  140.8996  155.1564 H   0  0  0  0  0  0  0  0  0  0  0  0
  149.3410  141.6184  156.5214 H   0  0  0  0  0  0  0  0  0  0  0  0
  150.4887  142.7630  155.8466 H   0  0  0  0  0  0  0  0  0  0  0  0
  148.1804  140.1258  154.9890 H   0  0  0  0  0  0  0  0  0  0  0  0
  148.5280  140.2631  153.2739 H   0  0  0  0  0  0  0  0  0  0  0  0
  149.7099  138.2749  154.2883 H   0  0  0  0  0  0  0  0  0  0  0  0
  150.8595  139.4262  153.6285 H   0  0  0  0  0  0  0  0  0  0  0  0
  1  2  2  0  0  0  0
  2  3  1  0  0  0  0
  2 12  1  0  0  0  0
  3  4  1  0  0  0  0
  3 18  1  0  0  0  0
  4 11  1  0  0  0  0
  4  5  2  0  0  0  0
  5  6  1  0  0  0  0
  5 19  1  0  0  0  0
  6  7  1  0  0  0  0
  6  8  2  0  0  0  0
  8  9  1  0  0  0  0
  8 10  1  0  0  0  0
 10 11  2  0  0  0  0
 10 20  1  0  0  0  0
 12 17  1  0  0  0  0
 12 13  1  0  0  0  0
 12 21  1  0  0  0  0
 13 14  1  0  0  0  0
 13 22  1  0  0  0  0
 13 23  1  0  0  0  0
 14 15  1  0  0  0  0
 15 16  1  0  0  0  0
 15 24  1  0  0  0  0
 15 25  1  0  0  0  0
 16 17  1  0  0  0  0
 16 26  1  0  0  0  0
 16 27  1  0  0  0  0
M  END
> <s_m_source_file>
AV-unprocessed.smi

> <i_m_source_file_index>
718

> <i_lp_mmshare_version>
43012

> <i_f3d_flags>
0

> <s_epik_input>
TzFbQ0gyXVtDSDJdT1tDSDJdW0NASF0xQyg9TylbTkhdYzJbY0hdYyhDbCljKENsKVtjSF1uMg==

> <s_epik_cmdline>
J2VwaWtfcHl0aG9uJywgJy1waCcsICc3LjAnLCAnLXRuJywgJzgnLCAnLW1hJywgJzIwMCcsICctbWV0YWxfYmluZGluZycsICctaW1hZScsICc8aW5maWxlLm1hZT4nLCAnLW9tYWUnLCAnPG91dGZpbGUubWFlPic=

> <r_lp_tautomer_probability>
1

> <r_epik_Ionization_Penalty>
4.81693e-06

> <r_epik_Ionization_Penalty_Charging>
0

> <r_epik_Ionization_Penalty_Neutral>
4.81693e-06

> <r_epik_State_Penalty>
-0

> <r_epik_Charging_Adjusted_Penalty>
0

> <i_epik_Tot_Q>
0

> <i_epik_Tot_abs_Q>
0

> <r_epik_Metal_State_Penalty>
-0

> <b_epik_Metal_Only>
0

> <s_lp_Force_Field>
OPLS_2005

> <r_lp_Energy>
11.6855

> <b_lp_Chiralities_Consistent>
1

> <s_lp_Variant>
AV-unprocessed.smi:718-1

> <Gold.Version>
5.8.1

> <Gold.Id.Protein>
6NUR|6NUR_protein|mol2

> <Gold.PLP.Fitness>
40.7911

> <Gold.PLP.PLP>
-40.1609

> <Gold.PLP.part.hbond>
-3.0000

> <Gold.PLP.part.metal>
0.0000

> <Gold.PLP.part.buried>
-1.7172

> <Gold.PLP.part.nonpolar>
-33.3123

> <Gold.PLP.part.repulsive>
0.2943

> <Gold.PLP.ligand.clash>
2.4403

> <Gold.PLP.ligand.torsion>
0.3502

> <Gold.PLP.Chemscore.Hbond>
1.2564

> <Gold.PLP.Chemscore.CHOScore>
0.0000

> <Gold.PLP.Chemscore.Metal>
0.0000

> <Gold.Chemscore.Hbonds>
donor molecule, donor type, donor heavy atom, donor atom, acceptor molecule, acceptor atom, score
      P1  H  7997  8009       L1     1  1.00
      P1  H  8011  8017       L1    14  0.19

> <Gold.PLP.Chemscore.Internal.Correction>
0.0018

> <Gold.Rescore>
     Score         DG    S(hbond)    S(metal)    S(lipo)     H(rot)  DE(clash)    DE(int)     intcor
     16.16     -18.05       1.24        0.00      93.83       1.00       0.17       1.72       ----

> <Gold.Chemscore.Fitness>
16.1598

> <Gold.Chemscore.DG>
-18.0465

> <Gold.Chemscore.ZeroCoef>
-5.4800

> <Gold.Chemscore.Hbond>
1.2419

> <Gold.Chemscore.Metal>
0.0000

> <Gold.Chemscore.Lipo>
93.8344

> <Gold.Chemscore.Internal_Hbond>
0.0000

> <Gold.Chemscore.DEClash>
0.1657

> <Gold.Chemscore.DEInternal>
1.7210

> <Gold.Chemscore.Rot>
1.0000

> <Gold.Chemscore.Internal.Correction>
   9.000000E+99

> <Gold.Chemscore.Hbonds>
donor molecule, donor type, donor heavy atom, donor atom, acceptor molecule, acceptor atom, score
      P1  H  7997  8009       L1     1  0.67
      P1  H  8011  8017       L1    14  0.08

> <Gold.Chemscore.Hbond.Weighted>
-4.1479

> <Gold.Chemscore.Metal.Weighted>
-0.0000

> <Gold.Chemscore.Lipo.Weighted>
-10.9786

> <Gold.Chemscore.Internal_Hbond.Weighted>
0.0000

> <Gold.Chemscore.DEClash.Weighted>
0.1657

> <Gold.Chemscore.DEInternal.Weighted>
1.7210

> <Gold.Chemscore.Rot.Weighted>
2.5600

> <Gold.Chemscore.Internal.Correction.Weighted>
   9.000000E+99

> <Gold.Protein.RotatedTorsions>
[ 6907 6896 6895 6894 ] final   24.54 input  -60.11 | X-H torsion
[ 7974 7965 7964 7962 ] final  -63.56 input  175.53 | X-H torsion
[ 8008 7997 7996 7995 ] final  169.38 input   59.86 | X-H torsion
[ 10167 10162 10161 10158 ] final   -6.15 input  -65.29 | X-H torsion
[ 10718 10713 10712 10709 ] final    2.34 input   66.30 | X-H torsion
[ 10763 10752 10751 10750 ] final -110.59 input  -60.55 | X-H torsion
[ 11005 11000 10999 10996 ] final  147.65 input  -57.11 | X-H torsion

> <Gold.Protein.ActiveResidues>
 VAL166  LYS551  ARG553  GLY616  TRP617  ASP618  TYR619  PRO620  LYS621  CYS622 
 ASP623  PHE694  ASN695  SER759  ASP760  ASP761  ALA762  ILE779  LEU786  VAL792 
 PHE793  MET794  SER795  GLU796  ALA797  LYS798  CYS799  TRP800  GLU811  SER814 

> <Gold.Protein.RotatedAtoms>
  151.9591  135.0132  160.0546 H   0  0  0  0  0  0  0  0  0  0  0  0  # atno 6907 bound_to 6896
  152.1885  133.4752  159.5003 H   0  0  0  0  0  0  0  0  0  0  0  0  # atno 6908 bound_to 6896
  150.6930  134.1660  159.4237 H   0  0  0  0  0  0  0  0  0  0  0  0  # atno 6909 bound_to 6896
  145.7775  140.8780  143.0348 H   0  0  0  0  0  0  0  0  0  0  0  0  # atno 7974 bound_to 7965
  156.1462  140.1565  156.8842 H   0  0  0  0  0  0  0  0  0  0  0  0  # atno 8008 bound_to 7997
  154.5030  140.0820  156.7875 H   0  0  0  0  0  0  0  0  0  0  0  0  # atno 8009 bound_to 7997
  155.3984  140.3413  155.4257 H   0  0  0  0  0  0  0  0  0  0  0  0  # atno 8010 bound_to 7997
  140.6987  143.6227  150.8597 H   0  0  0  0  0  0  0  0  0  0  0  0  # atno 10167 bound_to 10162
  156.8616  130.5589  149.5662 H   0  0  0  0  0  0  0  0  0  0  0  0  # atno 10718 bound_to 10713
  154.8256  135.4558  154.0909 H   0  0  0  0  0  0  0  0  0  0  0  0  # atno 10763 bound_to 10752
  153.2226  135.6896  153.7989 H   0  0  0  0  0  0  0  0  0  0  0  0  # atno 10764 bound_to 10752
  153.7401  135.3314  155.3279 H   0  0  0  0  0  0  0  0  0  0  0  0  # atno 10765 bound_to 10752
  140.0894  134.9050  157.1626 H   0  0  0  0  0  0  0  0  0  0  0  0  # atno 11005 bound_to 11000
  144.6802  139.9942  143.7484 LP  0  0  0  0  0  0  0  0  0  0  0  0  # atno 17320 bound_to 7965
  146.0108  139.3168  143.0872 LP  0  0  0  0  0  0  0  0  0  0  0  0  # atno 17321 bound_to 7965
  139.9947  143.5808  152.2897 LP  0  0  0  0  0  0  0  0  0  0  0  0  # atno 17342 bound_to 10162
  139.6476  144.7659  151.2212 LP  0  0  0  0  0  0  0  0  0  0  0  0  # atno 17343 bound_to 10162
  156.0774  130.5792  150.9498 LP  0  0  0  0  0  0  0  0  0  0  0  0  # atno 17370 bound_to 10713
  157.6247  131.0927  150.8557 LP  0  0  0  0  0  0  0  0  0  0  0  0  # atno 17371 bound_to 10713
  140.3374  134.2742  155.7217 LP  0  0  0  0  0  0  0  0  0  0  0  0  # atno 17394 bound_to 11000
  141.2073  133.7810  157.0128 LP  0  0  0  0  0  0  0  0  0  0  0  0  # atno 17395 bound_to 11000

$$$$
