AV-unprocessed.smi:732|AV-procd|sdf|3527|dock3
  -GOLD-   22720 0523D 1   1.00000     0.00000
 Structure written by MMmdl.
 34 36  0  0  0  0  0  0  0  0  1 V2000
  156.3159  134.5181  157.7071 C   0  0  0  0  0  0  0  0  0  0  0  0
  155.6675  135.8501  157.8720 C   0  0  0  0  0  0  0  0  0  0  0  0
  155.4348  136.6408  158.9622 C   0  0  0  0  0  0  0  0  0  0  0  0
  154.7732  137.7672  158.4049 C   0  0  0  0  0  0  0  0  0  0  0  0
  154.3490  138.8418  159.2272 N   0  0  0  0  0  0  0  0  0  0  0  0
  153.4870  139.8239  158.9127 C   0  0  0  0  0  0  0  0  0  0  0  0
  152.9257  139.9524  157.8242 O   0  0  0  0  0  0  0  0  0  0  0  0
  153.3041  140.6570  159.9462 N   0  0  0  0  0  0  0  0  0  0  0  0
  152.4363  141.7894  159.9530 C   0  0  2  0  0  0  0  0  0  0  0  0
  152.7767  142.9321  159.0183 C   0  0  1  0  0  0  0  0  0  0  0  0
  151.7167  143.8422  158.4257 C   0  0  0  0  0  0  0  0  0  0  0  0
  151.9074  145.2975  158.8964 C   0  0  0  0  0  0  0  0  0  0  0  0
  152.1290  145.4481  160.4233 C   0  0  0  0  0  0  0  0  0  0  0  0
  152.1309  144.1146  161.1956 C   0  0  0  0  0  0  0  0  0  0  0  0
  153.0005  143.0822  160.5028 C   0  0  1  0  0  0  0  0  0  0  0  0
  154.6180  137.6739  157.0930 N   0  0  0  0  0  0  0  0  0  0  0  0
  155.1899  136.4446  156.7449 O   0  0  0  0  0  0  0  0  0  0  0  0
  157.1679  134.4160  158.3795 H   0  0  0  0  0  0  0  0  0  0  0  0
  156.6741  134.3801  156.6866 H   0  0  0  0  0  0  0  0  0  0  0  0
  155.6112  133.7166  157.9291 H   0  0  0  0  0  0  0  0  0  0  0  0
  155.6951  136.4415  159.9910 H   0  0  0  0  0  0  0  0  0  0  0  0
  154.7335  138.8573  160.1600 H   0  0  0  0  0  0  0  0  0  0  0  0
  153.8105  140.4721  160.7995 H   0  0  0  0  0  0  0  0  0  0  0  0
  151.3774  141.6055  160.1301 H   0  0  0  0  0  0  0  0  0  0  0  0
  153.6810  142.8450  158.4182 H   0  0  0  0  0  0  0  0  0  0  0  0
  151.7486  143.7779  157.3378 H   0  0  0  0  0  0  0  0  0  0  0  0
  150.7313  143.4867  158.7296 H   0  0  0  0  0  0  0  0  0  0  0  0
  152.7668  145.7229  158.3766 H   0  0  0  0  0  0  0  0  0  0  0  0
  151.0495  145.8947  158.5859 H   0  0  0  0  0  0  0  0  0  0  0  0
  153.0832  145.9497  160.5888 H   0  0  0  0  0  0  0  0  0  0  0  0
  151.3712  146.1095  160.8444 H   0  0  0  0  0  0  0  0  0  0  0  0
  152.4796  144.2571  162.2187 H   0  0  0  0  0  0  0  0  0  0  0  0
  151.1115  143.7325  161.2648 H   0  0  0  0  0  0  0  0  0  0  0  0
  154.0432  143.0900  160.8155 H   0  0  0  0  0  0  0  0  0  0  0  0
  1  2  1  0  0  0  0
  1 18  1  0  0  0  0
  1 19  1  0  0  0  0
  1 20  1  0  0  0  0
  2 17  1  0  0  0  0
  2  3  2  0  0  0  0
  3  4  1  0  0  0  0
  3 21  1  0  0  0  0
  4  5  1  0  0  0  0
  4 16  2  0  0  0  0
  5  6  1  0  0  0  0
  5 22  1  0  0  0  0
  6  7  2  0  0  0  0
  6  8  1  0  0  0  0
  8  9  1  0  0  0  0
  8 23  1  0  0  0  0
  9 15  1  0  0  0  0
  9 10  1  0  0  0  0
  9 24  1  0  0  0  0
 10 15  1  0  0  0  0
 10 11  1  0  0  0  0
 10 25  1  0  0  0  0
 11 12  1  0  0  0  0
 11 26  1  0  0  0  0
 11 27  1  0  0  0  0
 12 13  1  0  0  0  0
 12 28  1  0  0  0  0
 12 29  1  0  0  0  0
 13 14  1  0  0  0  0
 13 30  1  0  0  0  0
 13 31  1  0  0  0  0
 14 15  1  0  0  0  0
 14 32  1  0  0  0  0
 14 33  1  0  0  0  0
 15 34  1  0  0  0  0
 16 17  1  0  0  0  0
M  END
> <s_m_source_file>
AV-unprocessed.smi

> <i_m_source_file_index>
732

> <i_lp_mmshare_version>
43012

> <i_f3d_flags>
0

> <s_epik_input>
W0NIM11jMVtjSF1jKG5vMSlbTkhdQyg9TylbTkhdW0NASF0yW0NAQEhdKFtDQEBIXTIzKVtDSDJdW0NIMl1bQ0gyXVtDSDJdMw==

> <s_epik_cmdline>
J2VwaWtfcHl0aG9uJywgJy1waCcsICc3LjAnLCAnLXRuJywgJzgnLCAnLW1hJywgJzIwMCcsICctbWV0YWxfYmluZGluZycsICctaW1hZScsICc8aW5maWxlLm1hZT4nLCAnLW9tYWUnLCAnPG91dGZpbGUubWFlPic=

> <r_lp_tautomer_probability>
1

> <r_epik_Ionization_Penalty>
2.39506e-05

> <r_epik_Ionization_Penalty_Charging>
0

> <r_epik_Ionization_Penalty_Neutral>
2.39506e-05

> <r_epik_State_Penalty>
-0

> <r_epik_Charging_Adjusted_Penalty>
0

> <i_epik_Tot_Q>
0

> <i_epik_Tot_abs_Q>
0

> <r_epik_Metal_State_Penalty>
-0

> <b_epik_Metal_Only>
0

> <s_lp_Force_Field>
OPLS_2005

> <r_lp_Energy>
33.499

> <b_lp_Chiralities_Consistent>
1

> <s_lp_Variant>
AV-unprocessed.smi:732-1

> <Gold.Version>
5.8.1

> <Gold.Id.Protein>
6NUR|6NUR_protein|mol2

> <Gold.PLP.Fitness>
37.9833

> <Gold.PLP.PLP>
-32.2297

> <Gold.PLP.part.hbond>
-3.0000

> <Gold.PLP.part.metal>
0.0000

> <Gold.PLP.part.buried>
-2.8366

> <Gold.PLP.part.nonpolar>
-25.4485

> <Gold.PLP.part.repulsive>
0.1799

> <Gold.PLP.ligand.clash>
0.0000

> <Gold.PLP.ligand.torsion>
0.1397

> <Gold.PLP.Chemscore.Hbond>
2.0000

> <Gold.PLP.Chemscore.CHOScore>
0.0000

> <Gold.PLP.Chemscore.Metal>
0.0000

> <Gold.Chemscore.Hbonds>
donor molecule, donor type, donor heavy atom, donor atom, acceptor molecule, acceptor atom, score
      P1  H  7997  8008       L1     7  0.95
      P1  H 10752 10765       L1    17  1.00

> <Gold.PLP.Chemscore.Internal.Correction>
0.0331

> <Gold.Rescore>
     Score         DG    S(hbond)    S(metal)    S(lipo)     H(rot)  DE(clash)    DE(int)     intcor
     15.99     -17.43       1.28        0.00      87.63       1.00       0.15       1.29       ----

> <Gold.Chemscore.Fitness>
15.9942

> <Gold.Chemscore.DG>
-17.4320

> <Gold.Chemscore.ZeroCoef>
-5.4800

> <Gold.Chemscore.Hbond>
1.2751

> <Gold.Chemscore.Metal>
0.0000

> <Gold.Chemscore.Lipo>
87.6326

> <Gold.Chemscore.Internal_Hbond>
0.0000

> <Gold.Chemscore.DEClash>
0.1461

> <Gold.Chemscore.DEInternal>
1.2916

> <Gold.Chemscore.Rot>
1.0000

> <Gold.Chemscore.Internal.Correction>
   9.000000E+99

> <Gold.Chemscore.Hbonds>
donor molecule, donor type, donor heavy atom, donor atom, acceptor molecule, acceptor atom, score
      P1  H  7997  8008       L1     7  0.21
      P1  H 10752 10765       L1    17  0.85

> <Gold.Chemscore.Hbond.Weighted>
-4.2590

> <Gold.Chemscore.Metal.Weighted>
-0.0000

> <Gold.Chemscore.Lipo.Weighted>
-10.2530

> <Gold.Chemscore.Internal_Hbond.Weighted>
0.0000

> <Gold.Chemscore.DEClash.Weighted>
0.1461

> <Gold.Chemscore.DEInternal.Weighted>
1.2916

> <Gold.Chemscore.Rot.Weighted>
2.5600

> <Gold.Chemscore.Internal.Correction.Weighted>
   9.000000E+99

> <Gold.Protein.RotatedTorsions>
[ 6907 6896 6895 6894 ] final -146.10 input  -60.11 | X-H torsion
[ 7974 7965 7964 7962 ] final  -30.38 input  175.53 | X-H torsion
[ 8008 7997 7996 7995 ] final  -64.96 input   59.86 | X-H torsion
[ 10167 10162 10161 10158 ] final -125.46 input  -65.29 | X-H torsion
[ 10718 10713 10712 10709 ] final  158.66 input   66.30 | X-H torsion
[ 10763 10752 10751 10750 ] final  -78.38 input  -60.55 | X-H torsion
[ 11005 11000 10999 10996 ] final -142.33 input  -57.11 | X-H torsion

> <Gold.Protein.ActiveResidues>
 VAL166  LYS551  ARG553  GLY616  TRP617  ASP618  TYR619  PRO620  LYS621  CYS622 
 ASP623  PHE694  ASN695  SER759  ASP760  ASP761  ALA762  ILE779  LEU786  VAL792 
 PHE793  MET794  SER795  GLU796  ALA797  LYS798  CYS799  TRP800  GLU811  SER814 

> <Gold.Protein.RotatedAtoms>
  151.1370  133.4997  159.2597 H   0  0  0  0  0  0  0  0  0  0  0  0  # atno 6907 bound_to 6896
  151.1696  135.0311  159.8756 H   0  0  0  0  0  0  0  0  0  0  0  0  # atno 6908 bound_to 6896
  152.5461  134.1235  159.8462 H   0  0  0  0  0  0  0  0  0  0  0  0  # atno 6909 bound_to 6896
  146.1147  140.5533  142.8762 H   0  0  0  0  0  0  0  0  0  0  0  0  # atno 7974 bound_to 7965
  154.4642  140.0943  156.6976 H   0  0  0  0  0  0  0  0  0  0  0  0  # atno 8008 bound_to 7997
  155.4905  140.3470  155.4336 H   0  0  0  0  0  0  0  0  0  0  0  0  # atno 8009 bound_to 7997
  156.0927  140.1401  156.9560 H   0  0  0  0  0  0  0  0  0  0  0  0  # atno 8010 bound_to 7997
  139.9819  143.5733  152.2375 H   0  0  0  0  0  0  0  0  0  0  0  0  # atno 10167 bound_to 10162
  157.1749  131.0619  151.2163 H   0  0  0  0  0  0  0  0  0  0  0  0  # atno 10718 bound_to 10713
  154.5251  135.5732  153.6712 H   0  0  0  0  0  0  0  0  0  0  0  0  # atno 10763 bound_to 10752
  152.9926  135.6191  154.2703 H   0  0  0  0  0  0  0  0  0  0  0  0  # atno 10764 bound_to 10752
  154.2626  135.2855  155.2751 H   0  0  0  0  0  0  0  0  0  0  0  0  # atno 10765 bound_to 10752
  140.8236  134.2601  157.4889 H   0  0  0  0  0  0  0  0  0  0  0  0  # atno 11005 bound_to 11000
  144.7542  140.5267  143.6780 LP  0  0  0  0  0  0  0  0  0  0  0  0  # atno 17320 bound_to 7965
  145.5591  139.1479  143.3351 LP  0  0  0  0  0  0  0  0  0  0  0  0  # atno 17321 bound_to 7965
  139.6404  144.7654  151.2352 LP  0  0  0  0  0  0  0  0  0  0  0  0  # atno 17342 bound_to 10162
  140.7486  143.6327  150.8407 LP  0  0  0  0  0  0  0  0  0  0  0  0  # atno 17343 bound_to 10162
  157.4008  130.7332  149.6766 LP  0  0  0  0  0  0  0  0  0  0  0  0  # atno 17370 bound_to 10713
  155.9733  130.4121  150.4016 LP  0  0  0  0  0  0  0  0  0  0  0  0  # atno 17371 bound_to 10713
  139.8707  134.9549  156.4189 LP  0  0  0  0  0  0  0  0  0  0  0  0  # atno 17394 bound_to 11000
  140.9073  133.7737  155.9749 LP  0  0  0  0  0  0  0  0  0  0  0  0  # atno 17395 bound_to 11000

$$$$
