AV-unprocessed.smi:1162|AV-procd|sdf|4919|dock2
  -GOLD-   22720 3503D 1   1.00000     0.00000
 Structure written by MMmdl.
 44 45  0  0  0  0  0  0  0  0  1 V2000
  151.8656  141.6524  158.0712 C   0  0  0  0  0  0  0  0  0  0  0  0
  151.7068  141.5454  156.6607 O   0  0  0  0  0  0  0  0  0  0  0  0
  151.2941  140.3370  156.1380 C   0  0  0  0  0  0  0  0  0  0  0  0
  151.3625  139.1906  156.9546 C   0  0  0  0  0  0  0  0  0  0  0  0
  150.9476  137.9524  156.4279 C   0  0  0  0  0  0  0  0  0  0  0  0
  150.4679  137.9018  155.0972 C   0  0  0  0  0  0  0  0  0  0  0  0
  150.0422  136.7153  154.4409 N   0  0  0  0  0  0  0  0  0  0  0  0
  150.1293  135.4426  154.8638 C   0  0  0  0  0  0  0  0  0  0  0  0
  150.5766  135.0801  155.9516 O   0  0  0  0  0  0  0  0  0  0  0  0
  149.6403  134.5956  153.9464 N   0  0  0  0  0  0  0  0  0  0  0  0
  149.5503  133.1458  154.1023 C   0  0  0  0  0  0  0  0  0  0  0  0
  148.4953  132.5085  153.1900 C   0  0  0  0  0  0  0  0  0  0  0  0
  148.3756  131.2844  153.1196 O   0  0  0  0  0  0  0  0  0  0  0  0
  147.7200  133.3640  152.5067 N   0  0  0  0  0  0  0  0  0  0  0  0
  146.6467  132.9869  151.5919 C   0  0  0  0  0  0  0  0  0  0  0  0
  145.7435  134.1992  151.2832 C   0  0  0  0  0  0  0  0  0  0  0  0
  144.5587  133.8046  150.3862 C   0  0  0  0  0  0  0  0  0  0  0  0
  143.7491  132.6529  151.0022 C   0  0  0  0  0  0  0  0  0  0  0  0
  144.6472  131.4425  151.3012 C   0  0  0  0  0  0  0  0  0  0  0  0
  145.8267  131.8358  152.2051 C   0  0  0  0  0  0  0  0  0  0  0  0
  150.4491  139.1041  154.3607 C   0  0  0  0  0  0  0  0  0  0  0  0
  150.8449  140.2939  154.8594 N   0  0  0  0  0  0  0  0  0  0  0  0
  152.1855  142.6636  158.3226 H   0  0  0  0  0  0  0  0  0  0  0  0
  152.6267  140.9635  158.4405 H   0  0  0  0  0  0  0  0  0  0  0  0
  150.9270  141.4635  158.5942 H   0  0  0  0  0  0  0  0  0  0  0  0
  151.7331  139.2583  157.9666 H   0  0  0  0  0  0  0  0  0  0  0  0
  151.0210  137.0728  157.0477 H   0  0  0  0  0  0  0  0  0  0  0  0
  149.5728  136.8564  153.5584 H   0  0  0  0  0  0  0  0  0  0  0  0
  149.2811  134.9818  153.0859 H   0  0  0  0  0  0  0  0  0  0  0  0
  150.5223  132.7155  153.8603 H   0  0  0  0  0  0  0  0  0  0  0  0
  149.3458  132.8910  155.1439 H   0  0  0  0  0  0  0  0  0  0  0  0
  147.8868  134.3525  152.6279 H   0  0  0  0  0  0  0  0  0  0  0  0
  147.0848  132.6277  150.6585 H   0  0  0  0  0  0  0  0  0  0  0  0
  145.3657  134.6250  152.2139 H   0  0  0  0  0  0  0  0  0  0  0  0
  146.3212  134.9862  150.7969 H   0  0  0  0  0  0  0  0  0  0  0  0
  143.9125  134.6676  150.2242 H   0  0  0  0  0  0  0  0  0  0  0  0
  144.9288  133.5067  149.4045 H   0  0  0  0  0  0  0  0  0  0  0  0
  143.2737  132.9914  151.9239 H   0  0  0  0  0  0  0  0  0  0  0  0
  142.9440  132.3613  150.3273 H   0  0  0  0  0  0  0  0  0  0  0  0
  144.0625  130.6534  151.7747 H   0  0  0  0  0  0  0  0  0  0  0  0
  145.0257  131.0275  150.3659 H   0  0  0  0  0  0  0  0  0  0  0  0
  146.4661  130.9680  152.3713 H   0  0  0  0  0  0  0  0  0  0  0  0
  145.4469  132.1323  153.1841 H   0  0  0  0  0  0  0  0  0  0  0  0
  150.1029  139.1142  153.3374 H   0  0  0  0  0  0  0  0  0  0  0  0
  1  2  1  0  0  0  0
  1 23  1  0  0  0  0
  1 24  1  0  0  0  0
  1 25  1  0  0  0  0
  2  3  1  0  0  0  0
  3 22  1  0  0  0  0
  3  4  2  0  0  0  0
  4  5  1  0  0  0  0
  4 26  1  0  0  0  0
  5  6  2  0  0  0  0
  5 27  1  0  0  0  0
  6  7  1  0  0  0  0
  6 21  1  0  0  0  0
  7  8  1  0  0  0  0
  7 28  1  0  0  0  0
  8  9  2  0  0  0  0
  8 10  1  0  0  0  0
 10 11  1  0  0  0  0
 10 29  1  0  0  0  0
 11 12  1  0  0  0  0
 11 30  1  0  0  0  0
 11 31  1  0  0  0  0
 12 13  2  0  0  0  0
 12 14  1  0  0  0  0
 14 15  1  0  0  0  0
 14 32  1  0  0  0  0
 15 20  1  0  0  0  0
 15 16  1  0  0  0  0
 15 33  1  0  0  0  0
 16 17  1  0  0  0  0
 16 34  1  0  0  0  0
 16 35  1  0  0  0  0
 17 18  1  0  0  0  0
 17 36  1  0  0  0  0
 17 37  1  0  0  0  0
 18 19  1  0  0  0  0
 18 38  1  0  0  0  0
 18 39  1  0  0  0  0
 19 20  1  0  0  0  0
 19 40  1  0  0  0  0
 19 41  1  0  0  0  0
 20 42  1  0  0  0  0
 20 43  1  0  0  0  0
 21 22  2  0  0  0  0
 21 44  1  0  0  0  0
M  END
> <s_m_source_file>
AV-unprocessed.smi

> <i_m_source_file_index>
1162

> <i_lp_mmshare_version>
43012

> <i_f3d_flags>
0

> <s_epik_input>
W0NIM11PYzFbY0hdW2NIXWMoW2NIXW4xKVtOSF1DKD1PKVtOSF1bQ0gyXUMoPU8pW05IXVtDSF0yW0NIMl1bQ0gyXVtDSDJdW0NIMl1bQ0gyXTI=

> <s_epik_cmdline>
J2VwaWtfcHl0aG9uJywgJy1waCcsICc3LjAnLCAnLXRuJywgJzgnLCAnLW1hJywgJzIwMCcsICctbWV0YWxfYmluZGluZycsICctaW1hZScsICc8aW5maWxlLm1hZT4nLCAnLW9tYWUnLCAnPG91dGZpbGUubWFlPic=

> <r_lp_tautomer_probability>
1

> <r_epik_Ionization_Penalty>
0.000141568

> <r_epik_Ionization_Penalty_Charging>
0

> <r_epik_Ionization_Penalty_Neutral>
0.000141568

> <r_epik_State_Penalty>
-0

> <r_epik_Charging_Adjusted_Penalty>
0

> <i_epik_Tot_Q>
0

> <i_epik_Tot_abs_Q>
0

> <r_epik_Metal_State_Penalty>
-0

> <b_epik_Metal_Only>
0

> <s_lp_Force_Field>
OPLS_2005

> <r_lp_Energy>
7.6567

> <b_lp_Chiralities_Consistent>
1

> <s_lp_Variant>
AV-unprocessed.smi:1162-1

> <Gold.Version>
5.8.1

> <Gold.Id.Protein>
6NUR|6NUR_protein|mol2

> <Gold.PLP.Fitness>
47.8877

> <Gold.PLP.PLP>
-37.1392

> <Gold.PLP.part.hbond>
-3.7437

> <Gold.PLP.part.metal>
0.0000

> <Gold.PLP.part.buried>
-4.4413

> <Gold.PLP.part.nonpolar>
-28.5040

> <Gold.PLP.part.repulsive>
0.4363

> <Gold.PLP.ligand.clash>
0.0132

> <Gold.PLP.ligand.torsion>
0.6201

> <Gold.PLP.Chemscore.Hbond>
2.9868

> <Gold.PLP.Chemscore.CHOScore>
1.0000

> <Gold.PLP.Chemscore.Metal>
0.0000

> <Gold.Chemscore.Hbonds>
donor molecule, donor type, donor heavy atom, donor atom, acceptor molecule, acceptor atom, score
      L1  H     7    28       P1  7948  1.00
      L1  H    10    29       P1  7948  0.50
      L1  H    14    32       P1  7948  0.41
      P1  H  7989  7998       L1    22  0.90
      L1  C    21    44       P1  7957  1.00

> <Gold.PLP.Chemscore.Internal.Correction>
0.0416

> <Gold.Rescore>
     Score         DG    S(hbond)    S(metal)    S(lipo)     H(rot)  DE(clash)    DE(int)     intcor
     12.60     -15.70       1.71        0.00      78.27       1.82       0.02       3.08       ----

> <Gold.Chemscore.Fitness>
12.5956

> <Gold.Chemscore.DG>
-15.7024

> <Gold.Chemscore.ZeroCoef>
-5.4800

> <Gold.Chemscore.Hbond>
1.7139

> <Gold.Chemscore.Metal>
0.0000

> <Gold.Chemscore.Lipo>
78.2729

> <Gold.Chemscore.Internal_Hbond>
0.0000

> <Gold.Chemscore.DEClash>
0.0234

> <Gold.Chemscore.DEInternal>
3.0834

> <Gold.Chemscore.Rot>
1.8204

> <Gold.Chemscore.Internal.Correction>
   9.000000E+99

> <Gold.Chemscore.Hbonds>
donor molecule, donor type, donor heavy atom, donor atom, acceptor molecule, acceptor atom, score
      L1  H     7    28       P1  7948  0.75
      L1  H    10    29       P1  7948  0.02
      L1  H    14    32       P1  7948  0.20
      P1  H  7989  7998       L1    22  0.18

> <Gold.Chemscore.Hbond.Weighted>
-5.7246

> <Gold.Chemscore.Metal.Weighted>
-0.0000

> <Gold.Chemscore.Lipo.Weighted>
-9.1579

> <Gold.Chemscore.Internal_Hbond.Weighted>
0.0000

> <Gold.Chemscore.DEClash.Weighted>
0.0234

> <Gold.Chemscore.DEInternal.Weighted>
3.0834

> <Gold.Chemscore.Rot.Weighted>
4.6601

> <Gold.Chemscore.Internal.Correction.Weighted>
   9.000000E+99

> <Gold.Protein.RotatedTorsions>
[ 6907 6896 6895 6894 ] final   91.55 input  -60.11 | X-H torsion
[ 7974 7965 7964 7962 ] final -179.17 input  175.53 | X-H torsion
[ 8008 7997 7996 7995 ] final  -99.77 input   59.86 | X-H torsion
[ 10167 10162 10161 10158 ] final -161.12 input  -65.29 | X-H torsion
[ 10718 10713 10712 10709 ] final  118.18 input   66.30 | X-H torsion
[ 10763 10752 10751 10750 ] final   67.52 input  -60.55 | X-H torsion
[ 11005 11000 10999 10996 ] final  127.76 input  -57.11 | X-H torsion

> <Gold.Protein.ActiveResidues>
 VAL166  LYS551  ARG553  GLY616  TRP617  ASP618  TYR619  PRO620  LYS621  CYS622 
 ASP623  PHE694  ASN695  SER759  ASP760  ASP761  ALA762  ILE779  LEU786  VAL792 
 PHE793  MET794  SER795  GLU796  ALA797  LYS798  CYS799  TRP800  GLU811  SER814 

> <Gold.Protein.RotatedAtoms>
  152.5450  134.1640  159.8569 H   0  0  0  0  0  0  0  0  0  0  0  0  # atno 6907 bound_to 6896
  151.1655  133.4810  159.2601 H   0  0  0  0  0  0  0  0  0  0  0  0  # atno 6908 bound_to 6896
  151.1328  135.0150  159.8645 H   0  0  0  0  0  0  0  0  0  0  0  0  # atno 6909 bound_to 6896
  144.7135  140.0758  143.6427 H   0  0  0  0  0  0  0  0  0  0  0  0  # atno 7974 bound_to 7965
  154.8195  140.0445  157.1400 H   0  0  0  0  0  0  0  0  0  0  0  0  # atno 8008 bound_to 7997
  154.9276  140.3035  155.5164 H   0  0  0  0  0  0  0  0  0  0  0  0  # atno 8009 bound_to 7997
  156.2979  140.2329  156.4333 H   0  0  0  0  0  0  0  0  0  0  0  0  # atno 8010 bound_to 7997
  139.6489  144.0121  152.2147 H   0  0  0  0  0  0  0  0  0  0  0  0  # atno 10167 bound_to 10162
  157.6047  131.1045  150.7720 H   0  0  0  0  0  0  0  0  0  0  0  0  # atno 10718 bound_to 10713
  153.0190  135.5281  154.6992 H   0  0  0  0  0  0  0  0  0  0  0  0  # atno 10763 bound_to 10752
  154.6105  135.2878  155.0439 H   0  0  0  0  0  0  0  0  0  0  0  0  # atno 10764 bound_to 10752
  154.1462  135.6570  153.5005 H   0  0  0  0  0  0  0  0  0  0  0  0  # atno 10765 bound_to 10752
  139.9525  134.9619  156.8903 H   0  0  0  0  0  0  0  0  0  0  0  0  # atno 11005 bound_to 11000
  145.9745  139.2894  143.1079 LP  0  0  0  0  0  0  0  0  0  0  0  0  # atno 17320 bound_to 7965
  145.9080  140.9199  143.0469 LP  0  0  0  0  0  0  0  0  0  0  0  0  # atno 17321 bound_to 7965
  139.9830  144.6415  150.7883 LP  0  0  0  0  0  0  0  0  0  0  0  0  # atno 17342 bound_to 10162
  140.7528  143.2997  151.3113 LP  0  0  0  0  0  0  0  0  0  0  0  0  # atno 17343 bound_to 10162
  156.8111  130.4952  149.5356 LP  0  0  0  0  0  0  0  0  0  0  0  0  # atno 17370 bound_to 10713
  156.1130  130.6054  151.0077 LP  0  0  0  0  0  0  0  0  0  0  0  0  # atno 17371 bound_to 10713
  140.5686  134.0465  155.7423 LP  0  0  0  0  0  0  0  0  0  0  0  0  # atno 17394 bound_to 11000
  141.1190  133.9492  157.2766 LP  0  0  0  0  0  0  0  0  0  0  0  0  # atno 17395 bound_to 11000

$$$$
