#       Name:                AV-unprocessed.smi:2855
#       Creating user name   scv26
#       Creation time:       Fri Mar 27 15:43:28 2020


#       File generated by GOLD software.
#

@<TRIPOS>MOLECULE
AV-unprocessed.smi:2855
    53    54     1
SMALL
NO_CHARGES


@<TRIPOS>ATOM
      1 ****        -4.5421  -0.9369  -1.9996 C.3            1 S1                 0.0000
      2 ****        -3.0075  -0.9148  -1.9575 C.3            1 S1                 0.0000
      3 ****        -2.4173  -0.2991  -3.2374 C.3            1 S1                 0.0000
      4 ****        -0.8813  -0.2848  -3.2003 C.3            1 S1                 0.0000
      5 ****        -0.3398   0.4686  -1.9623 C.3            1 S1                 0.0000
      6 ****         1.2150   0.5809  -1.9384 C.3            1 S1                 0.0000
      7 ****         1.7628   1.4171  -3.1078 C.3            1 S1                 0.0000
      8 ****         1.9428  -0.7732  -1.8508 C.3            1 S1                 0.0000
      9 ****        -0.9458  -0.1427  -0.6693 C.3            1 S1                 0.0000
     10 ****        -0.5128   0.6044   0.5094 N.am           1 S1                 0.0000
     11 ****        -0.1423   0.0689   1.6823 C.2            1 S1                 0.0000
     12 ****        -0.1818  -1.1392   1.9190 O.2            1 S1                 0.0000
     13 ****         0.3325   1.0574   2.7560 C.3            1 S1                 0.0000
     14 ****         1.3861   0.4962   3.6140 N.am           1 S1                 0.0000
     15 ****         1.0848   0.0369   4.8883 C.2            1 S1                 0.0000
     16 ****         2.0046  -0.5030   5.7228 C.2            1 S1                 0.0000
     17 ****         3.3968  -0.6300   5.3053 C.2            1 S1                 0.0000
     18 ****         4.3017  -1.1044   5.9883 O.2            1 S1                 0.0000
     19 ****         3.6601  -0.1573   4.0169 N.am           1 S1                 0.0000
     20 ****         2.7172   0.3998   3.1515 C.2            1 S1                 0.0000
     21 ****         3.0556   0.7839   2.0322 O.2            1 S1                 0.0000
     22 ****        -2.4864  -0.1615  -0.7214 C.3            1 S1                 0.0000
     23 ****         4.6106  -0.2270   3.6833 H              1 S1                 0.0000
     24 ****        -4.9523   0.0715  -2.0621 H              1 S1                 0.0000
     25 ****        -4.9528  -1.4090  -1.1067 H              1 S1                 0.0000
     26 ****        -4.9023  -1.4973  -2.8629 H              1 S1                 0.0000
     27 ****        -2.6660  -1.9489  -1.8912 H              1 S1                 0.0000
     28 ****        -2.7539  -0.8601  -4.1100 H              1 S1                 0.0000
     29 ****        -2.7882   0.7190  -3.3642 H              1 S1                 0.0000
     30 ****        -0.5180  -1.3126  -3.2035 H              1 S1                 0.0000
     31 ****        -0.5181   0.1738  -4.1191 H              1 S1                 0.0000
     32 ****        -0.7187   1.4901  -2.0281 H              1 S1                 0.0000
     33 ****         1.4902   1.1355  -1.0411 H              1 S1                 0.0000
     34 ****         1.6357   0.9122  -4.0652 H              1 S1                 0.0000
     35 ****         2.8293   1.6066  -2.9828 H              1 S1                 0.0000
     36 ****         1.2653   2.3853  -3.1697 H              1 S1                 0.0000
     37 ****         1.7617  -1.3887  -2.7316 H              1 S1                 0.0000
     38 ****         1.6379  -1.3416  -0.9726 H              1 S1                 0.0000
     39 ****         3.0206  -0.6269  -1.7744 H              1 S1                 0.0000
     40 ****        -0.6070  -1.1769  -0.5924 H              1 S1                 0.0000
     41 ****        -0.4577   1.6080   0.4124 H              1 S1                 0.0000
     42 ****         0.6874   1.9793   2.2902 H              1 S1                 0.0000
     43 ****        -0.5335   1.3491   3.3519 H              1 S1                 0.0000
     44 ****         0.0650   0.1065   5.2396 H              1 S1                 0.0000
     45 ****         1.7083  -0.8448   6.7041 H              1 S1                 0.0000
     46 ****        -2.8672   0.8611  -0.7283 H              1 S1                 0.0000
     47 ****        -2.8781  -0.6294   0.1829 H              1 S1                 0.0000
     48 ****        -0.5027  -1.7759   1.2178 LP             1 S1                 0.0000
     49 ****         0.1070  -1.4834   2.8124 LP             1 S1                 0.0000
     50 ****         4.1086  -1.4414   6.9098 LP             1 S1                 0.0000
     51 ****         5.2311  -1.1535   5.6226 LP             1 S1                 0.0000
     52 ****         2.3776   1.1813   1.4138 LP             1 S1                 0.0000
     53 ****         4.0085   0.6985   1.7412 LP             1 S1                 0.0000
@<TRIPOS>BOND
    1    1    2 1     
    2    1   24 1     
    3    1   25 1     
    4    1   26 1     
    5    2   22 1     
    6    2    3 1     
    7    2   27 1     
    8    3    4 1     
    9    3   28 1     
   10    3   29 1     
   11    4    5 1     
   12    4   30 1     
   13    4   31 1     
   14    5    6 1     
   15    5    9 1     
   16    5   32 1     
   17    6    7 1     
   18    6    8 1     
   19    6   33 1     
   20    7   34 1     
   21    7   35 1     
   22    7   36 1     
   23    8   37 1     
   24    8   38 1     
   25    8   39 1     
   26    9   10 1     
   27    9   22 1     
   28    9   40 1     
   29   10   11 am    
   30   10   41 1     
   31   11   12 2     
   32   11   13 1     
   33   13   14 1     
   34   13   42 1     
   35   13   43 1     
   36   14   20 1     
   37   14   15 1     
   38   15   16 2     
   39   15   44 1     
   40   16   17 1     
   41   16   45 1     
   42   17   18 2     
   43   17   19 1     
   44   19   23 1     
   45   19   20 1     
   46   20   21 2     
   47   22   46 1     
   48   22   47 1     
   49   12   48 1     
   50   12   49 1     
   51   18   50 1     
   52   18   51 1     
   53   21   52 1     
   54   21   53 1     
@<TRIPOS>SUBSTRUCTURE
      1 S1             1
@<TRIPOS>SET
LONE_PAIRS      STATIC     ATOMS    <user>   **** ""
6 48 49 50 51 52 53
DONOR_HYDROGENS      STATIC     ATOMS    <user>   **** ""
2 41 23
ATOM$BLUE        STATIC     ATOMS    COLORGROUP SYSTEM
6 48 49 50 51 52 53
ATOM$RED        STATIC     ATOMS    COLORGROUP SYSTEM
2 41 23
