AV-unprocessed.smi:2881|AV-procd|sdf|11060|dock6
  -GOLD-   2272015533D 1   1.00000     0.00000
 Structure written by MMmdl.
 40 42  0  0  0  0  0  0  0  0  1 V2000
  151.2836  145.5971  159.6216 C   0  0  0  0  0  0  0  0  0  0  0  0
  151.4527  144.2366  159.0359 C   0  0  0  0  0  0  0  0  0  0  0  0
  152.2058  143.1686  159.4344 C   0  0  0  0  0  0  0  0  0  0  0  0
  151.9325  142.1599  158.4624 C   0  0  0  0  0  0  0  0  0  0  0  0
  152.4817  140.7595  158.3974 C   0  0  0  0  0  0  0  0  0  0  0  0
  151.8004  139.9804  157.2720 C   0  0  0  0  0  0  0  0  0  0  0  0
  152.4774  139.4162  156.4128 O   0  0  0  0  0  0  0  0  0  0  0  0
  150.4590  139.9590  157.2876 N   0  0  0  0  0  0  0  0  0  0  0  0
  149.6201  139.3034  156.2879 C   0  0  1  0  0  0  0  0  0  0  0  0
  148.1679  139.8423  156.2458 C   0  0  1  0  0  0  0  0  0  0  0  0
  148.1382  141.3811  156.1229 C   0  0  0  0  0  0  0  0  0  0  0  0
  148.6458  141.6138  154.6876 C   0  0  0  0  0  0  0  0  0  0  0  0
  148.8741  140.1804  154.1700 C   0  0  2  0  0  0  0  0  0  0  0  0
  147.7327  139.4290  154.8461 C   0  0  0  0  0  0  0  0  0  0  0  0
  150.1300  139.5848  154.8509 C   0  0  2  0  0  0  0  0  0  0  0  0
  150.6740  138.3219  154.1556 C   0  0  0  0  0  0  0  0  0  0  0  0
  149.7380  137.2687  154.2469 O   0  0  0  0  0  0  0  0  0  0  0  0
  151.0855  142.5759  157.5309 N   0  0  0  0  0  0  0  0  0  0  0  0
  150.7992  143.8403  157.8922 N   0  0  0  0  0  0  0  0  0  0  0  0
  150.1630  144.4128  157.3559 H   0  0  0  0  0  0  0  0  0  0  0  0
  151.6506  145.6269  160.6477 H   0  0  0  0  0  0  0  0  0  0  0  0
  150.2333  145.8897  159.6318 H   0  0  0  0  0  0  0  0  0  0  0  0
  151.8369  146.3377  159.0439 H   0  0  0  0  0  0  0  0  0  0  0  0
  152.8527  143.1115  160.2972 H   0  0  0  0  0  0  0  0  0  0  0  0
  153.5596  140.7684  158.2285 H   0  0  0  0  0  0  0  0  0  0  0  0
  152.3228  140.2441  159.3455 H   0  0  0  0  0  0  0  0  0  0  0  0
  149.9845  140.4467  158.0333 H   0  0  0  0  0  0  0  0  0  0  0  0
  149.6034  138.2281  156.4779 H   0  0  0  0  0  0  0  0  0  0  0  0
  147.5380  139.4592  157.0492 H   0  0  0  0  0  0  0  0  0  0  0  0
  147.1177  141.7517  156.2271 H   0  0  0  0  0  0  0  0  0  0  0  0
  148.7450  141.8903  156.8715 H   0  0  0  0  0  0  0  0  0  0  0  0
  147.8885  142.1259  154.0928 H   0  0  0  0  0  0  0  0  0  0  0  0
  149.5546  142.2163  154.6596 H   0  0  0  0  0  0  0  0  0  0  0  0
  148.8850  140.1155  153.0817 H   0  0  0  0  0  0  0  0  0  0  0  0
  147.7598  138.3501  154.6860 H   0  0  0  0  0  0  0  0  0  0  0  0
  146.7448  139.8027  154.5707 H   0  0  0  0  0  0  0  0  0  0  0  0
  150.9276  140.3304  154.8636 H   0  0  0  0  0  0  0  0  0  0  0  0
  150.8567  138.5250  153.0998 H   0  0  0  0  0  0  0  0  0  0  0  0
  151.6211  138.0018  154.5900 H   0  0  0  0  0  0  0  0  0  0  0  0
  149.6615  136.8595  153.3985 H   0  0  0  0  0  0  0  0  0  0  0  0
  1  2  1  0  0  0  0
  1 21  1  0  0  0  0
  1 22  1  0  0  0  0
  1 23  1  0  0  0  0
  2 19  1  0  0  0  0
  2  3  2  0  0  0  0
  3  4  1  0  0  0  0
  3 24  1  0  0  0  0
  4  5  1  0  0  0  0
  4 18  2  0  0  0  0
  5  6  1  0  0  0  0
  5 25  1  0  0  0  0
  5 26  1  0  0  0  0
  6  7  2  0  0  0  0
  6  8  1  0  0  0  0
  8  9  1  0  0  0  0
  8 27  1  0  0  0  0
  9 15  1  0  0  0  0
  9 10  1  0  0  0  0
  9 28  1  0  0  0  0
 10 14  1  0  0  0  0
 10 11  1  0  0  0  0
 10 29  1  0  0  0  0
 11 12  1  0  0  0  0
 11 30  1  0  0  0  0
 11 31  1  0  0  0  0
 12 13  1  0  0  0  0
 12 32  1  0  0  0  0
 12 33  1  0  0  0  0
 13 14  1  0  0  0  0
 13 15  1  0  0  0  0
 13 34  1  0  0  0  0
 14 35  1  0  0  0  0
 14 36  1  0  0  0  0
 15 16  1  0  0  0  0
 15 37  1  0  0  0  0
 16 17  1  0  0  0  0
 16 38  1  0  0  0  0
 16 39  1  0  0  0  0
 17 40  1  0  0  0  0
 18 19  1  0  0  0  0
 19 20  1  0  0  0  0
M  END
> <s_m_source_file>
AV-unprocessed.smi

> <i_m_source_file_index>
2881

> <i_lp_mmshare_version>
43012

> <i_f3d_flags>
0

> <s_epik_input>
W0NIM11jMVtjSF1jKG5bbkhdMSlbQ0gyXUMoPU8pW05IXVtDQEhdKFtDQEBIXTIzKVtDQEhdKFtDSDJdW09IXSlbQ0BASF0oW0NIMl0zKVtDSDJdW0NIMl0y

> <s_epik_cmdline>
J2VwaWtfcHl0aG9uJywgJy1waCcsICc3LjAnLCAnLXRuJywgJzgnLCAnLW1hJywgJzIwMCcsICctbWV0YWxfYmluZGluZycsICctaW1hZScsICc8aW5maWxlLm1hZT4nLCAnLW9tYWUnLCAnPG91dGZpbGUubWFlPic=

> <r_lp_tautomer_probability>
0.5

> <r_epik_Ionization_Penalty>
9.4349e-05

> <r_epik_Ionization_Penalty_Charging>
0

> <r_epik_Ionization_Penalty_Neutral>
9.4349e-05

> <r_epik_State_Penalty>
0.41068

> <r_epik_Charging_Adjusted_Penalty>
0.41068

> <i_epik_Tot_Q>
0

> <i_epik_Tot_abs_Q>
0

> <r_epik_Metal_State_Penalty>
0.4107

> <b_epik_Metal_Only>
0

> <s_lp_Force_Field>
OPLS_2005

> <r_lp_Energy>
47.9612

> <b_lp_Chiralities_Consistent>
1

> <s_lp_Variant>
AV-unprocessed.smi:2881-6

> <Gold.Version>
5.8.1

> <Gold.Id.Protein>
6NUR|6NUR_protein|mol2

> <Gold.PLP.Fitness>
40.1528

> <Gold.PLP.PLP>
-32.1340

> <Gold.PLP.part.hbond>
-3.1726

> <Gold.PLP.part.metal>
0.0000

> <Gold.PLP.part.buried>
-2.7965

> <Gold.PLP.part.nonpolar>
-26.7611

> <Gold.PLP.part.repulsive>
0.1192

> <Gold.PLP.ligand.clash>
0.0000

> <Gold.PLP.ligand.torsion>
0.3655

> <Gold.PLP.Chemscore.Hbond>
2.9100

> <Gold.PLP.Chemscore.CHOScore>
0.0000

> <Gold.PLP.Chemscore.Metal>
0.0000

> <Gold.Chemscore.Hbonds>
donor molecule, donor type, donor heavy atom, donor atom, acceptor molecule, acceptor atom, score
      L1  H    17    40       P1  7948  1.00
      L1  H    19    20       P1  8028  0.80
      P1  H  7997  8008       L1     7  1.00

> <Gold.PLP.Chemscore.Internal.Correction>
0.0198

> <Gold.Rescore>
     Score         DG    S(hbond)    S(metal)    S(lipo)     H(rot)  DE(clash)    DE(int)     intcor
     13.65     -18.07       2.28        0.00      92.45       2.28       0.30       4.12       ----

> <Gold.Chemscore.Fitness>
13.6481

> <Gold.Chemscore.DG>
-18.0730

> <Gold.Chemscore.ZeroCoef>
-5.4800

> <Gold.Chemscore.Hbond>
2.2760

> <Gold.Chemscore.Metal>
0.0000

> <Gold.Chemscore.Lipo>
92.4478

> <Gold.Chemscore.Internal_Hbond>
0.0000

> <Gold.Chemscore.DEClash>
0.3022

> <Gold.Chemscore.DEInternal>
4.1227

> <Gold.Chemscore.Rot>
2.2755

> <Gold.Chemscore.Internal.Correction>
   9.000000E+99

> <Gold.Chemscore.Hbonds>
donor molecule, donor type, donor heavy atom, donor atom, acceptor molecule, acceptor atom, score
      L1  H    17    40       P1  7948  0.60
      L1  H    19    20       P1  8028  0.38
      P1  H  7997  8008       L1     7  0.85

> <Gold.Chemscore.Hbond.Weighted>
-7.6019

> <Gold.Chemscore.Metal.Weighted>
-0.0000

> <Gold.Chemscore.Lipo.Weighted>
-10.8164

> <Gold.Chemscore.Internal_Hbond.Weighted>
0.0000

> <Gold.Chemscore.DEClash.Weighted>
0.3022

> <Gold.Chemscore.DEInternal.Weighted>
4.1227

> <Gold.Chemscore.Rot.Weighted>
5.8252

> <Gold.Chemscore.Internal.Correction.Weighted>
   9.000000E+99

> <Gold.Protein.RotatedTorsions>
[ 6907 6896 6895 6894 ] final -179.96 input  -60.11 | X-H torsion
[ 7974 7965 7964 7962 ] final   17.86 input  175.53 | X-H torsion
[ 8008 7997 7996 7995 ] final  -34.02 input   59.86 | X-H torsion
[ 10167 10162 10161 10158 ] final  -22.91 input  -65.29 | X-H torsion
[ 10718 10713 10712 10709 ] final  178.87 input   66.30 | X-H torsion
[ 10763 10752 10751 10750 ] final  122.02 input  -60.55 | X-H torsion
[ 11005 11000 10999 10996 ] final  -94.64 input  -57.11 | X-H torsion

> <Gold.Protein.ActiveResidues>
 VAL166  LYS551  ARG553  GLY616  TRP617  ASP618  TYR619  PRO620  LYS621  CYS622 
 ASP623  PHE694  ASN695  SER759  ASP760  ASP761  ALA762  ILE779  LEU786  VAL792 
 PHE793  MET794  SER795  GLU796  ALA797  LYS798  CYS799  TRP800  GLU811  SER814 

> <Gold.Protein.RotatedAtoms>
  151.6619  133.3316  159.3175 H   0  0  0  0  0  0  0  0  0  0  0  0  # atno 6907 bound_to 6896
  150.7909  134.6936  159.6520 H   0  0  0  0  0  0  0  0  0  0  0  0  # atno 6908 bound_to 6896
  152.3989  134.6324  160.0130 H   0  0  0  0  0  0  0  0  0  0  0  0  # atno 6909 bound_to 6896
  146.2204  139.8541  142.8617 H   0  0  0  0  0  0  0  0  0  0  0  0  # atno 7974 bound_to 7965
  154.4132  140.1695  156.1983 H   0  0  0  0  0  0  0  0  0  0  0  0  # atno 8008 bound_to 7997
  155.9546  140.3398  155.6413 H   0  0  0  0  0  0  0  0  0  0  0  0  # atno 8009 bound_to 7997
  155.6827  140.0724  157.2469 H   0  0  0  0  0  0  0  0  0  0  0  0  # atno 8010 bound_to 7997
  140.7287  143.4491  151.0542 H   0  0  0  0  0  0  0  0  0  0  0  0  # atno 10167 bound_to 10162
  156.8842  130.9826  151.3058 H   0  0  0  0  0  0  0  0  0  0  0  0  # atno 10718 bound_to 10713
  153.6232  135.3409  155.3017 H   0  0  0  0  0  0  0  0  0  0  0  0  # atno 10763 bound_to 10752
  154.8596  135.4278  154.2185 H   0  0  0  0  0  0  0  0  0  0  0  0  # atno 10764 bound_to 10752
  153.3063  135.7028  153.7229 H   0  0  0  0  0  0  0  0  0  0  0  0  # atno 10765 bound_to 10752
  141.1465  133.7970  157.0325 H   0  0  0  0  0  0  0  0  0  0  0  0  # atno 11005 bound_to 11000
  145.2771  141.0127  143.3738 LP  0  0  0  0  0  0  0  0  0  0  0  0  # atno 17320 bound_to 7965
  144.9178  139.4448  143.6555 LP  0  0  0  0  0  0  0  0  0  0  0  0  # atno 17321 bound_to 7965
  139.8166  143.7878  152.3174 LP  0  0  0  0  0  0  0  0  0  0  0  0  # atno 17342 bound_to 10162
  139.7946  144.7397  150.9908 LP  0  0  0  0  0  0  0  0  0  0  0  0  # atno 17343 bound_to 10162
  157.6122  130.8592  149.8970 LP  0  0  0  0  0  0  0  0  0  0  0  0  # atno 17370 bound_to 10713
  156.0662  130.3692  150.0874 LP  0  0  0  0  0  0  0  0  0  0  0  0  # atno 17371 bound_to 10713
  140.0745  134.9684  157.1522 LP  0  0  0  0  0  0  0  0  0  0  0  0  # atno 17394 bound_to 11000
  140.3664  134.2438  155.7182 LP  0  0  0  0  0  0  0  0  0  0  0  0  # atno 17395 bound_to 11000

$$$$
