AV-unprocessed.smi:2990|AV-procd|sdf|11393|dock4
  -GOLD-   2272016313D 1   1.00000     0.00000
 Structure written by MMmdl.
 39 41  0  0  0  0  0  0  0  0  1 V2000
  155.4027  139.8525  162.7514 C   0  0  0  0  0  0  0  0  0  0  0  0
  154.4935  140.8998  162.1910 C   0  0  0  0  0  0  0  0  0  0  0  0
  154.0500  141.9217  162.9232 N   0  0  0  0  0  0  0  0  0  0  0  0
  153.2540  142.6117  162.0294 C   0  0  0  0  0  0  0  0  0  0  0  0
  152.4962  143.7930  162.1966 C   0  0  0  0  0  0  0  0  0  0  0  0
  151.7480  144.3189  161.1230 C   0  0  0  0  0  0  0  0  0  0  0  0
  151.7473  143.6736  159.8695 C   0  0  0  0  0  0  0  0  0  0  0  0
  152.4970  142.4964  159.6809 C   0  0  0  0  0  0  0  0  0  0  0  0
  153.2410  141.9745  160.7560 C   0  0  0  0  0  0  0  0  0  0  0  0
  154.0661  140.8637  160.9050 N   0  0  0  0  0  0  0  0  0  0  0  0
  154.3862  139.8770  159.8821 C   0  0  0  0  0  0  0  0  0  0  0  0
  153.2302  138.8897  159.6220 C   0  0  2  0  0  0  0  0  0  0  0  0
  153.4477  137.6924  160.3419 O   0  0  0  0  0  0  0  0  0  0  0  0
  153.0829  138.5382  158.1344 C   0  0  0  0  0  0  0  0  0  0  0  0
  152.5958  139.6753  157.4338 O   0  0  0  0  0  0  0  0  0  0  0  0
  151.6674  139.4770  156.4343 C   0  0  0  0  0  0  0  0  0  0  0  0
  151.7279  138.2518  155.7380 C   0  0  0  0  0  0  0  0  0  0  0  0
  150.8190  137.9655  154.7011 C   0  0  0  0  0  0  0  0  0  0  0  0
  149.8354  138.9076  154.3481 C   0  0  0  0  0  0  0  0  0  0  0  0
  149.7634  140.1343  155.0338 C   0  0  0  0  0  0  0  0  0  0  0  0
  150.6722  140.4202  156.0714 C   0  0  0  0  0  0  0  0  0  0  0  0
  155.6529  140.0797  163.7882 H   0  0  0  0  0  0  0  0  0  0  0  0
  156.3286  139.8050  162.1789 H   0  0  0  0  0  0  0  0  0  0  0  0
  154.9173  138.8768  162.7228 H   0  0  0  0  0  0  0  0  0  0  0  0
  152.4901  144.2947  163.1528 H   0  0  0  0  0  0  0  0  0  0  0  0
  151.1713  145.2216  161.2623 H   0  0  0  0  0  0  0  0  0  0  0  0
  151.1710  144.0827  159.0526 H   0  0  0  0  0  0  0  0  0  0  0  0
  152.5009  142.0014  158.7211 H   0  0  0  0  0  0  0  0  0  0  0  0
  154.6543  140.3996  158.9637 H   0  0  0  0  0  0  0  0  0  0  0  0
  155.2815  139.3359  160.1905 H   0  0  0  0  0  0  0  0  0  0  0  0
  152.2924  139.3171  159.9776 H   0  0  0  0  0  0  0  0  0  0  0  0
  154.3735  137.6101  160.5130 H   0  0  0  0  0  0  0  0  0  0  0  0
  154.0441  138.2173  157.7290 H   0  0  0  0  0  0  0  0  0  0  0  0
  152.3756  137.7145  158.0219 H   0  0  0  0  0  0  0  0  0  0  0  0
  152.4798  137.5228  156.0023 H   0  0  0  0  0  0  0  0  0  0  0  0
  150.8771  137.0232  154.1764 H   0  0  0  0  0  0  0  0  0  0  0  0
  149.1378  138.6902  153.5528 H   0  0  0  0  0  0  0  0  0  0  0  0
  149.0097  140.8589  154.7634 H   0  0  0  0  0  0  0  0  0  0  0  0
  150.5854  141.3721  156.5726 H   0  0  0  0  0  0  0  0  0  0  0  0
  1  2  1  0  0  0  0
  1 22  1  0  0  0  0
  1 23  1  0  0  0  0
  1 24  1  0  0  0  0
  2 10  1  0  0  0  0
  2  3  2  0  0  0  0
  3  4  1  0  0  0  0
  4  9  2  0  0  0  0
  4  5  1  0  0  0  0
  5  6  2  0  0  0  0
  5 25  1  0  0  0  0
  6  7  1  0  0  0  0
  6 26  1  0  0  0  0
  7  8  2  0  0  0  0
  7 27  1  0  0  0  0
  8  9  1  0  0  0  0
  8 28  1  0  0  0  0
  9 10  1  0  0  0  0
 10 11  1  0  0  0  0
 11 12  1  0  0  0  0
 11 29  1  0  0  0  0
 11 30  1  0  0  0  0
 12 13  1  0  0  0  0
 12 14  1  0  0  0  0
 12 31  1  0  0  0  0
 13 32  1  0  0  0  0
 14 15  1  0  0  0  0
 14 33  1  0  0  0  0
 14 34  1  0  0  0  0
 15 16  1  0  0  0  0
 16 21  1  0  0  0  0
 16 17  2  0  0  0  0
 17 18  1  0  0  0  0
 17 35  1  0  0  0  0
 18 19  2  0  0  0  0
 18 36  1  0  0  0  0
 19 20  1  0  0  0  0
 19 37  1  0  0  0  0
 20 21  2  0  0  0  0
 20 38  1  0  0  0  0
 21 39  1  0  0  0  0
M  END
> <s_m_source_file>
AV-unprocessed.smi

> <i_m_source_file_index>
2990

> <i_lp_mmshare_version>
43012

> <i_f3d_flags>
0

> <s_epik_input>
W2NIXTFbY0hdW2NIXVtjSF1jKGMxMiluKGMobjIpW0NIM10pW0NIMl1bQ0BIXShbT0hdKVtDSDJdT2MzW2NIXVtjSF1bY0hdW2NIXVtjSF0z

> <s_epik_cmdline>
J2VwaWtfcHl0aG9uJywgJy1waCcsICc3LjAnLCAnLXRuJywgJzgnLCAnLW1hJywgJzIwMCcsICctbWV0YWxfYmluZGluZycsICctaW1hZScsICc8aW5maWxlLm1hZT4nLCAnLW9tYWUnLCAnPG91dGZpbGUubWFlPic=

> <r_lp_tautomer_probability>
1

> <r_epik_Ionization_Penalty>
0.119634

> <r_epik_Ionization_Penalty_Charging>
0

> <r_epik_Ionization_Penalty_Neutral>
0.119634

> <r_epik_State_Penalty>
0.10919

> <r_epik_Charging_Adjusted_Penalty>
0.10919

> <i_epik_Tot_Q>
0

> <i_epik_Tot_abs_Q>
0

> <r_epik_Metal_State_Penalty>
0.000119887

> <b_epik_Metal_Only>
0

> <s_lp_Force_Field>
OPLS_2005

> <r_lp_Energy>
14.3575

> <b_lp_Chiralities_Consistent>
1

> <s_lp_Variant>
AV-unprocessed.smi:2990-1

> <Gold.Version>
5.8.1

> <Gold.Id.Protein>
6NUR|6NUR_protein|mol2

> <Gold.PLP.Fitness>
51.0432

> <Gold.PLP.PLP>
-50.7385

> <Gold.PLP.part.hbond>
-1.8999

> <Gold.PLP.part.metal>
0.0000

> <Gold.PLP.part.buried>
-3.4654

> <Gold.PLP.part.nonpolar>
-44.9165

> <Gold.PLP.part.repulsive>
0.0299

> <Gold.PLP.ligand.clash>
0.0000

> <Gold.PLP.ligand.torsion>
1.4424

> <Gold.PLP.Chemscore.Hbond>
1.0000

> <Gold.PLP.Chemscore.CHOScore>
0.0000

> <Gold.PLP.Chemscore.Metal>
0.0000

> <Gold.Chemscore.Hbonds>
donor molecule, donor type, donor heavy atom, donor atom, acceptor molecule, acceptor atom, score
      P1  H  7997  8010       L1    15  0.75

> <Gold.PLP.Chemscore.Internal.Correction>
0.1895

> <Gold.Rescore>
     Score         DG    S(hbond)    S(metal)    S(lipo)     H(rot)  DE(clash)    DE(int)     intcor
     15.25     -16.99       0.28        0.00     135.05       2.04       0.32       1.42       ----

> <Gold.Chemscore.Fitness>
15.2504

> <Gold.Chemscore.DG>
-16.9941

> <Gold.Chemscore.ZeroCoef>
-5.4800

> <Gold.Chemscore.Hbond>
0.2770

> <Gold.Chemscore.Metal>
0.0000

> <Gold.Chemscore.Lipo>
135.0526

> <Gold.Chemscore.Internal_Hbond>
0.0000

> <Gold.Chemscore.DEClash>
0.3247

> <Gold.Chemscore.DEInternal>
1.4189

> <Gold.Chemscore.Rot>
2.0361

> <Gold.Chemscore.Internal.Correction>
   9.000000E+99

> <Gold.Chemscore.Hbonds>
donor molecule, donor type, donor heavy atom, donor atom, acceptor molecule, acceptor atom, score
      P1  H  7997  8010       L1    15  0.06

> <Gold.Chemscore.Hbond.Weighted>
-0.9253

> <Gold.Chemscore.Metal.Weighted>
-0.0000

> <Gold.Chemscore.Lipo.Weighted>
-15.8012

> <Gold.Chemscore.Internal_Hbond.Weighted>
0.0000

> <Gold.Chemscore.DEClash.Weighted>
0.3247

> <Gold.Chemscore.DEInternal.Weighted>
1.4189

> <Gold.Chemscore.Rot.Weighted>
5.2124

> <Gold.Chemscore.Internal.Correction.Weighted>
   9.000000E+99

> <Gold.Protein.RotatedTorsions>
[ 6907 6896 6895 6894 ] final   51.13 input  -60.11 | X-H torsion
[ 7974 7965 7964 7962 ] final  -78.09 input  175.53 | X-H torsion
[ 8008 7997 7996 7995 ] final   65.02 input   59.86 | X-H torsion
[ 10167 10162 10161 10158 ] final -115.90 input  -65.29 | X-H torsion
[ 10718 10713 10712 10709 ] final  -19.90 input   66.30 | X-H torsion
[ 10763 10752 10751 10750 ] final  -17.64 input  -60.55 | X-H torsion
[ 11005 11000 10999 10996 ] final -175.62 input  -57.11 | X-H torsion

> <Gold.Protein.ActiveResidues>
 VAL166  LYS551  ARG553  GLY616  TRP617  ASP618  TYR619  PRO620  LYS621  CYS622 
 ASP623  PHE694  ASN695  SER759  ASP760  ASP761  ALA762  ILE779  LEU786  VAL792 
 PHE793  MET794  SER795  GLU796  ALA797  LYS798  CYS799  TRP800  GLU811  SER814 

> <Gold.Protein.RotatedAtoms>
  152.3094  134.7516  160.0339 H   0  0  0  0  0  0  0  0  0  0  0  0  # atno 6907 bound_to 6896
  151.8002  133.3364  159.3533 H   0  0  0  0  0  0  0  0  0  0  0  0  # atno 6908 bound_to 6896
  150.7312  134.5691  159.5925 H   0  0  0  0  0  0  0  0  0  0  0  0  # atno 6909 bound_to 6896
  145.5911  140.9429  143.1292 H   0  0  0  0  0  0  0  0  0  0  0  0  # atno 7974 bound_to 7965
  155.6553  140.3497  155.4763 H   0  0  0  0  0  0  0  0  0  0  0  0  # atno 8008 bound_to 7997
  155.9814  140.1175  157.0746 H   0  0  0  0  0  0  0  0  0  0  0  0  # atno 8009 bound_to 7997
  154.4193  140.1137  156.5427 H   0  0  0  0  0  0  0  0  0  0  0  0  # atno 8010 bound_to 7997
  140.0851  143.4752  152.1903 H   0  0  0  0  0  0  0  0  0  0  0  0  # atno 10167 bound_to 10162
  156.5392  130.4674  149.6507 H   0  0  0  0  0  0  0  0  0  0  0  0  # atno 10718 bound_to 10713
  153.5769  135.7006  153.5480 H   0  0  0  0  0  0  0  0  0  0  0  0  # atno 10763 bound_to 10752
  153.3295  135.4051  155.1483 H   0  0  0  0  0  0  0  0  0  0  0  0  # atno 10764 bound_to 10752
  154.8624  135.3715  154.5295 H   0  0  0  0  0  0  0  0  0  0  0  0  # atno 10765 bound_to 10752
  140.4612  134.6252  157.4843 H   0  0  0  0  0  0  0  0  0  0  0  0  # atno 11005 bound_to 11000
  144.7351  139.7610  143.7332 LP  0  0  0  0  0  0  0  0  0  0  0  0  # atno 17320 bound_to 7965
  146.1646  139.4773  142.9966 LP  0  0  0  0  0  0  0  0  0  0  0  0  # atno 17321 bound_to 7965
  139.5757  144.7486  151.3771 LP  0  0  0  0  0  0  0  0  0  0  0  0  # atno 17342 bound_to 10162
  140.7058  143.7518  150.7479 LP  0  0  0  0  0  0  0  0  0  0  0  0  # atno 17343 bound_to 10162
  156.2987  130.7165  151.2031 LP  0  0  0  0  0  0  0  0  0  0  0  0  # atno 17370 bound_to 10713
  157.7408  131.0512  150.5140 LP  0  0  0  0  0  0  0  0  0  0  0  0  # atno 17371 bound_to 10713
  139.9944  134.6935  155.9635 LP  0  0  0  0  0  0  0  0  0  0  0  0  # atno 17394 bound_to 11000
  141.1620  133.6538  156.4351 LP  0  0  0  0  0  0  0  0  0  0  0  0  # atno 17395 bound_to 11000

$$$$
