AV-unprocessed.smi:1982|AV-procd|sdf|8021|dock7
  -GOLD-   2272010213D 1   1.00000     0.00000
 Structure written by MMmdl.
 36 37  0  0  0  0  0  0  0  0  1 V2000
  151.8994  144.8123  158.7369 C   0  0  0  0  0  0  0  0  0  0  0  0
  152.4216  143.3670  158.6812 C   0  0  1  0  0  0  0  0  0  0  0  0
  152.5984  142.7678  160.0907 C   0  0  0  0  0  0  0  0  0  0  0  0
  153.2210  141.3644  160.0298 C   0  0  0  0  0  0  0  0  0  0  0  0
  152.4140  140.4285  159.1180 C   0  0  0  0  0  0  0  0  0  0  0  0
  152.2401  141.0302  157.7101 C   0  0  1  0  0  0  0  0  0  0  0  0
  151.4872  140.1041  156.8691 N   0  0  0  0  0  0  0  0  0  0  0  0
  152.0047  139.3348  155.8986 C   0  0  0  0  0  0  0  0  0  0  0  0
  153.2064  139.2820  155.6390 O   0  0  0  0  0  0  0  0  0  0  0  0
  151.0086  138.5121  155.0822 C   0  0  0  0  0  0  0  0  0  0  0  0
  149.9850  139.3668  154.5106 N   0  0  0  0  0  0  0  0  0  0  0  0
  148.8357  139.0704  153.9003 C   0  0  0  0  0  0  0  0  0  0  0  0
  148.1977  140.1610  153.5040 N   0  0  0  0  0  0  0  0  0  0  0  0
  149.0374  141.1836  153.9135 N   0  0  0  0  0  0  0  0  0  0  0  0
  150.0998  140.7184  154.5113 N   0  0  0  0  0  0  0  0  0  0  0  0
  151.5818  142.4372  157.7650 C   0  0  1  0  0  0  0  0  0  0  0  0
  150.0796  142.3937  158.1345 C   0  0  0  0  0  0  0  0  0  0  0  0
  150.9460  144.8799  159.2607 H   0  0  0  0  0  0  0  0  0  0  0  0
  151.7642  145.2211  157.7354 H   0  0  0  0  0  0  0  0  0  0  0  0
  152.6035  145.4584  159.2620 H   0  0  0  0  0  0  0  0  0  0  0  0
  153.4168  143.4255  158.2372 H   0  0  0  0  0  0  0  0  0  0  0  0
  153.2342  143.4172  160.6935 H   0  0  0  0  0  0  0  0  0  0  0  0
  151.6377  142.7226  160.6041 H   0  0  0  0  0  0  0  0  0  0  0  0
  154.2449  141.4369  159.6604 H   0  0  0  0  0  0  0  0  0  0  0  0
  153.2850  140.9422  161.0329 H   0  0  0  0  0  0  0  0  0  0  0  0
  152.9197  139.4645  159.0516 H   0  0  0  0  0  0  0  0  0  0  0  0
  151.4401  140.2312  159.5676 H   0  0  0  0  0  0  0  0  0  0  0  0
  153.2380  141.1368  157.2795 H   0  0  0  0  0  0  0  0  0  0  0  0
  150.4870  140.0793  157.0072 H   0  0  0  0  0  0  0  0  0  0  0  0
  151.5231  137.9920  154.2732 H   0  0  0  0  0  0  0  0  0  0  0  0
  150.5425  137.7526  155.7117 H   0  0  0  0  0  0  0  0  0  0  0  0
  148.4737  138.0650  153.7422 H   0  0  0  0  0  0  0  0  0  0  0  0
  151.6335  142.8554  156.7586 H   0  0  0  0  0  0  0  0  0  0  0  0
  149.9149  142.0054  159.1390 H   0  0  0  0  0  0  0  0  0  0  0  0
  149.5131  141.7677  157.4449 H   0  0  0  0  0  0  0  0  0  0  0  0
  149.6279  143.3838  158.0863 H   0  0  0  0  0  0  0  0  0  0  0  0
  1  2  1  0  0  0  0
  1 18  1  0  0  0  0
  1 19  1  0  0  0  0
  1 20  1  0  0  0  0
  2 16  1  0  0  0  0
  2  3  1  0  0  0  0
  2 21  1  0  0  0  0
  3  4  1  0  0  0  0
  3 22  1  0  0  0  0
  3 23  1  0  0  0  0
  4  5  1  0  0  0  0
  4 24  1  0  0  0  0
  4 25  1  0  0  0  0
  5  6  1  0  0  0  0
  5 26  1  0  0  0  0
  5 27  1  0  0  0  0
  6  7  1  0  0  0  0
  6 16  1  0  0  0  0
  6 28  1  0  0  0  0
  7  8  1  0  0  0  0
  7 29  1  0  0  0  0
  8  9  2  0  0  0  0
  8 10  1  0  0  0  0
 10 11  1  0  0  0  0
 10 30  1  0  0  0  0
 10 31  1  0  0  0  0
 11 15  1  0  0  0  0
 11 12  1  0  0  0  0
 12 13  2  0  0  0  0
 12 32  1  0  0  0  0
 13 14  1  0  0  0  0
 14 15  2  0  0  0  0
 16 17  1  0  0  0  0
 16 33  1  0  0  0  0
 17 34  1  0  0  0  0
 17 35  1  0  0  0  0
 17 36  1  0  0  0  0
M  END
> <s_m_source_file>
AV-unprocessed.smi

> <i_m_source_file_index>
1982

> <i_lp_mmshare_version>
43012

> <i_f3d_flags>
0

> <s_epik_input>
W0NIM11bQ0BASF0xW0NIMl1bQ0gyXVtDSDJdW0NASF0oW0NASF0xW0NIM10pW05IXUMoPU8pW0NIMl1uMltjSF1ubm4y

> <s_epik_cmdline>
J2VwaWtfcHl0aG9uJywgJy1waCcsICc3LjAnLCAnLXRuJywgJzgnLCAnLW1hJywgJzIwMCcsICctbWV0YWxfYmluZGluZycsICctaW1hZScsICc8aW5maWxlLm1hZT4nLCAnLW9tYWUnLCAnPG91dGZpbGUubWFlPic=

> <r_lp_tautomer_probability>
1

> <r_epik_Ionization_Penalty>
5.03816e-07

> <r_epik_Ionization_Penalty_Charging>
0

> <r_epik_Ionization_Penalty_Neutral>
5.03816e-07

> <r_epik_State_Penalty>
-0

> <r_epik_Charging_Adjusted_Penalty>
0

> <i_epik_Tot_Q>
0

> <i_epik_Tot_abs_Q>
0

> <r_epik_Metal_State_Penalty>
-0

> <b_epik_Metal_Only>
0

> <s_lp_Force_Field>
OPLS_2005

> <r_lp_Energy>
14.9892

> <b_lp_Chiralities_Consistent>
1

> <s_lp_Variant>
AV-unprocessed.smi:1982-2

> <Gold.Version>
5.8.1

> <Gold.Id.Protein>
6NUR|6NUR_protein|mol2

> <Gold.PLP.Fitness>
43.6328

> <Gold.PLP.PLP>
-33.8005

> <Gold.PLP.part.hbond>
-3.8372

> <Gold.PLP.part.metal>
0.0000

> <Gold.PLP.part.buried>
-4.4118

> <Gold.PLP.part.nonpolar>
-29.0380

> <Gold.PLP.part.repulsive>
4.9968

> <Gold.PLP.ligand.clash>
0.0000

> <Gold.PLP.ligand.torsion>
0.2810

> <Gold.PLP.Chemscore.Hbond>
2.6563

> <Gold.PLP.Chemscore.CHOScore>
0.8038

> <Gold.PLP.Chemscore.Metal>
0.0000

> <Gold.Chemscore.Hbonds>
donor molecule, donor type, donor heavy atom, donor atom, acceptor molecule, acceptor atom, score
      P1  H  7989  7998       L1    15  0.78
      P1  H  7997  8010       L1     9  1.00
      P1  H  8011  8017       L1    14  0.61
      L1  C    12    32       P1  7948  0.69

> <Gold.PLP.Chemscore.Internal.Correction>
0.0140

> <Gold.Rescore>
     Score         DG    S(hbond)    S(metal)    S(lipo)     H(rot)  DE(clash)    DE(int)     intcor
     15.68     -17.58       1.99        0.00      88.24       1.91       0.33       1.56       ----

> <Gold.Chemscore.Fitness>
15.6841

> <Gold.Chemscore.DG>
-17.5772

> <Gold.Chemscore.ZeroCoef>
-5.4800

> <Gold.Chemscore.Hbond>
1.9914

> <Gold.Chemscore.Metal>
0.0000

> <Gold.Chemscore.Lipo>
88.2444

> <Gold.Chemscore.Internal_Hbond>
0.0000

> <Gold.Chemscore.DEClash>
0.3338

> <Gold.Chemscore.DEInternal>
1.5593

> <Gold.Chemscore.Rot>
1.9058

> <Gold.Chemscore.Internal.Correction>
   9.000000E+99

> <Gold.Chemscore.Hbonds>
donor molecule, donor type, donor heavy atom, donor atom, acceptor molecule, acceptor atom, score
      P1  H  7989  7998       L1    15  0.16
      P1  H  7997  8010       L1     9  0.94
      P1  H  8011  8017       L1    14  0.28

> <Gold.Chemscore.Hbond.Weighted>
-6.6514

> <Gold.Chemscore.Metal.Weighted>
-0.0000

> <Gold.Chemscore.Lipo.Weighted>
-10.3246

> <Gold.Chemscore.Internal_Hbond.Weighted>
0.0000

> <Gold.Chemscore.DEClash.Weighted>
0.3338

> <Gold.Chemscore.DEInternal.Weighted>
1.5593

> <Gold.Chemscore.Rot.Weighted>
4.8788

> <Gold.Chemscore.Internal.Correction.Weighted>
   9.000000E+99

> <Gold.Protein.RotatedTorsions>
[ 6907 6896 6895 6894 ] final  142.60 input  -60.11 | X-H torsion
[ 7974 7965 7964 7962 ] final  -67.46 input  175.53 | X-H torsion
[ 8008 7997 7996 7995 ] final  102.23 input   59.86 | X-H torsion
[ 10167 10162 10161 10158 ] final   96.42 input  -65.29 | X-H torsion
[ 10718 10713 10712 10709 ] final  -38.09 input   66.30 | X-H torsion
[ 10763 10752 10751 10750 ] final   94.86 input  -60.55 | X-H torsion
[ 11005 11000 10999 10996 ] final   78.77 input  -57.11 | X-H torsion

> <Gold.Protein.ActiveResidues>
 VAL166  LYS551  ARG553  GLY616  TRP617  ASP618  TYR619  PRO620  LYS621  CYS622 
 ASP623  PHE694  ASN695  SER759  ASP760  ASP761  ALA762  ILE779  LEU786  VAL792 
 PHE793  MET794  SER795  GLU796  ALA797  LYS798  CYS799  TRP800  GLU811  SER814 

> <Gold.Protein.RotatedAtoms>
  152.2167  133.4952  159.5139 H   0  0  0  0  0  0  0  0  0  0  0  0  # atno 6907 bound_to 6896
  150.7003  134.1396  159.4109 H   0  0  0  0  0  0  0  0  0  0  0  0  # atno 6908 bound_to 6896
  151.9316  135.0254  160.0580 H   0  0  0  0  0  0  0  0  0  0  0  0  # atno 6909 bound_to 6896
  145.7289  140.9005  143.0590 H   0  0  0  0  0  0  0  0  0  0  0  0  # atno 7974 bound_to 7965
  156.1374  140.3184  155.8442 H   0  0  0  0  0  0  0  0  0  0  0  0  # atno 8008 bound_to 7997
  155.4219  140.0513  157.3042 H   0  0  0  0  0  0  0  0  0  0  0  0  # atno 8009 bound_to 7997
  154.4948  140.2106  155.9483 H   0  0  0  0  0  0  0  0  0  0  0  0  # atno 8010 bound_to 7997
  139.7896  144.6857  150.9911 H   0  0  0  0  0  0  0  0  0  0  0  0  # atno 10167 bound_to 10162
  156.3078  130.4248  149.8080 H   0  0  0  0  0  0  0  0  0  0  0  0  # atno 10718 bound_to 10713
  153.2465  135.4274  155.0753 H   0  0  0  0  0  0  0  0  0  0  0  0  # atno 10763 bound_to 10752
  154.8363  135.3415  154.6574 H   0  0  0  0  0  0  0  0  0  0  0  0  # atno 10764 bound_to 10752
  153.6996  135.7029  153.5123 H   0  0  0  0  0  0  0  0  0  0  0  0  # atno 10765 bound_to 10752
  139.9199  134.7790  156.1692 H   0  0  0  0  0  0  0  0  0  0  0  0  # atno 11005 bound_to 11000
  144.6898  139.9304  143.7471 LP  0  0  0  0  0  0  0  0  0  0  0  0  # atno 17320 bound_to 7965
  146.0556  139.3553  143.0613 LP  0  0  0  0  0  0  0  0  0  0  0  0  # atno 17321 bound_to 7965
  140.7820  143.4395  151.0573 LP  0  0  0  0  0  0  0  0  0  0  0  0  # atno 17342 bound_to 10162
  139.8072  143.8001  152.3168 LP  0  0  0  0  0  0  0  0  0  0  0  0  # atno 17343 bound_to 10162
  156.5435  130.8310  151.3276 LP  0  0  0  0  0  0  0  0  0  0  0  0  # atno 17370 bound_to 10713
  157.7384  130.9812  150.2248 LP  0  0  0  0  0  0  0  0  0  0  0  0  # atno 17371 bound_to 10713
  141.0710  133.6797  156.2141 LP  0  0  0  0  0  0  0  0  0  0  0  0  # atno 17394 bound_to 11000
  140.6506  134.5071  157.5577 LP  0  0  0  0  0  0  0  0  0  0  0  0  # atno 17395 bound_to 11000

$$$$
