AV-unprocessed.smi:2191|AV-procd|sdf|8892|dock6
  -GOLD-   2272012 93D 1   1.00000     0.00000
 Structure written by MMmdl.
 36 38  0  0  0  0  0  0  0  0  1 V2000
  148.2998  140.1948  156.4907 O   0  0  0  0  0  0  0  0  0  0  0  0
  148.6686  141.3716  155.7980 C   0  0  2  0  0  0  0  0  0  0  0  0
  147.6859  141.5752  154.6345 C   0  0  0  0  0  0  0  0  0  0  0  0
  146.3778  141.7473  155.1635 O   0  0  0  0  0  0  0  0  0  0  0  0
  145.6147  142.7947  154.6931 C   0  0  0  0  0  0  0  0  0  0  0  0
  144.5913  143.2697  155.5393 C   0  0  0  0  0  0  0  0  0  0  0  0
  143.7639  144.3376  155.1417 C   0  0  0  0  0  0  0  0  0  0  0  0
  143.9531  144.9438  153.8862 C   0  0  0  0  0  0  0  0  0  0  0  0
  144.9693  144.4793  153.0306 C   0  0  0  0  0  0  0  0  0  0  0  0
  145.7975  143.4116  153.4291 C   0  0  0  0  0  0  0  0  0  0  0  0
  150.1217  141.2314  155.3038 C   0  0  0  0  0  0  0  0  0  0  0  0
  151.0740  141.1035  156.3931 N   0  0  0  0  0  0  0  0  0  0  0  0
  151.8837  140.0563  156.6415 C   0  0  0  0  0  0  0  0  0  0  0  0
  152.6834  140.1413  157.7008 N   0  0  0  0  0  0  0  0  0  0  0  0
  152.3537  141.3899  158.1997 C   0  0  0  0  0  0  0  0  0  0  0  0
  152.8469  142.0865  159.3263 C   0  0  0  0  0  0  0  0  0  0  0  0
  152.3515  143.3676  159.6474 C   0  0  0  0  0  0  0  0  0  0  0  0
  151.3596  143.9720  158.8479 C   0  0  0  0  0  0  0  0  0  0  0  0
  150.8543  143.2982  157.7193 C   0  0  0  0  0  0  0  0  0  0  0  0
  151.3487  142.0187  157.4039 C   0  0  0  0  0  0  0  0  0  0  0  0
  148.8836  140.0862  157.2261 H   0  0  0  0  0  0  0  0  0  0  0  0
  148.6082  142.2189  156.4825 H   0  0  0  0  0  0  0  0  0  0  0  0
  147.9561  142.4796  154.0867 H   0  0  0  0  0  0  0  0  0  0  0  0
  147.7339  140.7359  153.9381 H   0  0  0  0  0  0  0  0  0  0  0  0
  144.4392  142.8098  156.5050 H   0  0  0  0  0  0  0  0  0  0  0  0
  142.9844  144.6909  155.8002 H   0  0  0  0  0  0  0  0  0  0  0  0
  143.3199  145.7633  153.5797 H   0  0  0  0  0  0  0  0  0  0  0  0
  145.1149  144.9431  152.0663 H   0  0  0  0  0  0  0  0  0  0  0  0
  146.5664  143.0847  152.7458 H   0  0  0  0  0  0  0  0  0  0  0  0
  150.2195  140.3646  154.6491 H   0  0  0  0  0  0  0  0  0  0  0  0
  150.4029  142.1020  154.7096 H   0  0  0  0  0  0  0  0  0  0  0  0
  151.8862  139.1817  156.0074 H   0  0  0  0  0  0  0  0  0  0  0  0
  153.6071  141.6336  159.9454 H   0  0  0  0  0  0  0  0  0  0  0  0
  152.7352  143.8893  160.5119 H   0  0  0  0  0  0  0  0  0  0  0  0
  150.9872  144.9540  159.1007 H   0  0  0  0  0  0  0  0  0  0  0  0
  150.0971  143.7594  157.1030 H   0  0  0  0  0  0  0  0  0  0  0  0
  1  2  1  0  0  0  0
  1 21  1  0  0  0  0
  2  3  1  0  0  0  0
  2 11  1  0  0  0  0
  2 22  1  0  0  0  0
  3  4  1  0  0  0  0
  3 23  1  0  0  0  0
  3 24  1  0  0  0  0
  4  5  1  0  0  0  0
  5 10  1  0  0  0  0
  5  6  2  0  0  0  0
  6  7  1  0  0  0  0
  6 25  1  0  0  0  0
  7  8  2  0  0  0  0
  7 26  1  0  0  0  0
  8  9  1  0  0  0  0
  8 27  1  0  0  0  0
  9 10  2  0  0  0  0
  9 28  1  0  0  0  0
 10 29  1  0  0  0  0
 11 12  1  0  0  0  0
 11 30  1  0  0  0  0
 11 31  1  0  0  0  0
 12 20  1  0  0  0  0
 12 13  1  0  0  0  0
 13 14  2  0  0  0  0
 13 32  1  0  0  0  0
 14 15  1  0  0  0  0
 15 20  2  0  0  0  0
 15 16  1  0  0  0  0
 16 17  2  0  0  0  0
 16 33  1  0  0  0  0
 17 18  1  0  0  0  0
 17 34  1  0  0  0  0
 18 19  2  0  0  0  0
 18 35  1  0  0  0  0
 19 20  1  0  0  0  0
 19 36  1  0  0  0  0
M  END
> <s_m_source_file>
AV-unprocessed.smi

> <i_m_source_file_index>
2191

> <i_lp_mmshare_version>
43012

> <i_f3d_flags>
0

> <s_epik_input>
W2NIXTFbY0hdW2NIXVtjSF1jKGMxMiluKFtjSF1uMilbQ0gyXVtDQEhdKFtPSF0pW0NIMl1PYzNbY0hdW2NIXVtjSF1bY0hdW2NIXTM=

> <s_epik_cmdline>
J2VwaWtfcHl0aG9uJywgJy1waCcsICc3LjAnLCAnLXRuJywgJzgnLCAnLW1hJywgJzIwMCcsICctbWV0YWxfYmluZGluZycsICctaW1hZScsICc8aW5maWxlLm1hZT4nLCAnLW9tYWUnLCAnPG91dGZpbGUubWFlPic=

> <r_lp_tautomer_probability>
1

> <r_epik_Ionization_Penalty>
0.0640132

> <r_epik_Ionization_Penalty_Charging>
0

> <r_epik_Ionization_Penalty_Neutral>
0.0640132

> <r_epik_State_Penalty>
0.0557325

> <r_epik_Charging_Adjusted_Penalty>
0.0557325

> <i_epik_Tot_Q>
0

> <i_epik_Tot_abs_Q>
0

> <r_epik_Metal_State_Penalty>
5.8435e-05

> <b_epik_Metal_Only>
0

> <s_lp_Force_Field>
OPLS_2005

> <r_lp_Energy>
16.2786

> <b_lp_Chiralities_Consistent>
1

> <s_lp_Variant>
AV-unprocessed.smi:2191-1

> <Gold.Version>
5.8.1

> <Gold.Id.Protein>
6NUR|6NUR_protein|mol2

> <Gold.PLP.Fitness>
45.8433

> <Gold.PLP.PLP>
-44.2177

> <Gold.PLP.part.hbond>
-1.0000

> <Gold.PLP.part.metal>
0.0000

> <Gold.PLP.part.buried>
-5.1099

> <Gold.PLP.part.nonpolar>
-38.2273

> <Gold.PLP.part.repulsive>
0.1292

> <Gold.PLP.ligand.clash>
0.0000

> <Gold.PLP.ligand.torsion>
0.6871

> <Gold.PLP.Chemscore.Hbond>
0.9913

> <Gold.PLP.Chemscore.CHOScore>
0.0000

> <Gold.PLP.Chemscore.Metal>
0.0000

> <Gold.Chemscore.Hbonds>
donor molecule, donor type, donor heavy atom, donor atom, acceptor molecule, acceptor atom, score
      P1  H  7997  8008       L1    14  0.99

> <Gold.PLP.Chemscore.Internal.Correction>
0.0261

> <Gold.Rescore>
     Score         DG    S(hbond)    S(metal)    S(lipo)     H(rot)  DE(clash)    DE(int)     intcor
     14.16     -14.90       0.50        0.00     114.93       2.22       0.02       0.71       ----

> <Gold.Chemscore.Fitness>
14.1579

> <Gold.Chemscore.DG>
-14.8969

> <Gold.Chemscore.ZeroCoef>
-5.4800

> <Gold.Chemscore.Hbond>
0.4950

> <Gold.Chemscore.Metal>
0.0000

> <Gold.Chemscore.Lipo>
114.9305

> <Gold.Chemscore.Internal_Hbond>
0.0000

> <Gold.Chemscore.DEClash>
0.0242

> <Gold.Chemscore.DEInternal>
0.7149

> <Gold.Chemscore.Rot>
2.2200

> <Gold.Chemscore.Internal.Correction>
   9.000000E+99

> <Gold.Chemscore.Hbonds>
donor molecule, donor type, donor heavy atom, donor atom, acceptor molecule, acceptor atom, score
      P1  H  7997  8008       L1    14  0.35

> <Gold.Chemscore.Hbond.Weighted>
-1.6533

> <Gold.Chemscore.Metal.Weighted>
-0.0000

> <Gold.Chemscore.Lipo.Weighted>
-13.4469

> <Gold.Chemscore.Internal_Hbond.Weighted>
0.0000

> <Gold.Chemscore.DEClash.Weighted>
0.0242

> <Gold.Chemscore.DEInternal.Weighted>
0.7149

> <Gold.Chemscore.Rot.Weighted>
5.6832

> <Gold.Chemscore.Internal.Correction.Weighted>
   9.000000E+99

> <Gold.Protein.RotatedTorsions>
[ 6907 6896 6895 6894 ] final -108.57 input  -60.11 | X-H torsion
[ 7974 7965 7964 7962 ] final  -69.03 input  175.53 | X-H torsion
[ 8008 7997 7996 7995 ] final  -78.57 input   59.86 | X-H torsion
[ 10167 10162 10161 10158 ] final  -88.11 input  -65.29 | X-H torsion
[ 10718 10713 10712 10709 ] final  165.94 input   66.30 | X-H torsion
[ 10763 10752 10751 10750 ] final  170.04 input  -60.55 | X-H torsion
[ 11005 11000 10999 10996 ] final   73.36 input  -57.11 | X-H torsion

> <Gold.Protein.ActiveResidues>
 VAL166  LYS551  ARG553  GLY616  TRP617  ASP618  TYR619  PRO620  LYS621  CYS622 
 ASP623  PHE694  ASN695  SER759  ASP760  ASP761  ALA762  ILE779  LEU786  VAL792 
 PHE793  MET794  SER795  GLU796  ALA797  LYS798  CYS799  TRP800  GLU811  SER814 

> <Gold.Protein.RotatedAtoms>
  150.7510  133.9658  159.3529 H   0  0  0  0  0  0  0  0  0  0  0  0  # atno 6907 bound_to 6896
  151.7587  135.0813  160.0351 H   0  0  0  0  0  0  0  0  0  0  0  0  # atno 6908 bound_to 6896
  152.3417  133.6038  159.5917 H   0  0  0  0  0  0  0  0  0  0  0  0  # atno 6909 bound_to 6896
  145.7089  140.9086  143.0691 H   0  0  0  0  0  0  0  0  0  0  0  0  # atno 7974 bound_to 7965
  154.5702  140.0692  156.8953 H   0  0  0  0  0  0  0  0  0  0  0  0  # atno 8008 bound_to 7997
  155.2649  140.3361  155.4252 H   0  0  0  0  0  0  0  0  0  0  0  0  # atno 8009 bound_to 7997
  156.2112  140.1760  156.7676 H   0  0  0  0  0  0  0  0  0  0  0  0  # atno 8010 bound_to 7997
  140.3779  143.2762  151.9420 H   0  0  0  0  0  0  0  0  0  0  0  0  # atno 10167 bound_to 10162
  157.0729  131.0371  151.2604 H   0  0  0  0  0  0  0  0  0  0  0  0  # atno 10718 bound_to 10713
  154.3919  135.2754  155.2149 H   0  0  0  0  0  0  0  0  0  0  0  0  # atno 10763 bound_to 10752
  154.4212  135.5999  153.6014 H   0  0  0  0  0  0  0  0  0  0  0  0  # atno 10764 bound_to 10752
  152.9832  135.5973  154.4175 H   0  0  0  0  0  0  0  0  0  0  0  0  # atno 10765 bound_to 10752
  139.9444  134.7340  156.1017 H   0  0  0  0  0  0  0  0  0  0  0  0  # atno 11005 bound_to 11000
  144.6947  139.9048  143.7460 LP  0  0  0  0  0  0  0  0  0  0  0  0  # atno 17320 bound_to 7965
  146.0730  139.3719  143.0511 LP  0  0  0  0  0  0  0  0  0  0  0  0  # atno 17321 bound_to 7965
  139.4798  144.5846  151.7875 LP  0  0  0  0  0  0  0  0  0  0  0  0  # atno 17342 bound_to 10162
  140.4967  144.1230  150.5962 LP  0  0  0  0  0  0  0  0  0  0  0  0  # atno 17343 bound_to 10162
  157.4863  130.7795  149.7463 LP  0  0  0  0  0  0  0  0  0  0  0  0  # atno 17370 bound_to 10713
  155.9945  130.3917  150.2856 LP  0  0  0  0  0  0  0  0  0  0  0  0  # atno 17371 bound_to 10713
  141.1090  133.6650  156.2932 LP  0  0  0  0  0  0  0  0  0  0  0  0  # atno 17394 bound_to 11000
  140.5871  134.5688  157.5492 LP  0  0  0  0  0  0  0  0  0  0  0  0  # atno 17395 bound_to 11000

$$$$
