AV-unprocessed.smi:3139|AV-procd|sdf|11957|dock8
  -GOLD-   2272017353D 1   1.00000     0.00000
 Structure written by MMmdl.
 33 33  0  0  0  0  0  0  0  0  2 V2000
  153.2817  140.7547  160.1619 C   0  0  0  0  0  0  0  0  0  0  0  0
  152.6587  141.6029  159.0330 C   0  0  1  0  0  0  0  0  0  0  0  0
  151.4109  140.9513  158.4202 C   0  0  0  0  0  0  0  0  0  0  0  0
  150.3857  140.7990  159.0857 O   0  0  0  0  0  0  0  0  0  0  0  0
  151.5108  140.6084  157.1270 N   0  0  0  0  0  0  0  0  0  0  0  0
  150.4135  140.1684  156.2673 C   0  0  0  0  0  0  0  0  0  0  0  0
  150.5014  138.6618  155.8856 C   0  0  0  0  0  0  0  0  0  0  0  0
  150.4954  137.8111  157.1723 C   0  0  0  0  0  0  0  0  0  0  0  0
  149.2815  138.2632  155.0186 C   0  0  0  0  0  0  0  0  0  0  0  0
  151.8228  138.3766  155.1229 C   0  0  0  0  0  0  0  0  0  0  0  0
  152.6078  139.3256  154.8999 O   0  0  0  0  0  0  0  0  0  0  0  0
  152.0337  137.1926  154.7764 O   0  5  0  0  0  0  0  0  0  0  0  0
  152.3379  142.9646  159.4515 N   0  0  0  0  0  0  0  0  0  0  0  0
  152.0987  144.0606  158.6460 C   0  0  0  0  0  0  0  0  0  0  0  0
  151.7700  145.1068  159.4589 C   0  0  0  0  0  0  0  0  0  0  0  0
  151.8172  144.5461  160.7648 C   0  0  0  0  0  0  0  0  0  0  0  0
  152.1476  143.2653  160.7577 N   0  0  0  0  0  0  0  0  0  0  0  0
  153.5685  139.7680  159.7968 H   0  0  0  0  0  0  0  0  0  0  0  0
  152.5940  140.6091  160.9962 H   0  0  0  0  0  0  0  0  0  0  0  0
  154.1807  141.2313  160.5537 H   0  0  0  0  0  0  0  0  0  0  0  0
  153.4078  141.6829  158.2434 H   0  0  0  0  0  0  0  0  0  0  0  0
  152.3963  140.7670  156.6679 H   0  0  0  0  0  0  0  0  0  0  0  0
  149.4875  140.3615  156.8108 H   0  0  0  0  0  0  0  0  0  0  0  0
  150.3535  140.7826  155.3673 H   0  0  0  0  0  0  0  0  0  0  0  0
  149.5710  137.9537  157.7325 H   0  0  0  0  0  0  0  0  0  0  0  0
  151.3199  138.0738  157.8367 H   0  0  0  0  0  0  0  0  0  0  0  0
  150.5801  136.7468  156.9484 H   0  0  0  0  0  0  0  0  0  0  0  0
  148.3461  138.4969  155.5276 H   0  0  0  0  0  0  0  0  0  0  0  0
  149.2724  137.1936  154.8044 H   0  0  0  0  0  0  0  0  0  0  0  0
  149.2674  138.7887  154.0626 H   0  0  0  0  0  0  0  0  0  0  0  0
  152.1717  144.0031  157.5699 H   0  0  0  0  0  0  0  0  0  0  0  0
  151.5206  146.1148  159.1630 H   0  0  0  0  0  0  0  0  0  0  0  0
  151.6157  145.0265  161.7107 H   0  0  0  0  0  0  0  0  0  0  0  0
  1  2  1  0  0  0  0
  1 18  1  0  0  0  0
  1 19  1  0  0  0  0
  1 20  1  0  0  0  0
  2  3  1  0  0  0  0
  2 13  1  0  0  0  0
  2 21  1  0  0  0  0
  3  4  2  0  0  0  0
  3  5  1  0  0  0  0
  5  6  1  0  0  0  0
  5 22  1  0  0  0  0
  6  7  1  0  0  0  0
  6 23  1  0  0  0  0
  6 24  1  0  0  0  0
  7  8  1  0  0  0  0
  7  9  1  0  0  0  0
  7 10  1  0  0  0  0
  8 25  1  0  0  0  0
  8 26  1  0  0  0  0
  8 27  1  0  0  0  0
  9 28  1  0  0  0  0
  9 29  1  0  0  0  0
  9 30  1  0  0  0  0
 10 11  2  0  0  0  0
 10 12  1  0  0  0  0
 13 17  1  0  0  0  0
 13 14  1  0  0  0  0
 14 15  2  0  0  0  0
 14 31  1  0  0  0  0
 15 16  1  0  0  0  0
 15 32  1  0  0  0  0
 16 17  2  0  0  0  0
 16 33  1  0  0  0  0
M  CHG  1  12  -1
M  END
> <s_m_source_file>
AV-unprocessed.smi

> <i_m_source_file_index>
3139

> <i_lp_mmshare_version>
43012

> <i_f3d_flags>
0

> <s_epik_input>
bjFbY0hdW2NIXVtjSF1uMVtDQEhdKFtDSDNdKUMoPU8pW05IXVtDSDJdQyhbQ0gzXSkoW0NIM10pQyg9TylbT0hd

> <s_epik_cmdline>
J2VwaWtfcHl0aG9uJywgJy1waCcsICc3LjAnLCAnLXRuJywgJzgnLCAnLW1hJywgJzIwMCcsICctbWV0YWxfYmluZGluZycsICctaW1hZScsICc8aW5maWxlLm1hZT4nLCAnLW9tYWUnLCAnPG91dGZpbGUubWFlPic=

> <r_lp_tautomer_probability>
1

> <r_epik_Ionization_Penalty>
0.00184643

> <r_epik_Ionization_Penalty_Charging>
0.00181045

> <r_epik_Ionization_Penalty_Neutral>
3.59763e-05

> <r_epik_State_Penalty>
0.00122842

> <r_epik_Charging_Adjusted_Penalty>
0.00303887

> <i_epik_Tot_Q>
-1

> <i_epik_Tot_abs_Q>
1

> <r_epik_Metal_State_Penalty>
-0

> <b_epik_Metal_Only>
0

> <s_lp_Force_Field>
OPLS_2005

> <r_lp_Energy>
4.69511

> <b_lp_Chiralities_Consistent>
1

> <s_lp_Variant>
AV-unprocessed.smi:3139-2

> <Gold.Version>
5.8.1

> <Gold.Id.Protein>
6NUR|6NUR_protein|mol2

> <Gold.PLP.Fitness>
49.8946

> <Gold.PLP.PLP>
-39.4026

> <Gold.PLP.part.hbond>
-2.9865

> <Gold.PLP.part.metal>
0.0000

> <Gold.PLP.part.buried>
-5.7261

> <Gold.PLP.part.nonpolar>
-31.7734

> <Gold.PLP.part.repulsive>
0.3510

> <Gold.PLP.ligand.clash>
0.0000

> <Gold.PLP.ligand.torsion>
0.5217

> <Gold.PLP.Chemscore.Hbond>
3.8008

> <Gold.PLP.Chemscore.CHOScore>
0.0000

> <Gold.PLP.Chemscore.Metal>
0.0000

> <Gold.Chemscore.Hbonds>
donor molecule, donor type, donor heavy atom, donor atom, acceptor molecule, acceptor atom, score
      P1  H  7989  7998       L1    11  0.25
      P1  H  7997  8009       L1    11  0.78
      P1  H 10752 10765       L1    12  1.82

> <Gold.PLP.Chemscore.Internal.Correction>
0.1331

> <Gold.Rescore>
     Score         DG    S(hbond)    S(metal)    S(lipo)     H(rot)  DE(clash)    DE(int)     intcor
     12.97     -14.96       1.88        0.00      78.21       2.32       0.01       1.98       ----

> <Gold.Chemscore.Fitness>
12.9708

> <Gold.Chemscore.DG>
-14.9584

> <Gold.Chemscore.ZeroCoef>
-5.4800

> <Gold.Chemscore.Hbond>
1.8795

> <Gold.Chemscore.Metal>
0.0000

> <Gold.Chemscore.Lipo>
78.2118

> <Gold.Chemscore.Internal_Hbond>
0.0000

> <Gold.Chemscore.DEClash>
0.0060

> <Gold.Chemscore.DEInternal>
1.9816

> <Gold.Chemscore.Rot>
2.3241

> <Gold.Chemscore.Internal.Correction>
   9.000000E+99

> <Gold.Chemscore.Hbonds>
donor molecule, donor type, donor heavy atom, donor atom, acceptor molecule, acceptor atom, score
      P1  H  7989  7998       L1    11  0.21
      P1  H  7997  8009       L1    11  0.39
      P1  H 10752 10765       L1    12  0.88

> <Gold.Chemscore.Hbond.Weighted>
-6.2774

> <Gold.Chemscore.Metal.Weighted>
-0.0000

> <Gold.Chemscore.Lipo.Weighted>
-9.1508

> <Gold.Chemscore.Internal_Hbond.Weighted>
0.0000

> <Gold.Chemscore.DEClash.Weighted>
0.0060

> <Gold.Chemscore.DEInternal.Weighted>
1.9816

> <Gold.Chemscore.Rot.Weighted>
5.9498

> <Gold.Chemscore.Internal.Correction.Weighted>
   9.000000E+99

> <Gold.Protein.RotatedTorsions>
[ 6907 6896 6895 6894 ] final   62.78 input  -60.11 | X-H torsion
[ 7974 7965 7964 7962 ] final -134.35 input  175.53 | X-H torsion
[ 8008 7997 7996 7995 ] final -130.95 input   59.86 | X-H torsion
[ 10167 10162 10161 10158 ] final   88.78 input  -65.29 | X-H torsion
[ 10718 10713 10712 10709 ] final  -54.54 input   66.30 | X-H torsion
[ 10763 10752 10751 10750 ] final  166.57 input  -60.55 | X-H torsion
[ 11005 11000 10999 10996 ] final -174.37 input  -57.11 | X-H torsion

> <Gold.Protein.ActiveResidues>
 VAL166  LYS551  ARG553  GLY616  TRP617  ASP618  TYR619  PRO620  LYS621  CYS622 
 ASP623  PHE694  ASN695  SER759  ASP760  ASP761  ALA762  ILE779  LEU786  VAL792 
 PHE793  MET794  SER795  GLU796  ALA797  LYS798  CYS799  TRP800  GLU811  SER814 

> <Gold.Protein.RotatedAtoms>
  152.4200  134.5973  159.9990 H   0  0  0  0  0  0  0  0  0  0  0  0  # atno 6907 bound_to 6896
  151.6126  133.3340  159.3078 H   0  0  0  0  0  0  0  0  0  0  0  0  # atno 6908 bound_to 6896
  150.8088  134.7268  159.6734 H   0  0  0  0  0  0  0  0  0  0  0  0  # atno 6909 bound_to 6896
  144.9110  140.6895  143.5025 H   0  0  0  0  0  0  0  0  0  0  0  0  # atno 7974 bound_to 7965
  155.3043  140.0454  157.3031 H   0  0  0  0  0  0  0  0  0  0  0  0  # atno 8008 bound_to 7997
  154.5469  140.2305  155.8516 H   0  0  0  0  0  0  0  0  0  0  0  0  # atno 8009 bound_to 7997
  156.1932  140.3045  155.9380 H   0  0  0  0  0  0  0  0  0  0  0  0  # atno 8010 bound_to 7997
  139.8638  144.6530  150.9027 H   0  0  0  0  0  0  0  0  0  0  0  0  # atno 10167 bound_to 10162
  156.1442  130.4153  150.0052 H   0  0  0  0  0  0  0  0  0  0  0  0  # atno 10718 bound_to 10713
  154.3409  135.2754  155.2423 H   0  0  0  0  0  0  0  0  0  0  0  0  # atno 10763 bound_to 10752
  154.4694  135.5887  153.6314 H   0  0  0  0  0  0  0  0  0  0  0  0  # atno 10764 bound_to 10752
  152.9857  135.6084  154.3610 H   0  0  0  0  0  0  0  0  0  0  0  0  # atno 10765 bound_to 10752
  140.4752  134.6127  157.4898 H   0  0  0  0  0  0  0  0  0  0  0  0  # atno 11005 bound_to 11000
  145.3454  139.1720  143.4463 LP  0  0  0  0  0  0  0  0  0  0  0  0  # atno 17320 bound_to 7965
  146.3158  140.3500  142.8655 LP  0  0  0  0  0  0  0  0  0  0  0  0  # atno 17321 bound_to 7965
  140.7771  143.3721  151.1629 LP  0  0  0  0  0  0  0  0  0  0  0  0  # atno 17342 bound_to 10162
  139.7348  143.9016  152.3031 LP  0  0  0  0  0  0  0  0  0  0  0  0  # atno 17343 bound_to 10162
  156.7928  130.9262  151.3646 LP  0  0  0  0  0  0  0  0  0  0  0  0  # atno 17370 bound_to 10713
  157.6602  130.8959  149.9814 LP  0  0  0  0  0  0  0  0  0  0  0  0  # atno 17371 bound_to 10713
  139.9860  134.7061  155.9773 LP  0  0  0  0  0  0  0  0  0  0  0  0  # atno 17394 bound_to 11000
  141.1558  133.6543  156.4156 LP  0  0  0  0  0  0  0  0  0  0  0  0  # atno 17395 bound_to 11000

$$$$
