AV-unprocessed.smi:2037|AV-procd|sdf|8276|dock10
  -GOLD-   2272010543D 1   1.00000     0.00000
 Structure written by MMmdl.
 39 40  0  0  0  0  0  0  0  0  2 V2000
  145.1182  131.9122  150.3466 C   0  0  0  0  0  0  0  0  0  0  0  0
  144.9462  133.2325  151.1106 C   0  0  2  0  0  0  0  0  0  0  0  0
  145.3084  134.4466  150.2396 C   0  0  0  0  0  0  0  0  0  0  0  0
  145.1608  135.7608  151.0248 C   0  0  0  0  0  0  0  0  0  0  0  0
  145.9883  135.7471  152.2589 N   0  3  1  0  0  0  0  0  0  0  0  0
  145.9602  137.0518  152.9661 C   0  0  0  0  0  0  0  0  0  0  0  0
  146.3899  138.2216  152.0589 C   0  0  0  0  0  0  0  0  0  0  0  0
  147.4619  139.0034  152.6642 N   0  0  0  0  0  0  0  0  0  0  0  0
  147.5127  139.3579  153.9565 C   0  0  0  0  0  0  0  0  0  0  0  0
  146.6402  139.0588  154.7725 O   0  0  0  0  0  0  0  0  0  0  0  0
  148.6215  140.0687  154.2267 N   0  0  0  0  0  0  0  0  0  0  0  0
  149.0216  140.6310  155.4676 C   0  0  0  0  0  0  0  0  0  0  0  0
  150.2382  140.4835  156.0054 N   0  0  0  0  0  0  0  0  0  0  0  0
  150.3522  141.1423  157.2323 C   0  0  0  0  0  0  0  0  0  0  0  0
  149.2040  141.7898  157.6166 C   0  0  0  0  0  0  0  0  0  0  0  0
  147.9264  141.5966  156.4460 S   0  0  0  0  0  0  0  0  0  0  0  0
  145.6342  134.5995  153.1368 C   0  0  0  0  0  0  0  0  0  0  0  0
  145.7927  133.2621  152.3942 C   0  0  0  0  0  0  0  0  0  0  0  0
  146.1520  131.7666  150.0317 H   0  0  0  0  0  0  0  0  0  0  0  0
  144.4925  131.8912  149.4538 H   0  0  0  0  0  0  0  0  0  0  0  0
  144.8361  131.0606  150.9663 H   0  0  0  0  0  0  0  0  0  0  0  0
  143.8958  133.3180  151.3932 H   0  0  0  0  0  0  0  0  0  0  0  0
  146.3335  134.3513  149.8780 H   0  0  0  0  0  0  0  0  0  0  0  0
  144.6710  134.4750  149.3550 H   0  0  0  0  0  0  0  0  0  0  0  0
  145.4635  136.5914  150.3858 H   0  0  0  0  0  0  0  0  0  0  0  0
  144.1149  135.9277  151.2881 H   0  0  0  0  0  0  0  0  0  0  0  0
  144.9456  137.2530  153.3128 H   0  0  0  0  0  0  0  0  0  0  0  0
  146.5830  136.9931  153.8600 H   0  0  0  0  0  0  0  0  0  0  0  0
  146.7165  137.8720  151.0791 H   0  0  0  0  0  0  0  0  0  0  0  0
  145.5433  138.8861  151.8844 H   0  0  0  0  0  0  0  0  0  0  0  0
  148.2202  139.2870  152.0604 H   0  0  0  0  0  0  0  0  0  0  0  0
  149.2533  140.2292  153.4561 H   0  0  0  0  0  0  0  0  0  0  0  0
  151.2896  141.0983  157.7668 H   0  0  0  0  0  0  0  0  0  0  0  0
  149.0332  142.3660  158.5137 H   0  0  0  0  0  0  0  0  0  0  0  0
  146.2688  134.5862  154.0220 H   0  0  0  0  0  0  0  0  0  0  0  0
  144.6074  134.7121  153.4890 H   0  0  0  0  0  0  0  0  0  0  0  0
  145.5024  132.4419  153.0518 H   0  0  0  0  0  0  0  0  0  0  0  0
  146.8443  133.1038  152.1498 H   0  0  0  0  0  0  0  0  0  0  0  0
  146.9415  135.6057  151.9567 H   0  0  0  0  0  0  0  0  0  0  0  0
  1  2  1  0  0  0  0
  1 19  1  0  0  0  0
  1 20  1  0  0  0  0
  1 21  1  0  0  0  0
  2 18  1  0  0  0  0
  2  3  1  0  0  0  0
  2 22  1  0  0  0  0
  3  4  1  0  0  0  0
  3 23  1  0  0  0  0
  3 24  1  0  0  0  0
  4  5  1  0  0  0  0
  4 25  1  0  0  0  0
  4 26  1  0  0  0  0
  5  6  1  0  0  0  0
  5 17  1  0  0  0  0
  5 39  1  0  0  0  0
  6  7  1  0  0  0  0
  6 27  1  0  0  0  0
  6 28  1  0  0  0  0
  7  8  1  0  0  0  0
  7 29  1  0  0  0  0
  7 30  1  0  0  0  0
  8  9  1  0  0  0  0
  8 31  1  0  0  0  0
  9 10  2  0  0  0  0
  9 11  1  0  0  0  0
 11 12  1  0  0  0  0
 11 32  1  0  0  0  0
 12 16  1  0  0  0  0
 12 13  2  0  0  0  0
 13 14  1  0  0  0  0
 14 15  2  0  0  0  0
 14 33  1  0  0  0  0
 15 16  1  0  0  0  0
 15 34  1  0  0  0  0
 17 18  1  0  0  0  0
 17 35  1  0  0  0  0
 17 36  1  0  0  0  0
 18 37  1  0  0  0  0
 18 38  1  0  0  0  0
M  CHG  1   5   1
M  END
> <s_m_source_file>
AV-unprocessed.smi

> <i_m_source_file_index>
2037

> <i_lp_mmshare_version>
43012

> <i_f3d_flags>
0

> <s_epik_input>
W0NIM11bQ0hdMVtDSDJdW0NIMl1OKFtDSDJdW0NIMl0xKVtDSDJdW0NIMl1bTkhdQyg9TylbTkhdYzJuW2NIXVtjSF1zMg==

> <s_epik_cmdline>
J2VwaWtfcHl0aG9uJywgJy1waCcsICc3LjAnLCAnLXRuJywgJzgnLCAnLW1hJywgJzIwMCcsICctbWV0YWxfYmluZGluZycsICctaW1hZScsICc8aW5maWxlLm1hZT4nLCAnLW9tYWUnLCAnPG91dGZpbGUubWFlPic=

> <r_lp_tautomer_probability>
0.999

> <r_epik_Ionization_Penalty>
0.00182893

> <r_epik_Ionization_Penalty_Charging>
0.00168873

> <r_epik_Ionization_Penalty_Neutral>
0.000140204

> <r_epik_State_Penalty>
0.00114045

> <r_epik_Charging_Adjusted_Penalty>
0.00282917

> <i_epik_Tot_Q>
1

> <i_epik_Tot_abs_Q>
1

> <r_epik_Metal_State_Penalty>
0.0569426

> <b_epik_Metal_Only>
0

> <s_lp_Force_Field>
OPLS_2005

> <r_lp_Energy>
13.393

> <b_lp_Chiralities_Consistent>
1

> <s_lp_Variant>
AV-unprocessed.smi:2037-1

> <Gold.Version>
5.8.1

> <Gold.Id.Protein>
6NUR|6NUR_protein|mol2

> <Gold.PLP.Fitness>
43.2840

> <Gold.PLP.PLP>
-31.2985

> <Gold.PLP.part.hbond>
-4.6094

> <Gold.PLP.part.metal>
0.0000

> <Gold.PLP.part.buried>
-2.9020

> <Gold.PLP.part.nonpolar>
-23.9090

> <Gold.PLP.part.repulsive>
0.3461

> <Gold.PLP.ligand.clash>
0.0000

> <Gold.PLP.ligand.torsion>
0.9185

> <Gold.PLP.Chemscore.Hbond>
4.6000

> <Gold.PLP.Chemscore.CHOScore>
0.0000

> <Gold.PLP.Chemscore.Metal>
0.0000

> <Gold.Chemscore.Hbonds>
donor molecule, donor type, donor heavy atom, donor atom, acceptor molecule, acceptor atom, score
      L1  H     5    39       P1  7948  1.76
      L1  H     8    31       P1  7957  1.00
      L1  H    11    32       P1  7957  0.23

> <Gold.PLP.Chemscore.Internal.Correction>
0.0225

> <Gold.Rescore>
     Score         DG    S(hbond)    S(metal)    S(lipo)     H(rot)  DE(clash)    DE(int)     intcor
     15.06     -18.55       3.05        0.00      59.77       1.60       0.43       3.06       ----

> <Gold.Chemscore.Fitness>
15.0640

> <Gold.Chemscore.DG>
-18.5521

> <Gold.Chemscore.ZeroCoef>
-5.4800

> <Gold.Chemscore.Hbond>
3.0466

> <Gold.Chemscore.Metal>
0.0000

> <Gold.Chemscore.Lipo>
59.7658

> <Gold.Chemscore.Internal_Hbond>
0.0000

> <Gold.Chemscore.DEClash>
0.4264

> <Gold.Chemscore.DEInternal>
3.0617

> <Gold.Chemscore.Rot>
1.6001

> <Gold.Chemscore.Internal.Correction>
   9.000000E+99

> <Gold.Chemscore.Hbonds>
donor molecule, donor type, donor heavy atom, donor atom, acceptor molecule, acceptor atom, score
      L1  H     5    39       P1  7948  0.82
      L1  H     8    31       P1  7957  1.00
      L1  H    11    32       P1  7957  0.23

> <Gold.Chemscore.Hbond.Weighted>
-10.1757

> <Gold.Chemscore.Metal.Weighted>
-0.0000

> <Gold.Chemscore.Lipo.Weighted>
-6.9926

> <Gold.Chemscore.Internal_Hbond.Weighted>
0.0000

> <Gold.Chemscore.DEClash.Weighted>
0.4264

> <Gold.Chemscore.DEInternal.Weighted>
3.0617

> <Gold.Chemscore.Rot.Weighted>
4.0963

> <Gold.Chemscore.Internal.Correction.Weighted>
   9.000000E+99

> <Gold.Protein.RotatedTorsions>
[ 6907 6896 6895 6894 ] final  167.09 input  -60.11 | X-H torsion
[ 7974 7965 7964 7962 ] final   -4.59 input  175.53 | X-H torsion
[ 8008 7997 7996 7995 ] final   31.97 input   59.86 | X-H torsion
[ 10167 10162 10161 10158 ] final -146.45 input  -65.29 | X-H torsion
[ 10718 10713 10712 10709 ] final -160.20 input   66.30 | X-H torsion
[ 10763 10752 10751 10750 ] final  153.88 input  -60.55 | X-H torsion
[ 11005 11000 10999 10996 ] final  146.67 input  -57.11 | X-H torsion

> <Gold.Protein.ActiveResidues>
 VAL166  LYS551  ARG553  GLY616  TRP617  ASP618  TYR619  PRO620  LYS621  CYS622 
 ASP623  PHE694  ASN695  SER759  ASP760  ASP761  ALA762  ILE779  LEU786  VAL792 
 PHE793  MET794  SER795  GLU796  ALA797  LYS798  CYS799  TRP800  GLU811  SER814 

> <Gold.Protein.RotatedAtoms>
  151.8688  133.3471  159.3727 H   0  0  0  0  0  0  0  0  0  0  0  0  # atno 6907 bound_to 6896
  150.7158  134.5133  159.5627 H   0  0  0  0  0  0  0  0  0  0  0  0  # atno 6908 bound_to 6896
  152.2662  134.7982  160.0473 H   0  0  0  0  0  0  0  0  0  0  0  0  # atno 6909 bound_to 6896
  146.2369  140.1893  142.8332 H   0  0  0  0  0  0  0  0  0  0  0  0  # atno 7974 bound_to 7965
  155.1149  140.3242  155.4512 H   0  0  0  0  0  0  0  0  0  0  0  0  # atno 8008 bound_to 7997
  156.2680  140.2037  156.6220 H   0  0  0  0  0  0  0  0  0  0  0  0  # atno 8009 bound_to 7997
  154.6727  140.0534  157.0170 H   0  0  0  0  0  0  0  0  0  0  0  0  # atno 8010 bound_to 7997
  139.7712  143.8235  152.2624 H   0  0  0  0  0  0  0  0  0  0  0  0  # atno 10167 bound_to 10162
  156.5787  130.8720  151.2858 H   0  0  0  0  0  0  0  0  0  0  0  0  # atno 10718 bound_to 10713
  154.1433  135.2819  155.3155 H   0  0  0  0  0  0  0  0  0  0  0  0  # atno 10763 bound_to 10752
  154.6271  135.5448  153.7643 H   0  0  0  0  0  0  0  0  0  0  0  0  # atno 10764 bound_to 10752
  153.0244  135.6453  154.1579 H   0  0  0  0  0  0  0  0  0  0  0  0  # atno 10765 bound_to 10752
  140.0812  134.9096  157.1503 H   0  0  0  0  0  0  0  0  0  0  0  0  # atno 11005 bound_to 11000
  144.9870  140.8512  143.5362 LP  0  0  0  0  0  0  0  0  0  0  0  0  # atno 17320 bound_to 7965
  145.1894  139.2309  143.5250 LP  0  0  0  0  0  0  0  0  0  0  0  0  # atno 17321 bound_to 7965
  139.8270  144.7270  150.9499 LP  0  0  0  0  0  0  0  0  0  0  0  0  # atno 17342 bound_to 10162
  140.7814  143.4105  151.1001 LP  0  0  0  0  0  0  0  0  0  0  0  0  # atno 17343 bound_to 10162
  157.7331  130.9726  150.1963 LP  0  0  0  0  0  0  0  0  0  0  0  0  # atno 17370 bound_to 10713
  156.2650  130.3715  149.8090 LP  0  0  0  0  0  0  0  0  0  0  0  0  # atno 17371 bound_to 10713
  140.3485  134.2625  155.7202 LP  0  0  0  0  0  0  0  0  0  0  0  0  # atno 17394 bound_to 11000
  141.2047  133.7879  157.0272 LP  0  0  0  0  0  0  0  0  0  0  0  0  # atno 17395 bound_to 11000

$$$$
