AV-unprocessed.smi:1553|AV-procd|sdf|6239|dock4
  -GOLD-   22720 6423D 1   1.00000     0.00000
 Structure written by MMmdl.
 37 38  0  0  0  0  0  0  0  0  1 V2000
  147.7510  142.4988  153.6810 C   0  0  0  0  0  0  0  0  0  0  0  0
  148.4148  141.1756  153.8529 C   0  0  0  0  0  0  0  0  0  0  0  0
  149.6386  141.0243  154.3657 N   0  0  0  0  0  0  0  0  0  0  0  0
  150.0370  139.6852  154.4232 C   0  0  0  0  0  0  0  0  0  0  0  0
  151.3870  139.3297  154.9678 C   0  0  0  0  0  0  0  0  0  0  0  0
  151.3425  139.0224  156.4737 C   0  0  0  0  0  0  0  0  0  0  0  0
  151.2650  140.2427  157.2683 N   0  0  0  0  0  0  0  0  0  0  0  0
  152.2001  140.6626  158.1375 C   0  0  0  0  0  0  0  0  0  0  0  0
  153.2131  140.0068  158.3808 O   0  0  0  0  0  0  0  0  0  0  0  0
  151.8541  141.7985  158.7934 N   0  0  0  0  0  0  0  0  0  0  0  0
  151.0596  142.8469  158.1352 C   0  0  0  0  0  0  0  0  0  0  0  0
  152.0263  143.9057  157.5693 C   0  0  0  0  0  0  0  0  0  0  0  0
  152.8289  144.4405  158.6194 O   0  0  0  0  0  0  0  0  0  0  0  0
  153.5767  143.4495  159.3216 C   0  0  0  0  0  0  0  0  0  0  0  0
  152.6089  142.4029  159.9095 C   0  0  2  0  0  0  0  0  0  0  0  0
  153.3127  141.4092  160.8577 C   0  0  0  0  0  0  0  0  0  0  0  0
  149.0902  138.8179  153.9380 C   0  0  0  0  0  0  0  0  0  0  0  0
  147.6612  139.6535  153.3945 S   0  0  0  0  0  0  0  0  0  0  0  0
  148.2879  143.2719  154.2317 H   0  0  0  0  0  0  0  0  0  0  0  0
  146.7271  142.4540  154.0522 H   0  0  0  0  0  0  0  0  0  0  0  0
  147.7307  142.7705  152.6257 H   0  0  0  0  0  0  0  0  0  0  0  0
  151.7851  138.4692  154.4281 H   0  0  0  0  0  0  0  0  0  0  0  0
  152.0872  140.1458  154.7844 H   0  0  0  0  0  0  0  0  0  0  0  0
  150.4653  138.4163  156.7017 H   0  0  0  0  0  0  0  0  0  0  0  0
  152.2121  138.4342  156.7726 H   0  0  0  0  0  0  0  0  0  0  0  0
  150.4383  140.8107  157.1531 H   0  0  0  0  0  0  0  0  0  0  0  0
  150.4259  142.4702  157.3315 H   0  0  0  0  0  0  0  0  0  0  0  0
  150.3797  143.3029  158.8563 H   0  0  0  0  0  0  0  0  0  0  0  0
  152.6658  143.4752  156.7969 H   0  0  0  0  0  0  0  0  0  0  0  0
  151.4671  144.7178  157.1046 H   0  0  0  0  0  0  0  0  0  0  0  0
  154.3048  142.9846  158.6548 H   0  0  0  0  0  0  0  0  0  0  0  0
  154.1377  143.9397  160.1174 H   0  0  0  0  0  0  0  0  0  0  0  0
  151.8862  142.9315  160.5335 H   0  0  0  0  0  0  0  0  0  0  0  0
  153.6601  141.9221  161.7548 H   0  0  0  0  0  0  0  0  0  0  0  0
  154.1889  140.9476  160.4036 H   0  0  0  0  0  0  0  0  0  0  0  0
  152.6347  140.6176  161.1784 H   0  0  0  0  0  0  0  0  0  0  0  0
  149.1469  137.7419  153.8660 H   0  0  0  0  0  0  0  0  0  0  0  0
  1  2  1  0  0  0  0
  1 19  1  0  0  0  0
  1 20  1  0  0  0  0
  1 21  1  0  0  0  0
  2 18  1  0  0  0  0
  2  3  2  0  0  0  0
  3  4  1  0  0  0  0
  4  5  1  0  0  0  0
  4 17  2  0  0  0  0
  5  6  1  0  0  0  0
  5 22  1  0  0  0  0
  5 23  1  0  0  0  0
  6  7  1  0  0  0  0
  6 24  1  0  0  0  0
  6 25  1  0  0  0  0
  7  8  1  0  0  0  0
  7 26  1  0  0  0  0
  8  9  2  0  0  0  0
  8 10  1  0  0  0  0
 10 15  1  0  0  0  0
 10 11  1  0  0  0  0
 11 12  1  0  0  0  0
 11 27  1  0  0  0  0
 11 28  1  0  0  0  0
 12 13  1  0  0  0  0
 12 29  1  0  0  0  0
 12 30  1  0  0  0  0
 13 14  1  0  0  0  0
 14 15  1  0  0  0  0
 14 31  1  0  0  0  0
 14 32  1  0  0  0  0
 15 16  1  0  0  0  0
 15 33  1  0  0  0  0
 16 34  1  0  0  0  0
 16 35  1  0  0  0  0
 16 36  1  0  0  0  0
 17 18  1  0  0  0  0
 17 37  1  0  0  0  0
M  END
> <s_m_source_file>
AV-unprocessed.smi

> <i_m_source_file_index>
1553

> <i_lp_mmshare_version>
43012

> <i_f3d_flags>
0

> <s_epik_input>
W0NIM11jMW5jKFtjSF1zMSlbQ0gyXVtDSDJdW05IXUMoPU8pTjJbQ0gyXVtDSDJdT1tDSDJdW0NASF0yW0NIM10=

> <s_epik_cmdline>
J2VwaWtfcHl0aG9uJywgJy1waCcsICc3LjAnLCAnLXRuJywgJzgnLCAnLW1hJywgJzIwMCcsICctbWV0YWxfYmluZGluZycsICctaW1hZScsICc8aW5maWxlLm1hZT4nLCAnLW9tYWUnLCAnPG91dGZpbGUubWFlPic=

> <r_epik_Ionization_Penalty>
0.0020768

> <r_epik_Ionization_Penalty_Charging>
0

> <r_epik_Ionization_Penalty_Neutral>
0.0020768

> <r_epik_State_Penalty>
0.00139904

> <r_epik_Charging_Adjusted_Penalty>
0.00139904

> <i_epik_Tot_Q>
0

> <i_epik_Tot_abs_Q>
0

> <r_epik_Metal_State_Penalty>
-0

> <b_epik_Metal_Only>
0

> <s_lp_Force_Field>
OPLS_2005

> <r_lp_Energy>
26.8806

> <b_lp_Chiralities_Consistent>
1

> <s_lp_Variant>
AV-unprocessed.smi:1553-2

> <Gold.Version>
5.8.1

> <Gold.Id.Protein>
6NUR|6NUR_protein|mol2

> <Gold.PLP.Fitness>
43.9808

> <Gold.PLP.PLP>
-38.8799

> <Gold.PLP.part.hbond>
-1.0000

> <Gold.PLP.part.metal>
0.0000

> <Gold.PLP.part.buried>
-4.9219

> <Gold.PLP.part.nonpolar>
-33.5241

> <Gold.PLP.part.repulsive>
0.2019

> <Gold.PLP.ligand.clash>
0.0000

> <Gold.PLP.ligand.torsion>
0.6606

> <Gold.PLP.Chemscore.Hbond>
1.0000

> <Gold.PLP.Chemscore.CHOScore>
1.0000

> <Gold.PLP.Chemscore.Metal>
0.0000

> <Gold.Chemscore.Hbonds>
donor molecule, donor type, donor heavy atom, donor atom, acceptor molecule, acceptor atom, score
      P1  H  7997  8010       L1     9  1.00
      L1  C    17    37       P1  7948  1.00

> <Gold.PLP.Chemscore.Internal.Correction>
0.4221

> <Gold.Rescore>
     Score         DG    S(hbond)    S(metal)    S(lipo)     H(rot)  DE(clash)    DE(int)     intcor
     14.86     -16.74       0.99        0.00      97.07       1.33       0.01       1.87       ----

> <Gold.Chemscore.Fitness>
14.8639

> <Gold.Chemscore.DG>
-16.7363

> <Gold.Chemscore.ZeroCoef>
-5.4800

> <Gold.Chemscore.Hbond>
0.9912

> <Gold.Chemscore.Metal>
0.0000

> <Gold.Chemscore.Lipo>
97.0678

> <Gold.Chemscore.Internal_Hbond>
0.0000

> <Gold.Chemscore.DEClash>
0.0074

> <Gold.Chemscore.DEInternal>
1.8651

> <Gold.Chemscore.Rot>
1.3325

> <Gold.Chemscore.Internal.Correction>
   9.000000E+99

> <Gold.Chemscore.Hbonds>
donor molecule, donor type, donor heavy atom, donor atom, acceptor molecule, acceptor atom, score
      P1  H  7997  8010       L1     9  0.84

> <Gold.Chemscore.Hbond.Weighted>
-3.3105

> <Gold.Chemscore.Metal.Weighted>
-0.0000

> <Gold.Chemscore.Lipo.Weighted>
-11.3569

> <Gold.Chemscore.Internal_Hbond.Weighted>
0.0000

> <Gold.Chemscore.DEClash.Weighted>
0.0074

> <Gold.Chemscore.DEInternal.Weighted>
1.8651

> <Gold.Chemscore.Rot.Weighted>
3.4111

> <Gold.Chemscore.Internal.Correction.Weighted>
   9.000000E+99

> <Gold.Protein.RotatedTorsions>
[ 6907 6896 6895 6894 ] final  -90.35 input  -60.11 | X-H torsion
[ 7974 7965 7964 7962 ] final  161.66 input  175.53 | X-H torsion
[ 8008 7997 7996 7995 ] final   39.83 input   59.86 | X-H torsion
[ 10167 10162 10161 10158 ] final   57.82 input  -65.29 | X-H torsion
[ 10718 10713 10712 10709 ] final  177.33 input   66.30 | X-H torsion
[ 10763 10752 10751 10750 ] final   72.27 input  -60.55 | X-H torsion
[ 11005 11000 10999 10996 ] final  -97.64 input  -57.11 | X-H torsion

> <Gold.Protein.ActiveResidues>
 VAL166  LYS551  ARG553  GLY616  TRP617  ASP618  TYR619  PRO620  LYS621  CYS622 
 ASP623  PHE694  ASN695  SER759  ASP760  ASP761  ALA762  ILE779  LEU786  VAL792 
 PHE793  MET794  SER795  GLU796  ALA797  LYS798  CYS799  TRP800  GLU811  SER814 

> <Gold.Protein.RotatedAtoms>
  150.6881  134.2446  159.4485 H   0  0  0  0  0  0  0  0  0  0  0  0  # atno 6907 bound_to 6896
  152.0388  134.9721  160.0583 H   0  0  0  0  0  0  0  0  0  0  0  0  # atno 6908 bound_to 6896
  152.1231  133.4330  159.4722 H   0  0  0  0  0  0  0  0  0  0  0  0  # atno 6909 bound_to 6896
  144.7674  139.7930  143.6310 H   0  0  0  0  0  0  0  0  0  0  0  0  # atno 7974 bound_to 7965
  155.2430  140.3347  155.4290 H   0  0  0  0  0  0  0  0  0  0  0  0  # atno 8008 bound_to 7997
  156.2248  140.1824  156.7435 H   0  0  0  0  0  0  0  0  0  0  0  0  # atno 8009 bound_to 7997
  154.5881  140.0642  156.9185 H   0  0  0  0  0  0  0  0  0  0  0  0  # atno 8010 bound_to 7997
  140.1938  144.4058  150.6559 H   0  0  0  0  0  0  0  0  0  0  0  0  # atno 10167 bound_to 10162
  156.9069  130.9897  151.3027 H   0  0  0  0  0  0  0  0  0  0  0  0  # atno 10718 bound_to 10713
  153.0448  135.5106  154.7718 H   0  0  0  0  0  0  0  0  0  0  0  0  # atno 10763 bound_to 10752
  154.6627  135.2941  154.9848 H   0  0  0  0  0  0  0  0  0  0  0  0  # atno 10764 bound_to 10752
  154.0694  135.6679  153.4875 H   0  0  0  0  0  0  0  0  0  0  0  0  # atno 10765 bound_to 10752
  141.1372  133.8185  157.0733 H   0  0  0  0  0  0  0  0  0  0  0  0  # atno 11005 bound_to 11000
  146.1794  139.4979  142.9876 LP  0  0  0  0  0  0  0  0  0  0  0  0  # atno 17320 bound_to 7965
  145.6426  141.0281  143.1803 LP  0  0  0  0  0  0  0  0  0  0  0  0  # atno 17321 bound_to 7965
  140.6437  143.2209  151.6233 LP  0  0  0  0  0  0  0  0  0  0  0  0  # atno 17342 bound_to 10162
  139.5245  144.3103  152.0999 LP  0  0  0  0  0  0  0  0  0  0  0  0  # atno 17343 bound_to 10162
  157.5992  130.8500  149.8775 LP  0  0  0  0  0  0  0  0  0  0  0  0  # atno 17370 bound_to 10713
  156.0555  130.3709  150.1102 LP  0  0  0  0  0  0  0  0  0  0  0  0  # atno 17371 bound_to 10713
  140.0498  134.9811  157.1115 LP  0  0  0  0  0  0  0  0  0  0  0  0  # atno 17394 bound_to 11000
  140.4008  134.2085  155.7163 LP  0  0  0  0  0  0  0  0  0  0  0  0  # atno 17395 bound_to 11000

$$$$
