AV-unprocessed.smi:3030|AV-procd|sdf|11539|dock4
  -GOLD-   2272016483D 1   1.00000     0.00000
 Structure written by MMmdl.
 52 53  0  0  0  0  0  0  0  0  1 V2000
  150.8018  142.9303  157.2754 C   0  0  0  0  0  0  0  0  0  0  0  0
  151.7276  144.0269  157.8136 C   0  0  0  0  0  0  0  0  0  0  0  0
  152.1659  143.7439  159.1726 N   0  0  0  0  0  0  0  0  0  0  0  0
  152.0518  144.6941  160.1818 C   0  0  0  0  0  0  0  0  0  0  0  0
  152.3921  144.4752  161.4666 C   0  0  0  0  0  0  0  0  0  0  0  0
  152.9178  143.1524  161.8605 C   0  0  0  0  0  0  0  0  0  0  0  0
  153.2374  142.9172  163.0258 O   0  0  0  0  0  0  0  0  0  0  0  0
  153.0367  142.1350  160.7826 C   0  0  0  0  0  0  0  0  0  0  0  0
  153.5318  140.8783  161.1683 N   0  0  0  0  0  0  0  0  0  0  0  0
  153.9950  139.8714  160.4057 C   0  0  0  0  0  0  0  0  0  0  0  0
  154.0840  139.8756  159.1783 O   0  0  0  0  0  0  0  0  0  0  0  0
  154.3783  138.8368  161.1679 N   0  0  0  0  0  0  0  0  0  0  0  0
  154.9694  137.5946  160.6798 C   0  0  2  0  0  0  0  0  0  0  0  0
  154.0258  136.8875  159.6890 C   0  0  0  0  0  0  0  0  0  0  0  0
  154.7288  135.6929  159.0131 C   0  0  2  0  0  0  0  0  0  0  0  0
  153.7844  134.9523  158.0556 C   0  0  0  0  0  0  0  0  0  0  0  0
  155.3352  134.7397  160.0634 C   0  0  0  0  0  0  0  0  0  0  0  0
  156.2256  135.4913  161.0720 C   0  0  0  0  0  0  0  0  0  0  0  0
  155.4584  136.6249  161.7992 C   0  0  2  0  0  0  0  0  0  0  0  0
  154.3698  136.0925  162.7975 C   0  0  0  0  0  0  0  0  0  0  0  0
  153.8383  137.1586  163.7767 C   0  0  0  0  0  0  0  0  0  0  0  0
  154.8716  134.8953  163.6304 C   0  0  0  0  0  0  0  0  0  0  0  0
  152.6534  142.4881  159.5289 C   0  0  0  0  0  0  0  0  0  0  0  0
  150.4854  143.1563  156.2572 H   0  0  0  0  0  0  0  0  0  0  0  0
  149.9057  142.8354  157.8893 H   0  0  0  0  0  0  0  0  0  0  0  0
  151.3036  141.9625  157.2618 H   0  0  0  0  0  0  0  0  0  0  0  0
  152.5976  144.1276  157.1636 H   0  0  0  0  0  0  0  0  0  0  0  0
  151.2158  144.9897  157.7897 H   0  0  0  0  0  0  0  0  0  0  0  0
  151.6653  145.6483  159.8536 H   0  0  0  0  0  0  0  0  0  0  0  0
  152.2890  145.2457  162.2167 H   0  0  0  0  0  0  0  0  0  0  0  0
  153.5585  140.7306  162.1669 H   0  0  0  0  0  0  0  0  0  0  0  0
  154.2712  138.9214  162.1680 H   0  0  0  0  0  0  0  0  0  0  0  0
  155.8455  137.8960  160.1013 H   0  0  0  0  0  0  0  0  0  0  0  0
  153.1193  136.5574  160.1969 H   0  0  0  0  0  0  0  0  0  0  0  0
  153.7034  137.5938  158.9227 H   0  0  0  0  0  0  0  0  0  0  0  0
  155.5517  136.0894  158.4161 H   0  0  0  0  0  0  0  0  0  0  0  0
  152.9331  134.5271  158.5882 H   0  0  0  0  0  0  0  0  0  0  0  0
  154.2999  134.1374  157.5468 H   0  0  0  0  0  0  0  0  0  0  0  0
  153.3958  135.6244  157.2899 H   0  0  0  0  0  0  0  0  0  0  0  0
  154.5411  134.2117  160.5916 H   0  0  0  0  0  0  0  0  0  0  0  0
  155.9259  133.9716  159.5630 H   0  0  0  0  0  0  0  0  0  0  0  0
  156.6787  134.7933  161.7736 H   0  0  0  0  0  0  0  0  0  0  0  0
  157.0705  135.9235  160.5341 H   0  0  0  0  0  0  0  0  0  0  0  0
  156.1954  137.1606  162.3991 H   0  0  0  0  0  0  0  0  0  0  0  0
  153.5125  135.7339  162.2289 H   0  0  0  0  0  0  0  0  0  0  0  0
  154.6533  137.6951  164.2637 H   0  0  0  0  0  0  0  0  0  0  0  0
  153.2269  136.7102  164.5603 H   0  0  0  0  0  0  0  0  0  0  0  0
  153.1953  137.8838  163.2817 H   0  0  0  0  0  0  0  0  0  0  0  0
  155.7974  135.1365  164.1538 H   0  0  0  0  0  0  0  0  0  0  0  0
  155.0467  134.0132  163.0157 H   0  0  0  0  0  0  0  0  0  0  0  0
  154.1378  134.5974  164.3799 H   0  0  0  0  0  0  0  0  0  0  0  0
  152.6933  141.8129  158.6891 H   0  0  0  0  0  0  0  0  0  0  0  0
  1  2  1  0  0  0  0
  1 24  1  0  0  0  0
  1 25  1  0  0  0  0
  1 26  1  0  0  0  0
  2  3  1  0  0  0  0
  2 27  1  0  0  0  0
  2 28  1  0  0  0  0
  3 23  1  0  0  0  0
  3  4  1  0  0  0  0
  4  5  2  0  0  0  0
  4 29  1  0  0  0  0
  5  6  1  0  0  0  0
  5 30  1  0  0  0  0
  6  7  2  0  0  0  0
  6  8  1  0  0  0  0
  8  9  1  0  0  0  0
  8 23  2  0  0  0  0
  9 10  1  0  0  0  0
  9 31  1  0  0  0  0
 10 11  2  0  0  0  0
 10 12  1  0  0  0  0
 12 13  1  0  0  0  0
 12 32  1  0  0  0  0
 13 19  1  0  0  0  0
 13 14  1  0  0  0  0
 13 33  1  0  0  0  0
 14 15  1  0  0  0  0
 14 34  1  0  0  0  0
 14 35  1  0  0  0  0
 15 16  1  0  0  0  0
 15 17  1  0  0  0  0
 15 36  1  0  0  0  0
 16 37  1  0  0  0  0
 16 38  1  0  0  0  0
 16 39  1  0  0  0  0
 17 18  1  0  0  0  0
 17 40  1  0  0  0  0
 17 41  1  0  0  0  0
 18 19  1  0  0  0  0
 18 42  1  0  0  0  0
 18 43  1  0  0  0  0
 19 20  1  0  0  0  0
 19 44  1  0  0  0  0
 20 21  1  0  0  0  0
 20 22  1  0  0  0  0
 20 45  1  0  0  0  0
 21 46  1  0  0  0  0
 21 47  1  0  0  0  0
 21 48  1  0  0  0  0
 22 49  1  0  0  0  0
 22 50  1  0  0  0  0
 22 51  1  0  0  0  0
 23 52  1  0  0  0  0
M  END
> <s_m_source_file>
AV-unprocessed.smi

> <i_m_source_file_index>
3030

> <i_lp_mmshare_version>
43012

> <i_f3d_flags>
0

> <s_epik_input>
W0NIM11bQ0gyXW4xW2NIXVtjSF1jKD1PKWMoW2NIXTEpW05IXUMoPU8pW05IXVtDQEBIXTJbQ0gyXVtDQEBIXShbQ0gzXSlbQ0gyXVtDSDJdW0NASF0yW0NIXShbQ0gzXSlbQ0gzXQ==

> <s_epik_cmdline>
J2VwaWtfcHl0aG9uJywgJy1waCcsICc3LjAnLCAnLXRuJywgJzgnLCAnLW1hJywgJzIwMCcsICctbWV0YWxfYmluZGluZycsICctaW1hZScsICc8aW5maWxlLm1hZT4nLCAnLW9tYWUnLCAnPG91dGZpbGUubWFlPic=

> <r_lp_tautomer_probability>
1

> <r_epik_Ionization_Penalty>
0.00147933

> <r_epik_Ionization_Penalty_Charging>
0.00145753

> <r_epik_Ionization_Penalty_Neutral>
2.17987e-05

> <r_epik_State_Penalty>
0.00097457

> <r_epik_Charging_Adjusted_Penalty>
0.0024321

> <i_epik_Tot_Q>
0

> <i_epik_Tot_abs_Q>
0

> <r_epik_Metal_State_Penalty>
-0

> <b_epik_Metal_Only>
0

> <s_lp_Force_Field>
OPLS_2005

> <r_lp_Energy>
13.9811

> <b_lp_Chiralities_Consistent>
1

> <s_lp_Variant>
AV-unprocessed.smi:3030-7

> <Gold.Version>
5.8.1

> <Gold.Id.Protein>
6NUR|6NUR_protein|mol2

> <Gold.PLP.Fitness>
47.1412

> <Gold.PLP.PLP>
-44.7982

> <Gold.PLP.part.hbond>
-1.0000

> <Gold.PLP.part.metal>
0.0000

> <Gold.PLP.part.buried>
-5.2556

> <Gold.PLP.part.nonpolar>
-38.8470

> <Gold.PLP.part.repulsive>
0.1838

> <Gold.PLP.ligand.clash>
0.0000

> <Gold.PLP.ligand.torsion>
0.3809

> <Gold.PLP.Chemscore.Hbond>
1.0000

> <Gold.PLP.Chemscore.CHOScore>
0.0000

> <Gold.PLP.Chemscore.Metal>
0.0000

> <Gold.Chemscore.Hbonds>
donor molecule, donor type, donor heavy atom, donor atom, acceptor molecule, acceptor atom, score
      P1  H  7997  8009       L1    11  0.83

> <Gold.PLP.Chemscore.Internal.Correction>
0.1049

> <Gold.Rescore>
     Score         DG    S(hbond)    S(metal)    S(lipo)     H(rot)  DE(clash)    DE(int)     intcor
     16.84     -18.16       0.99        0.00     107.95       1.27       0.07       1.25       ----

> <Gold.Chemscore.Fitness>
16.8400

> <Gold.Chemscore.DG>
-18.1586

> <Gold.Chemscore.ZeroCoef>
-5.4800

> <Gold.Chemscore.Hbond>
0.9868

> <Gold.Chemscore.Metal>
0.0000

> <Gold.Chemscore.Lipo>
107.9487

> <Gold.Chemscore.Internal_Hbond>
0.0000

> <Gold.Chemscore.DEClash>
0.0662

> <Gold.Chemscore.DEInternal>
1.2524

> <Gold.Chemscore.Rot>
1.2685

> <Gold.Chemscore.Internal.Correction>
   9.000000E+99

> <Gold.Chemscore.Hbonds>
donor molecule, donor type, donor heavy atom, donor atom, acceptor molecule, acceptor atom, score
      P1  H  7997  8009       L1    11  0.77

> <Gold.Chemscore.Hbond.Weighted>
-3.2960

> <Gold.Chemscore.Metal.Weighted>
-0.0000

> <Gold.Chemscore.Lipo.Weighted>
-12.6300

> <Gold.Chemscore.Internal_Hbond.Weighted>
0.0000

> <Gold.Chemscore.DEClash.Weighted>
0.0662

> <Gold.Chemscore.DEInternal.Weighted>
1.2524

> <Gold.Chemscore.Rot.Weighted>
3.2474

> <Gold.Chemscore.Internal.Correction.Weighted>
   9.000000E+99

> <Gold.Protein.RotatedTorsions>
[ 6907 6896 6895 6894 ] final -159.45 input  -60.11 | X-H torsion
[ 7974 7965 7964 7962 ] final  -70.80 input  175.53 | X-H torsion
[ 8008 7997 7996 7995 ] final  121.29 input   59.86 | X-H torsion
[ 10167 10162 10161 10158 ] final   71.15 input  -65.29 | X-H torsion
[ 10718 10713 10712 10709 ] final  167.07 input   66.30 | X-H torsion
[ 10763 10752 10751 10750 ] final   23.38 input  -60.55 | X-H torsion
[ 11005 11000 10999 10996 ] final  170.57 input  -57.11 | X-H torsion

> <Gold.Protein.ActiveResidues>
 VAL166  LYS551  ARG553  GLY616  TRP617  ASP618  TYR619  PRO620  LYS621  CYS622 
 ASP623  PHE694  ASN695  SER759  ASP760  ASP761  ALA762  ILE779  LEU786  VAL792 
 PHE793  MET794  SER795  GLU796  ALA797  LYS798  CYS799  TRP800  GLU811  SER814 

> <Gold.Protein.RotatedAtoms>
  151.3337  133.3990  159.2664 H   0  0  0  0  0  0  0  0  0  0  0  0  # atno 6907 bound_to 6896
  150.9934  134.9264  159.7923 H   0  0  0  0  0  0  0  0  0  0  0  0  # atno 6908 bound_to 6896
  152.5254  134.3302  159.9232 H   0  0  0  0  0  0  0  0  0  0  0  0  # atno 6909 bound_to 6896
  145.6863  140.9170  143.0805 H   0  0  0  0  0  0  0  0  0  0  0  0  # atno 7974 bound_to 7965
  156.2680  140.2812  156.1284 H   0  0  0  0  0  0  0  0  0  0  0  0  # atno 8008 bound_to 7997
  155.1080  140.0390  157.2733 H   0  0  0  0  0  0  0  0  0  0  0  0  # atno 8009 bound_to 7997
  154.6764  140.2599  155.6959 H   0  0  0  0  0  0  0  0  0  0  0  0  # atno 8010 bound_to 7997
  140.0492  144.5326  150.7376 H   0  0  0  0  0  0  0  0  0  0  0  0  # atno 10167 bound_to 10162
  157.0567  131.0328  151.2661 H   0  0  0  0  0  0  0  0  0  0  0  0  # atno 10718 bound_to 10713
  153.0843  135.6628  153.9982 H   0  0  0  0  0  0  0  0  0  0  0  0  # atno 10763 bound_to 10752
  153.9595  135.2975  155.3435 H   0  0  0  0  0  0  0  0  0  0  0  0  # atno 10764 bound_to 10752
  154.7248  135.5149  153.8941 H   0  0  0  0  0  0  0  0  0  0  0  0  # atno 10765 bound_to 10752
  140.3098  134.7526  157.3982 H   0  0  0  0  0  0  0  0  0  0  0  0  # atno 11005 bound_to 11000
  144.7010  139.8762  143.7444 LP  0  0  0  0  0  0  0  0  0  0  0  0  # atno 17320 bound_to 7965
  146.0921  139.3911  143.0399 LP  0  0  0  0  0  0  0  0  0  0  0  0  # atno 17321 bound_to 7965
  140.7224  143.2602  151.4233 LP  0  0  0  0  0  0  0  0  0  0  0  0  # atno 17342 bound_to 10162
  139.5964  144.1389  152.2148 LP  0  0  0  0  0  0  0  0  0  0  0  0  # atno 17343 bound_to 10162
  157.4987  130.7866  149.7582 LP  0  0  0  0  0  0  0  0  0  0  0  0  # atno 17370 bound_to 10713
  155.9991  130.3891  150.2678 LP  0  0  0  0  0  0  0  0  0  0  0  0  # atno 17371 bound_to 10713
  140.1035  134.5441  155.8331 LP  0  0  0  0  0  0  0  0  0  0  0  0  # atno 17394 bound_to 11000
  141.2110  133.6702  156.6554 LP  0  0  0  0  0  0  0  0  0  0  0  0  # atno 17395 bound_to 11000

$$$$
