AV-unprocessed.smi:1378|AV-procd|sdf|5596|dock6
  -GOLD-   22720 5203D 1   1.00000     0.00000
 Structure written by MMmdl.
 46 48  0  0  0  0  0  0  0  0  1 V2000
  150.8169  133.5875  156.5695 C   0  0  0  0  0  0  0  0  0  0  0  0
  150.1693  133.3942  157.8140 O   0  0  0  0  0  0  0  0  0  0  0  0
  148.7556  133.4328  157.7051 C   0  0  0  0  0  0  0  0  0  0  0  0
  148.2870  134.8911  157.6138 C   0  0  0  0  0  0  0  0  0  0  0  0
  148.4435  135.5929  158.8787 N   0  0  0  0  0  0  0  0  0  0  0  0
  149.2026  136.6855  159.1357 C   0  0  0  0  0  0  0  0  0  0  0  0
  150.1489  137.4821  157.8787 S   0  0  0  0  0  0  0  0  0  0  0  0
  150.8045  138.8594  158.8707 C   0  0  0  0  0  0  0  0  0  0  0  0
  151.1329  140.0938  158.0299 C   0  0  0  0  0  0  0  0  0  0  0  0
  150.8794  140.1063  156.8259 O   0  0  0  0  0  0  0  0  0  0  0  0
  151.6688  141.1333  158.6877 N   0  0  0  0  0  0  0  0  0  0  0  0
  151.9492  142.4475  158.1197 C   0  0  0  0  0  0  0  0  0  0  0  0
  152.6535  143.3577  159.1431 C   0  0  0  0  0  0  0  0  0  0  0  0
  151.6074  144.3842  159.5783 C   0  0  0  0  0  0  0  0  0  0  0  0
  150.7259  144.5624  158.3460 C   0  0  0  0  0  0  0  0  0  0  0  0
  150.6376  143.1616  157.7389 C   0  0  0  0  0  0  0  0  0  0  0  0
  149.1578  137.1403  160.3880 N   0  0  0  0  0  0  0  0  0  0  0  0
  148.2854  136.2614  160.9993 C   0  0  0  0  0  0  0  0  0  0  0  0
  147.8128  136.2133  162.3302 C   0  0  0  0  0  0  0  0  0  0  0  0
  146.9046  135.2107  162.7290 C   0  0  0  0  0  0  0  0  0  0  0  0
  146.4579  134.2436  161.8055 C   0  0  0  0  0  0  0  0  0  0  0  0
  146.9165  134.2735  160.4747 C   0  0  0  0  0  0  0  0  0  0  0  0
  147.8206  135.2780  160.0813 C   0  0  0  0  0  0  0  0  0  0  0  0
  151.8970  133.5422  156.7087 H   0  0  0  0  0  0  0  0  0  0  0  0
  150.5729  134.5624  156.1456 H   0  0  0  0  0  0  0  0  0  0  0  0
  150.5367  132.8135  155.8539 H   0  0  0  0  0  0  0  0  0  0  0  0
  148.4336  132.8811  156.8205 H   0  0  0  0  0  0  0  0  0  0  0  0
  148.3013  132.9524  158.5727 H   0  0  0  0  0  0  0  0  0  0  0  0
  148.8359  135.4222  156.8358 H   0  0  0  0  0  0  0  0  0  0  0  0
  147.2373  134.9290  157.3217 H   0  0  0  0  0  0  0  0  0  0  0  0
  150.0893  139.1161  159.6530 H   0  0  0  0  0  0  0  0  0  0  0  0
  151.7110  138.5223  159.3741 H   0  0  0  0  0  0  0  0  0  0  0  0
  151.8457  141.0220  159.6756 H   0  0  0  0  0  0  0  0  0  0  0  0
  152.5750  142.3465  157.2311 H   0  0  0  0  0  0  0  0  0  0  0  0
  153.0735  142.8147  159.9908 H   0  0  0  0  0  0  0  0  0  0  0  0
  153.4802  143.8738  158.6534 H   0  0  0  0  0  0  0  0  0  0  0  0
  151.0140  143.9794  160.3992 H   0  0  0  0  0  0  0  0  0  0  0  0
  152.0518  145.3205  159.9166 H   0  0  0  0  0  0  0  0  0  0  0  0
  149.7467  144.9787  158.5851 H   0  0  0  0  0  0  0  0  0  0  0  0
  151.2131  145.2383  157.6422 H   0  0  0  0  0  0  0  0  0  0  0  0
  150.4835  143.1928  156.6598 H   0  0  0  0  0  0  0  0  0  0  0  0
  149.7777  142.6455  158.1690 H   0  0  0  0  0  0  0  0  0  0  0  0
  148.1484  136.9496  163.0454 H   0  0  0  0  0  0  0  0  0  0  0  0
  146.5498  135.1830  163.7488 H   0  0  0  0  0  0  0  0  0  0  0  0
  145.7631  133.4785  162.1196 H   0  0  0  0  0  0  0  0  0  0  0  0
  146.5774  133.5338  159.7646 H   0  0  0  0  0  0  0  0  0  0  0  0
  1  2  1  0  0  0  0
  1 24  1  0  0  0  0
  1 25  1  0  0  0  0
  1 26  1  0  0  0  0
  2  3  1  0  0  0  0
  3  4  1  0  0  0  0
  3 27  1  0  0  0  0
  3 28  1  0  0  0  0
  4  5  1  0  0  0  0
  4 29  1  0  0  0  0
  4 30  1  0  0  0  0
  5 23  1  0  0  0  0
  5  6  1  0  0  0  0
  6  7  1  0  0  0  0
  6 17  2  0  0  0  0
  7  8  1  0  0  0  0
  8  9  1  0  0  0  0
  8 31  1  0  0  0  0
  8 32  1  0  0  0  0
  9 10  2  0  0  0  0
  9 11  1  0  0  0  0
 11 12  1  0  0  0  0
 11 33  1  0  0  0  0
 12 16  1  0  0  0  0
 12 13  1  0  0  0  0
 12 34  1  0  0  0  0
 13 14  1  0  0  0  0
 13 35  1  0  0  0  0
 13 36  1  0  0  0  0
 14 15  1  0  0  0  0
 14 37  1  0  0  0  0
 14 38  1  0  0  0  0
 15 16  1  0  0  0  0
 15 39  1  0  0  0  0
 15 40  1  0  0  0  0
 16 41  1  0  0  0  0
 16 42  1  0  0  0  0
 17 18  1  0  0  0  0
 18 23  2  0  0  0  0
 18 19  1  0  0  0  0
 19 20  2  0  0  0  0
 19 43  1  0  0  0  0
 20 21  1  0  0  0  0
 20 44  1  0  0  0  0
 21 22  2  0  0  0  0
 21 45  1  0  0  0  0
 22 23  1  0  0  0  0
 22 46  1  0  0  0  0
M  END
> <s_m_source_file>
AV-unprocessed.smi

> <i_m_source_file_index>
1378

> <i_lp_mmshare_version>
43012

> <i_f3d_flags>
0

> <s_epik_input>
W2NIXTFbY0hdW2NIXVtjSF1jKGMxMiluKFtDSDJdW0NIMl1PW0NIM10pYyhuMilTW0NIMl1DKD1PKVtOSF1bQ0hdM1tDSDJdW0NIMl1bQ0gyXVtDSDJdMw==

> <s_epik_cmdline>
J2VwaWtfcHl0aG9uJywgJy1waCcsICc3LjAnLCAnLXRuJywgJzgnLCAnLW1hJywgJzIwMCcsICctbWV0YWxfYmluZGluZycsICctaW1hZScsICc8aW5maWxlLm1hZT4nLCAnLW9tYWUnLCAnPG91dGZpbGUubWFlPic=

> <r_epik_Ionization_Penalty>
0.0369383

> <r_epik_Ionization_Penalty_Charging>
0

> <r_epik_Ionization_Penalty_Neutral>
0.0369383

> <r_epik_State_Penalty>
0.0308874

> <r_epik_Charging_Adjusted_Penalty>
0.0308874

> <i_epik_Tot_Q>
0

> <i_epik_Tot_abs_Q>
0

> <r_epik_Metal_State_Penalty>
0.0290628

> <b_epik_Metal_Only>
0

> <s_lp_Force_Field>
OPLS_2005

> <r_lp_Energy>
18.5214

> <b_lp_Chiralities_Consistent>
1

> <s_lp_Variant>
AV-unprocessed.smi:1378-1

> <Gold.Version>
5.8.1

> <Gold.Id.Protein>
6NUR|6NUR_protein|mol2

> <Gold.PLP.Fitness>
45.4820

> <Gold.PLP.PLP>
-42.3502

> <Gold.PLP.part.hbond>
-2.0000

> <Gold.PLP.part.metal>
0.0000

> <Gold.PLP.part.buried>
-5.8604

> <Gold.PLP.part.nonpolar>
-34.4693

> <Gold.PLP.part.repulsive>
0.1225

> <Gold.PLP.ligand.clash>
0.0000

> <Gold.PLP.ligand.torsion>
0.3102

> <Gold.PLP.Chemscore.Hbond>
1.2112

> <Gold.PLP.Chemscore.CHOScore>
0.0000

> <Gold.PLP.Chemscore.Metal>
0.0000

> <Gold.Chemscore.Hbonds>
donor molecule, donor type, donor heavy atom, donor atom, acceptor molecule, acceptor atom, score
      P1  H  6896  6908       L1     2  1.00
      P1  H  6931  6943       L1    17  0.28

> <Gold.PLP.Chemscore.Internal.Correction>
0.1185

> <Gold.Rescore>
     Score         DG    S(hbond)    S(metal)    S(lipo)     H(rot)  DE(clash)    DE(int)     intcor
     17.62     -17.99       1.02        0.00     121.06       1.98       0.04       0.33       ----

> <Gold.Chemscore.Fitness>
17.6151

> <Gold.Chemscore.DG>
-17.9883

> <Gold.Chemscore.ZeroCoef>
-5.4800

> <Gold.Chemscore.Hbond>
1.0212

> <Gold.Chemscore.Metal>
0.0000

> <Gold.Chemscore.Lipo>
121.0631

> <Gold.Chemscore.Internal_Hbond>
0.0000

> <Gold.Chemscore.DEClash>
0.0383

> <Gold.Chemscore.DEInternal>
0.3348

> <Gold.Chemscore.Rot>
1.9792

> <Gold.Chemscore.Internal.Correction>
   9.000000E+99

> <Gold.Chemscore.Hbonds>
donor molecule, donor type, donor heavy atom, donor atom, acceptor molecule, acceptor atom, score
      P1  H  6896  6908       L1     2  0.96
      P1  H  6931  6943       L1    17  0.01

> <Gold.Chemscore.Hbond.Weighted>
-3.4107

> <Gold.Chemscore.Metal.Weighted>
-0.0000

> <Gold.Chemscore.Lipo.Weighted>
-14.1644

> <Gold.Chemscore.Internal_Hbond.Weighted>
0.0000

> <Gold.Chemscore.DEClash.Weighted>
0.0383

> <Gold.Chemscore.DEInternal.Weighted>
0.3348

> <Gold.Chemscore.Rot.Weighted>
5.0669

> <Gold.Chemscore.Internal.Correction.Weighted>
   9.000000E+99

> <Gold.Protein.RotatedTorsions>
[ 6907 6896 6895 6894 ] final  107.51 input  -60.11 | X-H torsion
[ 7974 7965 7964 7962 ] final   62.08 input  175.53 | X-H torsion
[ 8008 7997 7996 7995 ] final  -96.46 input   59.86 | X-H torsion
[ 10167 10162 10161 10158 ] final  134.40 input  -65.29 | X-H torsion
[ 10718 10713 10712 10709 ] final -132.11 input   66.30 | X-H torsion
[ 10763 10752 10751 10750 ] final  164.70 input  -60.55 | X-H torsion
[ 11005 11000 10999 10996 ] final -132.66 input  -57.11 | X-H torsion

> <Gold.Protein.ActiveResidues>
 VAL166  LYS551  ARG553  GLY616  TRP617  ASP618  TYR619  PRO620  LYS621  CYS622 
 ASP623  PHE694  ASN695  SER759  ASP760  ASP761  ALA762  ILE779  LEU786  VAL792 
 PHE793  MET794  SER795  GLU796  ALA797  LYS798  CYS799  TRP800  GLU811  SER814 

> <Gold.Protein.RotatedAtoms>
  152.5151  133.9224  159.7540 H   0  0  0  0  0  0  0  0  0  0  0  0  # atno 6907 bound_to 6896
  150.9593  133.6455  159.2764 H   0  0  0  0  0  0  0  0  0  0  0  0  # atno 6908 bound_to 6896
  151.3705  135.0927  159.9517 H   0  0  0  0  0  0  0  0  0  0  0  0  # atno 6909 bound_to 6896
  145.8775  139.3420  143.0726 H   0  0  0  0  0  0  0  0  0  0  0  0  # atno 7974 bound_to 7965
  154.7748  140.0471  157.1080 H   0  0  0  0  0  0  0  0  0  0  0  0  # atno 8008 bound_to 7997
  154.9776  140.3097  155.4941 H   0  0  0  0  0  0  0  0  0  0  0  0  # atno 8009 bound_to 7997
  156.2927  140.2242  156.4873 H   0  0  0  0  0  0  0  0  0  0  0  0  # atno 8010 bound_to 7997
  139.5258  144.6569  151.5134 H   0  0  0  0  0  0  0  0  0  0  0  0  # atno 10167 bound_to 10162
  156.2312  130.7038  151.0860 H   0  0  0  0  0  0  0  0  0  0  0  0  # atno 10718 bound_to 10713
  154.3129  135.2757  155.2557 H   0  0  0  0  0  0  0  0  0  0  0  0  # atno 10763 bound_to 10752
  154.4944  135.5825  153.6487 H   0  0  0  0  0  0  0  0  0  0  0  0  # atno 10764 bound_to 10752
  152.9886  135.6142  154.3308 H   0  0  0  0  0  0  0  0  0  0  0  0  # atno 10765 bound_to 10752
  140.9150  134.1518  157.4359 H   0  0  0  0  0  0  0  0  0  0  0  0  # atno 11005 bound_to 11000
  145.9064  140.9209  143.0476 LP  0  0  0  0  0  0  0  0  0  0  0  0  # atno 17320 bound_to 7965
  144.6726  140.1101  143.7456 LP  0  0  0  0  0  0  0  0  0  0  0  0  # atno 17321 bound_to 7965
  140.6399  143.8910  150.6682 LP  0  0  0  0  0  0  0  0  0  0  0  0  # atno 17342 bound_to 10162
  140.2241  143.3786  152.1619 LP  0  0  0  0  0  0  0  0  0  0  0  0  # atno 17343 bound_to 10162
  157.7134  131.0723  150.6419 LP  0  0  0  0  0  0  0  0  0  0  0  0  # atno 17370 bound_to 10713
  156.6486  130.4479  149.5727 LP  0  0  0  0  0  0  0  0  0  0  0  0  # atno 17371 bound_to 10713
  139.8764  134.9950  156.5722 LP  0  0  0  0  0  0  0  0  0  0  0  0  # atno 17394 bound_to 11000
  140.8061  133.8466  155.8769 LP  0  0  0  0  0  0  0  0  0  0  0  0  # atno 17395 bound_to 11000

$$$$
