AV-unprocessed.smi:1165|AV-procd|sdf|4929|dock2
  -GOLD-   22720 3513D 1   1.00000     0.00000
 Structure written by MMmdl.
 41 42  0  0  0  0  0  0  0  0  1 V2000
  154.7021  133.2436  165.2162 C   0  0  0  0  0  0  0  0  0  0  0  0
  154.7420  133.8100  163.7929 C   0  0  1  0  0  0  0  0  0  0  0  0
  155.4687  135.1689  163.7336 C   0  0  0  0  0  0  0  0  0  0  0  0
  155.6255  135.6255  162.3427 N   0  0  0  0  0  0  0  0  0  0  0  0
  154.4747  136.7507  161.6854 S   0  0  0  0  0  0  0  0  0  0  0  0
  153.8745  136.1719  160.4736 O   0  0  0  0  0  0  0  0  0  0  0  0
  153.6287  137.2602  162.7755 O   0  0  0  0  0  0  0  0  0  0  0  0
  155.5397  138.0136  161.2022 N   0  0  0  0  0  0  0  0  0  0  0  0
  154.9694  139.2808  160.7573 C   0  0  0  0  0  0  0  0  0  0  0  0
  154.7101  140.1919  161.9634 C   0  0  0  0  0  0  0  0  0  0  0  0
  153.8363  141.3777  161.6068 C   0  0  0  0  0  0  0  0  0  0  0  0
  153.3775  142.2622  162.6046 C   0  0  0  0  0  0  0  0  0  0  0  0
  152.5676  143.3501  162.2264 C   0  0  0  0  0  0  0  0  0  0  0  0
  152.2497  143.5071  160.8625 C   0  0  0  0  0  0  0  0  0  0  0  0
  152.6823  142.6654  159.8987 N   0  0  0  0  0  0  0  0  0  0  0  0
  153.4585  141.6246  160.2699 C   0  0  0  0  0  0  0  0  0  0  0  0
  156.2037  134.5979  161.4609 C   0  0  0  0  0  0  0  0  0  0  0  0
  155.4439  133.2632  161.5966 C   0  0  1  0  0  0  0  0  0  0  0  0
  156.1057  132.1403  160.7909 C   0  0  0  0  0  0  0  0  0  0  0  0
  155.4179  132.8718  162.9640 O   0  0  0  0  0  0  0  0  0  0  0  0
  154.1786  133.9193  165.8927 H   0  0  0  0  0  0  0  0  0  0  0  0
  155.7080  133.0899  165.6084 H   0  0  0  0  0  0  0  0  0  0  0  0
  154.1855  132.2836  165.2394 H   0  0  0  0  0  0  0  0  0  0  0  0
  153.7147  133.9193  163.4436 H   0  0  0  0  0  0  0  0  0  0  0  0
  154.9392  135.9179  164.3221 H   0  0  0  0  0  0  0  0  0  0  0  0
  156.4616  135.0736  164.1747 H   0  0  0  0  0  0  0  0  0  0  0  0
  156.2821  137.6763  160.5903 H   0  0  0  0  0  0  0  0  0  0  0  0
  155.6574  139.7555  160.0569 H   0  0  0  0  0  0  0  0  0  0  0  0
  154.0403  139.0846  160.2206 H   0  0  0  0  0  0  0  0  0  0  0  0
  154.2278  139.6269  162.7624 H   0  0  0  0  0  0  0  0  0  0  0  0
  155.6555  140.5540  162.3699 H   0  0  0  0  0  0  0  0  0  0  0  0
  153.6402  142.1105  163.6413 H   0  0  0  0  0  0  0  0  0  0  0  0
  152.1982  144.0479  162.9635 H   0  0  0  0  0  0  0  0  0  0  0  0
  151.6311  144.3304  160.5372 H   0  0  0  0  0  0  0  0  0  0  0  0
  153.7866  140.9698  159.4760 H   0  0  0  0  0  0  0  0  0  0  0  0
  156.2037  134.9412  160.4266 H   0  0  0  0  0  0  0  0  0  0  0  0
  157.2482  134.4560  161.7413 H   0  0  0  0  0  0  0  0  0  0  0  0
  154.4204  133.3757  161.2381 H   0  0  0  0  0  0  0  0  0  0  0  0
  156.1387  132.3862  159.7291 H   0  0  0  0  0  0  0  0  0  0  0  0
  155.5535  131.2063  160.8984 H   0  0  0  0  0  0  0  0  0  0  0  0
  157.1279  131.9628  161.1259 H   0  0  0  0  0  0  0  0  0  0  0  0
  1  2  1  0  0  0  0
  1 21  1  0  0  0  0
  1 22  1  0  0  0  0
  1 23  1  0  0  0  0
  2 20  1  0  0  0  0
  2  3  1  0  0  0  0
  2 24  1  0  0  0  0
  3  4  1  0  0  0  0
  3 25  1  0  0  0  0
  3 26  1  0  0  0  0
  4  5  1  0  0  0  0
  4 17  1  0  0  0  0
  5  6  2  0  0  0  0
  5  7  2  0  0  0  0
  5  8  1  0  0  0  0
  8  9  1  0  0  0  0
  8 27  1  0  0  0  0
  9 10  1  0  0  0  0
  9 28  1  0  0  0  0
  9 29  1  0  0  0  0
 10 11  1  0  0  0  0
 10 30  1  0  0  0  0
 10 31  1  0  0  0  0
 11 16  1  0  0  0  0
 11 12  2  0  0  0  0
 12 13  1  0  0  0  0
 12 32  1  0  0  0  0
 13 14  2  0  0  0  0
 13 33  1  0  0  0  0
 14 15  1  0  0  0  0
 14 34  1  0  0  0  0
 15 16  2  0  0  0  0
 16 35  1  0  0  0  0
 17 18  1  0  0  0  0
 17 36  1  0  0  0  0
 17 37  1  0  0  0  0
 18 19  1  0  0  0  0
 18 20  1  0  0  0  0
 18 38  1  0  0  0  0
 19 39  1  0  0  0  0
 19 40  1  0  0  0  0
 19 41  1  0  0  0  0
M  END
> <s_m_source_file>
AV-unprocessed.smi

> <i_m_source_file_index>
1165

> <i_lp_mmshare_version>
43012

> <i_f3d_flags>
0

> <s_epik_input>
W0NIM11bQ0BASF0xW0NIMl1OKFtDSDJdW0NASF0oTzEpW0NIM10pUyg9TykoPU8pW05IXVtDSDJdW0NIMl1jMltjSF1bY0hdW2NIXW5bY0hdMg==

> <s_epik_cmdline>
J2VwaWtfcHl0aG9uJywgJy1waCcsICc3LjAnLCAnLXRuJywgJzgnLCAnLW1hJywgJzIwMCcsICctbWV0YWxfYmluZGluZycsICctaW1hZScsICc8aW5maWxlLm1hZT4nLCAnLW9tYWUnLCAnPG91dGZpbGUubWFlPic=

> <r_epik_Ionization_Penalty>
0.0861056

> <r_epik_Ionization_Penalty_Charging>
0

> <r_epik_Ionization_Penalty_Neutral>
0.0861056

> <r_epik_State_Penalty>
0.0574425

> <r_epik_Charging_Adjusted_Penalty>
0.0574425

> <i_epik_Tot_Q>
0

> <i_epik_Tot_abs_Q>
0

> <r_epik_Metal_State_Penalty>
0.317425

> <b_epik_Metal_Only>
0

> <s_lp_Force_Field>
OPLS_2005

> <r_lp_Energy>
3.52917

> <b_lp_Chiralities_Consistent>
1

> <s_lp_Variant>
AV-unprocessed.smi:1165-2

> <Gold.Version>
5.8.1

> <Gold.Id.Protein>
6NUR|6NUR_protein|mol2

> <Gold.PLP.Fitness>
40.4566

> <Gold.PLP.PLP>
-38.1094

> <Gold.PLP.part.hbond>
-1.0000

> <Gold.PLP.part.metal>
0.0000

> <Gold.PLP.part.buried>
-4.6024

> <Gold.PLP.part.nonpolar>
-33.0047

> <Gold.PLP.part.repulsive>
0.0000

> <Gold.PLP.ligand.clash>
0.0000

> <Gold.PLP.ligand.torsion>
1.3873

> <Gold.PLP.Chemscore.Hbond>
1.0000

> <Gold.PLP.Chemscore.CHOScore>
0.0000

> <Gold.PLP.Chemscore.Metal>
0.0000

> <Gold.Chemscore.Hbonds>
donor molecule, donor type, donor heavy atom, donor atom, acceptor molecule, acceptor atom, score
      P1  H  6896  6907       L1     6  0.84

> <Gold.PLP.Chemscore.Internal.Correction>
2.1217

> <Gold.Rescore>
     Score         DG    S(hbond)    S(metal)    S(lipo)     H(rot)  DE(clash)    DE(int)     intcor
     15.10     -16.62       1.00        0.00      99.96       1.52       0.08       1.44       ----

> <Gold.Chemscore.Fitness>
15.1008

> <Gold.Chemscore.DG>
-16.6247

> <Gold.Chemscore.ZeroCoef>
-5.4800

> <Gold.Chemscore.Hbond>
0.9982

> <Gold.Chemscore.Metal>
0.0000

> <Gold.Chemscore.Lipo>
99.9562

> <Gold.Chemscore.Internal_Hbond>
0.0000

> <Gold.Chemscore.DEClash>
0.0839

> <Gold.Chemscore.DEInternal>
1.4400

> <Gold.Chemscore.Rot>
1.5172

> <Gold.Chemscore.Internal.Correction>
   9.000000E+99

> <Gold.Chemscore.Hbonds>
donor molecule, donor type, donor heavy atom, donor atom, acceptor molecule, acceptor atom, score
      P1  H  6896  6907       L1     6  0.82

> <Gold.Chemscore.Hbond.Weighted>
-3.3339

> <Gold.Chemscore.Metal.Weighted>
-0.0000

> <Gold.Chemscore.Lipo.Weighted>
-11.6949

> <Gold.Chemscore.Internal_Hbond.Weighted>
0.0000

> <Gold.Chemscore.DEClash.Weighted>
0.0839

> <Gold.Chemscore.DEInternal.Weighted>
1.4400

> <Gold.Chemscore.Rot.Weighted>
3.8841

> <Gold.Chemscore.Internal.Correction.Weighted>
   9.000000E+99

> <Gold.Protein.RotatedTorsions>
[ 6907 6896 6895 6894 ] final   43.90 input  -60.11 | X-H torsion
[ 7974 7965 7964 7962 ] final -105.82 input  175.53 | X-H torsion
[ 8008 7997 7996 7995 ] final  112.46 input   59.86 | X-H torsion
[ 10167 10162 10161 10158 ] final  -51.73 input  -65.29 | X-H torsion
[ 10718 10713 10712 10709 ] final  -11.20 input   66.30 | X-H torsion
[ 10763 10752 10751 10750 ] final   71.83 input  -60.55 | X-H torsion
[ 11005 11000 10999 10996 ] final  124.16 input  -57.11 | X-H torsion

> <Gold.Protein.ActiveResidues>
 VAL166  LYS551  ARG553  GLY616  TRP617  ASP618  TYR619  PRO620  LYS621  CYS622 
 ASP623  PHE694  ASN695  SER759  ASP760  ASP761  ALA762  ILE779  LEU786  VAL792 
 PHE793  MET794  SER795  GLU796  ALA797  LYS798  CYS799  TRP800  GLU811  SER814 

> <Gold.Protein.RotatedAtoms>
  152.2259  134.8368  160.0479 H   0  0  0  0  0  0  0  0  0  0  0  0  # atno 6907 bound_to 6896
  151.9135  133.3562  159.3880 H   0  0  0  0  0  0  0  0  0  0  0  0  # atno 6908 bound_to 6896
  150.7012  134.4633  159.5435 H   0  0  0  0  0  0  0  0  0  0  0  0  # atno 6909 bound_to 6896
  145.2257  140.9151  143.3234 H   0  0  0  0  0  0  0  0  0  0  0  0  # atno 7974 bound_to 7965
  156.2193  140.2999  155.9915 H   0  0  0  0  0  0  0  0  0  0  0  0  # atno 8008 bound_to 7997
  155.2523  140.0426  157.3005 H   0  0  0  0  0  0  0  0  0  0  0  0  # atno 8009 bound_to 7997
  154.5816  140.2377  155.8054 H   0  0  0  0  0  0  0  0  0  0  0  0  # atno 8010 bound_to 7997
  140.6573  143.2609  151.4546 H   0  0  0  0  0  0  0  0  0  0  0  0  # atno 10167 bound_to 10162
  156.6625  130.4986  149.6026 H   0  0  0  0  0  0  0  0  0  0  0  0  # atno 10718 bound_to 10713
  153.0422  135.5122  154.7652 H   0  0  0  0  0  0  0  0  0  0  0  0  # atno 10763 bound_to 10752
  154.6581  135.2934  154.9904 H   0  0  0  0  0  0  0  0  0  0  0  0  # atno 10764 bound_to 10752
  154.0765  135.6670  153.4884 H   0  0  0  0  0  0  0  0  0  0  0  0  # atno 10765 bound_to 10752
  139.9346  134.9640  156.8367 H   0  0  0  0  0  0  0  0  0  0  0  0  # atno 11005 bound_to 11000
  144.9724  139.3867  143.6302 LP  0  0  0  0  0  0  0  0  0  0  0  0  # atno 17320 bound_to 7965
  146.3365  139.8827  142.8821 LP  0  0  0  0  0  0  0  0  0  0  0  0  # atno 17321 bound_to 7965
  139.5799  144.1734  152.1953 LP  0  0  0  0  0  0  0  0  0  0  0  0  # atno 17342 bound_to 10162
  140.1056  144.5502  150.6959 LP  0  0  0  0  0  0  0  0  0  0  0  0  # atno 17343 bound_to 10162
  156.2000  130.6614  151.1156 LP  0  0  0  0  0  0  0  0  0  0  0  0  # atno 17370 bound_to 10713
  157.7105  131.0736  150.6518 LP  0  0  0  0  0  0  0  0  0  0  0  0  # atno 17371 bound_to 10713
  140.6111  134.0082  155.7577 LP  0  0  0  0  0  0  0  0  0  0  0  0  # atno 17394 bound_to 11000
  141.0952  133.9854  157.3171 LP  0  0  0  0  0  0  0  0  0  0  0  0  # atno 17395 bound_to 11000

$$$$
