AV-unprocessed.smi:749|AV-procd|sdf|3584|dock8
  -GOLD-   22720 0583D 1   1.00000     0.00000
 Structure written by MMmdl.
 43 44  0  0  0  0  0  0  0  0  1 V2000
  155.7283  133.4080  161.3511 C   0  0  0  0  0  0  0  0  0  0  0  0
  155.2706  134.3614  162.3631 N   0  0  0  0  0  0  0  0  0  0  0  0
  155.5065  135.7753  162.0318 C   0  0  0  0  0  0  0  0  0  0  0  0
  155.3506  136.7381  163.2248 C   0  0  1  0  0  0  0  0  0  0  0  0
  155.2653  138.1213  162.7684 N   0  0  0  0  0  0  0  0  0  0  0  0
  154.4639  138.5736  161.7896 C   0  0  0  0  0  0  0  0  0  0  0  0
  153.7017  137.8405  161.1617 O   0  0  0  0  0  0  0  0  0  0  0  0
  154.5411  139.8938  161.5192 N   0  0  0  0  0  0  0  0  0  0  0  0
  153.8488  140.6920  160.5648 C   0  0  0  0  0  0  0  0  0  0  0  0
  153.2837  141.9375  160.9472 C   0  0  0  0  0  0  0  0  0  0  0  0
  152.7283  142.4048  159.7869 C   0  0  0  0  0  0  0  0  0  0  0  0
  151.9714  143.6541  159.4312 C   0  0  0  0  0  0  0  0  0  0  0  0
  150.5625  143.3118  158.9070 C   0  0  0  0  0  0  0  0  0  0  0  0
  152.7221  144.4311  158.3336 C   0  0  0  0  0  0  0  0  0  0  0  0
  151.8215  144.5498  160.6754 C   0  0  0  0  0  0  0  0  0  0  0  0
  152.9446  141.5138  158.7790 O   0  0  0  0  0  0  0  0  0  0  0  0
  153.6608  140.4224  159.2818 N   0  0  0  0  0  0  0  0  0  0  0  0
  154.0932  136.3776  164.0176 C   0  0  0  0  0  0  0  0  0  0  0  0
  154.1836  134.9379  164.5368 C   0  0  0  0  0  0  0  0  0  0  0  0
  154.6181  133.9242  163.4674 C   0  0  0  0  0  0  0  0  0  0  0  0
  154.3828  132.7324  163.6689 O   0  0  0  0  0  0  0  0  0  0  0  0
  156.4849  132.7422  161.7686 H   0  0  0  0  0  0  0  0  0  0  0  0
  156.1664  133.9050  160.4846 H   0  0  0  0  0  0  0  0  0  0  0  0
  154.8983  132.7989  160.9899 H   0  0  0  0  0  0  0  0  0  0  0  0
  156.5037  135.8927  161.6047 H   0  0  0  0  0  0  0  0  0  0  0  0
  154.7982  136.0454  161.2467 H   0  0  0  0  0  0  0  0  0  0  0  0
  156.2124  136.6319  163.8869 H   0  0  0  0  0  0  0  0  0  0  0  0
  155.8610  138.7914  163.2341 H   0  0  0  0  0  0  0  0  0  0  0  0
  155.2193  140.3973  162.0724 H   0  0  0  0  0  0  0  0  0  0  0  0
  153.2853  142.4132  161.9165 H   0  0  0  0  0  0  0  0  0  0  0  0
  150.0047  144.2124  158.6476 H   0  0  0  0  0  0  0  0  0  0  0  0
  149.9790  142.7714  159.6535 H   0  0  0  0  0  0  0  0  0  0  0  0
  150.6105  142.6897  158.0122 H   0  0  0  0  0  0  0  0  0  0  0  0
  152.8441  143.8267  157.4340 H   0  0  0  0  0  0  0  0  0  0  0  0
  153.7173  144.7301  158.6645 H   0  0  0  0  0  0  0  0  0  0  0  0
  152.1869  145.3382  158.0502 H   0  0  0  0  0  0  0  0  0  0  0  0
  151.2680  145.4613  160.4467 H   0  0  0  0  0  0  0  0  0  0  0  0
  152.7924  144.8488  161.0723 H   0  0  0  0  0  0  0  0  0  0  0  0
  151.2871  144.0320  161.4730 H   0  0  0  0  0  0  0  0  0  0  0  0
  153.9678  137.0613  164.8582 H   0  0  0  0  0  0  0  0  0  0  0  0
  153.2070  136.4899  163.3908 H   0  0  0  0  0  0  0  0  0  0  0  0
  154.9085  134.8894  165.3504 H   0  0  0  0  0  0  0  0  0  0  0  0
  153.2242  134.6341  164.9567 H   0  0  0  0  0  0  0  0  0  0  0  0
  1  2  1  0  0  0  0
  1 22  1  0  0  0  0
  1 23  1  0  0  0  0
  1 24  1  0  0  0  0
  2 20  1  0  0  0  0
  2  3  1  0  0  0  0
  3  4  1  0  0  0  0
  3 25  1  0  0  0  0
  3 26  1  0  0  0  0
  4  5  1  0  0  0  0
  4 18  1  0  0  0  0
  4 27  1  0  0  0  0
  5  6  1  0  0  0  0
  5 28  1  0  0  0  0
  6  7  2  0  0  0  0
  6  8  1  0  0  0  0
  8  9  1  0  0  0  0
  8 29  1  0  0  0  0
  9 17  2  0  0  0  0
  9 10  1  0  0  0  0
 10 11  2  0  0  0  0
 10 30  1  0  0  0  0
 11 12  1  0  0  0  0
 11 16  1  0  0  0  0
 12 13  1  0  0  0  0
 12 14  1  0  0  0  0
 12 15  1  0  0  0  0
 13 31  1  0  0  0  0
 13 32  1  0  0  0  0
 13 33  1  0  0  0  0
 14 34  1  0  0  0  0
 14 35  1  0  0  0  0
 14 36  1  0  0  0  0
 15 37  1  0  0  0  0
 15 38  1  0  0  0  0
 15 39  1  0  0  0  0
 16 17  1  0  0  0  0
 18 19  1  0  0  0  0
 18 40  1  0  0  0  0
 18 41  1  0  0  0  0
 19 20  1  0  0  0  0
 19 42  1  0  0  0  0
 19 43  1  0  0  0  0
 20 21  2  0  0  0  0
M  END
> <s_m_source_file>
AV-unprocessed.smi

> <i_m_source_file_index>
749

> <i_lp_mmshare_version>
43012

> <i_f3d_flags>
0

> <s_epik_input>
Tz1DMVtDSDJdW0NIMl1bQ0BASF0oW0NIMl1OMVtDSDNdKVtOSF1DKD1PKVtOSF1jMltjSF1jKG9uMilDKFtDSDNdKShbQ0gzXSlbQ0gzXQ==

> <s_epik_cmdline>
J2VwaWtfcHl0aG9uJywgJy1waCcsICc3LjAnLCAnLXRuJywgJzgnLCAnLW1hJywgJzIwMCcsICctbWV0YWxfYmluZGluZycsICctaW1hZScsICc8aW5maWxlLm1hZT4nLCAnLW9tYWUnLCAnPG91dGZpbGUubWFlPic=

> <r_lp_tautomer_probability>
1

> <r_epik_Ionization_Penalty>
2.91905e-05

> <r_epik_Ionization_Penalty_Charging>
0

> <r_epik_Ionization_Penalty_Neutral>
2.91905e-05

> <r_epik_State_Penalty>
-0

> <r_epik_Charging_Adjusted_Penalty>
0

> <i_epik_Tot_Q>
0

> <i_epik_Tot_abs_Q>
0

> <r_epik_Metal_State_Penalty>
0.0102923

> <b_epik_Metal_Only>
0

> <s_lp_Force_Field>
OPLS_2005

> <r_lp_Energy>
15.3283

> <b_lp_Chiralities_Consistent>
1

> <s_lp_Variant>
AV-unprocessed.smi:749-1

> <Gold.Version>
5.8.1

> <Gold.Id.Protein>
6NUR|6NUR_protein|mol2

> <Gold.PLP.Fitness>
40.9492

> <Gold.PLP.PLP>
-41.9090

> <Gold.PLP.part.hbond>
-0.2106

> <Gold.PLP.part.metal>
0.0000

> <Gold.PLP.part.buried>
-4.0489

> <Gold.PLP.part.nonpolar>
-37.8526

> <Gold.PLP.part.repulsive>
0.0004

> <Gold.PLP.ligand.clash>
0.0000

> <Gold.PLP.ligand.torsion>
0.5257

> <Gold.PLP.Chemscore.Hbond>
0.0289

> <Gold.PLP.Chemscore.CHOScore>
0.0000

> <Gold.PLP.Chemscore.Metal>
0.0000

> <Gold.Chemscore.Hbonds>
donor molecule, donor type, donor heavy atom, donor atom, acceptor molecule, acceptor atom, score
      P1  H  7997  8010       L1    17  0.05

> <Gold.PLP.Chemscore.Internal.Correction>
0.0048

> <Gold.Rescore>
     Score         DG    S(hbond)    S(metal)    S(lipo)     H(rot)  DE(clash)    DE(int)     intcor
     12.80     -14.43       0.00        0.00     103.38       1.23       0.17       1.46       ----

> <Gold.Chemscore.Fitness>
12.7967

> <Gold.Chemscore.DG>
-14.4264

> <Gold.Chemscore.ZeroCoef>
-5.4800

> <Gold.Chemscore.Hbond>
0.0011

> <Gold.Chemscore.Metal>
0.0000

> <Gold.Chemscore.Lipo>
103.3813

> <Gold.Chemscore.Internal_Hbond>
0.0000

> <Gold.Chemscore.DEClash>
0.1724

> <Gold.Chemscore.DEInternal>
1.4573

> <Gold.Chemscore.Rot>
1.2317

> <Gold.Chemscore.Internal.Correction>
   9.000000E+99

> <Gold.Chemscore.Hbonds>
donor molecule, donor type, donor heavy atom, donor atom, acceptor molecule, acceptor atom, score
      P1  H  7997  8010       L1    17  0.01

> <Gold.Chemscore.Hbond.Weighted>
-0.0038

> <Gold.Chemscore.Metal.Weighted>
-0.0000

> <Gold.Chemscore.Lipo.Weighted>
-12.0956

> <Gold.Chemscore.Internal_Hbond.Weighted>
0.0000

> <Gold.Chemscore.DEClash.Weighted>
0.1724

> <Gold.Chemscore.DEInternal.Weighted>
1.4573

> <Gold.Chemscore.Rot.Weighted>
3.1531

> <Gold.Chemscore.Internal.Correction.Weighted>
   9.000000E+99

> <Gold.Protein.RotatedTorsions>
[ 6907 6896 6895 6894 ] final  152.30 input  -60.11 | X-H torsion
[ 7974 7965 7964 7962 ] final   25.50 input  175.53 | X-H torsion
[ 8008 7997 7996 7995 ] final   12.23 input   59.86 | X-H torsion
[ 10167 10162 10161 10158 ] final -178.67 input  -65.29 | X-H torsion
[ 10718 10713 10712 10709 ] final   48.91 input   66.30 | X-H torsion
[ 10763 10752 10751 10750 ] final -120.49 input  -60.55 | X-H torsion
[ 11005 11000 10999 10996 ] final   78.77 input  -57.11 | X-H torsion

> <Gold.Protein.ActiveResidues>
 VAL166  LYS551  ARG553  GLY616  TRP617  ASP618  TYR619  PRO620  LYS621  CYS622 
 ASP623  PHE694  ASN695  SER759  ASP760  ASP761  ALA762  ILE779  LEU786  VAL792 
 PHE793  MET794  SER795  GLU796  ALA797  LYS798  CYS799  TRP800  GLU811  SER814 

> <Gold.Protein.RotatedAtoms>
  152.0886  133.4189  159.4533 H   0  0  0  0  0  0  0  0  0  0  0  0  # atno 6907 bound_to 6896
  150.6862  134.2898  159.4671 H   0  0  0  0  0  0  0  0  0  0  0  0  # atno 6908 bound_to 6896
  152.0747  134.9510  160.0625 H   0  0  0  0  0  0  0  0  0  0  0  0  # atno 6909 bound_to 6896
  146.1885  139.7457  142.8849 H   0  0  0  0  0  0  0  0  0  0  0  0  # atno 7974 bound_to 7965
  154.8177  140.2879  155.5808 H   0  0  0  0  0  0  0  0  0  0  0  0  # atno 8008 bound_to 7997
  156.2994  140.2556  156.3009 H   0  0  0  0  0  0  0  0  0  0  0  0  # atno 8009 bound_to 7997
  154.9374  140.0382  157.2068 H   0  0  0  0  0  0  0  0  0  0  0  0  # atno 8010 bound_to 7997
  139.5421  144.2333  152.0917 H   0  0  0  0  0  0  0  0  0  0  0  0  # atno 10167 bound_to 10162
  157.4734  130.8270  149.8013 H   0  0  0  0  0  0  0  0  0  0  0  0  # atno 10718 bound_to 10713
  154.8645  135.4201  154.2468 H   0  0  0  0  0  0  0  0  0  0  0  0  # atno 10763 bound_to 10752
  153.3422  135.6994  153.6863 H   0  0  0  0  0  0  0  0  0  0  0  0  # atno 10764 bound_to 10752
  153.5837  135.3568  155.2857 H   0  0  0  0  0  0  0  0  0  0  0  0  # atno 10765 bound_to 10752
  139.9199  134.7789  156.1692 H   0  0  0  0  0  0  0  0  0  0  0  0  # atno 11005 bound_to 11000
  145.3865  141.0366  143.3148 LP  0  0  0  0  0  0  0  0  0  0  0  0  # atno 17320 bound_to 7965
  144.8442  139.5424  143.6886 LP  0  0  0  0  0  0  0  0  0  0  0  0  # atno 17321 bound_to 7965
  140.1814  144.4841  150.6526 LP  0  0  0  0  0  0  0  0  0  0  0  0  # atno 17342 bound_to 10162
  140.6656  143.2266  151.5752 LP  0  0  0  0  0  0  0  0  0  0  0  0  # atno 17343 bound_to 10162
  156.0085  130.3844  150.2347 LP  0  0  0  0  0  0  0  0  0  0  0  0  # atno 17370 bound_to 10713
  157.0531  131.0068  151.3247 LP  0  0  0  0  0  0  0  0  0  0  0  0  # atno 17371 bound_to 10713
  141.0711  133.6796  156.2142 LP  0  0  0  0  0  0  0  0  0  0  0  0  # atno 17394 bound_to 11000
  140.6506  134.5071  157.5577 LP  0  0  0  0  0  0  0  0  0  0  0  0  # atno 17395 bound_to 11000

$$$$
