AV-unprocessed.smi:2528|AV-procd|sdf|9959|dock7
  -GOLD-   2272014 03D 1   1.00000     0.00000
 Structure written by MMmdl.
 43 45  0  0  0  0  0  0  0  0  1 V2000
  144.4812  136.8476  151.8865 O   0  0  0  0  0  0  0  0  0  0  0  0
  145.6852  136.6007  151.8075 C   0  0  0  0  0  0  0  0  0  0  0  0
  146.6412  137.5242  151.9821 N   0  0  0  0  0  0  0  0  0  0  0  0
  146.4007  138.9329  152.2753 C   0  0  0  0  0  0  0  0  0  0  0  0
  147.1967  139.4002  153.5052 C   0  0  1  0  0  0  0  0  0  0  0  0
  148.6220  138.8170  153.5243 C   0  0  0  0  0  0  0  0  0  0  0  0
  149.4004  139.3206  154.6490 N   0  0  0  0  0  0  0  0  0  0  0  0
  150.7538  138.7678  154.6492 C   0  0  0  0  0  0  0  0  0  0  0  0
  151.5844  139.2546  155.8472 C   0  0  0  0  0  0  0  0  0  0  0  0
  151.6383  140.7888  155.8695 C   0  0  0  0  0  0  0  0  0  0  0  0
  150.2159  141.3670  155.8134 C   0  0  0  0  0  0  0  0  0  0  0  0
  149.4293  140.7861  154.6200 C   0  0  2  0  0  0  0  0  0  0  0  0
  147.9998  141.3636  154.5780 C   0  0  0  0  0  0  0  0  0  0  0  0
  147.2909  140.8222  153.4686 O   0  0  0  0  0  0  0  0  0  0  0  0
  146.2168  135.3960  151.5351 N   0  0  0  0  0  0  0  0  0  0  0  0
  145.5417  134.1631  151.3300 C   0  0  0  0  0  0  0  0  0  0  0  0
  146.3552  133.0117  151.4308 C   0  0  0  0  0  0  0  0  0  0  0  0
  145.7795  131.7384  151.2548 C   0  0  0  0  0  0  0  0  0  0  0  0
  144.4031  131.6488  150.9811 C   0  0  0  0  0  0  0  0  0  0  0  0
  143.6654  132.8439  150.8950 C   0  0  0  0  0  0  0  0  0  0  0  0
  144.2149  134.0652  151.0639 N   0  0  0  0  0  0  0  0  0  0  0  0
  147.6050  137.2380  151.8931 H   0  0  0  0  0  0  0  0  0  0  0  0
  146.6551  139.5405  151.4052 H   0  0  0  0  0  0  0  0  0  0  0  0
  145.3328  139.0710  152.4468 H   0  0  0  0  0  0  0  0  0  0  0  0
  146.6737  139.0972  154.4143 H   0  0  0  0  0  0  0  0  0  0  0  0
  148.5681  137.7288  153.5743 H   0  0  0  0  0  0  0  0  0  0  0  0
  149.1263  139.0611  152.5877 H   0  0  0  0  0  0  0  0  0  0  0  0
  150.7046  137.6785  154.6703 H   0  0  0  0  0  0  0  0  0  0  0  0
  151.2632  139.0357  153.7221 H   0  0  0  0  0  0  0  0  0  0  0  0
  151.1411  138.8880  156.7740 H   0  0  0  0  0  0  0  0  0  0  0  0
  152.5927  138.8430  155.7988 H   0  0  0  0  0  0  0  0  0  0  0  0
  152.1547  141.1380  156.7640 H   0  0  0  0  0  0  0  0  0  0  0  0
  152.2136  141.1473  155.0150 H   0  0  0  0  0  0  0  0  0  0  0  0
  149.6948  141.1400  156.7446 H   0  0  0  0  0  0  0  0  0  0  0  0
  150.2629  142.4540  155.7409 H   0  0  0  0  0  0  0  0  0  0  0  0
  149.9345  141.1025  153.7053 H   0  0  0  0  0  0  0  0  0  0  0  0
  147.4609  141.1428  155.5009 H   0  0  0  0  0  0  0  0  0  0  0  0
  148.0294  142.4487  154.4771 H   0  0  0  0  0  0  0  0  0  0  0  0
  147.2237  135.3527  151.4845 H   0  0  0  0  0  0  0  0  0  0  0  0
  147.4111  133.0982  151.6431 H   0  0  0  0  0  0  0  0  0  0  0  0
  146.3841  130.8467  151.3300 H   0  0  0  0  0  0  0  0  0  0  0  0
  143.9254  130.6903  150.8416 H   0  0  0  0  0  0  0  0  0  0  0  0
  142.6061  132.8187  150.6865 H   0  0  0  0  0  0  0  0  0  0  0  0
  1  2  2  0  0  0  0
  2  3  1  0  0  0  0
  2 15  1  0  0  0  0
  3  4  1  0  0  0  0
  3 22  1  0  0  0  0
  4  5  1  0  0  0  0
  4 23  1  0  0  0  0
  4 24  1  0  0  0  0
  5 14  1  0  0  0  0
  5  6  1  0  0  0  0
  5 25  1  0  0  0  0
  6  7  1  0  0  0  0
  6 26  1  0  0  0  0
  6 27  1  0  0  0  0
  7 12  1  0  0  0  0
  7  8  1  0  0  0  0
  8  9  1  0  0  0  0
  8 28  1  0  0  0  0
  8 29  1  0  0  0  0
  9 10  1  0  0  0  0
  9 30  1  0  0  0  0
  9 31  1  0  0  0  0
 10 11  1  0  0  0  0
 10 32  1  0  0  0  0
 10 33  1  0  0  0  0
 11 12  1  0  0  0  0
 11 34  1  0  0  0  0
 11 35  1  0  0  0  0
 12 13  1  0  0  0  0
 12 36  1  0  0  0  0
 13 14  1  0  0  0  0
 13 37  1  0  0  0  0
 13 38  1  0  0  0  0
 15 16  1  0  0  0  0
 15 39  1  0  0  0  0
 16 21  1  0  0  0  0
 16 17  2  0  0  0  0
 17 18  1  0  0  0  0
 17 40  1  0  0  0  0
 18 19  2  0  0  0  0
 18 41  1  0  0  0  0
 19 20  1  0  0  0  0
 19 42  1  0  0  0  0
 20 21  2  0  0  0  0
 20 43  1  0  0  0  0
M  END
> <s_m_source_file>
AV-unprocessed.smi

> <i_m_source_file_index>
2528

> <i_lp_mmshare_version>
43012

> <i_f3d_flags>
0

> <s_epik_input>
bjFbY0hdW2NIXVtjSF1bY0hdYzFbTkhdQyg9TylbTkhdW0NIMl1bQ0BIXShbQ0gyXTIpT1tDSDJdW0NAQEhdKE4yMylbQ0gyXVtDSDJdW0NIMl1bQ0gyXTM=

> <s_epik_cmdline>
J2VwaWtfcHl0aG9uJywgJy1waCcsICc3LjAnLCAnLXRuJywgJzgnLCAnLW1hJywgJzIwMCcsICctbWV0YWxfYmluZGluZycsICctaW1hZScsICc8aW5maWxlLm1hZT4nLCAnLW9tYWUnLCAnPG91dGZpbGUubWFlPic=

> <r_epik_Ionization_Penalty>
1.14192

> <r_epik_Ionization_Penalty_Charging>
0

> <r_epik_Ionization_Penalty_Neutral>
1.14192

> <r_epik_State_Penalty>
1.20248

> <r_epik_Charging_Adjusted_Penalty>
1.20248

> <i_epik_Tot_Q>
0

> <i_epik_Tot_abs_Q>
0

> <r_epik_Metal_State_Penalty>
1.20248

> <b_epik_Metal_Only>
0

> <s_lp_Force_Field>
OPLS_2005

> <r_lp_Energy>
35.0124

> <b_lp_Chiralities_Consistent>
1

> <s_lp_Variant>
AV-unprocessed.smi:2528-12

> <Gold.Version>
5.8.1

> <Gold.Id.Protein>
6NUR|6NUR_protein|mol2

> <Gold.PLP.Fitness>
44.2283

> <Gold.PLP.PLP>
-35.8297

> <Gold.PLP.part.hbond>
-2.0000

> <Gold.PLP.part.metal>
0.0000

> <Gold.PLP.part.buried>
-2.6443

> <Gold.PLP.part.nonpolar>
-34.8047

> <Gold.PLP.part.repulsive>
3.3299

> <Gold.PLP.ligand.clash>
0.0000

> <Gold.PLP.ligand.torsion>
0.2717

> <Gold.PLP.Chemscore.Hbond>
1.9920

> <Gold.PLP.Chemscore.CHOScore>
0.9885

> <Gold.PLP.Chemscore.Metal>
0.0000

> <Gold.Chemscore.Hbonds>
donor molecule, donor type, donor heavy atom, donor atom, acceptor molecule, acceptor atom, score
      L1  H     3    22       P1  7948  1.00
      L1  H    15    39       P1  7948  0.98
      L1  C    20    43       P1 10186  1.00

> <Gold.PLP.Chemscore.Internal.Correction>
0.0004

> <Gold.Rescore>
     Score         DG    S(hbond)    S(metal)    S(lipo)     H(rot)  DE(clash)    DE(int)     intcor
     16.97     -18.63       1.94        0.00      84.73       1.27       0.21       1.45       ----

> <Gold.Chemscore.Fitness>
16.9734

> <Gold.Chemscore.DG>
-18.6316

> <Gold.Chemscore.ZeroCoef>
-5.4800

> <Gold.Chemscore.Hbond>
1.9425

> <Gold.Chemscore.Metal>
0.0000

> <Gold.Chemscore.Lipo>
84.7348

> <Gold.Chemscore.Internal_Hbond>
0.0000

> <Gold.Chemscore.DEClash>
0.2068

> <Gold.Chemscore.DEInternal>
1.4514

> <Gold.Chemscore.Rot>
1.2696

> <Gold.Chemscore.Internal.Correction>
   9.000000E+99

> <Gold.Chemscore.Hbonds>
donor molecule, donor type, donor heavy atom, donor atom, acceptor molecule, acceptor atom, score
      L1  H     3    22       P1  7948  0.99
      L1  H    15    39       P1  7948  0.86

> <Gold.Chemscore.Hbond.Weighted>
-6.4878

> <Gold.Chemscore.Metal.Weighted>
-0.0000

> <Gold.Chemscore.Lipo.Weighted>
-9.9140

> <Gold.Chemscore.Internal_Hbond.Weighted>
0.0000

> <Gold.Chemscore.DEClash.Weighted>
0.2068

> <Gold.Chemscore.DEInternal.Weighted>
1.4514

> <Gold.Chemscore.Rot.Weighted>
3.2502

> <Gold.Chemscore.Internal.Correction.Weighted>
   9.000000E+99

> <Gold.Protein.RotatedTorsions>
[ 6907 6896 6895 6894 ] final -157.58 input  -60.11 | X-H torsion
[ 7974 7965 7964 7962 ] final  -50.56 input  175.53 | X-H torsion
[ 8008 7997 7996 7995 ] final -127.91 input   59.86 | X-H torsion
[ 10167 10162 10161 10158 ] final  151.79 input  -65.29 | X-H torsion
[ 10718 10713 10712 10709 ] final -119.38 input   66.30 | X-H torsion
[ 10763 10752 10751 10750 ] final   74.90 input  -60.55 | X-H torsion
[ 11005 11000 10999 10996 ] final   -2.51 input  -57.11 | X-H torsion

> <Gold.Protein.ActiveResidues>
 VAL166  LYS551  ARG553  GLY616  TRP617  ASP618  TYR619  PRO620  LYS621  CYS622 
 ASP623  PHE694  ASN695  SER759  ASP760  ASP761  ALA762  ILE779  LEU786  VAL792 
 PHE793  MET794  SER795  GLU796  ALA797  LYS798  CYS799  TRP800  GLU811  SER814 

> <Gold.Protein.RotatedAtoms>
  151.3050  133.4105  159.2642 H   0  0  0  0  0  0  0  0  0  0  0  0  # atno 6907 bound_to 6896
  151.0162  134.9435  159.8045 H   0  0  0  0  0  0  0  0  0  0  0  0  # atno 6908 bound_to 6896
  152.5313  134.3014  159.9132 H   0  0  0  0  0  0  0  0  0  0  0  0  # atno 6909 bound_to 6896
  145.9285  140.7770  142.9611 H   0  0  0  0  0  0  0  0  0  0  0  0  # atno 7974 bound_to 7965
  155.2539  140.0433  157.2990 H   0  0  0  0  0  0  0  0  0  0  0  0  # atno 8008 bound_to 7997
  154.5752  140.2385  155.8103 H   0  0  0  0  0  0  0  0  0  0  0  0  # atno 8009 bound_to 7997
  156.2152  140.2987  155.9832 H   0  0  0  0  0  0  0  0  0  0  0  0  # atno 8010 bound_to 7997
  139.4837  144.5411  151.7562 H   0  0  0  0  0  0  0  0  0  0  0  0  # atno 10167 bound_to 10162
  156.1177  130.6299  150.9409 H   0  0  0  0  0  0  0  0  0  0  0  0  # atno 10718 bound_to 10713
  153.0618  135.5008  154.8110 H   0  0  0  0  0  0  0  0  0  0  0  0  # atno 10763 bound_to 10752
  154.6894  135.2982  154.9504 H   0  0  0  0  0  0  0  0  0  0  0  0  # atno 10764 bound_to 10752
  154.0264  135.6735  153.4829 H   0  0  0  0  0  0  0  0  0  0  0  0  # atno 10765 bound_to 10752
  140.6591  133.9336  155.8425 H   0  0  0  0  0  0  0  0  0  0  0  0  # atno 11005 bound_to 11000
  144.6762  140.2090  143.7379 LP  0  0  0  0  0  0  0  0  0  0  0  0  # atno 17320 bound_to 7965
  145.8457  139.2151  143.1802 LP  0  0  0  0  0  0  0  0  0  0  0  0  # atno 17321 bound_to 7965
  140.4951  144.1253  150.5958 LP  0  0  0  0  0  0  0  0  0  0  0  0  # atno 17342 bound_to 10162
  140.4127  143.2649  151.9813 LP  0  0  0  0  0  0  0  0  0  0  0  0  # atno 17343 bound_to 10162
  157.6360  131.0916  150.8347 LP  0  0  0  0  0  0  0  0  0  0  0  0  # atno 17370 bound_to 10713
  156.8448  130.5060  149.5317 LP  0  0  0  0  0  0  0  0  0  0  0  0  # atno 17371 bound_to 10713
  141.0479  134.0528  157.3821 LP  0  0  0  0  0  0  0  0  0  0  0  0  # atno 17394 bound_to 11000
  139.9019  135.0167  156.7309 LP  0  0  0  0  0  0  0  0  0  0  0  0  # atno 17395 bound_to 11000

$$$$
