AV-unprocessed.smi:2963|AV-procd|sdf|11319|dock6
  -GOLD-   2272016223D 1   1.00000     0.00000
 Structure written by MMmdl.
 41 43  0  0  0  0  0  0  0  0  1 V2000
  153.5297  137.2718  158.1844 C   0  0  0  0  0  0  0  0  0  0  0  0
  154.1550  138.5428  158.2677 O   0  0  0  0  0  0  0  0  0  0  0  0
  153.9025  139.2219  159.4901 C   0  0  0  0  0  0  0  0  0  0  0  0
  154.5865  140.6000  159.5385 C   0  0  0  0  0  0  0  0  0  0  0  0
  153.9361  141.4980  160.4827 N   0  0  0  0  0  0  0  0  0  0  0  0
  153.8794  141.4057  161.8343 C   0  0  0  0  0  0  0  0  0  0  0  0
  154.6336  140.0834  162.7186 S   0  0  0  0  0  0  0  0  0  0  0  0
  155.6266  141.0929  163.8593 C   0  0  0  0  0  0  0  0  0  0  0  0
  155.8377  140.4651  165.2462 C   0  0  0  0  0  0  0  0  0  0  0  0
  156.1841  139.2829  165.3141 O   0  0  0  0  0  0  0  0  0  0  0  0
  155.6375  141.2576  166.3329 N   0  0  0  0  0  0  0  0  0  0  0  0
  155.2175  142.6574  166.2444 C   0  0  0  0  0  0  0  0  0  0  0  0
  155.1154  143.1133  167.6957 C   0  0  0  0  0  0  0  0  0  0  0  0
  155.5028  141.9239  168.4126 N   0  0  0  0  0  0  0  0  0  0  0  0
  155.7933  140.8852  167.6257 C   0  0  0  0  0  0  0  0  0  0  0  0
  156.1434  139.7852  168.0551 O   0  0  0  0  0  0  0  0  0  0  0  0
  153.2216  142.3857  162.4545 N   0  0  0  0  0  0  0  0  0  0  0  0
  152.8104  143.1871  161.4082 C   0  0  0  0  0  0  0  0  0  0  0  0
  152.0659  144.3883  161.4080 C   0  0  0  0  0  0  0  0  0  0  0  0
  151.7636  145.0404  160.1945 C   0  0  0  0  0  0  0  0  0  0  0  0
  152.2015  144.5026  158.9669 C   0  0  0  0  0  0  0  0  0  0  0  0
  152.9441  143.3063  158.9449 C   0  0  0  0  0  0  0  0  0  0  0  0
  153.2417  142.6589  160.1589 C   0  0  0  0  0  0  0  0  0  0  0  0
  153.7816  136.8036  157.2329 H   0  0  0  0  0  0  0  0  0  0  0  0
  152.4442  137.3649  158.2336 H   0  0  0  0  0  0  0  0  0  0  0  0
  153.8574  136.6050  158.9820 H   0  0  0  0  0  0  0  0  0  0  0  0
  152.8239  139.3588  159.5716 H   0  0  0  0  0  0  0  0  0  0  0  0
  154.1944  138.6116  160.3463 H   0  0  0  0  0  0  0  0  0  0  0  0
  155.6264  140.4817  159.8448 H   0  0  0  0  0  0  0  0  0  0  0  0
  154.6182  141.0577  158.5506 H   0  0  0  0  0  0  0  0  0  0  0  0
  156.6009  141.2552  163.3973 H   0  0  0  0  0  0  0  0  0  0  0  0
  155.1456  142.0658  163.9632 H   0  0  0  0  0  0  0  0  0  0  0  0
  155.9534  143.2551  165.7040 H   0  0  0  0  0  0  0  0  0  0  0  0
  154.2541  142.7501  165.7405 H   0  0  0  0  0  0  0  0  0  0  0  0
  155.7963  143.9359  167.9182 H   0  0  0  0  0  0  0  0  0  0  0  0
  154.1000  143.4080  167.9631 H   0  0  0  0  0  0  0  0  0  0  0  0
  155.5460  141.8916  169.4209 H   0  0  0  0  0  0  0  0  0  0  0  0
  151.7265  144.8088  162.3428 H   0  0  0  0  0  0  0  0  0  0  0  0
  151.1941  145.9582  160.2059 H   0  0  0  0  0  0  0  0  0  0  0  0
  151.9670  145.0093  158.0421 H   0  0  0  0  0  0  0  0  0  0  0  0
  153.2822  142.8922  158.0066 H   0  0  0  0  0  0  0  0  0  0  0  0
  1  2  1  0  0  0  0
  1 24  1  0  0  0  0
  1 25  1  0  0  0  0
  1 26  1  0  0  0  0
  2  3  1  0  0  0  0
  3  4  1  0  0  0  0
  3 27  1  0  0  0  0
  3 28  1  0  0  0  0
  4  5  1  0  0  0  0
  4 29  1  0  0  0  0
  4 30  1  0  0  0  0
  5 23  1  0  0  0  0
  5  6  1  0  0  0  0
  6  7  1  0  0  0  0
  6 17  2  0  0  0  0
  7  8  1  0  0  0  0
  8  9  1  0  0  0  0
  8 31  1  0  0  0  0
  8 32  1  0  0  0  0
  9 10  2  0  0  0  0
  9 11  1  0  0  0  0
 11 15  1  0  0  0  0
 11 12  1  0  0  0  0
 12 13  1  0  0  0  0
 12 33  1  0  0  0  0
 12 34  1  0  0  0  0
 13 14  1  0  0  0  0
 13 35  1  0  0  0  0
 13 36  1  0  0  0  0
 14 15  1  0  0  0  0
 14 37  1  0  0  0  0
 15 16  2  0  0  0  0
 17 18  1  0  0  0  0
 18 23  2  0  0  0  0
 18 19  1  0  0  0  0
 19 20  2  0  0  0  0
 19 38  1  0  0  0  0
 20 21  1  0  0  0  0
 20 39  1  0  0  0  0
 21 22  2  0  0  0  0
 21 40  1  0  0  0  0
 22 23  1  0  0  0  0
 22 41  1  0  0  0  0
M  END
> <s_m_source_file>
AV-unprocessed.smi

> <i_m_source_file_index>
2963

> <i_lp_mmshare_version>
43012

> <i_f3d_flags>
0

> <s_epik_input>
W2NIXTFbY0hdW2NIXVtjSF1jKGMxMiluKFtDSDJdW0NIMl1PW0NIM10pYyhuMilTW0NIMl1DKD1PKU4zW0NIMl1bQ0gyXVtOSF1DMz1P

> <s_epik_cmdline>
J2VwaWtfcHl0aG9uJywgJy1waCcsICc3LjAnLCAnLXRuJywgJzgnLCAnLW1hJywgJzIwMCcsICctbWV0YWxfYmluZGluZycsICctaW1hZScsICc8aW5maWxlLm1hZT4nLCAnLW9tYWUnLCAnPG91dGZpbGUubWFlPic=

> <r_lp_tautomer_probability>
0.9999

> <r_epik_Ionization_Penalty>
0.0341365

> <r_epik_Ionization_Penalty_Charging>
0

> <r_epik_Ionization_Penalty_Neutral>
0.0341365

> <r_epik_State_Penalty>
0.0283589

> <r_epik_Charging_Adjusted_Penalty>
0.0283589

> <i_epik_Tot_Q>
0

> <i_epik_Tot_abs_Q>
0

> <r_epik_Metal_State_Penalty>
0.0267964

> <b_epik_Metal_Only>
0

> <s_lp_Force_Field>
OPLS_2005

> <r_lp_Energy>
40.6732

> <b_lp_Chiralities_Consistent>
1

> <s_lp_Variant>
AV-unprocessed.smi:2963-1

> <Gold.Version>
5.8.1

> <Gold.Id.Protein>
6NUR|6NUR_protein|mol2

> <Gold.PLP.Fitness>
51.8949

> <Gold.PLP.PLP>
-49.9244

> <Gold.PLP.part.hbond>
-2.0000

> <Gold.PLP.part.metal>
0.0000

> <Gold.PLP.part.buried>
-3.6052

> <Gold.PLP.part.nonpolar>
-43.0945

> <Gold.PLP.part.repulsive>
0.2445

> <Gold.PLP.ligand.clash>
0.0000

> <Gold.PLP.ligand.torsion>
0.5644

> <Gold.PLP.Chemscore.Hbond>
1.0000

> <Gold.PLP.Chemscore.CHOScore>
0.0000

> <Gold.PLP.Chemscore.Metal>
0.0000

> <Gold.Chemscore.Hbonds>
donor molecule, donor type, donor heavy atom, donor atom, acceptor molecule, acceptor atom, score
      P1  H  7997  8010       L1     2  1.00

> <Gold.PLP.Chemscore.Internal.Correction>
0.0993

> <Gold.Rescore>
     Score         DG    S(hbond)    S(metal)    S(lipo)     H(rot)  DE(clash)    DE(int)     intcor
     12.40     -15.84       0.60        0.00     122.26       2.33       1.53       1.91       ----

> <Gold.Chemscore.Fitness>
12.4023

> <Gold.Chemscore.DG>
-15.8375

> <Gold.Chemscore.ZeroCoef>
-5.4800

> <Gold.Chemscore.Hbond>
0.6025

> <Gold.Chemscore.Metal>
0.0000

> <Gold.Chemscore.Lipo>
122.2641

> <Gold.Chemscore.Internal_Hbond>
0.0000

> <Gold.Chemscore.DEClash>
1.5281

> <Gold.Chemscore.DEInternal>
1.9071

> <Gold.Chemscore.Rot>
2.3280

> <Gold.Chemscore.Internal.Correction>
   9.000000E+99

> <Gold.Chemscore.Hbonds>
donor molecule, donor type, donor heavy atom, donor atom, acceptor molecule, acceptor atom, score
      P1  H  7997  8010       L1     2  0.30

> <Gold.Chemscore.Hbond.Weighted>
-2.0124

> <Gold.Chemscore.Metal.Weighted>
-0.0000

> <Gold.Chemscore.Lipo.Weighted>
-14.3049

> <Gold.Chemscore.Internal_Hbond.Weighted>
0.0000

> <Gold.Chemscore.DEClash.Weighted>
1.5281

> <Gold.Chemscore.DEInternal.Weighted>
1.9071

> <Gold.Chemscore.Rot.Weighted>
5.9598

> <Gold.Chemscore.Internal.Correction.Weighted>
   9.000000E+99

> <Gold.Protein.RotatedTorsions>
[ 6907 6896 6895 6894 ] final   -2.70 input  -60.11 | X-H torsion
[ 7974 7965 7964 7962 ] final -142.50 input  175.53 | X-H torsion
[ 8008 7997 7996 7995 ] final   19.85 input   59.86 | X-H torsion
[ 10167 10162 10161 10158 ] final  -64.04 input  -65.29 | X-H torsion
[ 10718 10713 10712 10709 ] final -153.19 input   66.30 | X-H torsion
[ 10763 10752 10751 10750 ] final  161.73 input  -60.55 | X-H torsion
[ 11005 11000 10999 10996 ] final   58.67 input  -57.11 | X-H torsion

> <Gold.Protein.ActiveResidues>
 VAL166  LYS551  ARG553  GLY616  TRP617  ASP618  TYR619  PRO620  LYS621  CYS622 
 ASP623  PHE694  ASN695  SER759  ASP760  ASP761  ALA762  ILE779  LEU786  VAL792 
 PHE793  MET794  SER795  GLU796  ALA797  LYS798  CYS799  TRP800  GLU811  SER814 

> <Gold.Protein.RotatedAtoms>
  151.5257  135.1068  159.9889 H   0  0  0  0  0  0  0  0  0  0  0  0  # atno 6907 bound_to 6896
  152.4600  133.7799  159.6855 H   0  0  0  0  0  0  0  0  0  0  0  0  # atno 6908 bound_to 6896
  150.8559  133.7651  159.3034 H   0  0  0  0  0  0  0  0  0  0  0  0  # atno 6909 bound_to 6896
  144.8438  140.5950  143.5434 H   0  0  0  0  0  0  0  0  0  0  0  0  # atno 7974 bound_to 7965
  154.9269  140.3035  155.5188 H   0  0  0  0  0  0  0  0  0  0  0  0  # atno 8008 bound_to 7997
  156.3006  140.2361  156.4261 H   0  0  0  0  0  0  0  0  0  0  0  0  # atno 8009 bound_to 7997
  154.8276  140.0420  157.1443 H   0  0  0  0  0  0  0  0  0  0  0  0  # atno 8010 bound_to 7997
  140.5828  143.2329  151.6305 H   0  0  0  0  0  0  0  0  0  0  0  0  # atno 10167 bound_to 10162
  156.4826  130.8310  151.2536 H   0  0  0  0  0  0  0  0  0  0  0  0  # atno 10718 bound_to 10713
  154.2675  135.2766  155.2752 H   0  0  0  0  0  0  0  0  0  0  0  0  # atno 10763 bound_to 10752
  154.5331  135.5724  153.6779 H   0  0  0  0  0  0  0  0  0  0  0  0  # atno 10764 bound_to 10752
  152.9951  135.6232  154.2828 H   0  0  0  0  0  0  0  0  0  0  0  0  # atno 10765 bound_to 10752
  140.0360  134.5942  155.9443 H   0  0  0  0  0  0  0  0  0  0  0  0  # atno 11005 bound_to 11000
  145.4638  139.1510  143.3851 LP  0  0  0  0  0  0  0  0  0  0  0  0  # atno 17320 bound_to 7965
  146.2726  140.4769  142.8808 LP  0  0  0  0  0  0  0  0  0  0  0  0  # atno 17321 bound_to 7965
  139.5180  144.3298  152.0836 LP  0  0  0  0  0  0  0  0  0  0  0  0  # atno 17342 bound_to 10162
  140.2451  144.4229  150.6244 LP  0  0  0  0  0  0  0  0  0  0  0  0  # atno 17343 bound_to 10162
  157.7482  131.0040  150.3059 LP  0  0  0  0  0  0  0  0  0  0  0  0  # atno 17370 bound_to 10713
  156.3507  130.3830  149.7332 LP  0  0  0  0  0  0  0  0  0  0  0  0  # atno 17371 bound_to 10713
  141.1857  133.6556  156.5211 LP  0  0  0  0  0  0  0  0  0  0  0  0  # atno 17394 bound_to 11000
  140.4146  134.7241  157.4856 LP  0  0  0  0  0  0  0  0  0  0  0  0  # atno 17395 bound_to 11000

$$$$
