#       Name:                AV-unprocessed.smi:45
#       Creating user name   scv26
#       Creation time:       Thu Mar 26 16:28:54 2020


#       File generated by GOLD software.
#

@<TRIPOS>MOLECULE
AV-unprocessed.smi:45
    70    73     1
SMALL
NO_CHARGES


@<TRIPOS>ATOM
      1 ****        -8.4756   0.2849  -0.2391 C.3            1 S1                 0.0000
      2 ****        -7.6653   0.7030   0.8496 O.3            1 S1                 0.0000
      3 ****        -6.3144   0.8759   0.6296 C.ar           1 S1                 0.0000
      4 ****        -5.6840   0.6519  -0.6209 C.ar           1 S1                 0.0000
      5 ****        -4.2980   0.8505  -0.7696 C.ar           1 S1                 0.0000
      6 ****        -3.5189   1.2747   0.3249 C.ar           1 S1                 0.0000
      7 ****        -2.0272   1.4892   0.1630 C.3            1 S1                 0.0000
      8 ****        -1.3132   0.2770  -0.2100 N.pl3          1 S1                 0.0000
      9 ****         0.0746   0.2775  -0.4329 C.ar           1 S1                 0.0000
     10 ****         0.7363   1.4496  -0.2963 N.ar           1 S1                 0.0000
     11 ****         2.0617   1.5082  -0.4842 C.ar           1 S1                 0.0000
     12 ****         2.7023   2.7361  -0.3265 N.pl3          1 S1                 0.0000
     13 ****         2.1698   3.7691   0.5559 C.3            1 S1                 0.0000
     14 ****         3.3827   4.5147   1.1149 C.3            1 S1                 0.0000
     15 ****         4.4154   4.3785   0.0025 C.3            1 S1                 0.0000
     16 ****         4.1245   2.9821  -0.5675 C.3            1 S1                 0.0000
     17 ****         4.5659   2.7863  -2.0361 C.3            1 S1                 0.0000
     18 ****         3.9632   3.7330  -2.8948 O.3            1 S1                 0.0000
     19 ****         2.7819   0.4219  -0.8028 N.pl3          1 S1                 1.0000
     20 ****         2.1686  -0.7768  -0.9511 C.ar           1 S1                 0.0000
     21 ****         0.7743  -0.9080  -0.7688 C.ar           1 S1                 0.0000
     22 ****         0.0963  -2.2408  -0.9647 C.2            1 S1                 0.0000
     23 ****        -0.9531  -2.2799  -1.6170 O.2            1 S1                 0.0000
     24 ****         0.7701  -3.2436  -0.3382 N.pl3          1 S1                -1.0000
     25 ****         0.3449  -4.6425  -0.3486 C.3            1 S1                 0.0000
     26 ****         1.2498  -5.5093   0.5156 C.ar           1 S1                 0.0000
     27 ****         2.3508  -6.0021  -0.0657 N.ar           1 S1                 0.0000
     28 ****         3.1672  -6.7530   0.7050 C.ar           1 S1                 0.0000
     29 ****         2.8787  -7.0109   2.0601 C.ar           1 S1                 0.0000
     30 ****         1.6918  -6.4421   2.5635 C.ar           1 S1                 0.0000
     31 ****         0.8785  -5.6918   1.7889 N.ar           1 S1                 0.0000
     32 ****        -4.1375   1.4998   1.5700 C.ar           1 S1                 0.0000
     33 ****        -5.5240   1.3011   1.7211 C.ar           1 S1                 0.0000
     34 ****        -6.2508   1.5846   3.2624 Cl             1 S1                 0.0000
     35 ****         4.6644   2.2583   0.0446 H              1 S1                 0.0000
     36 ****        -9.5100   0.2012   0.0939 H              1 S1                 0.0000
     37 ****        -8.1695  -0.6936  -0.6115 H              1 S1                 0.0000
     38 ****        -8.4500   1.0074  -1.0557 H              1 S1                 0.0000
     39 ****        -6.2428   0.3259  -1.4848 H              1 S1                 0.0000
     40 ****        -3.8333   0.6752  -1.7289 H              1 S1                 0.0000
     41 ****        -1.8706   2.2502  -0.6025 H              1 S1                 0.0000
     42 ****        -1.6107   1.8784   1.0931 H              1 S1                 0.0000
     43 ****        -1.8301  -0.5863  -0.3033 H              1 S1                 0.0000
     44 ****         1.5426   4.4398  -0.0322 H              1 S1                 0.0000
     45 ****         1.5614   3.3559   1.3613 H              1 S1                 0.0000
     46 ****         3.1630   5.5513   1.3722 H              1 S1                 0.0000
     47 ****         3.7435   4.0126   2.0137 H              1 S1                 0.0000
     48 ****         4.2399   5.1561  -0.7418 H              1 S1                 0.0000
     49 ****         5.4405   4.4835   0.3587 H              1 S1                 0.0000
     50 ****         5.6471   2.9060  -2.1095 H              1 S1                 0.0000
     51 ****         4.3426   1.7853  -2.4018 H              1 S1                 0.0000
     52 ****         4.2839   3.5904  -3.7726 H              1 S1                 0.0000
     53 ****         2.8192  -1.5977  -1.2167 H              1 S1                 0.0000
     54 ****        -0.6813  -4.7543   0.0060 H              1 S1                 0.0000
     55 ****         0.3433  -5.0522  -1.3600 H              1 S1                 0.0000
     56 ****         4.0559  -7.1503   0.2377 H              1 S1                 0.0000
     57 ****         3.5302  -7.6108   2.6777 H              1 S1                 0.0000
     58 ****         1.3936  -6.5895   3.5908 H              1 S1                 0.0000
     59 ****        -3.5491   1.8240   2.4160 H              1 S1                 0.0000
     60 ****         3.7907   0.4850  -0.9370 H              1 S1                 0.0000
     61 ****        -7.7626   0.0179   1.5716 LP             1 S1                 0.0000
     62 ****        -8.0278   1.5783   1.1697 LP             1 S1                 0.0000
     63 ****         0.2324   2.2785  -0.0533 LP             1 S1                 0.0000
     64 ****         4.1992   4.6576  -2.5958 LP             1 S1                 0.0000
     65 ****         2.9697   3.6202  -2.8765 LP             1 S1                 0.0000
     66 ****        -1.3345  -1.4392  -2.0015 LP             1 S1                 0.0000
     67 ****        -1.4207  -3.1522  -1.7601 LP             1 S1                 0.0000
     68 ****         1.6057  -3.0098   0.1588 LP             1 S1                 0.0000
     69 ****         2.5592  -5.8223  -1.0271 LP             1 S1                 0.0000
     70 ****         0.0368  -5.2906   2.1503 LP             1 S1                 0.0000
@<TRIPOS>BOND
    1    1    2 1     
    2    1   36 1     
    3    1   37 1     
    4    1   38 1     
    5    2    3 1     
    6    3   33 ar    
    7    3    4 ar    
    8    4    5 ar    
    9    4   39 1     
   10    5    6 ar    
   11    5   40 1     
   12    6    7 1     
   13    6   32 ar    
   14    7    8 1     
   15    7   41 1     
   16    7   42 1     
   17    8    9 1     
   18    8   43 1     
   19    9   21 ar    
   20    9   10 ar    
   21   10   11 ar    
   22   11   12 1     
   23   11   19 ar    
   24   12   16 1     
   25   12   13 1     
   26   13   14 1     
   27   13   44 1     
   28   13   45 1     
   29   14   15 1     
   30   14   46 1     
   31   14   47 1     
   32   15   16 1     
   33   15   48 1     
   34   15   49 1     
   35   16   35 1     
   36   16   17 1     
   37   17   18 1     
   38   17   50 1     
   39   17   51 1     
   40   18   52 1     
   41   19   20 ar    
   42   19   60 1     
   43   20   21 ar    
   44   20   53 1     
   45   21   22 1     
   46   22   23 2     
   47   22   24 1     
   48   24   25 1     
   49   25   26 1     
   50   25   54 1     
   51   25   55 1     
   52   26   31 ar    
   53   26   27 ar    
   54   27   28 ar    
   55   28   29 ar    
   56   28   56 1     
   57   29   30 ar    
   58   29   57 1     
   59   30   31 ar    
   60   30   58 1     
   61   32   33 ar    
   62   32   59 1     
   63   33   34 1     
   64    2   61 1     
   65    2   62 1     
   66   10   63 1     
   67   18   64 1     
   68   18   65 1     
   69   23   66 1     
   70   23   67 1     
   71   24   68 1     
   72   27   69 1     
   73   31   70 1     
@<TRIPOS>SUBSTRUCTURE
      1 S1             1
@<TRIPOS>SET
LONE_PAIRS      STATIC     ATOMS    <user>   **** ""
10 61 62 63 64 65 66 67 68 69 70
DONOR_HYDROGENS      STATIC     ATOMS    <user>   **** ""
3 43 52 60
ATOM$BLUE        STATIC     ATOMS    COLORGROUP SYSTEM
10 61 62 63 64 65 66 67 68 69 70
ATOM$RED        STATIC     ATOMS    COLORGROUP SYSTEM
3 43 52 60
