AV-unprocessed.smi:978|AV-procd|sdf|4309|dock7
  -GOLD-   22720 2213D 1   1.00000     0.00000
 Structure written by MMmdl.
 39 40  0  0  0  0  0  0  0  0  2 V2000
  147.1868  141.3207  153.6921 C   0  0  0  0  0  0  0  0  0  0  0  0
  148.4773  140.6527  154.0775 C   0  0  0  0  0  0  0  0  0  0  0  0
  149.4734  141.3954  154.5375 N   0  0  0  0  0  0  0  0  0  0  0  0
  150.5583  140.5303  154.7477 O   0  0  0  0  0  0  0  0  0  0  0  0
  150.1872  139.2688  154.4064 C   0  0  0  0  0  0  0  0  0  0  0  0
  151.2165  138.1985  154.5457 C   0  0  0  0  0  0  0  0  0  0  0  0
  148.8836  139.2875  154.0063 C   0  0  0  0  0  0  0  0  0  0  0  0
  148.1638  138.1546  153.5513 N   0  0  0  0  0  0  0  0  0  0  0  0
  146.8472  137.9333  153.6837 C   0  0  0  0  0  0  0  0  0  0  0  0
  146.0597  138.6880  154.2531 O   0  0  0  0  0  0  0  0  0  0  0  0
  146.4889  136.7640  153.1342 N   0  0  0  0  0  0  0  0  0  0  0  0
  145.1353  136.2099  153.1377 C   0  0  2  0  0  0  0  0  0  0  0  0
  145.1199  134.8304  153.8200 C   0  0  0  0  0  0  0  0  0  0  0  0
  145.7913  133.7486  152.9537 C   0  0  0  0  0  0  0  0  0  0  0  0
  145.1734  133.6824  151.6060 N   0  3  2  0  0  0  0  0  0  0  0  0
  145.7125  132.5710  150.7932 C   0  0  0  0  0  0  0  0  0  0  0  0
  145.2420  134.9844  150.8976 C   0  0  0  0  0  0  0  0  0  0  0  0
  144.5548  136.0941  151.7130 C   0  0  0  0  0  0  0  0  0  0  0  0
  146.7298  140.8295  152.8331 H   0  0  0  0  0  0  0  0  0  0  0  0
  147.3429  142.3657  153.4226 H   0  0  0  0  0  0  0  0  0  0  0  0
  146.4720  141.2962  154.5149 H   0  0  0  0  0  0  0  0  0  0  0  0
  150.8695  137.2603  154.1127 H   0  0  0  0  0  0  0  0  0  0  0  0
  151.4461  138.0205  155.5963 H   0  0  0  0  0  0  0  0  0  0  0  0
  152.1399  138.4821  154.0404 H   0  0  0  0  0  0  0  0  0  0  0  0
  148.7188  137.3989  153.1773 H   0  0  0  0  0  0  0  0  0  0  0  0
  147.2094  136.2073  152.6984 H   0  0  0  0  0  0  0  0  0  0  0  0
  144.5022  136.8813  153.7211 H   0  0  0  0  0  0  0  0  0  0  0  0
  145.6040  134.8844  154.7960 H   0  0  0  0  0  0  0  0  0  0  0  0
  144.0862  134.5395  154.0119 H   0  0  0  0  0  0  0  0  0  0  0  0
  146.8597  133.9484  152.8572 H   0  0  0  0  0  0  0  0  0  0  0  0
  145.6953  132.7801  153.4464 H   0  0  0  0  0  0  0  0  0  0  0  0
  146.7731  132.7176  150.5842 H   0  0  0  0  0  0  0  0  0  0  0  0
  145.1827  132.4968  149.8430 H   0  0  0  0  0  0  0  0  0  0  0  0
  145.5944  131.6201  151.3139 H   0  0  0  0  0  0  0  0  0  0  0  0
  146.2843  135.2448  150.7068 H   0  0  0  0  0  0  0  0  0  0  0  0
  144.7558  134.8967  149.9254 H   0  0  0  0  0  0  0  0  0  0  0  0
  143.4887  135.8739  151.7816 H   0  0  0  0  0  0  0  0  0  0  0  0
  144.6292  137.0461  151.1863 H   0  0  0  0  0  0  0  0  0  0  0  0
  144.1932  133.4831  151.7480 H   0  0  0  0  0  0  0  0  0  0  0  0
  1  2  1  0  0  0  0
  1 19  1  0  0  0  0
  1 20  1  0  0  0  0
  1 21  1  0  0  0  0
  2  7  1  0  0  0  0
  2  3  2  0  0  0  0
  3  4  1  0  0  0  0
  4  5  1  0  0  0  0
  5  6  1  0  0  0  0
  5  7  2  0  0  0  0
  6 22  1  0  0  0  0
  6 23  1  0  0  0  0
  6 24  1  0  0  0  0
  7  8  1  0  0  0  0
  8  9  1  0  0  0  0
  8 25  1  0  0  0  0
  9 10  2  0  0  0  0
  9 11  1  0  0  0  0
 11 12  1  0  0  0  0
 11 26  1  0  0  0  0
 12 18  1  0  0  0  0
 12 13  1  0  0  0  0
 12 27  1  0  0  0  0
 13 14  1  0  0  0  0
 13 28  1  0  0  0  0
 13 29  1  0  0  0  0
 14 15  1  0  0  0  0
 14 30  1  0  0  0  0
 14 31  1  0  0  0  0
 15 16  1  0  0  0  0
 15 17  1  0  0  0  0
 15 39  1  0  0  0  0
 16 32  1  0  0  0  0
 16 33  1  0  0  0  0
 16 34  1  0  0  0  0
 17 18  1  0  0  0  0
 17 35  1  0  0  0  0
 17 36  1  0  0  0  0
 18 37  1  0  0  0  0
 18 38  1  0  0  0  0
M  CHG  1  15   1
M  END
> <s_m_source_file>
AV-unprocessed.smi

> <i_m_source_file_index>
978

> <i_lp_mmshare_version>
43012

> <i_f3d_flags>
0

> <s_epik_input>
W0NIM11jMW5vYyhbQ0gzXSljMVtOSF1DKD1PKVtOSF1bQ0hdMltDSDJdW0NIMl1OKFtDSDNdKVtDSDJdW0NIMl0y

> <s_epik_cmdline>
J2VwaWtfcHl0aG9uJywgJy1waCcsICc3LjAnLCAnLXRuJywgJzgnLCAnLW1hJywgJzIwMCcsICctbWV0YWxfYmluZGluZycsICctaW1hZScsICc8aW5maWxlLm1hZT4nLCAnLW9tYWUnLCAnPG91dGZpbGUubWFlPic=

> <r_epik_Ionization_Penalty>
0.00369783

> <r_epik_Ionization_Penalty_Charging>
0.00366825

> <r_epik_Ionization_Penalty_Neutral>
2.95799e-05

> <r_epik_State_Penalty>
0.00261101

> <r_epik_Charging_Adjusted_Penalty>
0.00627926

> <i_epik_Tot_Q>
1

> <i_epik_Tot_abs_Q>
1

> <r_epik_Metal_State_Penalty>
-0

> <b_epik_Metal_Only>
0

> <s_lp_Force_Field>
OPLS_2005

> <r_lp_Energy>
17.545

> <b_lp_Chiralities_Consistent>
1

> <s_lp_Variant>
AV-unprocessed.smi:978-2

> <Gold.Version>
5.8.1

> <Gold.Id.Protein>
6NUR|6NUR_protein|mol2

> <Gold.PLP.Fitness>
37.1252

> <Gold.PLP.PLP>
-28.5085

> <Gold.PLP.part.hbond>
-4.1964

> <Gold.PLP.part.metal>
0.0000

> <Gold.PLP.part.buried>
-2.7404

> <Gold.PLP.part.nonpolar>
-21.5301

> <Gold.PLP.part.repulsive>
0.3882

> <Gold.PLP.ligand.clash>
0.0000

> <Gold.PLP.ligand.torsion>
0.2302

> <Gold.PLP.Chemscore.Hbond>
2.9360

> <Gold.PLP.Chemscore.CHOScore>
0.0000

> <Gold.PLP.Chemscore.Metal>
0.0000

> <Gold.Chemscore.Hbonds>
donor molecule, donor type, donor heavy atom, donor atom, acceptor molecule, acceptor atom, score
      L1  H     8    25       P1  7948  0.94
      L1  H    11    26       P1  7948  0.91
      P1  H  7989  7998       L1     4  1.00

> <Gold.PLP.Chemscore.Internal.Correction>
0.2691

> <Gold.Rescore>
     Score         DG    S(hbond)    S(metal)    S(lipo)     H(rot)  DE(clash)    DE(int)     intcor
     16.49     -16.85       1.93        0.00      63.95       1.00       0.02       0.33       ----

> <Gold.Chemscore.Fitness>
16.4922

> <Gold.Chemscore.DG>
-16.8497

> <Gold.Chemscore.ZeroCoef>
-5.4800

> <Gold.Chemscore.Hbond>
1.9305

> <Gold.Chemscore.Metal>
0.0000

> <Gold.Chemscore.Lipo>
63.9480

> <Gold.Chemscore.Internal_Hbond>
0.0000

> <Gold.Chemscore.DEClash>
0.0233

> <Gold.Chemscore.DEInternal>
0.3342

> <Gold.Chemscore.Rot>
1.0000

> <Gold.Chemscore.Internal.Correction>
   9.000000E+99

> <Gold.Chemscore.Hbonds>
donor molecule, donor type, donor heavy atom, donor atom, acceptor molecule, acceptor atom, score
      L1  H     8    25       P1  7948  0.92
      L1  H    11    26       P1  7948  0.89
      P1  H  7989  7998       L1     4  0.13

> <Gold.Chemscore.Hbond.Weighted>
-6.4478

> <Gold.Chemscore.Metal.Weighted>
-0.0000

> <Gold.Chemscore.Lipo.Weighted>
-7.4819

> <Gold.Chemscore.Internal_Hbond.Weighted>
0.0000

> <Gold.Chemscore.DEClash.Weighted>
0.0233

> <Gold.Chemscore.DEInternal.Weighted>
0.3342

> <Gold.Chemscore.Rot.Weighted>
2.5600

> <Gold.Chemscore.Internal.Correction.Weighted>
   9.000000E+99

> <Gold.Protein.RotatedTorsions>
[ 6907 6896 6895 6894 ] final  -51.49 input  -60.11 | X-H torsion
[ 7974 7965 7964 7962 ] final  -78.64 input  175.53 | X-H torsion
[ 8008 7997 7996 7995 ] final  -99.40 input   59.86 | X-H torsion
[ 10167 10162 10161 10158 ] final    0.06 input  -65.29 | X-H torsion
[ 10718 10713 10712 10709 ] final  171.28 input   66.30 | X-H torsion
[ 10763 10752 10751 10750 ] final  -36.19 input  -60.55 | X-H torsion
[ 11005 11000 10999 10996 ] final -144.49 input  -57.11 | X-H torsion

> <Gold.Protein.ActiveResidues>
 VAL166  LYS551  ARG553  GLY616  TRP617  ASP618  TYR619  PRO620  LYS621  CYS622 
 ASP623  PHE694  ASN695  SER759  ASP760  ASP761  ALA762  ILE779  LEU786  VAL792 
 PHE793  MET794  SER795  GLU796  ALA797  LYS798  CYS799  TRP800  GLU811  SER814 

> <Gold.Protein.RotatedAtoms>
  150.8606  134.7957  159.7079 H   0  0  0  0  0  0  0  0  0  0  0  0  # atno 6907 bound_to 6896
  152.4644  134.5106  159.9762 H   0  0  0  0  0  0  0  0  0  0  0  0  # atno 6908 bound_to 6896
  151.5210  133.3428  159.2937 H   0  0  0  0  0  0  0  0  0  0  0  0  # atno 6909 bound_to 6896
  145.5838  140.9443  143.1329 H   0  0  0  0  0  0  0  0  0  0  0  0  # atno 7974 bound_to 7965
  154.8143  140.0448  157.1365 H   0  0  0  0  0  0  0  0  0  0  0  0  # atno 8008 bound_to 7997
  154.9333  140.3042  155.5137 H   0  0  0  0  0  0  0  0  0  0  0  0  # atno 8009 bound_to 7997
  156.2974  140.2319  156.4395 H   0  0  0  0  0  0  0  0  0  0  0  0  # atno 8010 bound_to 7997
  140.6745  143.6954  150.7994 H   0  0  0  0  0  0  0  0  0  0  0  0  # atno 10167 bound_to 10162
  156.9958  131.0161  151.2844 H   0  0  0  0  0  0  0  0  0  0  0  0  # atno 10718 bound_to 10713
  153.8756  135.6826  153.4771 H   0  0  0  0  0  0  0  0  0  0  0  0  # atno 10763 bound_to 10752
  153.1262  135.4717  154.9274 H   0  0  0  0  0  0  0  0  0  0  0  0  # atno 10764 bound_to 10752
  154.7693  135.3234  154.8173 H   0  0  0  0  0  0  0  0  0  0  0  0  # atno 10765 bound_to 10752
  140.8019  134.2847  157.4975 H   0  0  0  0  0  0  0  0  0  0  0  0  # atno 11005 bound_to 11000
  144.7382  139.7524  143.7321 LP  0  0  0  0  0  0  0  0  0  0  0  0  # atno 17320 bound_to 7965
  146.1697  139.4843  142.9935 LP  0  0  0  0  0  0  0  0  0  0  0  0  # atno 17321 bound_to 7965
  140.0645  143.5122  152.2611 LP  0  0  0  0  0  0  0  0  0  0  0  0  # atno 17342 bound_to 10162
  139.6031  144.7588  151.3126 LP  0  0  0  0  0  0  0  0  0  0  0  0  # atno 17343 bound_to 10162
  157.5425  130.8129  149.8046 LP  0  0  0  0  0  0  0  0  0  0  0  0  # atno 17370 bound_to 10713
  156.0189  130.3803  150.2022 LP  0  0  0  0  0  0  0  0  0  0  0  0  # atno 17371 bound_to 10713
  139.8721  134.9434  156.3853 LP  0  0  0  0  0  0  0  0  0  0  0  0  # atno 17394 bound_to 11000
  140.9286  133.7595  155.9996 LP  0  0  0  0  0  0  0  0  0  0  0  0  # atno 17395 bound_to 11000

$$$$
