#       Name:                AV-unprocessed.smi:2041
#       Creating user name   scv26
#       Creation time:       Fri Mar 27 10:55:53 2020


#       File generated by GOLD software.
#

@<TRIPOS>MOLECULE
AV-unprocessed.smi:2041
    36    37     1
SMALL
NO_CHARGES


@<TRIPOS>ATOM
      1 ****         1.7879   0.6436  -0.3642 O.2            1 S1                 0.0000
      2 ****         1.4468  -0.4393   0.1126 C.2            1 S1                 0.0000
      3 ****         2.2703  -1.4712   0.3673 N.am           1 S1                 0.0000
      4 ****         3.6711  -1.5506   0.1517 C.2            1 S1                 0.0000
      5 ****         4.4149  -0.5593  -0.3534 N.2            1 S1                 0.0000
      6 ****         5.7625  -0.9142  -0.4548 C.2            1 S1                 0.0000
      7 ****         6.0287  -2.1887  -0.0199 C.2            1 S1                 0.0000
      8 ****         4.5893  -2.9985   0.5387 S.3            1 S1                 0.0000
      9 ****         0.1818  -0.7366   0.4442 N.am           1 S1                 0.0000
     10 ****        -0.9684   0.1606   0.3208 C.3            1 S1                 0.0000
     11 ****        -1.5277   0.1134  -1.1191 C.3            1 S1                 0.0000
     12 ****        -2.3399   1.3567  -1.5157 C.3            1 S1                 0.0000
     13 ****        -3.6154   1.5843  -0.6910 C.3            1 S1                 0.0000
     14 ****        -3.3445   1.8939   0.7912 C.3            1 S1                 0.0000
     15 ****        -3.0518   0.6961   1.5687 N.am           1 S1                 0.0000
     16 ****        -2.0118  -0.1375   1.4140 C.2            1 S1                 0.0000
     17 ****        -1.8968  -1.1316   2.1307 O.2            1 S1                 0.0000
     18 ****         1.8449  -2.2981   0.7598 H              1 S1                 0.0000
     19 ****         6.4661  -0.1960  -0.8492 H              1 S1                 0.0000
     20 ****         6.9808  -2.6975   0.0058 H              1 S1                 0.0000
     21 ****        -0.0050  -1.6487   0.8351 H              1 S1                 0.0000
     22 ****        -0.6033   1.1706   0.5168 H              1 S1                 0.0000
     23 ****        -0.7032   0.0277  -1.8283 H              1 S1                 0.0000
     24 ****        -2.1287  -0.7864  -1.2587 H              1 S1                 0.0000
     25 ****        -1.7036   2.2406  -1.4540 H              1 S1                 0.0000
     26 ****        -2.6191   1.2655  -2.5658 H              1 S1                 0.0000
     27 ****        -4.1487   2.4305  -1.1253 H              1 S1                 0.0000
     28 ****        -4.2865   0.7294  -0.7846 H              1 S1                 0.0000
     29 ****        -2.5428   2.6255   0.9021 H              1 S1                 0.0000
     30 ****        -4.2340   2.3475   1.2287 H              1 S1                 0.0000
     31 ****        -3.7146   0.4673   2.2955 H              1 S1                 0.0000
     32 ****         2.7469   0.8087  -0.5945 LP             1 S1                 0.0000
     33 ****         1.1059   1.3580  -0.5210 LP             1 S1                 0.0000
     34 ****         4.0493   0.3306  -0.6261 LP             1 S1                 0.0000
     35 ****        -1.1223  -1.7516   2.0051 LP             1 S1                 0.0000
     36 ****        -2.5778  -1.3191   2.8385 LP             1 S1                 0.0000
@<TRIPOS>BOND
    1    1    2 2     
    2    2    3 am    
    3    2    9 am    
    4    3    4 1     
    5    3   18 1     
    6    4    8 1     
    7    4    5 2     
    8    5    6 1     
    9    6    7 2     
   10    6   19 1     
   11    7    8 1     
   12    7   20 1     
   13    9   10 1     
   14    9   21 1     
   15   10   16 1     
   16   10   11 1     
   17   10   22 1     
   18   11   12 1     
   19   11   23 1     
   20   11   24 1     
   21   12   13 1     
   22   12   25 1     
   23   12   26 1     
   24   13   14 1     
   25   13   27 1     
   26   13   28 1     
   27   14   15 1     
   28   14   29 1     
   29   14   30 1     
   30   15   16 am    
   31   15   31 1     
   32   16   17 2     
   33    1   32 1     
   34    1   33 1     
   35    5   34 1     
   36   17   35 1     
   37   17   36 1     
@<TRIPOS>SUBSTRUCTURE
      1 S1             1
@<TRIPOS>SET
LONE_PAIRS      STATIC     ATOMS    <user>   **** ""
5 32 33 34 35 36
DONOR_HYDROGENS      STATIC     ATOMS    <user>   **** ""
3 18 21 31
ATOM$BLUE        STATIC     ATOMS    COLORGROUP SYSTEM
5 32 33 34 35 36
ATOM$RED        STATIC     ATOMS    COLORGROUP SYSTEM
3 18 21 31
