AV-unprocessed.smi:91|AV-procd|sdf|840|dock7
  -GOLD-   2262017273D 1   1.00000     0.00000
 Structure written by MMmdl.
 60 63  0  0  0  0  0  0  0  0  1 V2000
  155.5504  140.5338  162.0276 C   0  0  0  0  0  0  0  0  0  0  0  0
  154.9994  141.2103  160.9116 O   0  0  0  0  0  0  0  0  0  0  0  0
  153.7351  141.7870  161.1945 C   0  0  0  0  0  0  0  0  0  0  0  0
  153.1440  142.3691  159.9046 C   0  0  1  0  0  0  0  0  0  0  0  0
  152.6688  141.2723  158.9365 C   0  0  0  0  0  0  0  0  0  0  0  0
  152.0154  141.8825  157.7884 N   0  0  0  0  0  0  0  0  0  0  0  0
  151.7273  141.0390  156.7758 C   0  0  0  0  0  0  0  0  0  0  0  0
  152.6861  140.1456  156.4302 N   0  0  0  0  0  0  0  0  0  0  0  0
  152.4707  139.2901  155.4262 C   0  0  0  0  0  0  0  0  0  0  0  0
  151.3909  139.1661  154.6509 N   0  0  0  0  0  0  0  0  0  0  0  0
  150.4273  140.0683  154.9952 C   0  0  0  0  0  0  0  0  0  0  0  0
  150.5112  141.0363  156.0352 C   0  0  0  0  0  0  0  0  0  0  0  0
  149.3427  141.7882  156.0775 N   0  0  0  0  0  0  0  0  0  0  0  0
  148.6071  141.2875  155.1225 C   0  0  0  0  0  0  0  0  0  0  0  0
  149.1791  140.2469  154.4262 N   0  0  0  0  0  0  0  0  0  0  0  0
  148.5960  139.5151  153.3160 C   0  0  0  0  0  0  0  0  0  0  0  0
  147.2652  138.8005  153.6797 C   0  0  1  0  0  0  0  0  0  0  0  0
  146.5403  138.2153  152.4455 C   0  0  0  0  0  0  0  0  0  0  0  0
  146.2040  139.2144  151.5056 O   0  0  0  0  0  0  0  0  0  0  0  0
  147.4385  137.7117  154.7713 C   0  0  1  0  0  0  0  0  0  0  0  0
  148.0778  138.1733  156.0800 C   0  0  0  0  0  0  0  0  0  0  0  0
  147.3787  137.3111  157.1226 C   0  0  0  0  0  0  0  0  0  0  0  0
  146.0551  137.2363  156.6223 O   0  0  0  0  0  0  0  0  0  0  0  0
  146.1391  137.0190  155.2200 C   0  0  0  0  0  0  0  0  0  0  0  0
  150.8940  142.7298  158.1672 C   0  0  0  0  0  0  0  0  0  0  0  0
  151.3379  143.8145  159.1748 C   0  0  0  0  0  0  0  0  0  0  0  0
  152.2081  144.8997  158.5059 C   0  0  0  0  0  0  0  0  0  0  0  0
  150.1012  144.4746  159.8033 C   0  0  0  0  0  0  0  0  0  0  0  0
  152.0348  143.1957  160.2634 O   0  0  0  0  0  0  0  0  0  0  0  0
  156.5166  140.1083  161.7568 H   0  0  0  0  0  0  0  0  0  0  0  0
  154.9029  139.7188  162.3537 H   0  0  0  0  0  0  0  0  0  0  0  0
  155.7052  141.2154  162.8648 H   0  0  0  0  0  0  0  0  0  0  0  0
  153.0588  141.0461  161.6244 H   0  0  0  0  0  0  0  0  0  0  0  0
  153.8593  142.5825  161.9313 H   0  0  0  0  0  0  0  0  0  0  0  0
  153.9109  142.9793  159.4272 H   0  0  0  0  0  0  0  0  0  0  0  0
  153.5140  140.6678  158.6045 H   0  0  0  0  0  0  0  0  0  0  0  0
  151.9750  140.6068  159.4507 H   0  0  0  0  0  0  0  0  0  0  0  0
  153.2799  138.6076  155.2125 H   0  0  0  0  0  0  0  0  0  0  0  0
  147.6191  141.6639  154.9008 H   0  0  0  0  0  0  0  0  0  0  0  0
  148.4470  140.2123  152.4914 H   0  0  0  0  0  0  0  0  0  0  0  0
  149.3459  138.8016  152.9762 H   0  0  0  0  0  0  0  0  0  0  0  0
  146.5972  139.5423  154.1201 H   0  0  0  0  0  0  0  0  0  0  0  0
  147.1494  137.4507  151.9625 H   0  0  0  0  0  0  0  0  0  0  0  0
  145.6082  137.7345  152.7438 H   0  0  0  0  0  0  0  0  0  0  0  0
  145.4456  138.9279  151.0203 H   0  0  0  0  0  0  0  0  0  0  0  0
  148.0718  136.9250  154.3575 H   0  0  0  0  0  0  0  0  0  0  0  0
  149.1607  138.0473  156.0893 H   0  0  0  0  0  0  0  0  0  0  0  0
  147.8653  139.2205  156.2883 H   0  0  0  0  0  0  0  0  0  0  0  0
  147.8161  136.3123  157.1646 H   0  0  0  0  0  0  0  0  0  0  0  0
  147.4100  137.7465  158.1214 H   0  0  0  0  0  0  0  0  0  0  0  0
  145.2457  137.3870  154.7151 H   0  0  0  0  0  0  0  0  0  0  0  0
  146.1981  135.9460  155.0314 H   0  0  0  0  0  0  0  0  0  0  0  0
  150.4571  143.1935  157.2812 H   0  0  0  0  0  0  0  0  0  0  0  0
  150.1187  142.1038  158.6120 H   0  0  0  0  0  0  0  0  0  0  0  0
  151.6363  145.4514  157.7591 H   0  0  0  0  0  0  0  0  0  0  0  0
  153.0747  144.4827  157.9935 H   0  0  0  0  0  0  0  0  0  0  0  0
  152.5719  145.6192  159.2398 H   0  0  0  0  0  0  0  0  0  0  0  0
  149.4810  144.9566  159.0469 H   0  0  0  0  0  0  0  0  0  0  0  0
  150.3859  145.2338  160.5325 H   0  0  0  0  0  0  0  0  0  0  0  0
  149.4818  143.7407  160.3199 H   0  0  0  0  0  0  0  0  0  0  0  0
  1  2  1  0  0  0  0
  1 30  1  0  0  0  0
  1 31  1  0  0  0  0
  1 32  1  0  0  0  0
  2  3  1  0  0  0  0
  3  4  1  0  0  0  0
  3 33  1  0  0  0  0
  3 34  1  0  0  0  0
  4 29  1  0  0  0  0
  4  5  1  0  0  0  0
  4 35  1  0  0  0  0
  5  6  1  0  0  0  0
  5 36  1  0  0  0  0
  5 37  1  0  0  0  0
  6  7  1  0  0  0  0
  6 25  1  0  0  0  0
  7 12  1  0  0  0  0
  7  8  2  0  0  0  0
  8  9  1  0  0  0  0
  9 10  2  0  0  0  0
  9 38  1  0  0  0  0
 10 11  1  0  0  0  0
 11 15  1  0  0  0  0
 11 12  2  0  0  0  0
 12 13  1  0  0  0  0
 13 14  2  0  0  0  0
 14 15  1  0  0  0  0
 14 39  1  0  0  0  0
 15 16  1  0  0  0  0
 16 17  1  0  0  0  0
 16 40  1  0  0  0  0
 16 41  1  0  0  0  0
 17 18  1  0  0  0  0
 17 20  1  0  0  0  0
 17 42  1  0  0  0  0
 18 19  1  0  0  0  0
 18 43  1  0  0  0  0
 18 44  1  0  0  0  0
 19 45  1  0  0  0  0
 20 24  1  0  0  0  0
 20 21  1  0  0  0  0
 20 46  1  0  0  0  0
 21 22  1  0  0  0  0
 21 47  1  0  0  0  0
 21 48  1  0  0  0  0
 22 23  1  0  0  0  0
 22 49  1  0  0  0  0
 22 50  1  0  0  0  0
 23 24  1  0  0  0  0
 24 51  1  0  0  0  0
 24 52  1  0  0  0  0
 25 26  1  0  0  0  0
 25 53  1  0  0  0  0
 25 54  1  0  0  0  0
 26 27  1  0  0  0  0
 26 28  1  0  0  0  0
 26 29  1  0  0  0  0
 27 55  1  0  0  0  0
 27 56  1  0  0  0  0
 27 57  1  0  0  0  0
 28 58  1  0  0  0  0
 28 59  1  0  0  0  0
 28 60  1  0  0  0  0
M  END
> <s_m_source_file>
AV-unprocessed.smi

> <i_m_source_file_index>
91

> <i_lp_mmshare_version>
43012

> <i_f3d_flags>
0

> <s_epik_input>
W0NIM11PW0NIMl1bQ0BASF0oTzEpW0NIMl1OKFtDSDJdQzEoW0NIM10pW0NIM10pYyhuW2NIXW4yKWMoYzIzKW5bY0hdbjNbQ0gyXVtDQEhdKFtDSDJdW09IXSlbQ0BASF00W0NIMl1bQ0gyXU9bQ0gyXTQ=

> <s_epik_cmdline>
J2VwaWtfcHl0aG9uJywgJy1waCcsICc3LjAnLCAnLXRuJywgJzgnLCAnLW1hJywgJzIwMCcsICctbWV0YWxfYmluZGluZycsICctaW1hZScsICc8aW5maWxlLm1hZT4nLCAnLW9tYWUnLCAnPG91dGZpbGUubWFlPic=

> <r_lp_tautomer_probability>
1

> <r_epik_Ionization_Penalty>
8.63591e-05

> <r_epik_Ionization_Penalty_Charging>
0

> <r_epik_Ionization_Penalty_Neutral>
8.63591e-05

> <r_epik_State_Penalty>
-0

> <r_epik_Charging_Adjusted_Penalty>
0

> <i_epik_Tot_Q>
0

> <i_epik_Tot_abs_Q>
0

> <r_epik_Metal_State_Penalty>
-0

> <b_epik_Metal_Only>
0

> <s_lp_Force_Field>
OPLS_2005

> <r_lp_Energy>
49.4407

> <b_lp_Chiralities_Consistent>
1

> <s_lp_Variant>
AV-unprocessed.smi:91-8

> <Gold.Version>
5.8.1

> <Gold.Id.Protein>
6NUR|6NUR_protein|mol2

> <Gold.PLP.Fitness>
54.8431

> <Gold.PLP.PLP>
-49.3221

> <Gold.PLP.part.hbond>
-3.6543

> <Gold.PLP.part.metal>
0.0000

> <Gold.PLP.part.buried>
-2.6843

> <Gold.PLP.part.nonpolar>
-45.0259

> <Gold.PLP.part.repulsive>
1.7069

> <Gold.PLP.ligand.clash>
0.0141

> <Gold.PLP.ligand.torsion>
0.4036

> <Gold.PLP.Chemscore.Hbond>
2.0000

> <Gold.PLP.Chemscore.CHOScore>
0.0000

> <Gold.PLP.Chemscore.Metal>
0.0000

> <Gold.Chemscore.Hbonds>
donor molecule, donor type, donor heavy atom, donor atom, acceptor molecule, acceptor atom, score
      L1  H    19    45       P1 10171  1.00
      P1  H  7997  8008       L1     8  1.00

> <Gold.PLP.Chemscore.Internal.Correction>
0.3422

> <Gold.Rescore>
     Score         DG    S(hbond)    S(metal)    S(lipo)     H(rot)  DE(clash)    DE(int)     intcor
     11.37     -16.32       1.80        0.00     107.53       3.03       1.89       3.06       ----

> <Gold.Chemscore.Fitness>
11.3705

> <Gold.Chemscore.DG>
-16.3192

> <Gold.Chemscore.ZeroCoef>
-5.4800

> <Gold.Chemscore.Hbond>
1.7996

> <Gold.Chemscore.Metal>
0.0000

> <Gold.Chemscore.Lipo>
107.5342

> <Gold.Chemscore.Internal_Hbond>
0.0000

> <Gold.Chemscore.DEClash>
1.8885

> <Gold.Chemscore.DEInternal>
3.0602

> <Gold.Chemscore.Rot>
3.0284

> <Gold.Chemscore.Internal.Correction>
   9.000000E+99

> <Gold.Chemscore.Hbonds>
donor molecule, donor type, donor heavy atom, donor atom, acceptor molecule, acceptor atom, score
      L1  H    19    45       P1 10171  0.97
      P1  H  7997  8008       L1     8  0.25

> <Gold.Chemscore.Hbond.Weighted>
-6.0106

> <Gold.Chemscore.Metal.Weighted>
-0.0000

> <Gold.Chemscore.Lipo.Weighted>
-12.5815

> <Gold.Chemscore.Internal_Hbond.Weighted>
0.0000

> <Gold.Chemscore.DEClash.Weighted>
1.8885

> <Gold.Chemscore.DEInternal.Weighted>
3.0602

> <Gold.Chemscore.Rot.Weighted>
7.7528

> <Gold.Chemscore.Internal.Correction.Weighted>
   9.000000E+99

> <Gold.Protein.RotatedTorsions>
[ 6907 6896 6895 6894 ] final  -47.77 input  -60.11 | X-H torsion
[ 7974 7965 7964 7962 ] final  -29.89 input  175.53 | X-H torsion
[ 8008 7997 7996 7995 ] final  -52.28 input   59.86 | X-H torsion
[ 10167 10162 10161 10158 ] final   32.97 input  -65.29 | X-H torsion
[ 10718 10713 10712 10709 ] final   17.53 input   66.30 | X-H torsion
[ 10763 10752 10751 10750 ] final  -45.14 input  -60.55 | X-H torsion
[ 11005 11000 10999 10996 ] final  -55.20 input  -57.11 | X-H torsion

> <Gold.Protein.ActiveResidues>
 VAL166  LYS551  ARG553  GLY616  TRP617  ASP618  TYR619  PRO620  LYS621  CYS622 
 ASP623  PHE694  ASN695  SER759  ASP760  ASP761  ALA762  ILE779  LEU786  VAL792 
 PHE793  MET794  SER795  GLU796  ALA797  LYS798  CYS799  TRP800  GLU811  SER814 

> <Gold.Protein.RotatedAtoms>
  150.8974  134.8383  159.7335 H   0  0  0  0  0  0  0  0  0  0  0  0  # atno 6907 bound_to 6896
  152.4872  134.4555  159.9598 H   0  0  0  0  0  0  0  0  0  0  0  0  # atno 6908 bound_to 6896
  151.4611  133.3553  159.2844 H   0  0  0  0  0  0  0  0  0  0  0  0  # atno 6909 bound_to 6896
  146.1183  140.5471  142.8747 H   0  0  0  0  0  0  0  0  0  0  0  0  # atno 7974 bound_to 7965
  154.4103  140.1227  156.4966 H   0  0  0  0  0  0  0  0  0  0  0  0  # atno 8008 bound_to 7997
  155.6936  140.3495  155.4884 H   0  0  0  0  0  0  0  0  0  0  0  0  # atno 8009 bound_to 7997
  155.9447  140.1093  157.1017 H   0  0  0  0  0  0  0  0  0  0  0  0  # atno 8010 bound_to 7997
  140.4450  144.1132  150.6181 H   0  0  0  0  0  0  0  0  0  0  0  0  # atno 10167 bound_to 10162
  157.0835  130.6397  149.5832 H   0  0  0  0  0  0  0  0  0  0  0  0  # atno 10718 bound_to 10713
  154.0237  135.6666  153.4774 H   0  0  0  0  0  0  0  0  0  0  0  0  # atno 10763 bound_to 10752
  153.0569  135.5050  154.7998 H   0  0  0  0  0  0  0  0  0  0  0  0  # atno 10764 bound_to 10752
  154.6921  135.3063  154.9429 H   0  0  0  0  0  0  0  0  0  0  0  0  # atno 10765 bound_to 10752
  141.1062  133.6613  156.4434 H   0  0  0  0  0  0  0  0  0  0  0  0  # atno 11005 bound_to 11000
  144.7573  140.5338  143.6760 LP  0  0  0  0  0  0  0  0  0  0  0  0  # atno 17320 bound_to 7965
  145.5520  139.1477  143.3389 LP  0  0  0  0  0  0  0  0  0  0  0  0  # atno 17321 bound_to 7965
  140.4274  143.2583  151.9639 LP  0  0  0  0  0  0  0  0  0  0  0  0  # atno 17342 bound_to 10162
  139.4792  144.5775  151.7987 LP  0  0  0  0  0  0  0  0  0  0  0  0  # atno 17343 bound_to 10162
  155.9917  130.4973  150.7310 LP  0  0  0  0  0  0  0  0  0  0  0  0  # atno 17370 bound_to 10713
  157.4781  131.0899  151.0568 LP  0  0  0  0  0  0  0  0  0  0  0  0  # atno 17371 bound_to 10713
  140.4895  134.6589  157.5205 LP  0  0  0  0  0  0  0  0  0  0  0  0  # atno 17394 bound_to 11000
  139.9934  134.6950  155.9651 LP  0  0  0  0  0  0  0  0  0  0  0  0  # atno 17395 bound_to 11000

$$$$
