AV-unprocessed.smi:2874|AV-procd|sdf|11038|dock3
  -GOLD-   2272015503D 1   1.00000     0.00000
 Structure written by MMmdl.
 39 41  0  0  0  0  0  0  0  0  1 V2000
  151.9275  145.7381  160.1288 C   0  0  0  0  0  0  0  0  0  0  0  0
  150.9750  144.9010  159.4977 O   0  0  0  0  0  0  0  0  0  0  0  0
  151.4146  144.4342  158.2322 C   0  0  0  0  0  0  0  0  0  0  0  0
  150.7347  143.0961  157.9108 C   0  0  0  0  0  0  0  0  0  0  0  0
  151.6103  141.9617  158.1677 N   0  0  0  0  0  0  0  0  0  0  0  0
  151.8503  140.8959  157.3640 C   0  0  0  0  0  0  0  0  0  0  0  0
  151.0784  140.7419  155.7807 S   0  0  0  0  0  0  0  0  0  0  0  0
  151.9187  139.2480  155.1748 C   0  0  0  0  0  0  0  0  0  0  0  0
  151.2301  138.0140  155.7229 C   0  0  0  0  0  0  0  0  0  0  0  0
  151.3510  137.7930  157.0365 N   0  0  0  0  0  0  0  0  0  0  0  0
  150.7382  136.6950  157.5292 C   0  0  0  0  0  0  0  0  0  0  0  0
  150.0080  135.8183  156.7016 C   0  0  0  0  0  0  0  0  0  0  0  0
  149.9538  136.1529  155.3335 C   0  0  0  0  0  0  0  0  0  0  0  0
  149.2630  135.3496  154.4301 N   0  0  0  0  0  0  0  0  0  0  0  0
  150.5654  137.2534  154.8461 N   0  0  0  0  0  0  0  0  0  0  0  0
  152.7080  139.9956  157.8485 N   0  0  0  0  0  0  0  0  0  0  0  0
  153.0541  140.5261  159.0751 C   0  0  0  0  0  0  0  0  0  0  0  0
  153.9318  140.0411  160.0705 C   0  0  0  0  0  0  0  0  0  0  0  0
  154.1318  140.7693  161.2618 C   0  0  0  0  0  0  0  0  0  0  0  0
  155.2070  140.1635  162.4673 Cl  0  0  0  0  0  0  0  0  0  0  0  0
  153.4586  141.9903  161.4728 C   0  0  0  0  0  0  0  0  0  0  0  0
  152.5795  142.4908  160.4932 C   0  0  0  0  0  0  0  0  0  0  0  0
  152.3832  141.7591  159.3067 C   0  0  0  0  0  0  0  0  0  0  0  0
  151.5364  146.0791  161.0873 H   0  0  0  0  0  0  0  0  0  0  0  0
  152.1444  146.6177  159.5215 H   0  0  0  0  0  0  0  0  0  0  0  0
  152.8588  145.2023  160.3160 H   0  0  0  0  0  0  0  0  0  0  0  0
  151.1704  145.1659  157.4609 H   0  0  0  0  0  0  0  0  0  0  0  0
  152.4990  144.3124  158.2343 H   0  0  0  0  0  0  0  0  0  0  0  0
  149.8319  142.9830  158.5118 H   0  0  0  0  0  0  0  0  0  0  0  0
  150.4096  143.0732  156.8705 H   0  0  0  0  0  0  0  0  0  0  0  0
  151.9120  139.2351  154.0839 H   0  0  0  0  0  0  0  0  0  0  0  0
  152.9608  139.2553  155.4971 H   0  0  0  0  0  0  0  0  0  0  0  0
  150.8330  136.5134  158.5893 H   0  0  0  0  0  0  0  0  0  0  0  0
  149.5210  134.9399  157.0987 H   0  0  0  0  0  0  0  0  0  0  0  0
  148.7849  134.5113  154.7265 H   0  0  0  0  0  0  0  0  0  0  0  0
  149.2288  135.5753  153.4464 H   0  0  0  0  0  0  0  0  0  0  0  0
  154.4526  139.1078  159.9161 H   0  0  0  0  0  0  0  0  0  0  0  0
  153.6171  142.5444  162.3864 H   0  0  0  0  0  0  0  0  0  0  0  0
  152.0645  143.4268  160.6507 H   0  0  0  0  0  0  0  0  0  0  0  0
  1  2  1  0  0  0  0
  1 24  1  0  0  0  0
  1 25  1  0  0  0  0
  1 26  1  0  0  0  0
  2  3  1  0  0  0  0
  3  4  1  0  0  0  0
  3 27  1  0  0  0  0
  3 28  1  0  0  0  0
  4  5  1  0  0  0  0
  4 29  1  0  0  0  0
  4 30  1  0  0  0  0
  5 23  1  0  0  0  0
  5  6  1  0  0  0  0
  6  7  1  0  0  0  0
  6 16  2  0  0  0  0
  7  8  1  0  0  0  0
  8  9  1  0  0  0  0
  8 31  1  0  0  0  0
  8 32  1  0  0  0  0
  9 15  1  0  0  0  0
  9 10  2  0  0  0  0
 10 11  1  0  0  0  0
 11 12  2  0  0  0  0
 11 33  1  0  0  0  0
 12 13  1  0  0  0  0
 12 34  1  0  0  0  0
 13 14  1  0  0  0  0
 13 15  2  0  0  0  0
 14 35  1  0  0  0  0
 14 36  1  0  0  0  0
 16 17  1  0  0  0  0
 17 23  2  0  0  0  0
 17 18  1  0  0  0  0
 18 19  2  0  0  0  0
 18 37  1  0  0  0  0
 19 20  1  0  0  0  0
 19 21  1  0  0  0  0
 21 22  2  0  0  0  0
 21 38  1  0  0  0  0
 22 23  1  0  0  0  0
 22 39  1  0  0  0  0
M  END
> <s_m_source_file>
AV-unprocessed.smi

> <i_m_source_file_index>
2874

> <i_lp_mmshare_version>
43012

> <i_f3d_flags>
0

> <s_epik_input>
W2NIXTFjKENsKVtjSF1bY0hdYyhjMTIpbihbQ0gyXVtDSDJdT1tDSDNdKWMobjIpU1tDSDJdYzNuW2NIXVtjSF1jKG4zKVtOSDJd

> <s_epik_cmdline>
J2VwaWtfcHl0aG9uJywgJy1waCcsICc3LjAnLCAnLXRuJywgJzgnLCAnLW1hJywgJzIwMCcsICctbWV0YWxfYmluZGluZycsICctaW1hZScsICc8aW5maWxlLm1hZT4nLCAnLW9tYWUnLCAnPG91dGZpbGUubWFlPic=

> <r_lp_tautomer_probability>
1

> <r_epik_Ionization_Penalty>
0.0126717

> <r_epik_Ionization_Penalty_Charging>
0

> <r_epik_Ionization_Penalty_Neutral>
0.0126717

> <r_epik_State_Penalty>
0.00687269

> <r_epik_Charging_Adjusted_Penalty>
0.00687269

> <i_epik_Tot_Q>
0

> <i_epik_Tot_abs_Q>
0

> <r_epik_Metal_State_Penalty>
0.00678378

> <b_epik_Metal_Only>
0

> <s_lp_Force_Field>
OPLS_2005

> <r_lp_Energy>
1.60018

> <b_lp_Chiralities_Consistent>
1

> <s_lp_Variant>
AV-unprocessed.smi:2874-1

> <Gold.Version>
5.8.1

> <Gold.Id.Protein>
6NUR|6NUR_protein|mol2

> <Gold.PLP.Fitness>
50.5887

> <Gold.PLP.PLP>
-46.1333

> <Gold.PLP.part.hbond>
-2.0000

> <Gold.PLP.part.metal>
0.0000

> <Gold.PLP.part.buried>
-4.6842

> <Gold.PLP.part.nonpolar>
-39.1553

> <Gold.PLP.part.repulsive>
0.3250

> <Gold.PLP.ligand.clash>
0.0000

> <Gold.PLP.ligand.torsion>
0.8155

> <Gold.PLP.Chemscore.Hbond>
2.0000

> <Gold.PLP.Chemscore.CHOScore>
0.0000

> <Gold.PLP.Chemscore.Metal>
0.0000

> <Gold.Chemscore.Hbonds>
donor molecule, donor type, donor heavy atom, donor atom, acceptor molecule, acceptor atom, score
      L1  H    14    36       P1  7948  1.00
      P1  H  7997  8008       L1    16  1.00

> <Gold.PLP.Chemscore.Internal.Correction>
0.0864

> <Gold.Rescore>
     Score         DG    S(hbond)    S(metal)    S(lipo)     H(rot)  DE(clash)    DE(int)     intcor
     15.65     -17.95       1.50        0.00     117.10       2.44       0.08       2.22       ----

> <Gold.Chemscore.Fitness>
15.6472

> <Gold.Chemscore.DG>
-17.9503

> <Gold.Chemscore.ZeroCoef>
-5.4800

> <Gold.Chemscore.Hbond>
1.5038

> <Gold.Chemscore.Metal>
0.0000

> <Gold.Chemscore.Lipo>
117.1011

> <Gold.Chemscore.Internal_Hbond>
0.0000

> <Gold.Chemscore.DEClash>
0.0820

> <Gold.Chemscore.DEInternal>
2.2211

> <Gold.Chemscore.Rot>
2.4426

> <Gold.Chemscore.Internal.Correction>
   9.000000E+99

> <Gold.Chemscore.Hbonds>
donor molecule, donor type, donor heavy atom, donor atom, acceptor molecule, acceptor atom, score
      L1  H    14    36       P1  7948  0.45
      P1  H  7997  8008       L1    16  0.29

> <Gold.Chemscore.Hbond.Weighted>
-5.0226

> <Gold.Chemscore.Metal.Weighted>
-0.0000

> <Gold.Chemscore.Lipo.Weighted>
-13.7008

> <Gold.Chemscore.Internal_Hbond.Weighted>
0.0000

> <Gold.Chemscore.DEClash.Weighted>
0.0820

> <Gold.Chemscore.DEInternal.Weighted>
2.2211

> <Gold.Chemscore.Rot.Weighted>
6.2531

> <Gold.Chemscore.Internal.Correction.Weighted>
   9.000000E+99

> <Gold.Protein.RotatedTorsions>
[ 6907 6896 6895 6894 ] final  148.27 input  -60.11 | X-H torsion
[ 7974 7965 7964 7962 ] final  143.63 input  175.53 | X-H torsion
[ 8008 7997 7996 7995 ] final  -67.09 input   59.86 | X-H torsion
[ 10167 10162 10161 10158 ] final  -98.74 input  -65.29 | X-H torsion
[ 10718 10713 10712 10709 ] final  -15.21 input   66.30 | X-H torsion
[ 10763 10752 10751 10750 ] final   42.68 input  -60.55 | X-H torsion
[ 11005 11000 10999 10996 ] final  178.29 input  -57.11 | X-H torsion

> <Gold.Protein.ActiveResidues>
 VAL166  LYS551  ARG553  GLY616  TRP617  ASP618  TYR619  PRO620  LYS621  CYS622 
 ASP623  PHE694  ASN695  SER759  ASP760  ASP761  ALA762  ILE779  LEU786  VAL792 
 PHE793  MET794  SER795  GLU796  ALA797  LYS798  CYS799  TRP800  GLU811  SER814 

> <Gold.Protein.RotatedAtoms>
  152.1437  133.4479  159.4778 H   0  0  0  0  0  0  0  0  0  0  0  0  # atno 6907 bound_to 6896
  150.6888  134.2274  159.4430 H   0  0  0  0  0  0  0  0  0  0  0  0  # atno 6908 bound_to 6896
  152.0167  134.9845  160.0620 H   0  0  0  0  0  0  0  0  0  0  0  0  # atno 6909 bound_to 6896
  144.8905  139.5566  143.5801 H   0  0  0  0  0  0  0  0  0  0  0  0  # atno 7974 bound_to 7965
  154.4777  140.0899  156.7301 H   0  0  0  0  0  0  0  0  0  0  0  0  # atno 8008 bound_to 7997
  155.4554  140.3459  155.4287 H   0  0  0  0  0  0  0  0  0  0  0  0  # atno 8009 bound_to 7997
  156.1142  140.1456  156.9285 H   0  0  0  0  0  0  0  0  0  0  0  0  # atno 8010 bound_to 7997
  140.2698  143.3351  152.0545 H   0  0  0  0  0  0  0  0  0  0  0  0  # atno 10167 bound_to 10162
  156.6050  130.4834  149.6224 H   0  0  0  0  0  0  0  0  0  0  0  0  # atno 10718 bound_to 10713
  152.9877  135.6124  154.2989 H   0  0  0  0  0  0  0  0  0  0  0  0  # atno 10763 bound_to 10752
  154.2711  135.2779  155.2740 H   0  0  0  0  0  0  0  0  0  0  0  0  # atno 10764 bound_to 10752
  154.5122  135.5838  153.6670 H   0  0  0  0  0  0  0  0  0  0  0  0  # atno 10765 bound_to 10752
  140.3935  134.6841  157.4521 H   0  0  0  0  0  0  0  0  0  0  0  0  # atno 11005 bound_to 11000
  146.3050  139.7552  142.9062 LP  0  0  0  0  0  0  0  0  0  0  0  0  # atno 17320 bound_to 7965
  145.3792  141.0355  143.3187 LP  0  0  0  0  0  0  0  0  0  0  0  0  # atno 17321 bound_to 7965
  139.4992  144.6664  151.6347 LP  0  0  0  0  0  0  0  0  0  0  0  0  # atno 17342 bound_to 10162
  140.5899  143.9798  150.6318 LP  0  0  0  0  0  0  0  0  0  0  0  0  # atno 17343 bound_to 10162
  156.2437  130.6866  151.1580 LP  0  0  0  0  0  0  0  0  0  0  0  0  # atno 17370 bound_to 10713
  157.7269  131.0642  150.5887 LP  0  0  0  0  0  0  0  0  0  0  0  0  # atno 17371 bound_to 10713
  140.0389  134.6296  155.9007 LP  0  0  0  0  0  0  0  0  0  0  0  0  # atno 17394 bound_to 11000
  141.1882  133.6562  156.5316 LP  0  0  0  0  0  0  0  0  0  0  0  0  # atno 17395 bound_to 11000

$$$$
