AV-unprocessed.smi:404|AV-procd|sdf|2497|dock8
  -GOLD-   2262022443D 1   1.00000     0.00000
 Structure written by MMmdl.
 44 45  0  0  0  0  0  0  0  0  1 V2000
  149.0044  141.1218  154.1646 C   0  0  0  0  0  0  0  0  0  0  0  0
  149.2831  139.7107  154.5975 C   0  0  0  0  0  0  0  0  0  0  0  0
  148.2951  138.8315  154.6187 N   0  0  0  0  0  0  0  0  0  0  0  0
  148.8619  137.6870  155.0503 N   0  0  0  0  0  0  0  0  0  0  0  0
  148.0441  136.4984  155.1952 C   0  0  0  0  0  0  0  0  0  0  0  0
  150.2101  137.8442  155.3052 C   0  0  0  0  0  0  0  0  0  0  0  0
  151.0620  136.7214  155.8030 C   0  0  0  0  0  0  0  0  0  0  0  0
  150.5227  139.1470  155.0208 C   0  0  0  0  0  0  0  0  0  0  0  0
  151.8567  139.8405  155.1304 C   0  0  0  0  0  0  0  0  0  0  0  0
  152.3138  139.8438  156.5888 C   0  0  0  0  0  0  0  0  0  0  0  0
  152.8936  138.8622  157.0530 O   0  0  0  0  0  0  0  0  0  0  0  0
  152.0447  140.9516  157.2973 N   0  0  0  0  0  0  0  0  0  0  0  0
  152.3612  141.1578  158.7076 C   0  0  0  0  0  0  0  0  0  0  0  0
  151.8525  142.5153  159.2374 C   0  0  0  0  0  0  0  0  0  0  0  0
  152.1385  143.6856  158.2689 C   0  0  0  0  0  0  0  0  0  0  0  0
  151.6514  145.0302  158.8338 C   0  0  0  0  0  0  0  0  0  0  0  0
  152.2572  145.3100  160.2168 C   0  0  0  0  0  0  0  0  0  0  0  0
  151.9640  144.1575  161.1880 C   0  0  0  0  0  0  0  0  0  0  0  0
  152.4599  142.8167  160.6233 C   0  0  0  0  0  0  0  0  0  0  0  0
  149.0712  141.8068  155.0097 H   0  0  0  0  0  0  0  0  0  0  0  0
  148.0078  141.2239  153.7332 H   0  0  0  0  0  0  0  0  0  0  0  0
  149.7231  141.4492  153.4135 H   0  0  0  0  0  0  0  0  0  0  0  0
  148.5070  135.6661  154.6642 H   0  0  0  0  0  0  0  0  0  0  0  0
  147.0463  136.6646  154.7863 H   0  0  0  0  0  0  0  0  0  0  0  0
  147.9556  136.2428  156.2516 H   0  0  0  0  0  0  0  0  0  0  0  0
  152.0678  137.0645  156.0449 H   0  0  0  0  0  0  0  0  0  0  0  0
  151.1470  135.9373  155.0503 H   0  0  0  0  0  0  0  0  0  0  0  0
  150.6358  136.2818  156.7049 H   0  0  0  0  0  0  0  0  0  0  0  0
  152.6157  139.3437  154.5253 H   0  0  0  0  0  0  0  0  0  0  0  0
  151.8059  140.8653  154.7606 H   0  0  0  0  0  0  0  0  0  0  0  0
  151.5657  141.7056  156.8265 H   0  0  0  0  0  0  0  0  0  0  0  0
  151.8850  140.3489  159.2624 H   0  0  0  0  0  0  0  0  0  0  0  0
  153.4326  141.0553  158.8888 H   0  0  0  0  0  0  0  0  0  0  0  0
  150.7709  142.4395  159.3612 H   0  0  0  0  0  0  0  0  0  0  0  0
  153.2090  143.7418  158.0671 H   0  0  0  0  0  0  0  0  0  0  0  0
  151.6531  143.5136  157.3084 H   0  0  0  0  0  0  0  0  0  0  0  0
  151.9087  145.8362  158.1461 H   0  0  0  0  0  0  0  0  0  0  0  0
  150.5632  145.0221  158.9069 H   0  0  0  0  0  0  0  0  0  0  0  0
  153.3355  145.4459  160.1239 H   0  0  0  0  0  0  0  0  0  0  0  0
  151.8601  146.2439  160.6158 H   0  0  0  0  0  0  0  0  0  0  0  0
  152.4373  144.3534  162.1505 H   0  0  0  0  0  0  0  0  0  0  0  0
  150.8912  144.1012  161.3766 H   0  0  0  0  0  0  0  0  0  0  0  0
  152.2107  142.0170  161.3216 H   0  0  0  0  0  0  0  0  0  0  0  0
  153.5483  142.8344  160.5522 H   0  0  0  0  0  0  0  0  0  0  0  0
  1  2  1  0  0  0  0
  1 20  1  0  0  0  0
  1 21  1  0  0  0  0
  1 22  1  0  0  0  0
  2  8  1  0  0  0  0
  2  3  2  0  0  0  0
  3  4  1  0  0  0  0
  4  5  1  0  0  0  0
  4  6  1  0  0  0  0
  5 23  1  0  0  0  0
  5 24  1  0  0  0  0
  5 25  1  0  0  0  0
  6  7  1  0  0  0  0
  6  8  2  0  0  0  0
  7 26  1  0  0  0  0
  7 27  1  0  0  0  0
  7 28  1  0  0  0  0
  8  9  1  0  0  0  0
  9 10  1  0  0  0  0
  9 29  1  0  0  0  0
  9 30  1  0  0  0  0
 10 11  2  0  0  0  0
 10 12  1  0  0  0  0
 12 13  1  0  0  0  0
 12 31  1  0  0  0  0
 13 14  1  0  0  0  0
 13 32  1  0  0  0  0
 13 33  1  0  0  0  0
 14 19  1  0  0  0  0
 14 15  1  0  0  0  0
 14 34  1  0  0  0  0
 15 16  1  0  0  0  0
 15 35  1  0  0  0  0
 15 36  1  0  0  0  0
 16 17  1  0  0  0  0
 16 37  1  0  0  0  0
 16 38  1  0  0  0  0
 17 18  1  0  0  0  0
 17 39  1  0  0  0  0
 17 40  1  0  0  0  0
 18 19  1  0  0  0  0
 18 41  1  0  0  0  0
 18 42  1  0  0  0  0
 19 43  1  0  0  0  0
 19 44  1  0  0  0  0
M  END
> <s_m_source_file>
AV-unprocessed.smi

> <i_m_source_file_index>
404

> <i_lp_mmshare_version>
43012

> <i_f3d_flags>
0

> <s_epik_input>
W0NIM11jMW5uKFtDSDNdKWMoW0NIM10pYzFbQ0gyXUMoPU8pW05IXVtDSDJdW0NIXTJbQ0gyXVtDSDJdW0NIMl1bQ0gyXVtDSDJdMg==

> <s_epik_cmdline>
J2VwaWtfcHl0aG9uJywgJy1waCcsICc3LjAnLCAnLXRuJywgJzgnLCAnLW1hJywgJzIwMCcsICctbWV0YWxfYmluZGluZycsICctaW1hZScsICc8aW5maWxlLm1hZT4nLCAnLW9tYWUnLCAnPG91dGZpbGUubWFlPic=

> <r_lp_tautomer_probability>
1

> <r_epik_Ionization_Penalty>
0.00317479

> <r_epik_Ionization_Penalty_Charging>
0

> <r_epik_Ionization_Penalty_Neutral>
0.00317479

> <r_epik_State_Penalty>
0.00223767

> <r_epik_Charging_Adjusted_Penalty>
0.00223767

> <i_epik_Tot_Q>
0

> <i_epik_Tot_abs_Q>
0

> <r_epik_Metal_State_Penalty>
-0

> <b_epik_Metal_Only>
0

> <s_lp_Force_Field>
OPLS_2005

> <r_lp_Energy>
5.4513

> <b_lp_Chiralities_Consistent>
1

> <s_lp_Variant>
AV-unprocessed.smi:404-1

> <Gold.Version>
5.8.1

> <Gold.Id.Protein>
6NUR|6NUR_protein|mol2

> <Gold.PLP.Fitness>
37.6104

> <Gold.PLP.PLP>
-37.1508

> <Gold.PLP.part.hbond>
-1.0000

> <Gold.PLP.part.metal>
0.0000

> <Gold.PLP.part.buried>
-0.3355

> <Gold.PLP.part.nonpolar>
-36.2869

> <Gold.PLP.part.repulsive>
0.2229

> <Gold.PLP.ligand.clash>
0.0000

> <Gold.PLP.ligand.torsion>
0.4446

> <Gold.PLP.Chemscore.Hbond>
0.4473

> <Gold.PLP.Chemscore.CHOScore>
0.0000

> <Gold.PLP.Chemscore.Metal>
0.0000

> <Gold.Chemscore.Hbonds>
donor molecule, donor type, donor heavy atom, donor atom, acceptor molecule, acceptor atom, score
      P1  H  7997  8009       L1    11  0.23

> <Gold.PLP.Chemscore.Internal.Correction>
0.0070

> <Gold.Rescore>
     Score         DG    S(hbond)    S(metal)    S(lipo)     H(rot)  DE(clash)    DE(int)     intcor
     14.82     -15.69       0.00        0.00     117.34       1.38       0.44       0.43       ----

> <Gold.Chemscore.Fitness>
14.8190

> <Gold.Chemscore.DG>
-15.6905

> <Gold.Chemscore.ZeroCoef>
-5.4800

> <Gold.Chemscore.Hbond>
0.0020

> <Gold.Chemscore.Metal>
0.0000

> <Gold.Chemscore.Lipo>
117.3362

> <Gold.Chemscore.Internal_Hbond>
0.0000

> <Gold.Chemscore.DEClash>
0.4413

> <Gold.Chemscore.DEInternal>
0.4302

> <Gold.Chemscore.Rot>
1.3768

> <Gold.Chemscore.Internal.Correction>
   9.000000E+99

> <Gold.Chemscore.Hbonds>
donor molecule, donor type, donor heavy atom, donor atom, acceptor molecule, acceptor atom, score
      P1  H  7997  8009       L1    11  0.01

> <Gold.Chemscore.Hbond.Weighted>
-0.0066

> <Gold.Chemscore.Metal.Weighted>
-0.0000

> <Gold.Chemscore.Lipo.Weighted>
-13.7283

> <Gold.Chemscore.Internal_Hbond.Weighted>
0.0000

> <Gold.Chemscore.DEClash.Weighted>
0.4413

> <Gold.Chemscore.DEInternal.Weighted>
0.4302

> <Gold.Chemscore.Rot.Weighted>
3.5245

> <Gold.Chemscore.Internal.Correction.Weighted>
   9.000000E+99

> <Gold.Protein.RotatedTorsions>
[ 6907 6896 6895 6894 ] final   92.46 input  -60.11 | X-H torsion
[ 7974 7965 7964 7962 ] final  -66.51 input  175.53 | X-H torsion
[ 8008 7997 7996 7995 ] final  146.65 input   59.86 | X-H torsion
[ 10167 10162 10161 10158 ] final   42.18 input  -65.29 | X-H torsion
[ 10718 10713 10712 10709 ] final   53.47 input   66.30 | X-H torsion
[ 10763 10752 10751 10750 ] final  112.18 input  -60.55 | X-H torsion
[ 11005 11000 10999 10996 ] final    4.36 input  -57.11 | X-H torsion

> <Gold.Protein.ActiveResidues>
 VAL166  LYS551  ARG553  GLY616  TRP617  ASP618  TYR619  PRO620  LYS621  CYS622 
 ASP623  PHE694  ASN695  SER759  ASP760  ASP761  ALA762  ILE779  LEU786  VAL792 
 PHE793  MET794  SER795  GLU796  ALA797  LYS798  CYS799  TRP800  GLU811  SER814 

> <Gold.Protein.RotatedAtoms>
  152.5452  134.1498  159.8513 H   0  0  0  0  0  0  0  0  0  0  0  0  # atno 6907 bound_to 6896
  151.1526  133.4890  159.2602 H   0  0  0  0  0  0  0  0  0  0  0  0  # atno 6908 bound_to 6896
  151.1456  135.0212  159.8700 H   0  0  0  0  0  0  0  0  0  0  0  0  # atno 6909 bound_to 6896
  145.7408  140.8954  143.0531 H   0  0  0  0  0  0  0  0  0  0  0  0  # atno 7974 bound_to 7965
  156.2849  140.2177  156.5411 H   0  0  0  0  0  0  0  0  0  0  0  0  # atno 8008 bound_to 7997
  154.7369  140.0491  157.0799 H   0  0  0  0  0  0  0  0  0  0  0  0  # atno 8009 bound_to 7997
  155.0281  140.3132  155.4771 H   0  0  0  0  0  0  0  0  0  0  0  0  # atno 8010 bound_to 7997
  140.3569  144.2278  150.6141 H   0  0  0  0  0  0  0  0  0  0  0  0  # atno 10167 bound_to 10162
  157.5170  130.8539  149.8508 H   0  0  0  0  0  0  0  0  0  0  0  0  # atno 10718 bound_to 10713
  153.4741  135.3694  155.2407 H   0  0  0  0  0  0  0  0  0  0  0  0  # atno 10763 bound_to 10752
  154.8756  135.3938  154.3777 H   0  0  0  0  0  0  0  0  0  0  0  0  # atno 10764 bound_to 10752
  153.4370  135.7083  153.6258 H   0  0  0  0  0  0  0  0  0  0  0  0  # atno 10765 bound_to 10752
  140.5828  133.9997  155.8055 H   0  0  0  0  0  0  0  0  0  0  0  0  # atno 11005 bound_to 11000
  144.6871  139.9458  143.7476 LP  0  0  0  0  0  0  0  0  0  0  0  0  # atno 17320 bound_to 7965
  146.0449  139.3456  143.0674 LP  0  0  0  0  0  0  0  0  0  0  0  0  # atno 17321 bound_to 7965
  140.5165  143.2277  151.8456 LP  0  0  0  0  0  0  0  0  0  0  0  0  # atno 17342 bound_to 10162
  139.4819  144.4888  151.9211 LP  0  0  0  0  0  0  0  0  0  0  0  0  # atno 17343 bound_to 10162
  156.0327  130.3760  150.1644 LP  0  0  0  0  0  0  0  0  0  0  0  0  # atno 17370 bound_to 10713
  156.9833  130.9871  151.3432 LP  0  0  0  0  0  0  0  0  0  0  0  0  # atno 17371 bound_to 10713
  141.0985  133.9805  157.3119 LP  0  0  0  0  0  0  0  0  0  0  0  0  # atno 17394 bound_to 11000
  139.9309  135.0200  156.8398 LP  0  0  0  0  0  0  0  0  0  0  0  0  # atno 17395 bound_to 11000

$$$$
