#       Name:                AV-unprocessed.smi:264
#       Creating user name   scv26
#       Creation time:       Thu Mar 26 21:21:27 2020


#       File generated by GOLD software.
#

@<TRIPOS>MOLECULE
AV-unprocessed.smi:264
    64    68     1
SMALL
NO_CHARGES


@<TRIPOS>ATOM
      1 ****        -2.0074  -4.0850  -4.7169 C.3            1 S1                 0.0000
      2 ****        -3.0005  -3.1667  -3.9872 C.3            1 S1                 0.0000
      3 ****        -4.0157  -3.9918  -3.4206 O.3            1 S1                 0.0000
      4 ****        -4.5034  -3.3751  -2.2424 C.3            1 S1                 0.0000
      5 ****        -3.2315  -2.8336  -1.6086 C.3            1 S1                 0.0000
      6 ****        -2.4398  -2.3204  -2.8087 C.3            1 S1                 0.0000
      7 ****        -2.8168  -0.9717  -3.0298 O.3            1 S1                 0.0000
      8 ****        -0.9027  -2.3616  -2.6020 C.3            1 S1                 0.0000
      9 ****        -0.4501  -1.5901  -1.4541 N.pl3          1 S1                 0.0000
     10 ****        -0.3303  -2.0345  -0.1566 C.2            1 S1                 0.0000
     11 ****         0.1049  -1.1491   0.6975 N.2            1 S1                 0.0000
     12 ****         0.3041  -0.0070  -0.0692 C.ar           1 S1                 0.0000
     13 ****         0.7713   1.3071   0.2146 C.ar           1 S1                 0.0000
     14 ****         1.1286   1.7015   1.4628 N.3            1 S1                 0.0000
     15 ****         0.0480   1.6948   2.4405 C.3            1 S1                 0.0000
     16 ****         0.6261   1.7945   3.8589 C.3            1 S1                 0.0000
     17 ****         1.4810   2.9320   3.9677 O.3            1 S1                 0.0000
     18 ****         2.5616   2.9739   3.0269 C.3            1 S1                 0.0000
     19 ****         3.6530   1.9589   3.3539 C.3            1 S1                 0.0000
     20 ****         4.4030   2.6501   4.4826 C.3            1 S1                 0.0000
     21 ****         4.4358   4.0120   4.0837 O.3            1 S1                 0.0000
     22 ****         3.3052   4.2988   3.2631 C.3            1 S1                 0.0000
     23 ****         2.0019   2.8642   1.5921 C.3            1 S1                 0.0000
     24 ****         0.8559   2.1788  -0.8261 N.ar           1 S1                 0.0000
     25 ****         0.5028   1.7970  -2.0571 C.ar           1 S1                 0.0000
     26 ****         0.0503   0.6100  -2.4649 N.ar           1 S1                 0.0000
     27 ****        -0.0332  -0.2705  -1.4270 C.ar           1 S1                 0.0000
     28 ****        -1.2068  -3.5140  -5.1874 H              1 S1                 0.0000
     29 ****        -2.5116  -4.6462  -5.5039 H              1 S1                 0.0000
     30 ****        -1.5582  -4.8104  -4.0383 H              1 S1                 0.0000
     31 ****        -3.4763  -2.5203  -4.7272 H              1 S1                 0.0000
     32 ****        -5.1903  -2.5682  -2.5026 H              1 S1                 0.0000
     33 ****        -5.0262  -4.0854  -1.6018 H              1 S1                 0.0000
     34 ****        -3.4190  -2.0768  -0.8453 H              1 S1                 0.0000
     35 ****        -2.6999  -3.6594  -1.1342 H              1 S1                 0.0000
     36 ****        -3.7514  -0.9402  -3.1656 H              1 S1                 0.0000
     37 ****        -0.5640  -3.3881  -2.4590 H              1 S1                 0.0000
     38 ****        -0.3893  -1.9877  -3.4887 H              1 S1                 0.0000
     39 ****        -0.5781  -3.0435   0.1397 H              1 S1                 0.0000
     40 ****        -0.6084   2.5442   2.2461 H              1 S1                 0.0000
     41 ****        -0.5644   0.7974   2.3588 H              1 S1                 0.0000
     42 ****        -0.1826   1.8967   4.5821 H              1 S1                 0.0000
     43 ****         1.1577   0.8810   4.1228 H              1 S1                 0.0000
     44 ****         3.2933   0.9683   3.6269 H              1 S1                 0.0000
     45 ****         4.3209   1.8385   2.4999 H              1 S1                 0.0000
     46 ****         3.8538   2.5620   5.4211 H              1 S1                 0.0000
     47 ****         5.4064   2.2511   4.6320 H              1 S1                 0.0000
     48 ****         3.6772   4.7139   2.3256 H              1 S1                 0.0000
     49 ****         2.6677   5.0540   3.7243 H              1 S1                 0.0000
     50 ****         2.8214   2.8048   0.8743 H              1 S1                 0.0000
     51 ****         1.4295   3.7616   1.3518 H              1 S1                 0.0000
     52 ****         0.5960   2.5506  -2.8250 H              1 S1                 0.0000
     53 ****        -3.6335  -4.8884  -3.1967 LP             1 S1                 0.0000
     54 ****        -4.7631  -4.1022  -4.0758 LP             1 S1                 0.0000
     55 ****        -2.3463  -0.6181  -3.8382 LP             1 S1                 0.0000
     56 ****        -2.5728  -0.4183  -2.2334 LP             1 S1                 0.0000
     57 ****         0.2596  -1.2656   1.6786 LP             1 S1                 0.0000
     58 ****         1.7401   0.9479   1.7040 LP             1 S1                 0.0000
     59 ****         1.8715   2.9389   4.8883 LP             1 S1                 0.0000
     60 ****         0.9238   3.7518   3.8359 LP             1 S1                 0.0000
     61 ****         5.2743   4.1873   3.5678 LP             1 S1                 0.0000
     62 ****         4.4150   4.5967   4.8947 LP             1 S1                 0.0000
     63 ****         1.1841   3.1103  -0.6692 LP             1 S1                 0.0000
     64 ****        -0.1958   0.3939  -3.4097 LP             1 S1                 0.0000
@<TRIPOS>BOND
    1    1    2 1     
    2    1   28 1     
    3    1   29 1     
    4    1   30 1     
    5    2    6 1     
    6    2    3 1     
    7    2   31 1     
    8    3    4 1     
    9    4    5 1     
   10    4   32 1     
   11    4   33 1     
   12    5    6 1     
   13    5   34 1     
   14    5   35 1     
   15    6    7 1     
   16    6    8 1     
   17    7   36 1     
   18    8    9 1     
   19    8   37 1     
   20    8   38 1     
   21    9   27 1     
   22    9   10 1     
   23   10   11 2     
   24   10   39 1     
   25   11   12 1     
   26   12   27 ar    
   27   12   13 ar    
   28   13   14 1     
   29   13   24 ar    
   30   14   23 1     
   31   14   15 1     
   32   15   16 1     
   33   15   40 1     
   34   15   41 1     
   35   16   17 1     
   36   16   42 1     
   37   16   43 1     
   38   17   18 1     
   39   18   22 1     
   40   18   19 1     
   41   18   23 1     
   42   19   20 1     
   43   19   44 1     
   44   19   45 1     
   45   20   21 1     
   46   20   46 1     
   47   20   47 1     
   48   21   22 1     
   49   22   48 1     
   50   22   49 1     
   51   23   50 1     
   52   23   51 1     
   53   24   25 ar    
   54   25   26 ar    
   55   25   52 1     
   56   26   27 ar    
   57    3   53 1     
   58    3   54 1     
   59    7   55 1     
   60    7   56 1     
   61   11   57 1     
   62   14   58 1     
   63   17   59 1     
   64   17   60 1     
   65   21   61 1     
   66   21   62 1     
   67   24   63 1     
   68   26   64 1     
@<TRIPOS>SUBSTRUCTURE
      1 S1             1
@<TRIPOS>SET
LONE_PAIRS      STATIC     ATOMS    <user>   **** ""
12 53 54 55 56 57 58 59 60 61 62 63 64
DONOR_HYDROGENS      STATIC     ATOMS    <user>   **** ""
1 36
ATOM$BLUE        STATIC     ATOMS    COLORGROUP SYSTEM
12 53 54 55 56 57 58 59 60 61 62 63 64
ATOM$RED        STATIC     ATOMS    COLORGROUP SYSTEM
1 36
