#       Name:                AV-unprocessed.smi:646
#       Creating user name   scv26
#       Creation time:       Fri Mar 27 00:08:53 2020


#       File generated by GOLD software.
#

@<TRIPOS>MOLECULE
AV-unprocessed.smi:646
    51    52     1
SMALL
NO_CHARGES


@<TRIPOS>ATOM
      1 ****        -4.5380  -0.3176   1.9635 C.3            1 S1                 0.0000
      2 ****        -3.6052   0.0634   0.9599 O.3            1 S1                 0.0000
      3 ****        -2.4670  -0.7866   0.7629 C.3            1 S1                 0.0000
      4 ****        -2.9110  -2.2233   0.4594 C.3            1 S1                 0.0000
      5 ****        -1.4210  -0.5369   1.8666 C.3            1 S1                 0.0000
      6 ****        -0.9329   0.6470   1.0340 C.3            1 S1                 0.0000
      7 ****         0.5168   0.7931   1.0570 N.am           1 S1                 0.0000
      8 ****         1.1875   1.7929   0.4665 C.2            1 S1                 0.0000
      9 ****         0.6405   2.7550  -0.0718 O.2            1 S1                 0.0000
     10 ****         2.7096   1.6657   0.4462 C.3            1 S1                 0.0000
     11 ****         3.1040   0.6586  -0.6039 C.2            1 S1                 0.0000
     12 ****         3.2751   0.8746  -2.0015 C.2            1 S1                 0.0000
     13 ****         3.1117   2.1515  -2.7746 C.3            1 S1                 0.0000
     14 ****         3.6075  -0.2367  -2.6364 N.2            1 S1                 0.0000
     15 ****         3.6634  -1.2343  -1.6586 O.3            1 S1                 0.0000
     16 ****         3.3571  -0.6781  -0.4592 C.2            1 S1                 0.0000
     17 ****         3.3500  -1.5949   0.7168 C.3            1 S1                 0.0000
     18 ****        -1.4843  -0.0746  -0.2229 C.3            1 S1                 0.0000
     19 ****        -0.5051  -0.9941  -0.9797 C.3            1 S1                 0.0000
     20 ****        -2.1139   0.8281  -1.2894 C.3            1 S1                 0.0000
     21 ****        -5.2446   0.4974   2.1199 H              1 S1                 0.0000
     22 ****        -4.0590  -0.5280   2.9192 H              1 S1                 0.0000
     23 ****        -5.1162  -1.1904   1.6608 H              1 S1                 0.0000
     24 ****        -2.0661  -2.8650   0.2119 H              1 S1                 0.0000
     25 ****        -3.6025  -2.2542  -0.3829 H              1 S1                 0.0000
     26 ****        -3.4019  -2.6884   1.3139 H              1 S1                 0.0000
     27 ****        -1.8130  -0.2635   2.8457 H              1 S1                 0.0000
     28 ****        -0.6912  -1.3444   1.9492 H              1 S1                 0.0000
     29 ****        -1.4773   1.5629   1.2755 H              1 S1                 0.0000
     30 ****         1.0479   0.0442   1.4767 H              1 S1                 0.0000
     31 ****         3.1489   2.6435   0.2451 H              1 S1                 0.0000
     32 ****         3.0601   1.3735   1.4368 H              1 S1                 0.0000
     33 ****         3.6121   2.9793  -2.2722 H              1 S1                 0.0000
     34 ****         2.0577   2.4120  -2.8735 H              1 S1                 0.0000
     35 ****         3.5314   2.0733  -3.7783 H              1 S1                 0.0000
     36 ****         2.7041  -1.2127   1.5071 H              1 S1                 0.0000
     37 ****         4.3547  -1.7053   1.1242 H              1 S1                 0.0000
     38 ****         2.9863  -2.5837   0.4367 H              1 S1                 0.0000
     39 ****         0.2538  -0.4228  -1.5155 H              1 S1                 0.0000
     40 ****        -1.0230  -1.6081  -1.7172 H              1 S1                 0.0000
     41 ****         0.0243  -1.6732  -0.3111 H              1 S1                 0.0000
     42 ****        -1.3540   1.3346  -1.8856 H              1 S1                 0.0000
     43 ****        -2.7349   1.6084  -0.8491 H              1 S1                 0.0000
     44 ****        -2.7441   0.2578  -1.9722 H              1 S1                 0.0000
     45 ****        -3.2635   0.9728   1.1971 LP             1 S1                 0.0000
     46 ****        -4.0997   0.1091   0.0920 LP             1 S1                 0.0000
     47 ****        -0.3572   2.8203  -0.0842 LP             1 S1                 0.0000
     48 ****         1.1939   3.4714  -0.4968 LP             1 S1                 0.0000
     49 ****         3.7830  -0.3419  -3.6153 LP             1 S1                 0.0000
     50 ****         4.5843  -1.6228  -1.6251 LP             1 S1                 0.0000
     51 ****         3.0050  -1.9554  -1.8742 LP             1 S1                 0.0000
@<TRIPOS>BOND
    1    1    2 1     
    2    1   21 1     
    3    1   22 1     
    4    1   23 1     
    5    2    3 1     
    6    3   18 1     
    7    3    4 1     
    8    3    5 1     
    9    4   24 1     
   10    4   25 1     
   11    4   26 1     
   12    5    6 1     
   13    5   27 1     
   14    5   28 1     
   15    6    7 1     
   16    6   18 1     
   17    6   29 1     
   18    7    8 am    
   19    7   30 1     
   20    8    9 2     
   21    8   10 1     
   22   10   11 1     
   23   10   31 1     
   24   10   32 1     
   25   11   16 2     
   26   11   12 1     
   27   12   13 1     
   28   12   14 2     
   29   13   33 1     
   30   13   34 1     
   31   13   35 1     
   32   14   15 1     
   33   15   16 1     
   34   16   17 1     
   35   17   36 1     
   36   17   37 1     
   37   17   38 1     
   38   18   19 1     
   39   18   20 1     
   40   19   39 1     
   41   19   40 1     
   42   19   41 1     
   43   20   42 1     
   44   20   43 1     
   45   20   44 1     
   46    2   45 1     
   47    2   46 1     
   48    9   47 1     
   49    9   48 1     
   50   14   49 1     
   51   15   50 1     
   52   15   51 1     
@<TRIPOS>SUBSTRUCTURE
      1 S1             1
@<TRIPOS>SET
LONE_PAIRS      STATIC     ATOMS    <user>   **** ""
7 45 46 47 48 49 50 51
DONOR_HYDROGENS      STATIC     ATOMS    <user>   **** ""
1 30
ATOM$BLUE        STATIC     ATOMS    COLORGROUP SYSTEM
7 45 46 47 48 49 50 51
ATOM$RED        STATIC     ATOMS    COLORGROUP SYSTEM
1 30
