#       Name:                AV-unprocessed.smi:1233
#       Creating user name   scv26
#       Creation time:       Fri Mar 27 04:24:50 2020


#       File generated by GOLD software.
#

@<TRIPOS>MOLECULE
AV-unprocessed.smi:1233
    45    46     1
SMALL
NO_CHARGES


@<TRIPOS>ATOM
      1 ****        -2.1482   5.1581   0.3012 C.3            1 S1                 0.0000
      2 ****        -1.3721   3.9675   0.2186 O.3            1 S1                 0.0000
      3 ****        -0.0001   4.0622   0.3578 C.ar           1 S1                 0.0000
      4 ****         0.5426   5.2901   0.5549 N.ar           1 S1                 0.0000
      5 ****         1.8803   5.3874   0.6914 C.ar           1 S1                 0.0000
      6 ****         2.7411   4.2765   0.6402 C.ar           1 S1                 0.0000
      7 ****         2.1813   3.0016   0.4365 C.ar           1 S1                 0.0000
      8 ****         0.7767   2.8809   0.2896 C.ar           1 S1                 0.0000
      9 ****         0.0883   1.6515   0.0786 N.am           1 S1                 0.0000
     10 ****         0.5675   0.4002  -0.0316 C.2            1 S1                 0.0000
     11 ****         1.7518   0.0738   0.0336 O.2            1 S1                 0.0000
     12 ****        -0.4281  -0.4765  -0.2263 N.am           1 S1                 0.0000
     13 ****        -0.2749  -1.9193  -0.4233 C.3            1 S1                 0.0000
     14 ****        -0.1608  -2.6356   0.9413 C.3            1 S1                 0.0000
     15 ****         0.5310  -4.0066   0.8714 C.3            1 S1                 0.0000
     16 ****        -0.2048  -5.0584   0.0279 C.3            1 S1                 0.0000
     17 ****        -0.2789  -4.7095  -1.4687 C.3            1 S1                 0.0000
     18 ****        -1.3193  -3.7332  -1.7670 N.am           1 S1                 0.0000
     19 ****        -1.3923  -2.4660  -1.3319 C.2            1 S1                 0.0000
     20 ****        -2.3438  -1.7519  -1.6479 O.2            1 S1                 0.0000
     21 ****        -3.2020   4.9108   0.1740 H              1 S1                 0.0000
     22 ****        -1.8781   5.8669  -0.4828 H              1 S1                 0.0000
     23 ****        -2.0372   5.6395   1.2740 H              1 S1                 0.0000
     24 ****         2.2762   6.3802   0.8462 H              1 S1                 0.0000
     25 ****         3.8079   4.3995   0.7551 H              1 S1                 0.0000
     26 ****         2.8469   2.1551   0.3995 H              1 S1                 0.0000
     27 ****        -0.9141   1.7404  -0.0025 H              1 S1                 0.0000
     28 ****        -1.3715  -0.1194  -0.2720 H              1 S1                 0.0000
     29 ****         0.6591  -2.0655  -0.9693 H              1 S1                 0.0000
     30 ****         0.4159  -2.0182   1.6314 H              1 S1                 0.0000
     31 ****        -1.1479  -2.7382   1.3946 H              1 S1                 0.0000
     32 ****         1.5468  -3.8830   0.4940 H              1 S1                 0.0000
     33 ****         0.6376  -4.3909   1.8864 H              1 S1                 0.0000
     34 ****         0.3290  -6.0037   0.1320 H              1 S1                 0.0000
     35 ****        -1.2041  -5.2355   0.4275 H              1 S1                 0.0000
     36 ****         0.6859  -4.3637  -1.8422 H              1 S1                 0.0000
     37 ****        -0.5190  -5.6109  -2.0331 H              1 S1                 0.0000
     38 ****        -2.0702  -4.0545  -2.3607 H              1 S1                 0.0000
     39 ****        -1.5503   3.5608  -0.6774 LP             1 S1                 0.0000
     40 ****        -1.6994   3.3516   0.9353 LP             1 S1                 0.0000
     41 ****        -0.0364   6.1042   0.5980 LP             1 S1                 0.0000
     42 ****         2.4549   0.7695   0.1809 LP             1 S1                 0.0000
     43 ****         2.0115  -0.8873  -0.0606 LP             1 S1                 0.0000
     44 ****        -2.3948  -0.8106  -1.3144 LP             1 S1                 0.0000
     45 ****        -3.0657  -2.1132  -2.2380 LP             1 S1                 0.0000
@<TRIPOS>BOND
    1    1    2 1     
    2    1   21 1     
    3    1   22 1     
    4    1   23 1     
    5    2    3 1     
    6    3    8 ar    
    7    3    4 ar    
    8    4    5 ar    
    9    5    6 ar    
   10    5   24 1     
   11    6    7 ar    
   12    6   25 1     
   13    7    8 ar    
   14    7   26 1     
   15    8    9 1     
   16    9   10 am    
   17    9   27 1     
   18   10   11 2     
   19   10   12 am    
   20   12   13 1     
   21   12   28 1     
   22   13   19 1     
   23   13   14 1     
   24   13   29 1     
   25   14   15 1     
   26   14   30 1     
   27   14   31 1     
   28   15   16 1     
   29   15   32 1     
   30   15   33 1     
   31   16   17 1     
   32   16   34 1     
   33   16   35 1     
   34   17   18 1     
   35   17   36 1     
   36   17   37 1     
   37   18   19 am    
   38   18   38 1     
   39   19   20 2     
   40    2   39 1     
   41    2   40 1     
   42    4   41 1     
   43   11   42 1     
   44   11   43 1     
   45   20   44 1     
   46   20   45 1     
@<TRIPOS>SUBSTRUCTURE
      1 S1             1
@<TRIPOS>SET
LONE_PAIRS      STATIC     ATOMS    <user>   **** ""
7 39 40 41 42 43 44 45
DONOR_HYDROGENS      STATIC     ATOMS    <user>   **** ""
3 27 28 38
ATOM$BLUE        STATIC     ATOMS    COLORGROUP SYSTEM
7 39 40 41 42 43 44 45
ATOM$RED        STATIC     ATOMS    COLORGROUP SYSTEM
3 27 28 38
