AV-unprocessed.smi:977|AV-procd|sdf|4307|dock6
  -GOLD-   22720 2213D 1   1.00000     0.00000
 Structure written by MMmdl.
 37 38  0  0  0  0  0  0  0  0  1 V2000
  149.7466  132.3728  156.0464 C   0  0  0  0  0  0  0  0  0  0  0  0
  150.2323  133.7925  155.9499 C   0  0  0  0  0  0  0  0  0  0  0  0
  151.2357  134.1830  156.7222 N   0  0  0  0  0  0  0  0  0  0  0  0
  151.5192  135.5128  156.3745 O   0  0  0  0  0  0  0  0  0  0  0  0
  150.6689  135.9002  155.3883 C   0  0  0  0  0  0  0  0  0  0  0  0
  150.8238  137.2882  154.8652 C   0  0  0  0  0  0  0  0  0  0  0  0
  149.8240  134.8678  155.1066 C   0  0  0  0  0  0  0  0  0  0  0  0
  148.8183  134.8989  154.1085 N   0  0  0  0  0  0  0  0  0  0  0  0
  147.6420  134.2550  154.1321 C   0  0  0  0  0  0  0  0  0  0  0  0
  147.2367  133.5666  155.0680 O   0  0  0  0  0  0  0  0  0  0  0  0
  146.9462  134.4698  153.0063 N   0  0  0  0  0  0  0  0  0  0  0  0
  145.6235  133.9267  152.7003 C   0  0  1  0  0  0  0  0  0  0  0  0
  144.5596  134.9268  153.1756 C   0  0  0  0  0  0  0  0  0  0  0  0
  145.4952  133.6272  151.1916 C   0  0  1  0  0  0  0  0  0  0  0  0
  146.3542  132.4678  150.6822 C   0  0  0  0  0  0  0  0  0  0  0  0
  145.6223  132.0786  149.4189 C   0  0  0  0  0  0  0  0  0  0  0  0
  144.1638  132.2618  149.8300 C   0  0  0  0  0  0  0  0  0  0  0  0
  144.1622  133.2394  150.8683 O   0  0  0  0  0  0  0  0  0  0  0  0
  149.4172  132.0012  155.0761 H   0  0  0  0  0  0  0  0  0  0  0  0
  148.9098  132.2915  156.7402 H   0  0  0  0  0  0  0  0  0  0  0  0
  150.5329  131.7049  156.3994 H   0  0  0  0  0  0  0  0  0  0  0  0
  150.2479  137.4292  153.9506 H   0  0  0  0  0  0  0  0  0  0  0  0
  151.8689  137.5027  154.6413 H   0  0  0  0  0  0  0  0  0  0  0  0
  150.4779  138.0168  155.5984 H   0  0  0  0  0  0  0  0  0  0  0  0
  148.9751  135.5347  153.3402 H   0  0  0  0  0  0  0  0  0  0  0  0
  147.3654  135.0550  152.2986 H   0  0  0  0  0  0  0  0  0  0  0  0
  145.4699  132.9977  153.2525 H   0  0  0  0  0  0  0  0  0  0  0  0
  143.5534  134.5435  153.0044 H   0  0  0  0  0  0  0  0  0  0  0  0
  144.6459  135.8791  152.6511 H   0  0  0  0  0  0  0  0  0  0  0  0
  144.6556  135.1244  154.2438 H   0  0  0  0  0  0  0  0  0  0  0  0
  145.7298  134.5215  150.6112 H   0  0  0  0  0  0  0  0  0  0  0  0
  147.3922  132.7501  150.5037 H   0  0  0  0  0  0  0  0  0  0  0  0
  146.3406  131.6381  151.3906 H   0  0  0  0  0  0  0  0  0  0  0  0
  145.8763  132.7694  148.6137 H   0  0  0  0  0  0  0  0  0  0  0  0
  145.8482  131.0656  149.0852 H   0  0  0  0  0  0  0  0  0  0  0  0
  143.5369  132.5707  148.9930 H   0  0  0  0  0  0  0  0  0  0  0  0
  143.7586  131.3321  150.2312 H   0  0  0  0  0  0  0  0  0  0  0  0
  1  2  1  0  0  0  0
  1 19  1  0  0  0  0
  1 20  1  0  0  0  0
  1 21  1  0  0  0  0
  2  7  1  0  0  0  0
  2  3  2  0  0  0  0
  3  4  1  0  0  0  0
  4  5  1  0  0  0  0
  5  6  1  0  0  0  0
  5  7  2  0  0  0  0
  6 22  1  0  0  0  0
  6 23  1  0  0  0  0
  6 24  1  0  0  0  0
  7  8  1  0  0  0  0
  8  9  1  0  0  0  0
  8 25  1  0  0  0  0
  9 10  2  0  0  0  0
  9 11  1  0  0  0  0
 11 12  1  0  0  0  0
 11 26  1  0  0  0  0
 12 13  1  0  0  0  0
 12 14  1  0  0  0  0
 12 27  1  0  0  0  0
 13 28  1  0  0  0  0
 13 29  1  0  0  0  0
 13 30  1  0  0  0  0
 14 18  1  0  0  0  0
 14 15  1  0  0  0  0
 14 31  1  0  0  0  0
 15 16  1  0  0  0  0
 15 32  1  0  0  0  0
 15 33  1  0  0  0  0
 16 17  1  0  0  0  0
 16 34  1  0  0  0  0
 16 35  1  0  0  0  0
 17 18  1  0  0  0  0
 17 36  1  0  0  0  0
 17 37  1  0  0  0  0
M  END
> <s_m_source_file>
AV-unprocessed.smi

> <i_m_source_file_index>
977

> <i_lp_mmshare_version>
43012

> <i_f3d_flags>
0

> <s_epik_input>
W0NIM11jMW5vYyhbQ0gzXSljMVtOSF1DKD1PKVtOSF1bQ0BIXShbQ0gzXSlbQ0BASF0yW0NIMl1bQ0gyXVtDSDJdTzI=

> <s_epik_cmdline>
J2VwaWtfcHl0aG9uJywgJy1waCcsICc3LjAnLCAnLXRuJywgJzgnLCAnLW1hJywgJzIwMCcsICctbWV0YWxfYmluZGluZycsICctaW1hZScsICc8aW5maWxlLm1hZT4nLCAnLW9tYWUnLCAnPG91dGZpbGUubWFlPic=

> <r_lp_tautomer_probability>
1

> <r_epik_Ionization_Penalty>
3.41601e-05

> <r_epik_Ionization_Penalty_Charging>
0

> <r_epik_Ionization_Penalty_Neutral>
3.41601e-05

> <r_epik_State_Penalty>
-0

> <r_epik_Charging_Adjusted_Penalty>
0

> <i_epik_Tot_Q>
0

> <i_epik_Tot_abs_Q>
0

> <r_epik_Metal_State_Penalty>
-0

> <b_epik_Metal_Only>
0

> <s_lp_Force_Field>
OPLS_2005

> <r_lp_Energy>
19.4669

> <b_lp_Chiralities_Consistent>
1

> <s_lp_Variant>
AV-unprocessed.smi:977-4

> <Gold.Version>
5.8.1

> <Gold.Id.Protein>
6NUR|6NUR_protein|mol2

> <Gold.PLP.Fitness>
34.9825

> <Gold.PLP.PLP>
-27.3309

> <Gold.PLP.part.hbond>
-3.2366

> <Gold.PLP.part.metal>
0.0000

> <Gold.PLP.part.buried>
-1.9548

> <Gold.PLP.part.nonpolar>
-21.4940

> <Gold.PLP.part.repulsive>
0.1869

> <Gold.PLP.ligand.clash>
0.0000

> <Gold.PLP.ligand.torsion>
0.6636

> <Gold.PLP.Chemscore.Hbond>
2.9040

> <Gold.PLP.Chemscore.CHOScore>
0.0000

> <Gold.PLP.Chemscore.Metal>
0.0000

> <Gold.Chemscore.Hbonds>
donor molecule, donor type, donor heavy atom, donor atom, acceptor molecule, acceptor atom, score
      L1  H     8    25       P1  7948  1.00
      L1  H    11    26       P1  7948  0.91
      P1  H 10752 10763       L1     4  0.60

> <Gold.PLP.Chemscore.Internal.Correction>
0.2668

> <Gold.Rescore>
     Score         DG    S(hbond)    S(metal)    S(lipo)     H(rot)  DE(clash)    DE(int)     intcor
     14.43     -15.98       1.70        0.00      67.80       1.22       0.00       1.55       ----

> <Gold.Chemscore.Fitness>
14.4326

> <Gold.Chemscore.DG>
-15.9803

> <Gold.Chemscore.ZeroCoef>
-5.4800

> <Gold.Chemscore.Hbond>
1.7038

> <Gold.Chemscore.Metal>
0.0000

> <Gold.Chemscore.Lipo>
67.8027

> <Gold.Chemscore.Internal_Hbond>
0.0000

> <Gold.Chemscore.DEClash>
0.0000

> <Gold.Chemscore.DEInternal>
1.5477

> <Gold.Chemscore.Rot>
1.2200

> <Gold.Chemscore.Internal.Correction>
   9.000000E+99

> <Gold.Chemscore.Hbonds>
donor molecule, donor type, donor heavy atom, donor atom, acceptor molecule, acceptor atom, score
      L1  H     8    25       P1  7948  0.73
      L1  H    11    26       P1  7948  0.84
      P1  H 10752 10763       L1     4  0.08

> <Gold.Chemscore.Hbond.Weighted>
-5.6906

> <Gold.Chemscore.Metal.Weighted>
-0.0000

> <Gold.Chemscore.Lipo.Weighted>
-7.9329

> <Gold.Chemscore.Internal_Hbond.Weighted>
0.0000

> <Gold.Chemscore.DEClash.Weighted>
0.0000

> <Gold.Chemscore.DEInternal.Weighted>
1.5477

> <Gold.Chemscore.Rot.Weighted>
3.1232

> <Gold.Chemscore.Internal.Correction.Weighted>
   9.000000E+99

> <Gold.Protein.RotatedTorsions>
[ 6907 6896 6895 6894 ] final -102.11 input  -60.11 | X-H torsion
[ 7974 7965 7964 7962 ] final  -19.15 input  175.53 | X-H torsion
[ 8008 7997 7996 7995 ] final  173.00 input   59.86 | X-H torsion
[ 10167 10162 10161 10158 ] final  -70.53 input  -65.29 | X-H torsion
[ 10718 10713 10712 10709 ] final   57.15 input   66.30 | X-H torsion
[ 10763 10752 10751 10750 ] final  110.20 input  -60.55 | X-H torsion
[ 11005 11000 10999 10996 ] final   -7.22 input  -57.11 | X-H torsion

> <Gold.Protein.ActiveResidues>
 VAL166  LYS551  ARG553  GLY616  TRP617  ASP618  TYR619  PRO620  LYS621  CYS622 
 ASP623  PHE694  ASN695  SER759  ASP760  ASP761  ALA762  ILE779  LEU786  VAL792 
 PHE793  MET794  SER795  GLU796  ALA797  LYS798  CYS799  TRP800  GLU811  SER814 

> <Gold.Protein.RotatedAtoms>
  150.7182  134.0631  159.3838 H   0  0  0  0  0  0  0  0  0  0  0  0  # atno 6907 bound_to 6896
  151.8612  135.0521  160.0479 H   0  0  0  0  0  0  0  0  0  0  0  0  # atno 6908 bound_to 6896
  152.2716  133.5352  159.5479 H   0  0  0  0  0  0  0  0  0  0  0  0  # atno 6909 bound_to 6896
  146.1856  140.4022  142.8477 H   0  0  0  0  0  0  0  0  0  0  0  0  # atno 7974 bound_to 7965
  156.1118  140.1471  156.9327 H   0  0  0  0  0  0  0  0  0  0  0  0  # atno 8008 bound_to 7997
  154.4773  140.0890  156.7335 H   0  0  0  0  0  0  0  0  0  0  0  0  # atno 8009 bound_to 7997
  155.4582  140.3437  155.4311 H   0  0  0  0  0  0  0  0  0  0  0  0  # atno 8010 bound_to 7997
  140.5345  143.2319  151.7202 H   0  0  0  0  0  0  0  0  0  0  0  0  # atno 10167 bound_to 10162
  157.5490  130.8752  149.8935 H   0  0  0  0  0  0  0  0  0  0  0  0  # atno 10718 bound_to 10713
  153.4456  135.3756  155.2254 H   0  0  0  0  0  0  0  0  0  0  0  0  # atno 10763 bound_to 10752
  154.8755  135.3873  154.4100 H   0  0  0  0  0  0  0  0  0  0  0  0  # atno 10764 bound_to 10752
  153.4652  135.7087  153.6090 H   0  0  0  0  0  0  0  0  0  0  0  0  # atno 10765 bound_to 10752
  140.7104  133.8913  155.8747 H   0  0  0  0  0  0  0  0  0  0  0  0  # atno 11005 bound_to 11000
  144.8391  140.6829  143.6241 LP  0  0  0  0  0  0  0  0  0  0  0  0  # atno 17320 bound_to 7965
  145.3949  139.1609  143.4209 LP  0  0  0  0  0  0  0  0  0  0  0  0  # atno 17321 bound_to 7965
  139.4966  144.4064  152.0127 LP  0  0  0  0  0  0  0  0  0  0  0  0  # atno 17342 bound_to 10162
  140.3168  144.3474  150.6019 LP  0  0  0  0  0  0  0  0  0  0  0  0  # atno 17343 bound_to 10162
  156.0560  130.3708  150.1089 LP  0  0  0  0  0  0  0  0  0  0  0  0  # atno 17370 bound_to 10713
  156.9264  130.9699  151.3540 LP  0  0  0  0  0  0  0  0  0  0  0  0  # atno 17371 bound_to 10713
  141.0089  134.1048  157.4242 LP  0  0  0  0  0  0  0  0  0  0  0  0  # atno 17394 bound_to 11000
  139.8873  135.0089  156.6552 LP  0  0  0  0  0  0  0  0  0  0  0  0  # atno 17395 bound_to 11000

$$$$
