AV-unprocessed.smi:2731|AV-procd|sdf|10530|dock10
  -GOLD-   2272014573D 1   1.00000     0.00000
 Structure written by MMmdl.
 45 46  0  0  0  0  0  0  0  0  1 V2000
  152.6925  138.4085  154.7076 C   0  0  0  0  0  0  0  0  0  0  0  0
  151.2938  138.9269  154.5369 C   0  0  0  0  0  0  0  0  0  0  0  0
  151.1056  140.2273  154.3873 N   0  0  0  0  0  0  0  0  0  0  0  0
  149.7702  140.3724  154.2791 N   0  0  0  0  0  0  0  0  0  0  0  0
  149.2134  141.6982  154.0916 C   0  0  0  0  0  0  0  0  0  0  0  0
  149.1124  139.1605  154.3653 C   0  0  0  0  0  0  0  0  0  0  0  0
  147.6230  139.0554  154.2874 C   0  0  0  0  0  0  0  0  0  0  0  0
  150.0700  138.1945  154.5264 C   0  0  0  0  0  0  0  0  0  0  0  0
  149.8880  136.7028  154.6821 C   0  0  0  0  0  0  0  0  0  0  0  0
  150.1961  136.1963  156.1051 C   0  0  0  0  0  0  0  0  0  0  0  0
  149.0132  136.2135  156.9630 N   0  0  0  0  0  0  0  0  0  0  0  0
  149.0233  136.0836  158.2989 C   0  0  0  0  0  0  0  0  0  0  0  0
  150.0462  135.8572  158.9470 O   0  0  0  0  0  0  0  0  0  0  0  0
  147.6692  136.2466  159.0011 C   0  0  0  0  0  0  0  0  0  0  0  0
  147.6991  135.7692  160.3898 N   0  0  0  0  0  0  0  0  0  0  0  0
  147.6338  134.3174  160.5988 C   0  0  0  0  0  0  0  0  0  0  0  0
  146.5679  133.9688  161.6511 C   0  0  0  0  0  0  0  0  0  0  0  0
  146.7549  134.7621  162.9603 C   0  0  0  0  0  0  0  0  0  0  0  0
  147.7138  135.9685  162.8441 C   0  0  0  0  0  0  0  0  0  0  0  0
  147.7115  136.6096  161.4501 C   0  0  0  0  0  0  0  0  0  0  0  0
  147.7342  137.8361  161.3480 O   0  0  0  0  0  0  0  0  0  0  0  0
  153.0377  138.5545  155.7313 H   0  0  0  0  0  0  0  0  0  0  0  0
  153.3895  138.9203  154.0433 H   0  0  0  0  0  0  0  0  0  0  0  0
  152.7515  137.3430  154.4873 H   0  0  0  0  0  0  0  0  0  0  0  0
  148.4625  141.8960  154.8568 H   0  0  0  0  0  0  0  0  0  0  0  0
  148.7461  141.7619  153.1085 H   0  0  0  0  0  0  0  0  0  0  0  0
  149.9937  142.4578  154.1628 H   0  0  0  0  0  0  0  0  0  0  0  0
  147.2744  138.0917  154.6578 H   0  0  0  0  0  0  0  0  0  0  0  0
  147.2825  139.1651  153.2578 H   0  0  0  0  0  0  0  0  0  0  0  0
  147.1423  139.8274  154.8881 H   0  0  0  0  0  0  0  0  0  0  0  0
  148.8698  136.4128  154.4229 H   0  0  0  0  0  0  0  0  0  0  0  0
  150.5213  136.1665  153.9752 H   0  0  0  0  0  0  0  0  0  0  0  0
  150.5749  135.1751  156.0577 H   0  0  0  0  0  0  0  0  0  0  0  0
  150.9973  136.7928  156.5443 H   0  0  0  0  0  0  0  0  0  0  0  0
  148.1270  136.3870  156.5115 H   0  0  0  0  0  0  0  0  0  0  0  0
  147.3811  137.2991  158.9933 H   0  0  0  0  0  0  0  0  0  0  0  0
  146.9060  135.7276  158.4191 H   0  0  0  0  0  0  0  0  0  0  0  0
  147.4055  133.8005  159.6662 H   0  0  0  0  0  0  0  0  0  0  0  0
  148.6136  133.9609  160.9195 H   0  0  0  0  0  0  0  0  0  0  0  0
  145.5860  134.1996  161.2351 H   0  0  0  0  0  0  0  0  0  0  0  0
  146.5648  132.8976  161.8533 H   0  0  0  0  0  0  0  0  0  0  0  0
  145.7807  135.0988  163.3169 H   0  0  0  0  0  0  0  0  0  0  0  0
  147.1356  134.0932  163.7329 H   0  0  0  0  0  0  0  0  0  0  0  0
  147.4759  136.7141  163.6038 H   0  0  0  0  0  0  0  0  0  0  0  0
  148.7343  135.6403  163.0444 H   0  0  0  0  0  0  0  0  0  0  0  0
  1  2  1  0  0  0  0
  1 22  1  0  0  0  0
  1 23  1  0  0  0  0
  1 24  1  0  0  0  0
  2  8  1  0  0  0  0
  2  3  2  0  0  0  0
  3  4  1  0  0  0  0
  4  5  1  0  0  0  0
  4  6  1  0  0  0  0
  5 25  1  0  0  0  0
  5 26  1  0  0  0  0
  5 27  1  0  0  0  0
  6  7  1  0  0  0  0
  6  8  2  0  0  0  0
  7 28  1  0  0  0  0
  7 29  1  0  0  0  0
  7 30  1  0  0  0  0
  8  9  1  0  0  0  0
  9 10  1  0  0  0  0
  9 31  1  0  0  0  0
  9 32  1  0  0  0  0
 10 11  1  0  0  0  0
 10 33  1  0  0  0  0
 10 34  1  0  0  0  0
 11 12  1  0  0  0  0
 11 35  1  0  0  0  0
 12 13  2  0  0  0  0
 12 14  1  0  0  0  0
 14 15  1  0  0  0  0
 14 36  1  0  0  0  0
 14 37  1  0  0  0  0
 15 20  1  0  0  0  0
 15 16  1  0  0  0  0
 16 17  1  0  0  0  0
 16 38  1  0  0  0  0
 16 39  1  0  0  0  0
 17 18  1  0  0  0  0
 17 40  1  0  0  0  0
 17 41  1  0  0  0  0
 18 19  1  0  0  0  0
 18 42  1  0  0  0  0
 18 43  1  0  0  0  0
 19 20  1  0  0  0  0
 19 44  1  0  0  0  0
 19 45  1  0  0  0  0
 20 21  2  0  0  0  0
M  END
> <s_m_source_file>
AV-unprocessed.smi

> <i_m_source_file_index>
2731

> <i_lp_mmshare_version>
43012

> <i_f3d_flags>
0

> <s_epik_input>
W0NIM11jMW5uKFtDSDNdKWMoW0NIM10pYzFbQ0gyXVtDSDJdW05IXUMoPU8pW0NIMl1OMltDSDJdW0NIMl1bQ0gyXVtDSDJdQzI9Tw==

> <s_epik_cmdline>
J2VwaWtfcHl0aG9uJywgJy1waCcsICc3LjAnLCAnLXRuJywgJzgnLCAnLW1hJywgJzIwMCcsICctbWV0YWxfYmluZGluZycsICctaW1hZScsICc8aW5maWxlLm1hZT4nLCAnLW9tYWUnLCAnPG91dGZpbGUubWFlPic=

> <r_lp_tautomer_probability>
1

> <r_epik_Ionization_Penalty>
0.0111965

> <r_epik_Ionization_Penalty_Charging>
0

> <r_epik_Ionization_Penalty_Neutral>
0.0111965

> <r_epik_State_Penalty>
0.00860379

> <r_epik_Charging_Adjusted_Penalty>
0.00860379

> <i_epik_Tot_Q>
0

> <i_epik_Tot_abs_Q>
0

> <r_epik_Metal_State_Penalty>
0.00844338

> <b_epik_Metal_Only>
0

> <s_lp_Force_Field>
OPLS_2005

> <r_lp_Energy>
7.02137

> <b_lp_Chiralities_Consistent>
1

> <s_lp_Variant>
AV-unprocessed.smi:2731-1

> <Gold.Version>
5.8.1

> <Gold.Id.Protein>
6NUR|6NUR_protein|mol2

> <Gold.PLP.Fitness>
48.0783

> <Gold.PLP.PLP>
-38.6343

> <Gold.PLP.part.hbond>
-3.6262

> <Gold.PLP.part.metal>
0.0000

> <Gold.PLP.part.buried>
0.2569

> <Gold.PLP.part.nonpolar>
-35.6494

> <Gold.PLP.part.repulsive>
0.1373

> <Gold.PLP.ligand.clash>
0.0000

> <Gold.PLP.ligand.torsion>
0.7548

> <Gold.PLP.Chemscore.Hbond>
3.6418

> <Gold.PLP.Chemscore.CHOScore>
0.0000

> <Gold.PLP.Chemscore.Metal>
0.0000

> <Gold.Chemscore.Hbonds>
donor molecule, donor type, donor heavy atom, donor atom, acceptor molecule, acceptor atom, score
      P1  H  6896  6909       L1    13  0.96
      P1  H  6931  6943       L1    21  0.50
      P1  H  6934  6947       L1    21  0.37
      P1  H  7989  7998       L1     3  0.21

> <Gold.PLP.Chemscore.Internal.Correction>
0.0279

> <Gold.Rescore>
     Score         DG    S(hbond)    S(metal)    S(lipo)     H(rot)  DE(clash)    DE(int)     intcor
     19.29     -21.71       3.49        0.00      78.09       1.78       1.60       0.83       ----

> <Gold.Chemscore.Fitness>
19.2873

> <Gold.Chemscore.DG>
-21.7135

> <Gold.Chemscore.ZeroCoef>
-5.4800

> <Gold.Chemscore.Hbond>
3.4867

> <Gold.Chemscore.Metal>
0.0000

> <Gold.Chemscore.Lipo>
78.0866

> <Gold.Chemscore.Internal_Hbond>
0.0000

> <Gold.Chemscore.DEClash>
1.6001

> <Gold.Chemscore.DEInternal>
0.8261

> <Gold.Chemscore.Rot>
1.7767

> <Gold.Chemscore.Internal.Correction>
   9.000000E+99

> <Gold.Chemscore.Hbonds>
donor molecule, donor type, donor heavy atom, donor atom, acceptor molecule, acceptor atom, score
      P1  H  6896  6909       L1    13  0.87
      P1  H  6931  6943       L1    21  0.30
      P1  H  6934  6947       L1    21  0.36
      P1  H  7989  7998       L1     3  0.15

> <Gold.Chemscore.Hbond.Weighted>
-11.6456

> <Gold.Chemscore.Metal.Weighted>
-0.0000

> <Gold.Chemscore.Lipo.Weighted>
-9.1361

> <Gold.Chemscore.Internal_Hbond.Weighted>
0.0000

> <Gold.Chemscore.DEClash.Weighted>
1.6001

> <Gold.Chemscore.DEInternal.Weighted>
0.8261

> <Gold.Chemscore.Rot.Weighted>
4.5483

> <Gold.Chemscore.Internal.Correction.Weighted>
   9.000000E+99

> <Gold.Protein.RotatedTorsions>
[ 6907 6896 6895 6894 ] final   48.89 input  -60.11 | X-H torsion
[ 7974 7965 7964 7962 ] final  -15.14 input  175.53 | X-H torsion
[ 8008 7997 7996 7995 ] final   68.59 input   59.86 | X-H torsion
[ 10167 10162 10161 10158 ] final  132.77 input  -65.29 | X-H torsion
[ 10718 10713 10712 10709 ] final -149.47 input   66.30 | X-H torsion
[ 10763 10752 10751 10750 ] final  -94.51 input  -60.55 | X-H torsion
[ 11005 11000 10999 10996 ] final -104.69 input  -57.11 | X-H torsion

> <Gold.Protein.ActiveResidues>
 VAL166  LYS551  ARG553  GLY616  TRP617  ASP618  TYR619  PRO620  LYS621  CYS622 
 ASP623  PHE694  ASN695  SER759  ASP760  ASP761  ALA762  ILE779  LEU786  VAL792 
 PHE793  MET794  SER795  GLU796  ALA797  LYS798  CYS799  TRP800  GLU811  SER814 

> <Gold.Protein.RotatedAtoms>
  152.2846  134.7790  160.0389 H   0  0  0  0  0  0  0  0  0  0  0  0  # atno 6907 bound_to 6896
  151.8358  133.3410  159.3635 H   0  0  0  0  0  0  0  0  0  0  0  0  # atno 6908 bound_to 6896
  150.7204  134.5368  159.5771 H   0  0  0  0  0  0  0  0  0  0  0  0  # atno 6909 bound_to 6896
  146.2045  140.3449  142.8412 H   0  0  0  0  0  0  0  0  0  0  0  0  # atno 7974 bound_to 7965
  155.7106  140.3494  155.4972 H   0  0  0  0  0  0  0  0  0  0  0  0  # atno 8008 bound_to 7997
  155.9359  140.1092  157.1117 H   0  0  0  0  0  0  0  0  0  0  0  0  # atno 8009 bound_to 7997
  154.4093  140.1222  156.4850 H   0  0  0  0  0  0  0  0  0  0  0  0  # atno 8010 bound_to 7997
  139.5325  144.6647  151.4899 H   0  0  0  0  0  0  0  0  0  0  0  0  # atno 10167 bound_to 10162
  156.4336  130.8087  151.2315 H   0  0  0  0  0  0  0  0  0  0  0  0  # atno 10718 bound_to 10713
  154.7061  135.5155  153.8598 H   0  0  0  0  0  0  0  0  0  0  0  0  # atno 10763 bound_to 10752
  153.0743  135.6611  154.0189 H   0  0  0  0  0  0  0  0  0  0  0  0  # atno 10764 bound_to 10752
  154.0040  135.3008  155.3379 H   0  0  0  0  0  0  0  0  0  0  0  0  # atno 10765 bound_to 10752
  141.1089  133.8745  157.1642 H   0  0  0  0  0  0  0  0  0  0  0  0  # atno 11005 bound_to 11000
  144.8759  140.7336  143.6017 LP  0  0  0  0  0  0  0  0  0  0  0  0  # atno 17320 bound_to 7965
  145.3369  139.1743  143.4507 LP  0  0  0  0  0  0  0  0  0  0  0  0  # atno 17321 bound_to 7965
  140.6512  143.8692  150.6788 LP  0  0  0  0  0  0  0  0  0  0  0  0  # atno 17342 bound_to 10162
  140.2057  143.3923  152.1757 LP  0  0  0  0  0  0  0  0  0  0  0  0  # atno 17343 bound_to 10162
  157.7508  131.0190  150.3651 LP  0  0  0  0  0  0  0  0  0  0  0  0  # atno 17370 bound_to 10713
  156.3993  130.3913  149.6971 LP  0  0  0  0  0  0  0  0  0  0  0  0  # atno 17371 bound_to 10713
  139.9972  135.0042  157.0109 LP  0  0  0  0  0  0  0  0  0  0  0  0  # atno 17394 bound_to 11000
  140.4830  134.1271  155.7220 LP  0  0  0  0  0  0  0  0  0  0  0  0  # atno 17395 bound_to 11000

$$$$
