#       Name:                AV-unprocessed.smi:3268
#       Creating user name   scv26
#       Creation time:       Fri Mar 27 18:41:38 2020


#       File generated by GOLD software.
#

@<TRIPOS>MOLECULE
AV-unprocessed.smi:3268
    44    45     1
SMALL
NO_CHARGES


@<TRIPOS>ATOM
      1 ****        -2.9583  -3.4132   0.2399 C.3            1 S1                 0.0000
      2 ****        -2.5741  -2.3341   1.2721 C.3            1 S1                 0.0000
      3 ****        -1.2409  -1.6578   0.9202 C.2            1 S1                 0.0000
      4 ****        -0.2607  -2.3350   0.6083 O.2            1 S1                 0.0000
      5 ****        -1.2147  -0.3163   0.9732 N.am           1 S1                 0.0000
      6 ****        -0.0498   0.5096   0.6756 C.3            1 S1                 0.0000
      7 ****         0.2005   0.6134  -0.8421 C.3            1 S1                 0.0000
      8 ****         1.4026   1.4233  -1.1633 N.4            1 S1                 1.0000
      9 ****         1.9816   1.0684  -2.4860 C.3            1 S1                 0.0000
     10 ****         3.2965   1.8240  -2.7425 C.3            1 S1                 0.0000
     11 ****         3.0911   3.3396  -2.6280 C.3            1 S1                 0.0000
     12 ****         2.4679   3.6805  -1.2686 C.3            1 S1                 0.0000
     13 ****         1.1691   2.8880  -1.0431 C.3            1 S1                 0.0000
     14 ****        -2.5303  -2.8566   2.6328 N.pl3          1 S1                 0.0000
     15 ****        -2.9155  -2.2922   3.7796 C.2            1 S1                 0.0000
     16 ****        -2.6881  -3.0384   4.8514 N.2            1 S1                 0.0000
     17 ****        -2.1080  -4.1221   4.2557 C.2            1 S1                 0.0000
     18 ****        -1.9784  -4.0599   2.9307 N.2            1 S1                 0.0000
     19 ****        -3.0390  -2.9870  -0.7607 H              1 S1                 0.0000
     20 ****        -3.9241  -3.8569   0.4834 H              1 S1                 0.0000
     21 ****        -2.2262  -4.2207   0.1946 H              1 S1                 0.0000
     22 ****        -3.3570  -1.5739   1.2503 H              1 S1                 0.0000
     23 ****        -2.0615   0.1649   1.2407 H              1 S1                 0.0000
     24 ****        -0.2320   1.4928   1.1081 H              1 S1                 0.0000
     25 ****         0.8290   0.1056   1.1812 H              1 S1                 0.0000
     26 ****         0.3394  -0.3941  -1.2364 H              1 S1                 0.0000
     27 ****        -0.6719   1.0232  -1.3536 H              1 S1                 0.0000
     28 ****         2.1761  -0.0042  -2.5283 H              1 S1                 0.0000
     29 ****         1.2588   1.2911  -3.2728 H              1 S1                 0.0000
     30 ****         4.0512   1.5009  -2.0241 H              1 S1                 0.0000
     31 ****         3.6838   1.5740  -3.7308 H              1 S1                 0.0000
     32 ****         4.0414   3.8606  -2.7492 H              1 S1                 0.0000
     33 ****         2.4393   3.6860  -3.4311 H              1 S1                 0.0000
     34 ****         3.1783   3.4553  -0.4719 H              1 S1                 0.0000
     35 ****         2.2662   4.7508  -1.2103 H              1 S1                 0.0000
     36 ****         0.4134   3.1972  -1.7670 H              1 S1                 0.0000
     37 ****         0.7766   3.1300  -0.0563 H              1 S1                 0.0000
     38 ****        -3.3701  -1.3138   3.8320 H              1 S1                 0.0000
     39 ****        -1.7656  -4.9800   4.8156 H              1 S1                 0.0000
     40 ****         2.1032   1.1775  -0.4783 H              1 S1                 0.0000
     41 ****        -0.3296  -3.3323   0.5829 LP             1 S1                 0.0000
     42 ****         0.6041  -1.8876   0.3804 LP             1 S1                 0.0000
     43 ****        -2.8842  -2.8599   5.8156 LP             1 S1                 0.0000
     44 ****        -1.5749  -4.7326   2.3104 LP             1 S1                 0.0000
@<TRIPOS>BOND
    1    1    2 1     
    2    1   19 1     
    3    1   20 1     
    4    1   21 1     
    5    2    3 1     
    6    2   14 1     
    7    2   22 1     
    8    3    4 2     
    9    3    5 am    
   10    5    6 1     
   11    5   23 1     
   12    6    7 1     
   13    6   24 1     
   14    6   25 1     
   15    7    8 1     
   16    7   26 1     
   17    7   27 1     
   18    8   13 1     
   19    8    9 1     
   20    8   40 1     
   21    9   10 1     
   22    9   28 1     
   23    9   29 1     
   24   10   11 1     
   25   10   30 1     
   26   10   31 1     
   27   11   12 1     
   28   11   32 1     
   29   11   33 1     
   30   12   13 1     
   31   12   34 1     
   32   12   35 1     
   33   13   36 1     
   34   13   37 1     
   35   14   18 1     
   36   14   15 1     
   37   15   16 2     
   38   15   38 1     
   39   16   17 1     
   40   17   18 2     
   41   17   39 1     
   42    4   41 1     
   43    4   42 1     
   44   16   43 1     
   45   18   44 1     
@<TRIPOS>SUBSTRUCTURE
      1 S1             1
@<TRIPOS>SET
LONE_PAIRS      STATIC     ATOMS    <user>   **** ""
4 41 42 43 44
DONOR_HYDROGENS      STATIC     ATOMS    <user>   **** ""
2 23 40
ATOM$BLUE        STATIC     ATOMS    COLORGROUP SYSTEM
4 41 42 43 44
ATOM$RED        STATIC     ATOMS    COLORGROUP SYSTEM
2 23 40
