#       Name:                AV-unprocessed.smi:2230
#       Creating user name   scv26
#       Creation time:       Fri Mar 27 12:24:25 2020


#       File generated by GOLD software.
#

@<TRIPOS>MOLECULE
AV-unprocessed.smi:2230
    37    38     1
SMALL
NO_CHARGES


@<TRIPOS>ATOM
      1 ****        -2.3530  -2.1719  -2.7959 O.co2          1 S1                 0.0000
      2 ****        -3.0217  -1.2702  -2.2427 C.2            1 S1                 0.0000
      3 ****        -4.1699  -0.9165  -2.5913 O.co2          1 S1                -1.0000
      4 ****        -2.4088  -0.5619  -1.0246 C.3            1 S1                 0.0000
      5 ****        -0.8637  -0.5299  -1.0991 C.3            1 S1                 0.0000
      6 ****        -0.3208   0.2242   0.0249 N.3            1 S1                 0.0000
      7 ****         1.0797   0.1925   0.1098 C.ar           1 S1                 0.0000
      8 ****         1.7752   0.8011  -0.8823 N.ar           1 S1                 0.0000
      9 ****         3.1225   0.7904  -0.8277 C.ar           1 S1                 0.0000
     10 ****         3.8454   0.1791   0.2123 C.ar           1 S1                 0.0000
     11 ****         3.1259  -0.4520   1.2436 C.ar           1 S1                 0.0000
     12 ****         1.7131  -0.4519   1.2043 C.ar           1 S1                 0.0000
     13 ****         0.9056  -1.1255   2.3112 C.3            1 S1                 0.0000
     14 ****         1.6983  -1.6642   3.2385 F              1 S1                 0.0000
     15 ****         0.1191  -0.2317   2.9114 F              1 S1                 0.0000
     16 ****         0.1490  -2.0973   1.8010 F              1 S1                 0.0000
     17 ****        -0.8878   1.5610   0.1339 C.3            1 S1                 0.0000
     18 ****        -2.4201   1.4708   0.2017 C.3            1 S1                 0.0000
     19 ****        -2.9038   0.7763  -0.9432 O.3            1 S1                 0.0000
     20 ****        -2.7240  -1.1108  -0.1353 H              1 S1                 0.0000
     21 ****        -0.4594  -1.5430  -1.0782 H              1 S1                 0.0000
     22 ****        -0.5425  -0.0730  -2.0366 H              1 S1                 0.0000
     23 ****         3.6393   1.2857  -1.6362 H              1 S1                 0.0000
     24 ****         4.9254   0.1938   0.2189 H              1 S1                 0.0000
     25 ****         3.6633  -0.9262   2.0511 H              1 S1                 0.0000
     26 ****        -0.5003   2.0566   1.0248 H              1 S1                 0.0000
     27 ****        -0.5897   2.1602  -0.7276 H              1 S1                 0.0000
     28 ****        -2.7418   0.9633   1.1126 H              1 S1                 0.0000
     29 ****        -2.8556   2.4697   0.2212 H              1 S1                 0.0000
     30 ****        -2.7322  -2.6678  -3.5771 LP             1 S1                 0.0000
     31 ****        -1.4394  -2.3964  -2.4568 LP             1 S1                 0.0000
     32 ****        -4.6179  -1.3648  -3.3648 LP             1 S1                 0.0000
     33 ****        -4.6396  -0.1853  -2.0965 LP             1 S1                 0.0000
     34 ****        -0.6251  -0.2631   0.8433 LP             1 S1                 0.0000
     35 ****         1.2988   1.2488  -1.6390 LP             1 S1                 0.0000
     36 ****        -3.9024   0.7463  -0.9013 LP             1 S1                 0.0000
     37 ****        -2.6194   1.2734  -1.7630 LP             1 S1                 0.0000
@<TRIPOS>BOND
    1    1    2 ar    
    2    2    3 ar    
    3    2    4 1     
    4    4   19 1     
    5    4    5 1     
    6    4   20 1     
    7    5    6 1     
    8    5   21 1     
    9    5   22 1     
   10    6    7 1     
   11    6   17 1     
   12    7   12 ar    
   13    7    8 ar    
   14    8    9 ar    
   15    9   10 ar    
   16    9   23 1     
   17   10   11 ar    
   18   10   24 1     
   19   11   12 ar    
   20   11   25 1     
   21   12   13 1     
   22   13   14 1     
   23   13   15 1     
   24   13   16 1     
   25   17   18 1     
   26   17   26 1     
   27   17   27 1     
   28   18   19 1     
   29   18   28 1     
   30   18   29 1     
   31    1   30 1     
   32    1   31 1     
   33    3   32 1     
   34    3   33 1     
   35    6   34 1     
   36    8   35 1     
   37   19   36 1     
   38   19   37 1     
@<TRIPOS>SUBSTRUCTURE
      1 S1             1
@<TRIPOS>SET
LONE_PAIRS      STATIC     ATOMS    <user>   **** ""
8 30 31 32 33 34 35 36 37
ATOM$BLUE        STATIC     ATOMS    COLORGROUP SYSTEM
8 30 31 32 33 34 35 36 37
