AV-unprocessed.smi:1046|AV-procd|sdf|4554|dock5
  -GOLD-   22720 2583D 1   1.00000     0.00000
 Structure written by MMmdl.
 54 56  0  0  0  0  0  0  0  0  3 V2000
  153.4291  142.6241  160.4901 C   0  0  0  0  0  0  0  0  0  0  0  0
  152.4060  142.2968  159.4167 C   0  0  0  0  0  0  0  0  0  0  0  0
  152.0783  140.9445  159.1692 C   0  0  0  0  0  0  0  0  0  0  0  0
  151.1327  140.5984  158.1793 C   0  0  0  0  0  0  0  0  0  0  0  0
  150.6660  139.3594  157.7748 N   0  0  0  0  0  0  0  0  0  0  0  0
  149.8047  139.6953  156.8191 C   0  0  0  0  0  0  0  0  0  0  0  0
  149.6526  141.0086  156.5610 N   0  0  0  0  0  0  0  0  0  0  0  0
  148.7772  141.6150  155.5742 C   0  0  0  0  0  0  0  0  0  0  0  0
  148.5268  140.6918  154.3665 C   0  0  2  0  0  0  0  0  0  0  0  0
  149.5839  140.8412  153.4382 O   0  0  0  0  0  0  0  0  0  0  0  0
  147.1964  141.0233  153.6619 C   0  0  0  0  0  0  0  0  0  0  0  0
  146.4938  139.8149  153.1575 N   0  3  2  0  0  0  0  0  0  0  0  0
  146.4757  138.7169  154.1555 C   0  0  0  0  0  0  0  0  0  0  0  0
  145.6590  137.5141  153.6503 C   0  0  0  0  0  0  0  0  0  0  0  0
  146.1684  137.0322  152.3411 N   0  3  1  0  0  0  0  0  0  0  0  0
  145.4680  135.8216  151.8400 C   0  0  0  0  0  0  0  0  0  0  0  0
  145.6571  135.6114  150.3276 C   0  0  0  0  0  0  0  0  0  0  0  0
  145.0059  134.4267  149.9199 O   0  0  0  0  0  0  0  0  0  0  0  0
  146.1846  138.1297  151.3429 C   0  0  0  0  0  0  0  0  0  0  0  0
  147.0019  139.3324  151.8476 C   0  0  0  0  0  0  0  0  0  0  0  0
  150.5198  141.6502  157.4382 C   0  0  0  0  0  0  0  0  0  0  0  0
  150.8380  142.9991  157.6740 C   0  0  0  0  0  0  0  0  0  0  0  0
  151.7838  143.3277  158.6677 C   0  0  0  0  0  0  0  0  0  0  0  0
  152.1208  144.7872  158.9160 C   0  0  0  0  0  0  0  0  0  0  0  0
  153.8145  141.7202  160.9628 H   0  0  0  0  0  0  0  0  0  0  0  0
  152.9820  143.2433  161.2681 H   0  0  0  0  0  0  0  0  0  0  0  0
  154.2741  143.1631  160.0607 H   0  0  0  0  0  0  0  0  0  0  0  0
  152.5528  140.1592  159.7392 H   0  0  0  0  0  0  0  0  0  0  0  0
  149.2482  138.9432  156.2787 H   0  0  0  0  0  0  0  0  0  0  0  0
  147.8342  141.8593  156.0650 H   0  0  0  0  0  0  0  0  0  0  0  0
  149.2148  142.5610  155.2508 H   0  0  0  0  0  0  0  0  0  0  0  0
  148.5251  139.6599  154.7157 H   0  0  0  0  0  0  0  0  0  0  0  0
  149.4620  140.2138  152.7406 H   0  0  0  0  0  0  0  0  0  0  0  0
  146.5336  141.5714  154.3334 H   0  0  0  0  0  0  0  0  0  0  0  0
  147.4084  141.6961  152.8290 H   0  0  0  0  0  0  0  0  0  0  0  0
  147.4990  138.4090  154.3767 H   0  0  0  0  0  0  0  0  0  0  0  0
  146.0435  139.0760  155.0904 H   0  0  0  0  0  0  0  0  0  0  0  0
  145.7052  136.7179  154.3923 H   0  0  0  0  0  0  0  0  0  0  0  0
  144.6086  137.7932  153.5521 H   0  0  0  0  0  0  0  0  0  0  0  0
  145.8140  134.9459  152.3910 H   0  0  0  0  0  0  0  0  0  0  0  0
  144.3987  135.9038  152.0414 H   0  0  0  0  0  0  0  0  0  0  0  0
  145.2886  136.4540  149.7437 H   0  0  0  0  0  0  0  0  0  0  0  0
  146.7188  135.5124  150.1004 H   0  0  0  0  0  0  0  0  0  0  0  0
  145.2296  134.2543  149.0171 H   0  0  0  0  0  0  0  0  0  0  0  0
  146.6150  137.7702  150.4073 H   0  0  0  0  0  0  0  0  0  0  0  0
  145.1607  138.4377  151.1239 H   0  0  0  0  0  0  0  0  0  0  0  0
  146.9540  140.1261  151.1031 H   0  0  0  0  0  0  0  0  0  0  0  0
  148.0527  139.0544  151.9442 H   0  0  0  0  0  0  0  0  0  0  0  0
  150.3590  143.7746  157.0951 H   0  0  0  0  0  0  0  0  0  0  0  0
  151.5316  145.4465  158.2780 H   0  0  0  0  0  0  0  0  0  0  0  0
  153.1746  144.9747  158.7087 H   0  0  0  0  0  0  0  0  0  0  0  0
  151.9179  145.0568  159.9526 H   0  0  0  0  0  0  0  0  0  0  0  0
  145.5312  140.0910  153.0211 H   0  0  0  0  0  0  0  0  0  0  0  0
  147.1316  136.7584  152.4773 H   0  0  0  0  0  0  0  0  0  0  0  0
  1  2  1  0  0  0  0
  1 25  1  0  0  0  0
  1 26  1  0  0  0  0
  1 27  1  0  0  0  0
  2 23  1  0  0  0  0
  2  3  2  0  0  0  0
  3  4  1  0  0  0  0
  3 28  1  0  0  0  0
  4 21  2  0  0  0  0
  4  5  1  0  0  0  0
  5  6  2  0  0  0  0
  6  7  1  0  0  0  0
  6 29  1  0  0  0  0
  7  8  1  0  0  0  0
  7 21  1  0  0  0  0
  8  9  1  0  0  0  0
  8 30  1  0  0  0  0
  8 31  1  0  0  0  0
  9 10  1  0  0  0  0
  9 11  1  0  0  0  0
  9 32  1  0  0  0  0
 10 33  1  0  0  0  0
 11 12  1  0  0  0  0
 11 34  1  0  0  0  0
 11 35  1  0  0  0  0
 12 20  1  0  0  0  0
 12 13  1  0  0  0  0
 12 53  1  0  0  0  0
 13 14  1  0  0  0  0
 13 36  1  0  0  0  0
 13 37  1  0  0  0  0
 14 15  1  0  0  0  0
 14 38  1  0  0  0  0
 14 39  1  0  0  0  0
 15 16  1  0  0  0  0
 15 19  1  0  0  0  0
 15 54  1  0  0  0  0
 16 17  1  0  0  0  0
 16 40  1  0  0  0  0
 16 41  1  0  0  0  0
 17 18  1  0  0  0  0
 17 42  1  0  0  0  0
 17 43  1  0  0  0  0
 18 44  1  0  0  0  0
 19 20  1  0  0  0  0
 19 45  1  0  0  0  0
 19 46  1  0  0  0  0
 20 47  1  0  0  0  0
 20 48  1  0  0  0  0
 21 22  1  0  0  0  0
 22 23  2  0  0  0  0
 22 49  1  0  0  0  0
 23 24  1  0  0  0  0
 24 50  1  0  0  0  0
 24 51  1  0  0  0  0
 24 52  1  0  0  0  0
M  CHG  1  12   1
M  CHG  1  15   1
M  END
> <s_m_source_file>
AV-unprocessed.smi

> <i_m_source_file_index>
1046

> <i_lp_mmshare_version>
43012

> <i_f3d_flags>
0

> <s_epik_input>
W0NIM11jKFtjSF0xKWMoW0NIM10pW2NIXWMoYzEyKW4oW2NIXW4yKVtDSDJdW0NASF0oW09IXSlbQ0gyXU4zW0NIMl1bQ0gyXU4oW0NIMl1bQ0gyXTMpW0NIMl1bQ0gyXVtPSF0=

> <s_epik_cmdline>
J2VwaWtfcHl0aG9uJywgJy1waCcsICc3LjAnLCAnLXRuJywgJzgnLCAnLW1hJywgJzIwMCcsICctbWV0YWxfYmluZGluZycsICctaW1hZScsICc8aW5maWxlLm1hZT4nLCAnLW9tYWUnLCAnPG91dGZpbGUubWFlPic=

> <r_epik_Ionization_Penalty>
3.17398

> <r_epik_Ionization_Penalty_Charging>
3.09061

> <r_epik_Ionization_Penalty_Neutral>
0.0833726

> <r_epik_State_Penalty>
2.17606

> <r_epik_Charging_Adjusted_Penalty>
5.26667

> <i_epik_Tot_Q>
2

> <i_epik_Tot_abs_Q>
2

> <r_epik_Metal_State_Penalty>
2.08587

> <b_epik_Metal_Only>
0

> <s_lp_Force_Field>
OPLS_2005

> <r_lp_Energy>
27.9633

> <b_lp_Chiralities_Consistent>
1

> <s_lp_Variant>
AV-unprocessed.smi:1046-7

> <Gold.Version>
5.8.1

> <Gold.Id.Protein>
6NUR|6NUR_protein|mol2

> <Gold.PLP.Fitness>
65.0895

> <Gold.PLP.PLP>
-46.9209

> <Gold.PLP.part.hbond>
-5.3827

> <Gold.PLP.part.metal>
0.0000

> <Gold.PLP.part.buried>
1.1184

> <Gold.PLP.part.nonpolar>
-43.5879

> <Gold.PLP.part.repulsive>
0.0345

> <Gold.PLP.ligand.clash>
0.0000

> <Gold.PLP.ligand.torsion>
1.5418

> <Gold.PLP.Chemscore.Hbond>
6.9840

> <Gold.PLP.Chemscore.CHOScore>
0.0000

> <Gold.PLP.Chemscore.Metal>
0.0000

> <Gold.Chemscore.Hbonds>
donor molecule, donor type, donor heavy atom, donor atom, acceptor molecule, acceptor atom, score
      L1  H    10    33       P1  7957  0.83
      L1  H    12    53       P1 10175  2.00
      L1  H    15    54       P1  7948  2.00
      L1  H    18    44       P1  7921  0.91
      P1  H  7989  7998       L1    10  0.29
      P1  H  8011  8017       L1    10  0.85

> <Gold.PLP.Chemscore.Internal.Correction>
0.3002

> <Gold.Rescore>
     Score         DG    S(hbond)    S(metal)    S(lipo)     H(rot)  DE(clash)    DE(int)     intcor
     21.68     -26.89       4.06        0.00     138.85       3.28       3.82       1.39       ----

> <Gold.Chemscore.Fitness>
21.6829

> <Gold.Chemscore.DG>
-26.8926

> <Gold.Chemscore.ZeroCoef>
-5.4800

> <Gold.Chemscore.Hbond>
4.0632

> <Gold.Chemscore.Metal>
0.0000

> <Gold.Chemscore.Lipo>
138.8510

> <Gold.Chemscore.Internal_Hbond>
0.0000

> <Gold.Chemscore.DEClash>
3.8163

> <Gold.Chemscore.DEInternal>
1.3935

> <Gold.Chemscore.Rot>
3.2828

> <Gold.Chemscore.Internal.Correction>
   9.000000E+99

> <Gold.Chemscore.Hbonds>
donor molecule, donor type, donor heavy atom, donor atom, acceptor molecule, acceptor atom, score
      L1  H    10    33       P1  7957  0.82
      L1  H    12    53       P1 10175  0.98
      L1  H    15    54       P1  7948  0.94
      L1  H    18    44       P1  7921  0.89
      P1  H  7989  7998       L1    10  0.06
      P1  H  8011  8017       L1    10  0.14

> <Gold.Chemscore.Hbond.Weighted>
-13.5710

> <Gold.Chemscore.Metal.Weighted>
-0.0000

> <Gold.Chemscore.Lipo.Weighted>
-16.2456

> <Gold.Chemscore.Internal_Hbond.Weighted>
0.0000

> <Gold.Chemscore.DEClash.Weighted>
3.8163

> <Gold.Chemscore.DEInternal.Weighted>
1.3935

> <Gold.Chemscore.Rot.Weighted>
8.4039

> <Gold.Chemscore.Internal.Correction.Weighted>
   9.000000E+99

> <Gold.Protein.RotatedTorsions>
[ 6907 6896 6895 6894 ] final  161.28 input  -60.11 | X-H torsion
[ 7974 7965 7964 7962 ] final   85.62 input  175.53 | X-H torsion
[ 8008 7997 7996 7995 ] final   30.35 input   59.86 | X-H torsion
[ 10167 10162 10161 10158 ] final -113.31 input  -65.29 | X-H torsion
[ 10718 10713 10712 10709 ] final  161.40 input   66.30 | X-H torsion
[ 10763 10752 10751 10750 ] final -172.00 input  -60.55 | X-H torsion
[ 11005 11000 10999 10996 ] final  167.60 input  -57.11 | X-H torsion

> <Gold.Protein.ActiveResidues>
 VAL166  LYS551  ARG553  GLY616  TRP617  ASP618  TYR619  PRO620  LYS621  CYS622 
 ASP623  PHE694  ASN695  SER759  ASP760  ASP761  ALA762  ILE779  LEU786  VAL792 
 PHE793  MET794  SER795  GLU796  ALA797  LYS798  CYS799  TRP800  GLU811  SER814 

> <Gold.Protein.RotatedAtoms>
  151.9580  133.3686  159.4024 H   0  0  0  0  0  0  0  0  0  0  0  0  # atno 6907 bound_to 6896
  150.6969  134.4270  159.5240 H   0  0  0  0  0  0  0  0  0  0  0  0  # atno 6908 bound_to 6896
  152.1954  134.8635  160.0564 H   0  0  0  0  0  0  0  0  0  0  0  0  # atno 6909 bound_to 6896
  145.5831  139.2328  143.2341 H   0  0  0  0  0  0  0  0  0  0  0  0  # atno 7974 bound_to 7965
  155.0891  140.3218  155.4579 H   0  0  0  0  0  0  0  0  0  0  0  0  # atno 8008 bound_to 7997
  156.2747  140.2081  156.5964 H   0  0  0  0  0  0  0  0  0  0  0  0  # atno 8009 bound_to 7997
  154.6918  140.0515  157.0358 H   0  0  0  0  0  0  0  0  0  0  0  0  # atno 8010 bound_to 7997
  140.1132  143.4509  152.1739 H   0  0  0  0  0  0  0  0  0  0  0  0  # atno 10167 bound_to 10162
  157.1370  131.0531  151.2344 H   0  0  0  0  0  0  0  0  0  0  0  0  # atno 10718 bound_to 10713
  154.6243  135.2879  155.0290 H   0  0  0  0  0  0  0  0  0  0  0  0  # atno 10763 bound_to 10752
  154.1474  135.6509  153.4959 H   0  0  0  0  0  0  0  0  0  0  0  0  # atno 10764 bound_to 10752
  153.0250  135.5347  154.7045 H   0  0  0  0  0  0  0  0  0  0  0  0  # atno 10765 bound_to 10752
  140.2785  134.7769  157.3738 H   0  0  0  0  0  0  0  0  0  0  0  0  # atno 11005 bound_to 11000
  146.1701  140.6658  142.9237 LP  0  0  0  0  0  0  0  0  0  0  0  0  # atno 17320 bound_to 7965
  144.7385  140.4875  143.6886 LP  0  0  0  0  0  0  0  0  0  0  0  0  # atno 17321 bound_to 7965
  139.5608  144.7404  151.4161 LP  0  0  0  0  0  0  0  0  0  0  0  0  # atno 17342 bound_to 10162
  140.6914  143.7853  150.7261 LP  0  0  0  0  0  0  0  0  0  0  0  0  # atno 17343 bound_to 10162
  157.4341  130.7507  149.7014 LP  0  0  0  0  0  0  0  0  0  0  0  0  # atno 17370 bound_to 10713
  155.9796  130.4038  150.3577 LP  0  0  0  0  0  0  0  0  0  0  0  0  # atno 17371 bound_to 10713
  140.1305  134.5101  155.8109 LP  0  0  0  0  0  0  0  0  0  0  0  0  # atno 17394 bound_to 11000
  141.2166  133.6788  156.7031 LP  0  0  0  0  0  0  0  0  0  0  0  0  # atno 17395 bound_to 11000

$$$$
