AV-unprocessed.smi:3313|AV-procd|sdf|12730|dock9
  -GOLD-   2272019 73D 1   1.00000     0.00000
 Structure written by MMmdl.
 43 43  0  0  0  0  0  0  0  0  2 V2000
  144.1049  136.6153  152.5180 C   0  0  0  0  0  0  0  0  0  0  0  0
  145.4633  136.2117  151.9210 C   0  0  1  0  0  0  0  0  0  0  0  0
  145.2908  135.6792  150.4850 C   0  0  0  0  0  0  0  0  0  0  0  0
  145.2365  134.2288  150.4355 N   0  0  0  0  0  0  0  0  0  0  0  0
  144.2351  133.4267  149.9299 C   0  0  0  0  0  0  0  0  0  0  0  0
  144.6250  132.1302  150.1072 C   0  0  0  0  0  0  0  0  0  0  0  0
  145.8962  132.2417  150.7368 C   0  0  0  0  0  0  0  0  0  0  0  0
  146.2584  133.4992  150.9345 N   0  0  0  0  0  0  0  0  0  0  0  0
  146.4035  137.3552  151.9320 N   0  3  0  0  0  0  0  0  0  0  0  0
  146.2410  138.3011  153.0580 C   0  0  0  0  0  0  0  0  0  0  0  0
  147.2558  139.4593  152.9864 C   0  0  0  0  0  0  0  0  0  0  0  0
  148.3580  139.4008  154.0518 C   0  0  0  0  0  0  0  0  0  0  0  0
  148.5557  140.3597  154.7986 O   0  0  0  0  0  0  0  0  0  0  0  0
  149.0660  138.2582  154.0959 N   0  0  0  0  0  0  0  0  0  0  0  0
  150.1803  137.9081  154.9854 C   0  0  0  0  0  0  0  0  0  0  0  0
  149.6593  138.0415  156.4273 C   0  0  0  0  0  0  0  0  0  0  0  0
  151.3631  138.8799  154.7879 C   0  0  0  0  0  0  0  0  0  0  0  0
  150.6291  136.4507  154.7476 C   0  0  0  0  0  0  0  0  0  0  0  0
  143.4024  135.7820  152.4881 H   0  0  0  0  0  0  0  0  0  0  0  0
  143.6593  137.4432  151.9650 H   0  0  0  0  0  0  0  0  0  0  0  0
  144.1939  136.9204  153.5603 H   0  0  0  0  0  0  0  0  0  0  0  0
  145.8851  135.4090  152.5282 H   0  0  0  0  0  0  0  0  0  0  0  0
  144.3648  136.0612  150.0527 H   0  0  0  0  0  0  0  0  0  0  0  0
  146.0996  136.0284  149.8406 H   0  0  0  0  0  0  0  0  0  0  0  0
  143.3387  133.8402  149.4913 H   0  0  0  0  0  0  0  0  0  0  0  0
  144.0857  131.2373  149.8276 H   0  0  0  0  0  0  0  0  0  0  0  0
  146.5612  131.4520  151.0543 H   0  0  0  0  0  0  0  0  0  0  0  0
  147.3391  136.9772  151.9877 H   0  0  0  0  0  0  0  0  0  0  0  0
  145.2255  138.6973  153.0730 H   0  0  0  0  0  0  0  0  0  0  0  0
  146.3795  137.7605  153.9950 H   0  0  0  0  0  0  0  0  0  0  0  0
  147.7353  139.4591  152.0070 H   0  0  0  0  0  0  0  0  0  0  0  0
  146.7279  140.4104  153.0718 H   0  0  0  0  0  0  0  0  0  0  0  0
  148.8050  137.5422  153.4333 H   0  0  0  0  0  0  0  0  0  0  0  0
  150.4334  137.7928  157.1541 H   0  0  0  0  0  0  0  0  0  0  0  0
  148.8148  137.3756  156.6094 H   0  0  0  0  0  0  0  0  0  0  0  0
  149.3274  139.0590  156.6388 H   0  0  0  0  0  0  0  0  0  0  0  0
  151.0516  139.9168  154.9203 H   0  0  0  0  0  0  0  0  0  0  0  0
  151.8069  138.7924  153.7961 H   0  0  0  0  0  0  0  0  0  0  0  0
  152.1564  138.6826  155.5094 H   0  0  0  0  0  0  0  0  0  0  0  0
  151.3921  136.1536  155.4677 H   0  0  0  0  0  0  0  0  0  0  0  0
  151.0564  136.3082  153.7552 H   0  0  0  0  0  0  0  0  0  0  0  0
  149.7947  135.7561  154.8509 H   0  0  0  0  0  0  0  0  0  0  0  0
  146.3155  137.8586  151.0604 H   0  0  0  0  0  0  0  0  0  0  0  0
  1  2  1  0  0  0  0
  1 19  1  0  0  0  0
  1 20  1  0  0  0  0
  1 21  1  0  0  0  0
  2  3  1  0  0  0  0
  2  9  1  0  0  0  0
  2 22  1  0  0  0  0
  3  4  1  0  0  0  0
  3 23  1  0  0  0  0
  3 24  1  0  0  0  0
  4  8  1  0  0  0  0
  4  5  1  0  0  0  0
  5  6  2  0  0  0  0
  5 25  1  0  0  0  0
  6  7  1  0  0  0  0
  6 26  1  0  0  0  0
  7  8  2  0  0  0  0
  7 27  1  0  0  0  0
  9 10  1  0  0  0  0
  9 28  1  0  0  0  0
  9 43  1  0  0  0  0
 10 11  1  0  0  0  0
 10 29  1  0  0  0  0
 10 30  1  0  0  0  0
 11 12  1  0  0  0  0
 11 31  1  0  0  0  0
 11 32  1  0  0  0  0
 12 13  2  0  0  0  0
 12 14  1  0  0  0  0
 14 15  1  0  0  0  0
 14 33  1  0  0  0  0
 15 16  1  0  0  0  0
 15 17  1  0  0  0  0
 15 18  1  0  0  0  0
 16 34  1  0  0  0  0
 16 35  1  0  0  0  0
 16 36  1  0  0  0  0
 17 37  1  0  0  0  0
 17 38  1  0  0  0  0
 17 39  1  0  0  0  0
 18 40  1  0  0  0  0
 18 41  1  0  0  0  0
 18 42  1  0  0  0  0
M  CHG  1   9   1
M  END
> <s_m_source_file>
AV-unprocessed.smi

> <i_m_source_file_index>
3313

> <i_lp_mmshare_version>
43012

> <i_f3d_flags>
0

> <s_epik_input>
bjFbY0hdW2NIXVtjSF1uMVtDSDJdW0NAQEhdKFtDSDNdKVtOSF1bQ0gyXVtDSDJdQyg9TylbTkhdQyhbQ0gzXSkoW0NIM10pW0NIM10=

> <s_epik_cmdline>
J2VwaWtfcHl0aG9uJywgJy1waCcsICc3LjAnLCAnLXRuJywgJzgnLCAnLW1hJywgJzIwMCcsICctbWV0YWxfYmluZGluZycsICctaW1hZScsICc8aW5maWxlLm1hZT4nLCAnLW9tYWUnLCAnPG91dGZpbGUubWFlPic=

> <r_lp_tautomer_probability>
1

> <r_epik_Ionization_Penalty>
0.0056766

> <r_epik_Ionization_Penalty_Charging>
0.00567288

> <r_epik_Ionization_Penalty_Neutral>
3.71277e-06

> <r_epik_State_Penalty>
0.0041598

> <r_epik_Charging_Adjusted_Penalty>
0.00983268

> <i_epik_Tot_Q>
1

> <i_epik_Tot_abs_Q>
1

> <r_epik_Metal_State_Penalty>
-0

> <b_epik_Metal_Only>
0

> <s_lp_Force_Field>
OPLS_2005

> <r_lp_Energy>
4.0528

> <b_lp_Chiralities_Consistent>
1

> <s_lp_Variant>
AV-unprocessed.smi:3313-2

> <Gold.Version>
5.8.1

> <Gold.Id.Protein>
6NUR|6NUR_protein|mol2

> <Gold.PLP.Fitness>
44.5699

> <Gold.PLP.PLP>
-32.0078

> <Gold.PLP.part.hbond>
-2.0000

> <Gold.PLP.part.metal>
0.0000

> <Gold.PLP.part.buried>
-1.0669

> <Gold.PLP.part.nonpolar>
-28.3296

> <Gold.PLP.part.repulsive>
0.3778

> <Gold.PLP.ligand.clash>
0.0000

> <Gold.PLP.ligand.torsion>
1.2263

> <Gold.PLP.Chemscore.Hbond>
2.9913

> <Gold.PLP.Chemscore.CHOScore>
1.9843

> <Gold.PLP.Chemscore.Metal>
0.0000

> <Gold.Chemscore.Hbonds>
donor molecule, donor type, donor heavy atom, donor atom, acceptor molecule, acceptor atom, score
      L1  H     9    28       P1  7948  2.00
      L1  H    14    33       P1  7948  0.99
      L1  C     5    25       P1 10186  1.00
      L1  C     7    27       P1 10747  0.81

> <Gold.PLP.Chemscore.Internal.Correction>
0.0879

> <Gold.Rescore>
     Score         DG    S(hbond)    S(metal)    S(lipo)     H(rot)  DE(clash)    DE(int)     intcor
     14.32     -15.75       1.97        0.00      79.69       2.20       0.37       1.06       ----

> <Gold.Chemscore.Fitness>
14.3219

> <Gold.Chemscore.DG>
-15.7490

> <Gold.Chemscore.ZeroCoef>
-5.4800

> <Gold.Chemscore.Hbond>
1.9715

> <Gold.Chemscore.Metal>
0.0000

> <Gold.Chemscore.Lipo>
79.6851

> <Gold.Chemscore.Internal_Hbond>
0.0000

> <Gold.Chemscore.DEClash>
0.3678

> <Gold.Chemscore.DEInternal>
1.0593

> <Gold.Chemscore.Rot>
2.2027

> <Gold.Chemscore.Internal.Correction>
   9.000000E+99

> <Gold.Chemscore.Hbonds>
donor molecule, donor type, donor heavy atom, donor atom, acceptor molecule, acceptor atom, score
      L1  H     9    28       P1  7948  1.00
      L1  H    14    33       P1  7948  0.92

> <Gold.Chemscore.Hbond.Weighted>
-6.5849

> <Gold.Chemscore.Metal.Weighted>
-0.0000

> <Gold.Chemscore.Lipo.Weighted>
-9.3232

> <Gold.Chemscore.Internal_Hbond.Weighted>
0.0000

> <Gold.Chemscore.DEClash.Weighted>
0.3678

> <Gold.Chemscore.DEInternal.Weighted>
1.0593

> <Gold.Chemscore.Rot.Weighted>
5.6390

> <Gold.Chemscore.Internal.Correction.Weighted>
   9.000000E+99

> <Gold.Protein.RotatedTorsions>
[ 6907 6896 6895 6894 ] final -149.07 input  -60.11 | X-H torsion
[ 7974 7965 7964 7962 ] final  114.31 input  175.53 | X-H torsion
[ 8008 7997 7996 7995 ] final -161.42 input   59.86 | X-H torsion
[ 10167 10162 10161 10158 ] final   10.62 input  -65.29 | X-H torsion
[ 10718 10713 10712 10709 ] final  149.43 input   66.30 | X-H torsion
[ 10763 10752 10751 10750 ] final -157.17 input  -60.55 | X-H torsion
[ 11005 11000 10999 10996 ] final  -23.99 input  -57.11 | X-H torsion

> <Gold.Protein.ActiveResidues>
 VAL166  LYS551  ARG553  GLY616  TRP617  ASP618  TYR619  PRO620  LYS621  CYS622 
 ASP623  PHE694  ASN695  SER759  ASP760  ASP761  ALA762  ILE779  LEU786  VAL792 
 PHE793  MET794  SER795  GLU796  ALA797  LYS798  CYS799  TRP800  GLU811  SER814 

> <Gold.Protein.RotatedAtoms>
  151.1789  133.4737  159.2593 H   0  0  0  0  0  0  0  0  0  0  0  0  # atno 6907 bound_to 6896
  151.1279  135.0114  159.8579 H   0  0  0  0  0  0  0  0  0  0  0  0  # atno 6908 bound_to 6896
  152.5459  134.1694  159.8643 H   0  0  0  0  0  0  0  0  0  0  0  0  # atno 6909 bound_to 6896
  145.2060  139.2929  143.4293 H   0  0  0  0  0  0  0  0  0  0  0  0  # atno 7974 bound_to 7965
  155.7920  140.0879  157.2004 H   0  0  0  0  0  0  0  0  0  0  0  0  # atno 8008 bound_to 7997
  154.3985  140.1488  156.3232 H   0  0  0  0  0  0  0  0  0  0  0  0  # atno 8009 bound_to 7997
  155.8549  140.3433  155.5720 H   0  0  0  0  0  0  0  0  0  0  0  0  # atno 8010 bound_to 7997
  140.6183  143.8260  150.7144 H   0  0  0  0  0  0  0  0  0  0  0  0  # atno 10167 bound_to 10162
  157.2962  131.0862  151.1425 H   0  0  0  0  0  0  0  0  0  0  0  0  # atno 10718 bound_to 10713
  154.7656  135.3130  154.8292 H   0  0  0  0  0  0  0  0  0  0  0  0  # atno 10763 bound_to 10752
  153.9041  135.6812  153.4758 H   0  0  0  0  0  0  0  0  0  0  0  0  # atno 10764 bound_to 10752
  153.1262  135.4800  154.9209 H   0  0  0  0  0  0  0  0  0  0  0  0  # atno 10765 bound_to 10752
  140.8803  133.7658  156.0294 H   0  0  0  0  0  0  0  0  0  0  0  0  # atno 11005 bound_to 11000
  146.3408  140.2320  142.8593 LP  0  0  0  0  0  0  0  0  0  0  0  0  # atno 17320 bound_to 7965
  144.9901  140.8539  143.5344 LP  0  0  0  0  0  0  0  0  0  0  0  0  # atno 17321 bound_to 7965
  140.1844  143.4088  152.1909 LP  0  0  0  0  0  0  0  0  0  0  0  0  # atno 17342 bound_to 10162
  139.5417  144.7262  151.4713 LP  0  0  0  0  0  0  0  0  0  0  0  0  # atno 17343 bound_to 10162
  157.2802  130.6746  149.6062 LP  0  0  0  0  0  0  0  0  0  0  0  0  # atno 17370 bound_to 10713
  155.9669  130.4452  150.5492 LP  0  0  0  0  0  0  0  0  0  0  0  0  # atno 17371 bound_to 10713
  140.8469  134.3000  157.5291 LP  0  0  0  0  0  0  0  0  0  0  0  0  # atno 17394 bound_to 11000
  139.8719  134.9447  156.3887 LP  0  0  0  0  0  0  0  0  0  0  0  0  # atno 17395 bound_to 11000

$$$$
