AV-unprocessed.smi:2062|AV-procd|sdf|8401|dock5
  -GOLD-   2272011 83D 1   1.00000     0.00000
 Structure written by MMmdl.
 42 43  0  0  0  0  0  0  0  0  1 V2000
  152.5822  142.0777  159.3960 C   0  0  0  0  0  0  0  0  0  0  0  0
  152.2015  143.1208  158.3334 C   0  0  0  0  0  0  0  0  0  0  0  0
  152.2181  144.5283  158.9549 C   0  0  0  0  0  0  0  0  0  0  0  0
  150.8315  142.7891  157.6961 C   0  0  0  0  0  0  0  0  0  0  0  0
  150.8451  141.7383  156.6770 N   0  0  0  0  0  0  0  0  0  0  0  0
  149.6941  141.8017  155.7804 C   0  0  0  0  0  0  0  0  0  0  0  0
  149.7094  140.6659  154.7432 C   0  0  0  0  0  0  0  0  0  0  0  0
  149.7751  139.4107  155.4107 O   0  0  0  0  0  0  0  0  0  0  0  0
  150.9243  139.2861  156.2453 C   0  0  2  0  0  0  0  0  0  0  0  0
  150.9061  137.8928  156.8974 C   0  0  0  0  0  0  0  0  0  0  0  0
  149.6917  137.6792  157.6775 N   0  0  0  0  0  0  0  0  0  0  0  0
  149.6400  137.0617  158.8661 C   0  0  0  0  0  0  0  0  0  0  0  0
  150.6341  136.6284  159.4486 O   0  0  0  0  0  0  0  0  0  0  0  0
  148.3782  136.9814  159.3184 N   0  0  0  0  0  0  0  0  0  0  0  0
  147.9228  136.3744  160.5151 C   0  0  0  0  0  0  0  0  0  0  0  0
  147.6458  137.1482  161.5663 N   0  0  0  0  0  0  0  0  0  0  0  0
  147.2038  136.4040  162.6641 C   0  0  0  0  0  0  0  0  0  0  0  0
  147.1508  135.0523  162.4294 C   0  0  0  0  0  0  0  0  0  0  0  0
  147.6563  134.6540  160.8095 S   0  0  0  0  0  0  0  0  0  0  0  0
  150.8946  140.4160  157.2932 C   0  0  0  0  0  0  0  0  0  0  0  0
  151.8537  142.0531  160.2070 H   0  0  0  0  0  0  0  0  0  0  0  0
  153.5578  142.2960  159.8311 H   0  0  0  0  0  0  0  0  0  0  0  0
  152.6344  141.0777  158.9642 H   0  0  0  0  0  0  0  0  0  0  0  0
  152.9707  143.0776  157.5609 H   0  0  0  0  0  0  0  0  0  0  0  0
  151.4912  144.6115  159.7634 H   0  0  0  0  0  0  0  0  0  0  0  0
  151.9836  145.2992  158.2217 H   0  0  0  0  0  0  0  0  0  0  0  0
  153.1999  144.7611  159.3680 H   0  0  0  0  0  0  0  0  0  0  0  0
  150.1607  142.4664  158.4938 H   0  0  0  0  0  0  0  0  0  0  0  0
  150.3759  143.6953  157.2936 H   0  0  0  0  0  0  0  0  0  0  0  0
  148.7703  141.7511  156.3588 H   0  0  0  0  0  0  0  0  0  0  0  0
  149.6829  142.7527  155.2492 H   0  0  0  0  0  0  0  0  0  0  0  0
  148.8075  140.6981  154.1320 H   0  0  0  0  0  0  0  0  0  0  0  0
  150.5593  140.7710  154.0668 H   0  0  0  0  0  0  0  0  0  0  0  0
  151.8233  139.3894  155.6349 H   0  0  0  0  0  0  0  0  0  0  0  0
  150.9964  137.1158  156.1362 H   0  0  0  0  0  0  0  0  0  0  0  0
  151.7648  137.7778  157.5594 H   0  0  0  0  0  0  0  0  0  0  0  0
  148.8270  138.0021  157.2685 H   0  0  0  0  0  0  0  0  0  0  0  0
  147.6608  137.3861  158.7351 H   0  0  0  0  0  0  0  0  0  0  0  0
  146.9462  136.9196  163.5774 H   0  0  0  0  0  0  0  0  0  0  0  0
  146.8456  134.2699  163.1081 H   0  0  0  0  0  0  0  0  0  0  0  0
  151.7789  140.3394  157.9273 H   0  0  0  0  0  0  0  0  0  0  0  0
  150.0310  140.2819  157.9469 H   0  0  0  0  0  0  0  0  0  0  0  0
  1  2  1  0  0  0  0
  1 21  1  0  0  0  0
  1 22  1  0  0  0  0
  1 23  1  0  0  0  0
  2  3  1  0  0  0  0
  2  4  1  0  0  0  0
  2 24  1  0  0  0  0
  3 25  1  0  0  0  0
  3 26  1  0  0  0  0
  3 27  1  0  0  0  0
  4  5  1  0  0  0  0
  4 28  1  0  0  0  0
  4 29  1  0  0  0  0
  5 20  1  0  0  0  0
  5  6  1  0  0  0  0
  6  7  1  0  0  0  0
  6 30  1  0  0  0  0
  6 31  1  0  0  0  0
  7  8  1  0  0  0  0
  7 32  1  0  0  0  0
  7 33  1  0  0  0  0
  8  9  1  0  0  0  0
  9 10  1  0  0  0  0
  9 20  1  0  0  0  0
  9 34  1  0  0  0  0
 10 11  1  0  0  0  0
 10 35  1  0  0  0  0
 10 36  1  0  0  0  0
 11 12  1  0  0  0  0
 11 37  1  0  0  0  0
 12 13  2  0  0  0  0
 12 14  1  0  0  0  0
 14 15  1  0  0  0  0
 14 38  1  0  0  0  0
 15 19  1  0  0  0  0
 15 16  2  0  0  0  0
 16 17  1  0  0  0  0
 17 18  2  0  0  0  0
 17 39  1  0  0  0  0
 18 19  1  0  0  0  0
 18 40  1  0  0  0  0
 20 41  1  0  0  0  0
 20 42  1  0  0  0  0
M  END
> <s_m_source_file>
AV-unprocessed.smi

> <i_m_source_file_index>
2062

> <i_lp_mmshare_version>
43012

> <i_f3d_flags>
0

> <s_epik_input>
W0NIM11bQ0hdKFtDSDNdKVtDSDJdTjFbQ0gyXVtDSDJdT1tDQEhdKFtDSDJdMSlbQ0gyXVtOSF1DKD1PKVtOSF1jMm5bY0hdW2NIXXMy

> <s_epik_cmdline>
J2VwaWtfcHl0aG9uJywgJy1waCcsICc3LjAnLCAnLXRuJywgJzgnLCAnLW1hJywgJzIwMCcsICctbWV0YWxfYmluZGluZycsICctaW1hZScsICc8aW5maWxlLm1hZT4nLCAnLW9tYWUnLCAnPG91dGZpbGUubWFlPic=

> <r_lp_tautomer_probability>
0.999

> <r_epik_Ionization_Penalty>
1.11227

> <r_epik_Ionization_Penalty_Charging>
0

> <r_epik_Ionization_Penalty_Neutral>
1.11227

> <r_epik_State_Penalty>
1.17021

> <r_epik_Charging_Adjusted_Penalty>
1.17021

> <i_epik_Tot_Q>
0

> <i_epik_Tot_abs_Q>
0

> <r_epik_Metal_State_Penalty>
1.22349

> <b_epik_Metal_Only>
0

> <s_lp_Force_Field>
OPLS_2005

> <r_lp_Energy>
23.0648

> <b_lp_Chiralities_Consistent>
1

> <s_lp_Variant>
AV-unprocessed.smi:2062-6

> <Gold.Version>
5.8.1

> <Gold.Id.Protein>
6NUR|6NUR_protein|mol2

> <Gold.PLP.Fitness>
44.4111

> <Gold.PLP.PLP>
-38.6164

> <Gold.PLP.part.hbond>
-3.0000

> <Gold.PLP.part.metal>
0.0000

> <Gold.PLP.part.buried>
-2.4312

> <Gold.PLP.part.nonpolar>
-33.5329

> <Gold.PLP.part.repulsive>
0.3638

> <Gold.PLP.ligand.clash>
0.0000

> <Gold.PLP.ligand.torsion>
1.2481

> <Gold.PLP.Chemscore.Hbond>
2.7520

> <Gold.PLP.Chemscore.CHOScore>
0.0000

> <Gold.PLP.Chemscore.Metal>
0.0000

> <Gold.Chemscore.Hbonds>
donor molecule, donor type, donor heavy atom, donor atom, acceptor molecule, acceptor atom, score
      P1  H  6896  6909       L1    13  1.00
      P1  H  6931  6943       L1    16  1.00
      P1  H  6934  6947       L1    16  0.78

> <Gold.PLP.Chemscore.Internal.Correction>
0.0348

> <Gold.Rescore>
     Score         DG    S(hbond)    S(metal)    S(lipo)     H(rot)  DE(clash)    DE(int)     intcor
     18.68     -20.31       2.31        0.00      98.52       1.72       0.45       1.18       ----

> <Gold.Chemscore.Fitness>
18.6794

> <Gold.Chemscore.DG>
-20.3147

> <Gold.Chemscore.ZeroCoef>
-5.4800

> <Gold.Chemscore.Hbond>
2.3081

> <Gold.Chemscore.Metal>
0.0000

> <Gold.Chemscore.Lipo>
98.5248

> <Gold.Chemscore.Internal_Hbond>
0.0000

> <Gold.Chemscore.DEClash>
0.4527

> <Gold.Chemscore.DEInternal>
1.1826

> <Gold.Chemscore.Rot>
1.7195

> <Gold.Chemscore.Internal.Correction>
   9.000000E+99

> <Gold.Chemscore.Hbonds>
donor molecule, donor type, donor heavy atom, donor atom, acceptor molecule, acceptor atom, score
      P1  H  6896  6909       L1    13  0.96
      P1  H  6931  6943       L1    16  0.68
      P1  H  6934  6947       L1    16  0.54

> <Gold.Chemscore.Hbond.Weighted>
-7.7092

> <Gold.Chemscore.Metal.Weighted>
-0.0000

> <Gold.Chemscore.Lipo.Weighted>
-11.5274

> <Gold.Chemscore.Internal_Hbond.Weighted>
0.0000

> <Gold.Chemscore.DEClash.Weighted>
0.4527

> <Gold.Chemscore.DEInternal.Weighted>
1.1826

> <Gold.Chemscore.Rot.Weighted>
4.4019

> <Gold.Chemscore.Internal.Correction.Weighted>
   9.000000E+99

> <Gold.Protein.RotatedTorsions>
[ 6907 6896 6895 6894 ] final  112.08 input  -60.11 | X-H torsion
[ 7974 7965 7964 7962 ] final  -34.27 input  175.53 | X-H torsion
[ 8008 7997 7996 7995 ] final  172.98 input   59.86 | X-H torsion
[ 10167 10162 10161 10158 ] final -105.92 input  -65.29 | X-H torsion
[ 10718 10713 10712 10709 ] final  176.08 input   66.30 | X-H torsion
[ 10763 10752 10751 10750 ] final   50.13 input  -60.55 | X-H torsion
[ 11005 11000 10999 10996 ] final  -24.04 input  -57.11 | X-H torsion

> <Gold.Protein.ActiveResidues>
 VAL166  LYS551  ARG553  GLY616  TRP617  ASP618  TYR619  PRO620  LYS621  CYS622 
 ASP623  PHE694  ASN695  SER759  ASP760  ASP761  ALA762  ILE779  LEU786  VAL792 
 PHE793  MET794  SER795  GLU796  ALA797  LYS798  CYS799  TRP800  GLU811  SER814 

> <Gold.Protein.RotatedAtoms>
  152.4935  133.8566  159.7228 H   0  0  0  0  0  0  0  0  0  0  0  0  # atno 6907 bound_to 6896
  150.9089  133.7014  159.2866 H   0  0  0  0  0  0  0  0  0  0  0  0  # atno 6908 bound_to 6896
  151.4430  135.1026  159.9728 H   0  0  0  0  0  0  0  0  0  0  0  0  # atno 6909 bound_to 6896
  146.0843  140.6017  142.8893 H   0  0  0  0  0  0  0  0  0  0  0  0  # atno 7974 bound_to 7965
  156.1121  140.1472  156.9324 H   0  0  0  0  0  0  0  0  0  0  0  0  # atno 8008 bound_to 7997
  154.4774  140.0890  156.7338 H   0  0  0  0  0  0  0  0  0  0  0  0  # atno 8009 bound_to 7997
  155.4578  140.3437  155.4311 H   0  0  0  0  0  0  0  0  0  0  0  0  # atno 8010 bound_to 7997
  140.1933  143.3875  152.1189 H   0  0  0  0  0  0  0  0  0  0  0  0  # atno 10167 bound_to 10162
  156.9255  130.9954  151.2997 H   0  0  0  0  0  0  0  0  0  0  0  0  # atno 10718 bound_to 10713
  152.9785  135.5889  154.4201 H   0  0  0  0  0  0  0  0  0  0  0  0  # atno 10763 bound_to 10752
  154.3827  135.2767  155.2204 H   0  0  0  0  0  0  0  0  0  0  0  0  # atno 10764 bound_to 10752
  154.4111  135.6081  153.6007 H   0  0  0  0  0  0  0  0  0  0  0  0  # atno 10765 bound_to 10752
  140.8808  133.7655  156.0300 H   0  0  0  0  0  0  0  0  0  0  0  0  # atno 11005 bound_to 11000
  144.7315  140.4685  143.6934 LP  0  0  0  0  0  0  0  0  0  0  0  0  # atno 17320 bound_to 7965
  145.6159  139.1518  143.3050 LP  0  0  0  0  0  0  0  0  0  0  0  0  # atno 17321 bound_to 7965
  139.5247  144.7087  151.5275 LP  0  0  0  0  0  0  0  0  0  0  0  0  # atno 17342 bound_to 10162
  140.6441  143.8830  150.6720 LP  0  0  0  0  0  0  0  0  0  0  0  0  # atno 17343 bound_to 10162
  157.5881  130.8424  149.8618 LP  0  0  0  0  0  0  0  0  0  0  0  0  # atno 17370 bound_to 10713
  156.0471  130.3725  150.1290 LP  0  0  0  0  0  0  0  0  0  0  0  0  # atno 17371 bound_to 10713
  140.8463  134.3007  157.5293 LP  0  0  0  0  0  0  0  0  0  0  0  0  # atno 17394 bound_to 11000
  139.8719  134.9444  156.3879 LP  0  0  0  0  0  0  0  0  0  0  0  0  # atno 17395 bound_to 11000

$$$$
