AV-unprocessed.smi:1239|AV-procd|sdf|5192|dock4
  -GOLD-   22720 4273D 1   1.00000     0.00000
 Structure written by MMmdl.
 48 49  0  0  0  0  0  0  0  0  2 V2000
  145.5541  137.7004  154.0038 C   0  0  0  0  0  0  0  0  0  0  0  0
  145.5585  137.4746  152.4711 C   0  0  1  0  0  0  0  0  0  0  0  0
  146.3516  138.6068  151.7654 C   0  0  0  0  0  0  0  0  0  0  0  0
  147.6814  138.7962  152.3346 N   0  0  0  0  0  0  0  0  0  0  0  0
  147.9329  139.4909  153.4518 C   0  0  0  0  0  0  0  0  0  0  0  0
  147.0531  140.0444  154.1099 O   0  0  0  0  0  0  0  0  0  0  0  0
  149.2469  139.4881  153.7365 N   0  0  0  0  0  0  0  0  0  0  0  0
  149.9405  140.0841  154.8265 C   0  0  0  0  0  0  0  0  0  0  0  0
  151.1447  139.6002  155.3894 C   0  0  0  0  0  0  0  0  0  0  0  0
  151.7215  140.2930  156.4712 C   0  0  0  0  0  0  0  0  0  0  0  0
  151.0861  141.4559  156.9723 C   0  0  0  0  0  0  0  0  0  0  0  0
  151.6282  142.1849  158.0555 N   0  0  0  0  0  0  0  0  0  0  0  0
  151.0490  143.4719  158.4272 C   0  0  0  0  0  0  0  0  0  0  0  0
  152.7431  141.6408  158.8210 C   0  0  0  0  0  0  0  0  0  0  0  0
  149.9315  141.9131  156.4298 N   0  0  0  0  0  0  0  0  0  0  0  0
  149.3821  141.2462  155.3941 C   0  0  0  0  0  0  0  0  0  0  0  0
  146.0762  136.1110  152.1113 N   0  3  0  0  0  0  0  0  0  0  0  0
  145.8259  135.0825  153.1610 C   0  0  0  0  0  0  0  0  0  0  0  0
  146.3715  133.7046  152.7506 C   0  0  0  0  0  0  0  0  0  0  0  0
  145.7953  133.3095  151.5166 O   0  0  0  0  0  0  0  0  0  0  0  0
  146.1449  134.2100  150.4785 C   0  0  0  0  0  0  0  0  0  0  0  0
  145.5903  135.6093  150.7941 C   0  0  0  0  0  0  0  0  0  0  0  0
  145.2522  138.7121  154.2728 H   0  0  0  0  0  0  0  0  0  0  0  0
  146.5430  137.5313  154.4312 H   0  0  0  0  0  0  0  0  0  0  0  0
  144.8465  137.0497  154.5156 H   0  0  0  0  0  0  0  0  0  0  0  0
  144.5246  137.5318  152.1265 H   0  0  0  0  0  0  0  0  0  0  0  0
  146.4395  138.3944  150.6984 H   0  0  0  0  0  0  0  0  0  0  0  0
  145.8465  139.5665  151.8660 H   0  0  0  0  0  0  0  0  0  0  0  0
  148.4575  138.3708  151.8488 H   0  0  0  0  0  0  0  0  0  0  0  0
  149.8321  138.9766  153.0922 H   0  0  0  0  0  0  0  0  0  0  0  0
  151.6440  138.7170  155.0261 H   0  0  0  0  0  0  0  0  0  0  0  0
  152.6411  139.9170  156.8929 H   0  0  0  0  0  0  0  0  0  0  0  0
  151.0921  144.1686  157.5894 H   0  0  0  0  0  0  0  0  0  0  0  0
  151.5848  143.9235  159.2625 H   0  0  0  0  0  0  0  0  0  0  0  0
  150.0068  143.3512  158.7247 H   0  0  0  0  0  0  0  0  0  0  0  0
  152.4730  140.6811  159.2627 H   0  0  0  0  0  0  0  0  0  0  0  0
  153.0326  142.3093  159.6322 H   0  0  0  0  0  0  0  0  0  0  0  0
  153.6145  141.4985  158.1811 H   0  0  0  0  0  0  0  0  0  0  0  0
  148.4624  141.6589  155.0053 H   0  0  0  0  0  0  0  0  0  0  0  0
  146.3131  135.3511  154.0966 H   0  0  0  0  0  0  0  0  0  0  0  0
  144.7551  135.0153  153.3590 H   0  0  0  0  0  0  0  0  0  0  0  0
  147.4599  133.7229  152.6723 H   0  0  0  0  0  0  0  0  0  0  0  0
  146.1208  132.9623  153.5085 H   0  0  0  0  0  0  0  0  0  0  0  0
  147.2283  134.2390  150.3509 H   0  0  0  0  0  0  0  0  0  0  0  0
  145.7260  133.8446  149.5407 H   0  0  0  0  0  0  0  0  0  0  0  0
  144.4994  135.5876  150.7903 H   0  0  0  0  0  0  0  0  0  0  0  0
  145.9059  136.2625  149.9829 H   0  0  0  0  0  0  0  0  0  0  0  0
  147.0795  136.1965  152.0301 H   0  0  0  0  0  0  0  0  0  0  0  0
  1  2  1  0  0  0  0
  1 23  1  0  0  0  0
  1 24  1  0  0  0  0
  1 25  1  0  0  0  0
  2  3  1  0  0  0  0
  2 17  1  0  0  0  0
  2 26  1  0  0  0  0
  3  4  1  0  0  0  0
  3 27  1  0  0  0  0
  3 28  1  0  0  0  0
  4  5  1  0  0  0  0
  4 29  1  0  0  0  0
  5  6  2  0  0  0  0
  5  7  1  0  0  0  0
  7  8  1  0  0  0  0
  7 30  1  0  0  0  0
  8 16  1  0  0  0  0
  8  9  2  0  0  0  0
  9 10  1  0  0  0  0
  9 31  1  0  0  0  0
 10 11  2  0  0  0  0
 10 32  1  0  0  0  0
 11 12  1  0  0  0  0
 11 15  1  0  0  0  0
 12 13  1  0  0  0  0
 12 14  1  0  0  0  0
 13 33  1  0  0  0  0
 13 34  1  0  0  0  0
 13 35  1  0  0  0  0
 14 36  1  0  0  0  0
 14 37  1  0  0  0  0
 14 38  1  0  0  0  0
 15 16  2  0  0  0  0
 16 39  1  0  0  0  0
 17 22  1  0  0  0  0
 17 18  1  0  0  0  0
 17 48  1  0  0  0  0
 18 19  1  0  0  0  0
 18 40  1  0  0  0  0
 18 41  1  0  0  0  0
 19 20  1  0  0  0  0
 19 42  1  0  0  0  0
 19 43  1  0  0  0  0
 20 21  1  0  0  0  0
 21 22  1  0  0  0  0
 21 44  1  0  0  0  0
 21 45  1  0  0  0  0
 22 46  1  0  0  0  0
 22 47  1  0  0  0  0
M  CHG  1  17   1
M  END
> <s_m_source_file>
AV-unprocessed.smi

> <i_m_source_file_index>
1239

> <i_lp_mmshare_version>
43012

> <i_f3d_flags>
0

> <s_epik_input>
W0NIMl0xW0NIMl1PW0NIMl1bQ0gyXU4xW0NASF0oW0NIM10pW0NIMl1bTkhdQyg9TylbTkhdYzJbY0hdW2NIXWMoTihbQ0gzXSlbQ0gzXSluW2NIXTI=

> <s_epik_cmdline>
J2VwaWtfcHl0aG9uJywgJy1waCcsICc3LjAnLCAnLXRuJywgJzgnLCAnLW1hJywgJzIwMCcsICctbWV0YWxfYmluZGluZycsICctaW1hZScsICc8aW5maWxlLm1hZT4nLCAnLW9tYWUnLCAnPG91dGZpbGUubWFlPic=

> <r_epik_Ionization_Penalty>
1.1428

> <r_epik_Ionization_Penalty_Charging>
0.602531

> <r_epik_Ionization_Penalty_Neutral>
0.540271

> <r_epik_State_Penalty>
1.1888

> <r_epik_Charging_Adjusted_Penalty>
1.79133

> <i_epik_Tot_Q>
1

> <i_epik_Tot_abs_Q>
1

> <r_epik_Metal_State_Penalty>
0.936295

> <b_epik_Metal_Only>
0

> <s_lp_Force_Field>
OPLS_2005

> <r_lp_Energy>
25.9365

> <b_lp_Chiralities_Consistent>
1

> <s_lp_Variant>
AV-unprocessed.smi:1239-8

> <Gold.Version>
5.8.1

> <Gold.Id.Protein>
6NUR|6NUR_protein|mol2

> <Gold.PLP.Fitness>
43.6396

> <Gold.PLP.PLP>
-37.6613

> <Gold.PLP.part.hbond>
-3.9313

> <Gold.PLP.part.metal>
0.0000

> <Gold.PLP.part.buried>
-3.8499

> <Gold.PLP.part.nonpolar>
-31.3138

> <Gold.PLP.part.repulsive>
1.1875

> <Gold.PLP.ligand.clash>
0.0000

> <Gold.PLP.ligand.torsion>
1.0079

> <Gold.PLP.Chemscore.Hbond>
2.6400

> <Gold.PLP.Chemscore.CHOScore>
0.0000

> <Gold.PLP.Chemscore.Metal>
0.0000

> <Gold.Chemscore.Hbonds>
donor molecule, donor type, donor heavy atom, donor atom, acceptor molecule, acceptor atom, score
      L1  H     4    29       P1  7948  0.38
      L1  H     7    30       P1  7957  0.06
      L1  H    17    48       P1  7948  2.00

> <Gold.PLP.Chemscore.Internal.Correction>
0.0741

> <Gold.Rescore>
     Score         DG    S(hbond)    S(metal)    S(lipo)     H(rot)  DE(clash)    DE(int)     intcor
     13.47     -16.84       1.81        0.00      77.82       1.48       0.02       3.35       ----

> <Gold.Chemscore.Fitness>
13.4650

> <Gold.Chemscore.DG>
-16.8402

> <Gold.Chemscore.ZeroCoef>
-5.4800

> <Gold.Chemscore.Hbond>
1.8120

> <Gold.Chemscore.Metal>
0.0000

> <Gold.Chemscore.Lipo>
77.8166

> <Gold.Chemscore.Internal_Hbond>
0.0000

> <Gold.Chemscore.DEClash>
0.0230

> <Gold.Chemscore.DEInternal>
3.3522

> <Gold.Chemscore.Rot>
1.4830

> <Gold.Chemscore.Internal.Correction>
   9.000000E+99

> <Gold.Chemscore.Hbonds>
donor molecule, donor type, donor heavy atom, donor atom, acceptor molecule, acceptor atom, score
      L1  H     4    29       P1  7948  0.37
      L1  H     7    30       P1  7957  0.07
      L1  H    17    48       P1  7948  1.00

> <Gold.Chemscore.Hbond.Weighted>
-6.0521

> <Gold.Chemscore.Metal.Weighted>
-0.0000

> <Gold.Chemscore.Lipo.Weighted>
-9.1045

> <Gold.Chemscore.Internal_Hbond.Weighted>
0.0000

> <Gold.Chemscore.DEClash.Weighted>
0.0230

> <Gold.Chemscore.DEInternal.Weighted>
3.3522

> <Gold.Chemscore.Rot.Weighted>
3.7964

> <Gold.Chemscore.Internal.Correction.Weighted>
   9.000000E+99

> <Gold.Protein.RotatedTorsions>
[ 6907 6896 6895 6894 ] final   61.18 input  -60.11 | X-H torsion
[ 7974 7965 7964 7962 ] final  -61.73 input  175.53 | X-H torsion
[ 8008 7997 7996 7995 ] final  -61.87 input   59.86 | X-H torsion
[ 10167 10162 10161 10158 ] final  -96.60 input  -65.29 | X-H torsion
[ 10718 10713 10712 10709 ] final  -86.73 input   66.30 | X-H torsion
[ 10763 10752 10751 10750 ] final   37.72 input  -60.55 | X-H torsion
[ 11005 11000 10999 10996 ] final -126.11 input  -57.11 | X-H torsion

> <Gold.Protein.ActiveResidues>
 VAL166  LYS551  ARG553  GLY616  TRP617  ASP618  TYR619  PRO620  LYS621  CYS622 
 ASP623  PHE694  ASN695  SER759  ASP760  ASP761  ALA762  ILE779  LEU786  VAL792 
 PHE793  MET794  SER795  GLU796  ALA797  LYS798  CYS799  TRP800  GLU811  SER814 

> <Gold.Protein.RotatedAtoms>
  152.4067  134.6195  160.0046 H   0  0  0  0  0  0  0  0  0  0  0  0  # atno 6907 bound_to 6896
  151.6384  133.3322  159.3132 H   0  0  0  0  0  0  0  0  0  0  0  0  # atno 6908 bound_to 6896
  150.7961  134.7063  159.6623 H   0  0  0  0  0  0  0  0  0  0  0  0  # atno 6909 bound_to 6896
  145.7999  140.8661  143.0237 H   0  0  0  0  0  0  0  0  0  0  0  0  # atno 7974 bound_to 7965
  154.4470  140.1008  156.6498 H   0  0  0  0  0  0  0  0  0  0  0  0  # atno 8008 bound_to 7997
  155.5410  140.3483  155.4428 H   0  0  0  0  0  0  0  0  0  0  0  0  # atno 8009 bound_to 7997
  156.0597  140.1323  156.9944 H   0  0  0  0  0  0  0  0  0  0  0  0  # atno 8010 bound_to 7997
  140.2921  143.3215  152.0335 H   0  0  0  0  0  0  0  0  0  0  0  0  # atno 10167 bound_to 10162
  155.9988  130.4775  150.4759 H   0  0  0  0  0  0  0  0  0  0  0  0  # atno 10718 bound_to 10713
  153.0027  135.6270  154.2190 H   0  0  0  0  0  0  0  0  0  0  0  0  # atno 10763 bound_to 10752
  154.1933  135.2807  155.3016 H   0  0  0  0  0  0  0  0  0  0  0  0  # atno 10764 bound_to 10752
  154.5742  135.5667  153.7183 H   0  0  0  0  0  0  0  0  0  0  0  0  # atno 10765 bound_to 10752
  140.9707  134.0809  157.3872 H   0  0  0  0  0  0  0  0  0  0  0  0  # atno 11005 bound_to 11000
  144.6770  140.0244  143.7483 LP  0  0  0  0  0  0  0  0  0  0  0  0  # atno 17320 bound_to 7965
  145.9889  139.2999  143.0997 LP  0  0  0  0  0  0  0  0  0  0  0  0  # atno 17321 bound_to 7965
  139.4935  144.6517  151.6661 LP  0  0  0  0  0  0  0  0  0  0  0  0  # atno 17342 bound_to 10162
  140.5723  144.0088  150.6223 LP  0  0  0  0  0  0  0  0  0  0  0  0  # atno 17343 bound_to 10162
  157.2769  131.0599  151.2223 LP  0  0  0  0  0  0  0  0  0  0  0  0  # atno 17370 bound_to 10713
  157.3283  130.6972  149.6309 LP  0  0  0  0  0  0  0  0  0  0  0  0  # atno 17371 bound_to 10713
  139.8911  135.0116  156.6774 LP  0  0  0  0  0  0  0  0  0  0  0  0  # atno 17394 bound_to 11000
  140.7332  133.9041  155.8226 LP  0  0  0  0  0  0  0  0  0  0  0  0  # atno 17395 bound_to 11000

$$$$
