AV-unprocessed.smi:201|AV-procd|sdf|1580|dock1
  -GOLD-   2262019463D 1   1.00000     0.00000
 Structure written by MMmdl.
 59 61  0  0  0  0  0  0  0  0  1 V2000
  146.4938  141.9418  156.7968 C   0  0  0  0  0  0  0  0  0  0  0  0
  147.3301  141.7915  155.5119 C   0  0  0  0  0  0  0  0  0  0  0  0
  146.5606  142.4466  154.3438 C   0  0  0  0  0  0  0  0  0  0  0  0
  147.6719  140.3839  155.2403 N   0  0  0  0  0  0  0  0  0  0  0  0
  148.7334  140.0528  154.2849 C   0  0  0  0  0  0  0  0  0  0  0  0
  149.7011  138.9635  154.7911 C   0  0  0  0  0  0  0  0  0  0  0  0
  150.7438  139.5217  155.5777 O   0  0  0  0  0  0  0  0  0  0  0  0
  151.7900  138.6129  155.8911 C   0  0  0  0  0  0  0  0  0  0  0  0
  151.1753  137.3138  156.4247 C   0  0  0  0  0  0  0  0  0  0  0  0
  151.0910  136.3580  155.3895 O   0  0  0  0  0  0  0  0  0  0  0  0
  146.6586  139.4843  155.1845 C   0  0  0  0  0  0  0  0  0  0  0  0
  145.9443  139.2867  156.3211 N   0  0  0  0  0  0  0  0  0  0  0  0
  144.9396  138.4061  156.3385 C   0  0  0  0  0  0  0  0  0  0  0  0
  144.4964  137.6259  155.3509 N   0  0  0  0  0  0  0  0  0  0  0  0
  145.2202  137.8110  154.2098 C   0  0  0  0  0  0  0  0  0  0  0  0
  146.3078  138.7131  154.0382 C   0  0  0  0  0  0  0  0  0  0  0  0
  146.7960  138.6195  152.7401 N   0  0  0  0  0  0  0  0  0  0  0  0
  146.0333  137.7248  152.1746 C   0  0  0  0  0  0  0  0  0  0  0  0
  145.0722  137.1721  152.9905 N   0  0  0  0  0  0  0  0  0  0  0  0
  144.0913  136.1599  152.6254 C   0  0  0  0  0  0  0  0  0  0  0  0
  144.6609  134.7343  152.3459 C   0  0  0  0  0  0  0  0  0  0  0  0
  145.1321  134.1452  153.7061 C   0  0  0  0  0  0  0  0  0  0  0  0
  144.0742  134.0200  154.6363 O   0  0  0  0  0  0  0  0  0  0  0  0
  143.5992  133.8243  151.6742 C   0  0  0  0  0  0  0  0  0  0  0  0
  144.1809  132.4750  151.2149 C   0  0  0  0  0  0  0  0  0  0  0  0
  145.2611  132.6956  150.3163 O   0  0  0  0  0  0  0  0  0  0  0  0
  146.3401  133.4105  150.9062 C   0  0  0  0  0  0  0  0  0  0  0  0
  145.8631  134.8010  151.3673 C   0  0  0  0  0  0  0  0  0  0  0  0
  146.2040  142.9810  156.9559 H   0  0  0  0  0  0  0  0  0  0  0  0
  147.0504  141.6363  157.6827 H   0  0  0  0  0  0  0  0  0  0  0  0
  145.5805  141.3476  156.7486 H   0  0  0  0  0  0  0  0  0  0  0  0
  148.2554  142.3471  155.6616 H   0  0  0  0  0  0  0  0  0  0  0  0
  146.2812  143.4721  154.5867 H   0  0  0  0  0  0  0  0  0  0  0  0
  145.6437  141.9002  154.1209 H   0  0  0  0  0  0  0  0  0  0  0  0
  147.1493  142.4942  153.4282 H   0  0  0  0  0  0  0  0  0  0  0  0
  148.2849  139.7377  153.3437 H   0  0  0  0  0  0  0  0  0  0  0  0
  149.2880  140.9593  154.0416 H   0  0  0  0  0  0  0  0  0  0  0  0
  149.1768  138.1863  155.3488 H   0  0  0  0  0  0  0  0  0  0  0  0
  150.1725  138.4700  153.9414 H   0  0  0  0  0  0  0  0  0  0  0  0
  152.4342  138.4120  155.0346 H   0  0  0  0  0  0  0  0  0  0  0  0
  152.4150  139.0553  156.6684 H   0  0  0  0  0  0  0  0  0  0  0  0
  151.8115  136.8979  157.2065 H   0  0  0  0  0  0  0  0  0  0  0  0
  150.1931  137.4891  156.8646 H   0  0  0  0  0  0  0  0  0  0  0  0
  150.2739  136.4863  154.9319 H   0  0  0  0  0  0  0  0  0  0  0  0
  144.4171  138.3119  157.2791 H   0  0  0  0  0  0  0  0  0  0  0  0
  146.1566  137.4355  151.1410 H   0  0  0  0  0  0  0  0  0  0  0  0
  143.3538  136.1118  153.4277 H   0  0  0  0  0  0  0  0  0  0  0  0
  143.5531  136.5298  151.7518 H   0  0  0  0  0  0  0  0  0  0  0  0
  145.5848  133.1617  153.5953 H   0  0  0  0  0  0  0  0  0  0  0  0
  145.8989  134.7822  154.1484 H   0  0  0  0  0  0  0  0  0  0  0  0
  143.7066  133.1529  154.5581 H   0  0  0  0  0  0  0  0  0  0  0  0
  142.7520  133.6594  152.3403 H   0  0  0  0  0  0  0  0  0  0  0  0
  143.1933  134.3143  150.7902 H   0  0  0  0  0  0  0  0  0  0  0  0
  144.5064  131.8662  152.0586 H   0  0  0  0  0  0  0  0  0  0  0  0
  143.4132  131.9001  150.6967 H   0  0  0  0  0  0  0  0  0  0  0  0
  146.7723  132.8351  151.7247 H   0  0  0  0  0  0  0  0  0  0  0  0
  147.1280  133.5215  150.1609 H   0  0  0  0  0  0  0  0  0  0  0  0
  145.5885  135.3517  150.4684 H   0  0  0  0  0  0  0  0  0  0  0  0
  146.6905  135.3498  151.8180 H   0  0  0  0  0  0  0  0  0  0  0  0
  1  2  1  0  0  0  0
  1 29  1  0  0  0  0
  1 30  1  0  0  0  0
  1 31  1  0  0  0  0
  2  3  1  0  0  0  0
  2  4  1  0  0  0  0
  2 32  1  0  0  0  0
  3 33  1  0  0  0  0
  3 34  1  0  0  0  0
  3 35  1  0  0  0  0
  4  5  1  0  0  0  0
  4 11  1  0  0  0  0
  5  6  1  0  0  0  0
  5 36  1  0  0  0  0
  5 37  1  0  0  0  0
  6  7  1  0  0  0  0
  6 38  1  0  0  0  0
  6 39  1  0  0  0  0
  7  8  1  0  0  0  0
  8  9  1  0  0  0  0
  8 40  1  0  0  0  0
  8 41  1  0  0  0  0
  9 10  1  0  0  0  0
  9 42  1  0  0  0  0
  9 43  1  0  0  0  0
 10 44  1  0  0  0  0
 11 16  1  0  0  0  0
 11 12  2  0  0  0  0
 12 13  1  0  0  0  0
 13 14  2  0  0  0  0
 13 45  1  0  0  0  0
 14 15  1  0  0  0  0
 15 19  1  0  0  0  0
 15 16  2  0  0  0  0
 16 17  1  0  0  0  0
 17 18  2  0  0  0  0
 18 19  1  0  0  0  0
 18 46  1  0  0  0  0
 19 20  1  0  0  0  0
 20 21  1  0  0  0  0
 20 47  1  0  0  0  0
 20 48  1  0  0  0  0
 21 28  1  0  0  0  0
 21 22  1  0  0  0  0
 21 24  1  0  0  0  0
 22 23  1  0  0  0  0
 22 49  1  0  0  0  0
 22 50  1  0  0  0  0
 23 51  1  0  0  0  0
 24 25  1  0  0  0  0
 24 52  1  0  0  0  0
 24 53  1  0  0  0  0
 25 26  1  0  0  0  0
 25 54  1  0  0  0  0
 25 55  1  0  0  0  0
 26 27  1  0  0  0  0
 27 28  1  0  0  0  0
 27 56  1  0  0  0  0
 27 57  1  0  0  0  0
 28 58  1  0  0  0  0
 28 59  1  0  0  0  0
M  END
> <s_m_source_file>
AV-unprocessed.smi

> <i_m_source_file_index>
201

> <i_lp_mmshare_version>
43012

> <i_f3d_flags>
0

> <s_epik_input>
W09IXVtDSDJdW0NIMl1PW0NIMl1bQ0gyXU4oW0NIXShbQ0gzXSlbQ0gzXSljKG5bY0hdbjEpYyhjMTIpbltjSF1uMltDSDJdQzMoW0NIMl1bT0hdKVtDSDJdW0NIMl1PW0NIMl1bQ0gyXTM=

> <s_epik_cmdline>
J2VwaWtfcHl0aG9uJywgJy1waCcsICc3LjAnLCAnLXRuJywgJzgnLCAnLW1hJywgJzIwMCcsICctbWV0YWxfYmluZGluZycsICctaW1hZScsICc8aW5maWxlLm1hZT4nLCAnLW9tYWUnLCAnPG91dGZpbGUubWFlPic=

> <r_lp_tautomer_probability>
1

> <r_epik_Ionization_Penalty>
0.00276835

> <r_epik_Ionization_Penalty_Charging>
0

> <r_epik_Ionization_Penalty_Neutral>
0.00276835

> <r_epik_State_Penalty>
0.00179834

> <r_epik_Charging_Adjusted_Penalty>
0.00179834

> <i_epik_Tot_Q>
0

> <i_epik_Tot_abs_Q>
0

> <r_epik_Metal_State_Penalty>
-0

> <b_epik_Metal_Only>
0

> <s_lp_Force_Field>
OPLS_2005

> <r_lp_Energy>
32.5455

> <b_lp_Chiralities_Consistent>
1

> <s_lp_Variant>
AV-unprocessed.smi:201-1

> <Gold.Version>
5.8.1

> <Gold.Id.Protein>
6NUR|6NUR_protein|mol2

> <Gold.PLP.Fitness>
47.9636

> <Gold.PLP.PLP>
-38.8862

> <Gold.PLP.part.hbond>
-4.0000

> <Gold.PLP.part.metal>
0.0000

> <Gold.PLP.part.buried>
-1.7260

> <Gold.PLP.part.nonpolar>
-33.8714

> <Gold.PLP.part.repulsive>
0.6795

> <Gold.PLP.ligand.clash>
0.0000

> <Gold.PLP.ligand.torsion>
1.5557

> <Gold.PLP.Chemscore.Hbond>
3.0000

> <Gold.PLP.Chemscore.CHOScore>
0.5829

> <Gold.PLP.Chemscore.Metal>
0.0000

> <Gold.Chemscore.Hbonds>
donor molecule, donor type, donor heavy atom, donor atom, acceptor molecule, acceptor atom, score
      L1  H    23    51       P1 10957  1.00
      P1  H 10752 10764       L1    10  0.34
      L1  C    18    46       P1 10171  0.06

> <Gold.PLP.Chemscore.Internal.Correction>
1.4402

> <Gold.Rescore>
     Score         DG    S(hbond)    S(metal)    S(lipo)     H(rot)  DE(clash)    DE(int)     intcor
      3.81      -9.76       1.97        0.00      82.60       4.68       1.40       4.55       ----

> <Gold.Chemscore.Fitness>
3.8066

> <Gold.Chemscore.DG>
-9.7565

> <Gold.Chemscore.ZeroCoef>
-5.4800

> <Gold.Chemscore.Hbond>
1.9717

> <Gold.Chemscore.Metal>
0.0000

> <Gold.Chemscore.Lipo>
82.6011

> <Gold.Chemscore.Internal_Hbond>
0.0000

> <Gold.Chemscore.DEClash>
1.4027

> <Gold.Chemscore.DEInternal>
4.5471

> <Gold.Chemscore.Rot>
4.6771

> <Gold.Chemscore.Internal.Correction>
   9.000000E+99

> <Gold.Chemscore.Hbonds>
donor molecule, donor type, donor heavy atom, donor atom, acceptor molecule, acceptor atom, score
      L1  H    23    51       P1 10957  1.00
      P1  H 10752 10764       L1    10  0.33

> <Gold.Chemscore.Hbond.Weighted>
-6.5855

> <Gold.Chemscore.Metal.Weighted>
-0.0000

> <Gold.Chemscore.Lipo.Weighted>
-9.6643

> <Gold.Chemscore.Internal_Hbond.Weighted>
0.0000

> <Gold.Chemscore.DEClash.Weighted>
1.4027

> <Gold.Chemscore.DEInternal.Weighted>
4.5471

> <Gold.Chemscore.Rot.Weighted>
11.9733

> <Gold.Chemscore.Internal.Correction.Weighted>
   9.000000E+99

> <Gold.Protein.RotatedTorsions>
[ 6907 6896 6895 6894 ] final  106.38 input  -60.11 | X-H torsion
[ 7974 7965 7964 7962 ] final  108.25 input  175.53 | X-H torsion
[ 8008 7997 7996 7995 ] final   68.89 input   59.86 | X-H torsion
[ 10167 10162 10161 10158 ] final  129.18 input  -65.29 | X-H torsion
[ 10718 10713 10712 10709 ] final  165.36 input   66.30 | X-H torsion
[ 10763 10752 10751 10750 ] final  -80.49 input  -60.55 | X-H torsion
[ 11005 11000 10999 10996 ] final  -56.93 input  -57.11 | X-H torsion

> <Gold.Protein.ActiveResidues>
 VAL166  LYS551  ARG553  GLY616  TRP617  ASP618  TYR619  PRO620  LYS621  CYS622 
 ASP623  PHE694  ASN695  SER759  ASP760  ASP761  ALA762  ILE779  LEU786  VAL792 
 PHE793  MET794  SER795  GLU796  ALA797  LYS798  CYS799  TRP800  GLU811  SER814 

> <Gold.Protein.RotatedAtoms>
  152.5196  133.9389  159.7616 H   0  0  0  0  0  0  0  0  0  0  0  0  # atno 6907 bound_to 6896
  150.9723  133.6322  159.2743 H   0  0  0  0  0  0  0  0  0  0  0  0  # atno 6908 bound_to 6896
  151.3529  135.0894  159.9462 H   0  0  0  0  0  0  0  0  0  0  0  0  # atno 6909 bound_to 6896
  145.2830  139.2626  143.3905 H   0  0  0  0  0  0  0  0  0  0  0  0  # atno 7974 bound_to 7965
  155.7152  140.3494  155.4991 H   0  0  0  0  0  0  0  0  0  0  0  0  # atno 8008 bound_to 7997
  155.9320  140.1086  157.1147 H   0  0  0  0  0  0  0  0  0  0  0  0  # atno 8009 bound_to 7997
  154.4087  140.1229  156.4801 H   0  0  0  0  0  0  0  0  0  0  0  0  # atno 8010 bound_to 7997
  139.5490  144.6798  151.4382 H   0  0  0  0  0  0  0  0  0  0  0  0  # atno 10167 bound_to 10162
  157.0813  131.0393  151.2574 H   0  0  0  0  0  0  0  0  0  0  0  0  # atno 10718 bound_to 10713
  154.5519  135.5659  153.6929 H   0  0  0  0  0  0  0  0  0  0  0  0  # atno 10763 bound_to 10752
  152.9992  135.6253  154.2362 H   0  0  0  0  0  0  0  0  0  0  0  0  # atno 10764 bound_to 10752
  154.2298  135.2866  155.2874 H   0  0  0  0  0  0  0  0  0  0  0  0  # atno 10765 bound_to 10752
  141.1142  133.6610  156.4694 H   0  0  0  0  0  0  0  0  0  0  0  0  # atno 11005 bound_to 11000
  146.3210  140.3303  142.8640 LP  0  0  0  0  0  0  0  0  0  0  0  0  # atno 17320 bound_to 7965
  144.9237  140.7897  143.5732 LP  0  0  0  0  0  0  0  0  0  0  0  0  # atno 17321 bound_to 7965
  140.6747  143.8215  150.7044 LP  0  0  0  0  0  0  0  0  0  0  0  0  # atno 17342 bound_to 10162
  140.1650  143.4243  152.2040 LP  0  0  0  0  0  0  0  0  0  0  0  0  # atno 17343 bound_to 10162
  157.4798  130.7758  149.7403 LP  0  0  0  0  0  0  0  0  0  0  0  0  # atno 17370 bound_to 10713
  155.9923  130.3932  150.2949 LP  0  0  0  0  0  0  0  0  0  0  0  0  # atno 17371 bound_to 10713
  140.4691  134.6770  157.5121 LP  0  0  0  0  0  0  0  0  0  0  0  0  # atno 17394 bound_to 11000
  140.0054  134.6772  155.9463 LP  0  0  0  0  0  0  0  0  0  0  0  0  # atno 17395 bound_to 11000

$$$$
