#       Name:                AV-unprocessed.smi:2816
#       Creating user name   scv26
#       Creation time:       Fri Mar 27 15:28:27 2020


#       File generated by GOLD software.
#

@<TRIPOS>MOLECULE
AV-unprocessed.smi:2816
    46    48     1
SMALL
NO_CHARGES


@<TRIPOS>ATOM
      1 ****        -5.7829   0.9071  -0.7434 C.3            1 S1                 0.0000
      2 ****        -4.2467   0.8193  -0.7423 C.3            1 S1                 0.0000
      3 ****        -3.6935   1.5189  -1.9974 C.3            1 S1                 0.0000
      4 ****        -3.6940   1.4846   0.5312 C.3            1 S1                 0.0000
      5 ****        -3.7803  -0.9832  -0.7574 S.o2           1 S1                 0.0000
      6 ****        -4.2791  -1.5871   0.4885 O.2            1 S1                 0.0000
      7 ****        -4.1928  -1.5584  -2.0476 O.2            1 S1                 0.0000
      8 ****        -1.9876  -1.0279  -0.6964 C.ar           1 S1                 0.0000
      9 ****        -1.3279  -1.1647   0.5416 C.ar           1 S1                 0.0000
     10 ****         0.0793  -1.1479   0.5494 C.ar           1 S1                 0.0000
     11 ****         0.7715  -0.9857  -0.6743 C.ar           1 S1                 0.0000
     12 ****         2.1704  -0.9466  -0.7714 N.pl3          1 S1                 0.0000
     13 ****         3.0107  -0.8213   0.4136 C.3            1 S1                 0.0000
     14 ****         2.9068   0.5552   1.0850 C.3            1 S1                 0.0000
     15 ****         4.3697   1.0147   1.0972 C.3            1 S1                 0.0000
     16 ****         5.2305   0.1904   2.0642 C.3            1 S1                 0.0000
     17 ****         5.3575  -1.1358   1.3151 C.3            1 S1                 0.0000
     18 ****         4.5080  -0.8754   0.0634 C.3            1 S1                 0.0000
     19 ****         4.8011   0.4963  -0.1482 O.3            1 S1                 0.0000
     20 ****         0.0037  -0.8526  -1.8518 C.ar           1 S1                 0.0000
     21 ****        -1.3456  -0.8651  -1.8730 N.ar           1 S1                 0.0000
     22 ****        -6.1221   1.9436  -0.7343 H              1 S1                 0.0000
     23 ****        -6.2089   0.4145   0.1312 H              1 S1                 0.0000
     24 ****        -6.2065   0.4295  -1.6275 H              1 S1                 0.0000
     25 ****        -4.0258   1.0233  -2.9099 H              1 S1                 0.0000
     26 ****        -2.6043   1.5331  -2.0054 H              1 S1                 0.0000
     27 ****        -4.0270   2.5558  -2.0483 H              1 S1                 0.0000
     28 ****        -4.0033   2.5283   0.5959 H              1 S1                 0.0000
     29 ****        -2.6043   1.4682   0.5526 H              1 S1                 0.0000
     30 ****        -4.0499   0.9811   1.4304 H              1 S1                 0.0000
     31 ****        -1.8813  -1.2753   1.4622 H              1 S1                 0.0000
     32 ****         0.6014  -1.2543   1.4883 H              1 S1                 0.0000
     33 ****         2.5928  -0.7652  -1.6710 H              1 S1                 0.0000
     34 ****         2.7706  -1.6279   1.1074 H              1 S1                 0.0000
     35 ****         2.3032   1.2475   0.4961 H              1 S1                 0.0000
     36 ****         2.4787   0.5030   2.0863 H              1 S1                 0.0000
     37 ****         4.4933   2.0930   1.2019 H              1 S1                 0.0000
     38 ****         6.2110   0.6477   2.2010 H              1 S1                 0.0000
     39 ****         4.7635   0.0822   3.0436 H              1 S1                 0.0000
     40 ****         6.3971  -1.3218   1.0434 H              1 S1                 0.0000
     41 ****         4.9991  -1.9873   1.8945 H              1 S1                 0.0000
     42 ****         4.7558  -1.5286  -0.7745 H              1 S1                 0.0000
     43 ****         0.4873  -0.7237  -2.8092 H              1 S1                 0.0000
     44 ****         5.7773   0.6512  -0.3001 LP             1 S1                 0.0000
     45 ****         4.2803   0.8766  -0.9125 LP             1 S1                 0.0000
     46 ****        -1.8515  -0.7577  -2.7289 LP             1 S1                 0.0000
@<TRIPOS>BOND
    1    1    2 1     
    2    1   22 1     
    3    1   23 1     
    4    1   24 1     
    5    2    3 1     
    6    2    4 1     
    7    2    5 1     
    8    3   25 1     
    9    3   26 1     
   10    3   27 1     
   11    4   28 1     
   12    4   29 1     
   13    4   30 1     
   14    5    6 2     
   15    5    7 2     
   16    5    8 1     
   17    8   21 ar    
   18    8    9 ar    
   19    9   10 ar    
   20    9   31 1     
   21   10   11 ar    
   22   10   32 1     
   23   11   12 1     
   24   11   20 ar    
   25   12   13 1     
   26   12   33 1     
   27   13   18 1     
   28   13   14 1     
   29   13   34 1     
   30   14   15 1     
   31   14   35 1     
   32   14   36 1     
   33   15   19 1     
   34   15   16 1     
   35   15   37 1     
   36   16   17 1     
   37   16   38 1     
   38   16   39 1     
   39   17   18 1     
   40   17   40 1     
   41   17   41 1     
   42   18   19 1     
   43   18   42 1     
   44   20   21 ar    
   45   20   43 1     
   46   19   44 1     
   47   19   45 1     
   48   21   46 1     
@<TRIPOS>SUBSTRUCTURE
      1 S1             1
@<TRIPOS>SET
LONE_PAIRS      STATIC     ATOMS    <user>   **** ""
5 6 7 44 45 46
DONOR_HYDROGENS      STATIC     ATOMS    <user>   **** ""
1 33
ATOM$BLUE        STATIC     ATOMS    COLORGROUP SYSTEM
5 6 7 44 45 46
ATOM$RED        STATIC     ATOMS    COLORGROUP SYSTEM
1 33
