AV-unprocessed.smi:1442|AV-procd|sdf|5876|dock7
  -GOLD-   22720 5553D 1   1.00000     0.00000
 Structure written by MMmdl.
 44 45  0  0  0  0  0  0  0  0  1 V2000
  150.2261  143.8797  158.6110 C   0  0  0  0  0  0  0  0  0  0  0  0
  150.3959  142.9679  157.4899 N   0  0  0  0  0  0  0  0  0  0  0  0
  150.6903  141.6657  157.6131 C   0  0  0  0  0  0  0  0  0  0  0  0
  150.8453  141.1111  158.7018 O   0  0  0  0  0  0  0  0  0  0  0  0
  150.8302  140.8679  156.3097 C   0  0  0  0  0  0  0  0  0  0  0  0
  149.5408  140.0685  156.0048 C   0  0  0  0  0  0  0  0  0  0  0  0
  149.7289  139.1636  154.7738 C   0  0  0  0  0  0  0  0  0  0  0  0
  150.8733  138.2689  155.0179 N   0  0  0  0  0  0  0  0  0  0  0  0
  150.8080  136.9518  155.3397 C   0  0  0  0  0  0  0  0  0  0  0  0
  151.7595  136.3228  155.8049 O   0  0  0  0  0  0  0  0  0  0  0  0
  149.6209  136.3712  155.0951 N   0  0  0  0  0  0  0  0  0  0  0  0
  149.2899  134.9791  155.3736 C   0  0  0  0  0  0  0  0  0  0  0  0
  149.2589  134.1392  154.0863 C   0  0  0  0  0  0  0  0  0  0  0  0
  149.4241  132.6745  154.3784 C   0  0  0  0  0  0  0  0  0  0  0  0
  149.8677  132.0698  155.5892 C   0  0  0  0  0  0  0  0  0  0  0  0
  149.9057  130.7490  155.5212 N   0  0  0  0  0  0  0  0  0  0  0  0
  149.4856  130.4652  154.2713 N   0  0  0  0  0  0  0  0  0  0  0  0
  149.4016  129.0853  153.8427 C   0  0  0  0  0  0  0  0  0  0  0  0
  149.1884  131.6070  153.5588 C   0  0  0  0  0  0  0  0  0  0  0  0
  152.1251  139.0295  155.1143 C   0  0  0  0  0  0  0  0  0  0  0  0
  152.0612  139.9319  156.3603 C   0  0  0  0  0  0  0  0  0  0  0  0
  150.0195  144.8852  158.2444 H   0  0  0  0  0  0  0  0  0  0  0  0
  151.1291  143.9183  159.2215 H   0  0  0  0  0  0  0  0  0  0  0  0
  149.3918  143.5685  159.2412 H   0  0  0  0  0  0  0  0  0  0  0  0
  150.2838  143.3498  156.5618 H   0  0  0  0  0  0  0  0  0  0  0  0
  150.9840  141.5711  155.4890 H   0  0  0  0  0  0  0  0  0  0  0  0
  149.2622  139.4513  156.8607 H   0  0  0  0  0  0  0  0  0  0  0  0
  148.7087  140.7527  155.8336 H   0  0  0  0  0  0  0  0  0  0  0  0
  148.7979  138.6423  154.5517 H   0  0  0  0  0  0  0  0  0  0  0  0
  149.9325  139.7736  153.8925 H   0  0  0  0  0  0  0  0  0  0  0  0
  148.8885  136.9434  154.7011 H   0  0  0  0  0  0  0  0  0  0  0  0
  150.0431  134.5845  156.0564 H   0  0  0  0  0  0  0  0  0  0  0  0
  148.3337  134.9193  155.8968 H   0  0  0  0  0  0  0  0  0  0  0  0
  148.3202  134.3127  153.5590 H   0  0  0  0  0  0  0  0  0  0  0  0
  150.0440  134.4856  153.4129 H   0  0  0  0  0  0  0  0  0  0  0  0
  150.1644  132.5511  156.5096 H   0  0  0  0  0  0  0  0  0  0  0  0
  148.8914  129.0233  152.8811 H   0  0  0  0  0  0  0  0  0  0  0  0
  148.8450  128.5013  154.5765 H   0  0  0  0  0  0  0  0  0  0  0  0
  150.4047  128.6707  153.7404 H   0  0  0  0  0  0  0  0  0  0  0  0
  148.8376  131.5670  152.5380 H   0  0  0  0  0  0  0  0  0  0  0  0
  153.0055  138.3872  155.1634 H   0  0  0  0  0  0  0  0  0  0  0  0
  152.2531  139.6356  154.2163 H   0  0  0  0  0  0  0  0  0  0  0  0
  152.9764  140.5208  156.4337 H   0  0  0  0  0  0  0  0  0  0  0  0
  152.0260  139.3047  157.2530 H   0  0  0  0  0  0  0  0  0  0  0  0
  1  2  1  0  0  0  0
  1 22  1  0  0  0  0
  1 23  1  0  0  0  0
  1 24  1  0  0  0  0
  2  3  1  0  0  0  0
  2 25  1  0  0  0  0
  3  4  2  0  0  0  0
  3  5  1  0  0  0  0
  5 21  1  0  0  0  0
  5  6  1  0  0  0  0
  5 26  1  0  0  0  0
  6  7  1  0  0  0  0
  6 27  1  0  0  0  0
  6 28  1  0  0  0  0
  7  8  1  0  0  0  0
  7 29  1  0  0  0  0
  7 30  1  0  0  0  0
  8  9  1  0  0  0  0
  8 20  1  0  0  0  0
  9 10  2  0  0  0  0
  9 11  1  0  0  0  0
 11 12  1  0  0  0  0
 11 31  1  0  0  0  0
 12 13  1  0  0  0  0
 12 32  1  0  0  0  0
 12 33  1  0  0  0  0
 13 14  1  0  0  0  0
 13 34  1  0  0  0  0
 13 35  1  0  0  0  0
 14 19  2  0  0  0  0
 14 15  1  0  0  0  0
 15 16  2  0  0  0  0
 15 36  1  0  0  0  0
 16 17  1  0  0  0  0
 17 18  1  0  0  0  0
 17 19  1  0  0  0  0
 18 37  1  0  0  0  0
 18 38  1  0  0  0  0
 18 39  1  0  0  0  0
 19 40  1  0  0  0  0
 20 21  1  0  0  0  0
 20 41  1  0  0  0  0
 20 42  1  0  0  0  0
 21 43  1  0  0  0  0
 21 44  1  0  0  0  0
M  END
> <s_m_source_file>
AV-unprocessed.smi

> <i_m_source_file_index>
1442

> <i_lp_mmshare_version>
43012

> <i_f3d_flags>
0

> <s_epik_input>
W0NIM11bTkhdQyg9TylbQ0hdMVtDSDJdW0NIMl1OKFtDSDJdW0NIMl0xKUMoPU8pW05IXVtDSDJdW0NIMl1jMltjSF1ubihbQ0gzXSlbY0hdMg==

> <s_epik_cmdline>
J2VwaWtfcHl0aG9uJywgJy1waCcsICc3LjAnLCAnLXRuJywgJzgnLCAnLW1hJywgJzIwMCcsICctbWV0YWxfYmluZGluZycsICctaW1hZScsICc8aW5maWxlLm1hZT4nLCAnLW9tYWUnLCAnPG91dGZpbGUubWFlPic=

> <r_lp_tautomer_probability>
1

> <r_epik_Ionization_Penalty>
0.000562975

> <r_epik_Ionization_Penalty_Charging>
0

> <r_epik_Ionization_Penalty_Neutral>
0.000562975

> <r_epik_State_Penalty>
-0

> <r_epik_Charging_Adjusted_Penalty>
0

> <i_epik_Tot_Q>
0

> <i_epik_Tot_abs_Q>
0

> <r_epik_Metal_State_Penalty>
-0

> <b_epik_Metal_Only>
0

> <s_lp_Force_Field>
OPLS_2005

> <r_lp_Energy>
25.7174

> <b_lp_Chiralities_Consistent>
1

> <s_lp_Variant>
AV-unprocessed.smi:1442-1

> <Gold.Version>
5.8.1

> <Gold.Id.Protein>
6NUR|6NUR_protein|mol2

> <Gold.PLP.Fitness>
43.0985

> <Gold.PLP.PLP>
-36.3614

> <Gold.PLP.part.hbond>
-2.1789

> <Gold.PLP.part.metal>
0.0000

> <Gold.PLP.part.buried>
-3.0592

> <Gold.PLP.part.nonpolar>
-30.9240

> <Gold.PLP.part.repulsive>
0.1103

> <Gold.PLP.ligand.clash>
0.0000

> <Gold.PLP.ligand.torsion>
0.9394

> <Gold.PLP.Chemscore.Hbond>
1.8480

> <Gold.PLP.Chemscore.CHOScore>
1.0000

> <Gold.PLP.Chemscore.Metal>
0.0000

> <Gold.Chemscore.Hbonds>
donor molecule, donor type, donor heavy atom, donor atom, acceptor molecule, acceptor atom, score
      L1  H     2    25       P1  8028  0.48
      P1  H 10752 10763       L1    10  1.00
      L1  C    19    40       P1 10747  1.00

> <Gold.PLP.Chemscore.Internal.Correction>
0.0718

> <Gold.Rescore>
     Score         DG    S(hbond)    S(metal)    S(lipo)     H(rot)  DE(clash)    DE(int)     intcor
     14.10     -15.89       1.94        0.00      72.25       1.77       0.81       0.97       ----

> <Gold.Chemscore.Fitness>
14.1045

> <Gold.Chemscore.DG>
-15.8942

> <Gold.Chemscore.ZeroCoef>
-5.4800

> <Gold.Chemscore.Hbond>
1.9406

> <Gold.Chemscore.Metal>
0.0000

> <Gold.Chemscore.Lipo>
72.2538

> <Gold.Chemscore.Internal_Hbond>
0.0000

> <Gold.Chemscore.DEClash>
0.8147

> <Gold.Chemscore.DEInternal>
0.9750

> <Gold.Chemscore.Rot>
1.7661

> <Gold.Chemscore.Internal.Correction>
   9.000000E+99

> <Gold.Chemscore.Hbonds>
donor molecule, donor type, donor heavy atom, donor atom, acceptor molecule, acceptor atom, score
      L1  H     2    25       P1  8028  0.48
      P1  H 10752 10763       L1    10  0.95

> <Gold.Chemscore.Hbond.Weighted>
-6.4816

> <Gold.Chemscore.Metal.Weighted>
-0.0000

> <Gold.Chemscore.Lipo.Weighted>
-8.4537

> <Gold.Chemscore.Internal_Hbond.Weighted>
0.0000

> <Gold.Chemscore.DEClash.Weighted>
0.8147

> <Gold.Chemscore.DEInternal.Weighted>
0.9750

> <Gold.Chemscore.Rot.Weighted>
4.5211

> <Gold.Chemscore.Internal.Correction.Weighted>
   9.000000E+99

> <Gold.Protein.RotatedTorsions>
[ 6907 6896 6895 6894 ] final  -54.08 input  -60.11 | X-H torsion
[ 7974 7965 7964 7962 ] final  166.40 input  175.53 | X-H torsion
[ 8008 7997 7996 7995 ] final -161.88 input   59.86 | X-H torsion
[ 10167 10162 10161 10158 ] final   75.72 input  -65.29 | X-H torsion
[ 10718 10713 10712 10709 ] final  168.45 input   66.30 | X-H torsion
[ 10763 10752 10751 10750 ] final   62.86 input  -60.55 | X-H torsion
[ 11005 11000 10999 10996 ] final  172.95 input  -57.11 | X-H torsion

> <Gold.Protein.ActiveResidues>
 VAL166  LYS551  ARG553  GLY616  TRP617  ASP618  TYR619  PRO620  LYS621  CYS622 
 ASP623  PHE694  ASN695  SER759  ASP760  ASP761  ALA762  ILE779  LEU786  VAL792 
 PHE793  MET794  SER795  GLU796  ALA797  LYS798  CYS799  TRP800  GLU811  SER814 

> <Gold.Protein.RotatedAtoms>
  150.8370  134.7647  159.6900 H   0  0  0  0  0  0  0  0  0  0  0  0  # atno 6907 bound_to 6896
  152.4464  134.5481  159.9868 H   0  0  0  0  0  0  0  0  0  0  0  0  # atno 6908 bound_to 6896
  151.5630  133.3363  159.3010 H   0  0  0  0  0  0  0  0  0  0  0  0  # atno 6909 bound_to 6896
  144.7464  139.8610  143.6381 H   0  0  0  0  0  0  0  0  0  0  0  0  # atno 7974 bound_to 7965
  155.7986  140.0888  157.1969 H   0  0  0  0  0  0  0  0  0  0  0  0  # atno 8008 bound_to 7997
  154.3982  140.1476  156.3306 H   0  0  0  0  0  0  0  0  0  0  0  0  # atno 8009 bound_to 7997
  155.8486  140.3435  155.5681 H   0  0  0  0  0  0  0  0  0  0  0  0  # atno 8010 bound_to 7997
  140.0000  144.5693  150.7745 H   0  0  0  0  0  0  0  0  0  0  0  0  # atno 10167 bound_to 10162
  157.0369  131.0275  151.2726 H   0  0  0  0  0  0  0  0  0  0  0  0  # atno 10718 bound_to 10713
  152.9997  135.5450  154.6261 H   0  0  0  0  0  0  0  0  0  0  0  0  # atno 10763 bound_to 10752
  154.5549  135.2829  155.0976 H   0  0  0  0  0  0  0  0  0  0  0  0  # atno 10764 bound_to 10752
  154.2201  135.6452  153.5195 H   0  0  0  0  0  0  0  0  0  0  0  0  # atno 10765 bound_to 10752
  140.3352  134.7323  157.4163 H   0  0  0  0  0  0  0  0  0  0  0  0  # atno 11005 bound_to 11000
  146.1348  139.4392  143.0146 LP  0  0  0  0  0  0  0  0  0  0  0  0  # atno 17320 bound_to 7965
  145.7108  141.0107  143.1454 LP  0  0  0  0  0  0  0  0  0  0  0  0  # atno 17321 bound_to 7965
  140.7422  143.2829  151.3546 LP  0  0  0  0  0  0  0  0  0  0  0  0  # atno 17342 bound_to 10162
  139.6279  144.0779  152.2450 LP  0  0  0  0  0  0  0  0  0  0  0  0  # atno 17343 bound_to 10162
  157.5135  130.7953  149.7730 LP  0  0  0  0  0  0  0  0  0  0  0  0  # atno 17370 bound_to 10713
  156.0051  130.3860  150.2461 LP  0  0  0  0  0  0  0  0  0  0  0  0  # atno 17371 bound_to 10713
  140.0827  134.5709  155.8524 LP  0  0  0  0  0  0  0  0  0  0  0  0  # atno 17394 bound_to 11000
  141.2053  133.6646  156.6172 LP  0  0  0  0  0  0  0  0  0  0  0  0  # atno 17395 bound_to 11000

$$$$
