#       Name:                AV-unprocessed.smi:1924
#       Creating user name   scv26
#       Creation time:       Fri Mar 27 09:53:38 2020


#       File generated by GOLD software.
#

@<TRIPOS>MOLECULE
AV-unprocessed.smi:1924
    48    49     1
SMALL
NO_CHARGES


@<TRIPOS>ATOM
      1 ****        -5.6182   4.8303   1.3296 C.3            1 S1                 0.0000
      2 ****        -4.1978   4.9019   1.9009 C.3            1 S1                 0.0000
      3 ****        -3.4542   3.5628   1.8011 C.3            1 S1                 0.0000
      4 ****        -2.0269   3.6392   2.3670 C.3            1 S1                 0.0000
      5 ****        -1.3516   2.3488   2.2898 N.am           1 S1                 0.0000
      6 ****        -0.7303   1.8671   1.2039 C.2            1 S1                 0.0000
      7 ****        -0.6506   2.4829   0.1418 O.2            1 S1                 0.0000
      8 ****        -0.2148   0.6489   1.4448 N.am           1 S1                 0.0000
      9 ****         0.4902  -0.2238   0.5701 C.ar           1 S1                 0.0000
     10 ****         1.0744  -1.3760   1.1338 C.ar           1 S1                 0.0000
     11 ****         1.7690  -2.2749   0.3031 C.ar           1 S1                 0.0000
     12 ****         1.8544  -1.9919  -1.0787 C.ar           1 S1                 0.0000
     13 ****         2.5283  -2.8447  -1.9632 N.3            1 S1                 0.0000
     14 ****         3.9664  -2.8975  -1.7340 C.3            1 S1                 0.0000
     15 ****         4.6412  -3.7538  -2.8198 C.3            1 S1                 0.0000
     16 ****         4.0452  -5.0480  -2.8470 O.3            1 S1                 0.0000
     17 ****         2.6539  -4.9893  -3.1495 C.3            1 S1                 0.0000
     18 ****         1.9263  -4.1676  -2.0713 C.3            1 S1                 0.0000
     19 ****         1.2949  -0.8938  -1.6298 N.ar           1 S1                 0.0000
     20 ****         0.6298  -0.0349  -0.8275 C.ar           1 S1                 0.0000
     21 ****        -6.1192   5.7949   1.4135 H              1 S1                 0.0000
     22 ****        -6.2210   4.0947   1.8629 H              1 S1                 0.0000
     23 ****        -5.6049   4.5528   0.2753 H              1 S1                 0.0000
     24 ****        -3.6365   5.6720   1.3704 H              1 S1                 0.0000
     25 ****        -4.2456   5.2178   2.9438 H              1 S1                 0.0000
     26 ****        -4.0162   2.7952   2.3350 H              1 S1                 0.0000
     27 ****        -3.4183   3.2488   0.7570 H              1 S1                 0.0000
     28 ****        -1.4465   4.4003   1.8425 H              1 S1                 0.0000
     29 ****        -2.0584   3.9410   3.4143 H              1 S1                 0.0000
     30 ****        -1.3660   1.7784   3.1226 H              1 S1                 0.0000
     31 ****        -0.3318   0.3042   2.3863 H              1 S1                 0.0000
     32 ****         0.9929  -1.5726   2.1930 H              1 S1                 0.0000
     33 ****         2.2232  -3.1609   0.7220 H              1 S1                 0.0000
     34 ****         4.3791  -1.8880  -1.7428 H              1 S1                 0.0000
     35 ****         4.1696  -3.3218  -0.7497 H              1 S1                 0.0000
     36 ****         4.5532  -3.2806  -3.7992 H              1 S1                 0.0000
     37 ****         5.7058  -3.8571  -2.6098 H              1 S1                 0.0000
     38 ****         2.5044  -4.5533  -4.1385 H              1 S1                 0.0000
     39 ****         2.2541  -6.0030  -3.1838 H              1 S1                 0.0000
     40 ****         1.9865  -4.6830  -1.1119 H              1 S1                 0.0000
     41 ****         0.8690  -4.0724  -2.3220 H              1 S1                 0.0000
     42 ****         0.1990   0.8065  -1.3451 H              1 S1                 0.0000
     43 ****        -1.0617   3.3907   0.0581 LP             1 S1                 0.0000
     44 ****        -0.1748   2.0757  -0.6378 LP             1 S1                 0.0000
     45 ****         2.4113  -2.4226  -2.8622 LP             1 S1                 0.0000
     46 ****         4.1629  -5.4764  -1.9512 LP             1 S1                 0.0000
     47 ****         4.5038  -5.6000  -3.5434 LP             1 S1                 0.0000
     48 ****         1.3713  -0.7200  -2.6116 LP             1 S1                 0.0000
@<TRIPOS>BOND
    1    1    2 1     
    2    1   21 1     
    3    1   22 1     
    4    1   23 1     
    5    2    3 1     
    6    2   24 1     
    7    2   25 1     
    8    3    4 1     
    9    3   26 1     
   10    3   27 1     
   11    4    5 1     
   12    4   28 1     
   13    4   29 1     
   14    5    6 am    
   15    5   30 1     
   16    6    7 2     
   17    6    8 am    
   18    8    9 1     
   19    8   31 1     
   20    9   20 ar    
   21    9   10 ar    
   22   10   11 ar    
   23   10   32 1     
   24   11   12 ar    
   25   11   33 1     
   26   12   13 1     
   27   12   19 ar    
   28   13   18 1     
   29   13   14 1     
   30   14   15 1     
   31   14   34 1     
   32   14   35 1     
   33   15   16 1     
   34   15   36 1     
   35   15   37 1     
   36   16   17 1     
   37   17   18 1     
   38   17   38 1     
   39   17   39 1     
   40   18   40 1     
   41   18   41 1     
   42   19   20 ar    
   43   20   42 1     
   44    7   43 1     
   45    7   44 1     
   46   13   45 1     
   47   16   46 1     
   48   16   47 1     
   49   19   48 1     
@<TRIPOS>SUBSTRUCTURE
      1 S1             1
@<TRIPOS>SET
LONE_PAIRS      STATIC     ATOMS    <user>   **** ""
6 43 44 45 46 47 48
DONOR_HYDROGENS      STATIC     ATOMS    <user>   **** ""
2 30 31
ATOM$BLUE        STATIC     ATOMS    COLORGROUP SYSTEM
6 43 44 45 46 47 48
ATOM$RED        STATIC     ATOMS    COLORGROUP SYSTEM
2 30 31
