AV-unprocessed.smi:3048|AV-procd|sdf|11628|dock7
  -GOLD-   2272017 13D 1   1.00000     0.00000
 Structure written by MMmdl.
 37 38  0  0  0  0  0  0  0  0  1 V2000
  151.8858  145.5046  159.9135 C   0  0  0  0  0  0  0  0  0  0  0  0
  151.8310  144.2257  159.1286 C   0  0  0  0  0  0  0  0  0  0  0  0
  152.4334  142.9760  159.4500 C   0  0  0  0  0  0  0  0  0  0  0  0
  152.1974  142.0424  158.5429 N   0  0  0  0  0  0  0  0  0  0  0  0
  151.4392  142.6607  157.6129 N   0  0  0  0  0  0  0  0  0  0  0  0
  150.9890  141.9276  156.4437 C   0  0  0  0  0  0  0  0  0  0  0  0
  151.4871  140.4733  156.4373 C   0  0  0  0  0  0  0  0  0  0  0  0
  151.4778  139.9098  155.0901 N   0  0  0  0  0  0  0  0  0  0  0  0
  150.2356  139.2213  154.7567 C   0  0  0  0  0  0  0  0  0  0  0  0
  149.0129  140.0732  155.1297 C   0  0  1  0  0  0  0  0  0  0  0  0
  148.7833  141.2130  154.1183 C   0  0  0  0  0  0  0  0  0  0  0  0
  147.5076  141.9913  154.4618 C   0  0  0  0  0  0  0  0  0  0  0  0
  146.3284  141.0211  154.5899 C   0  0  0  0  0  0  0  0  0  0  0  0
  146.6768  139.8845  155.5636 C   0  0  0  0  0  0  0  0  0  0  0  0
  147.8646  139.2267  155.1333 O   0  0  0  0  0  0  0  0  0  0  0  0
  151.2013  143.9783  157.9418 C   0  0  0  0  0  0  0  0  0  0  0  0
  152.0002  145.3189  160.9816 H   0  0  0  0  0  0  0  0  0  0  0  0
  150.9791  146.0963  159.7861 H   0  0  0  0  0  0  0  0  0  0  0  0
  152.7242  146.1288  159.6035 H   0  0  0  0  0  0  0  0  0  0  0  0
  153.0333  142.7217  160.3115 H   0  0  0  0  0  0  0  0  0  0  0  0
  149.8984  141.9460  156.4262 H   0  0  0  0  0  0  0  0  0  0  0  0
  151.3239  142.4519  155.5475 H   0  0  0  0  0  0  0  0  0  0  0  0
  152.4924  140.4291  156.8578 H   0  0  0  0  0  0  0  0  0  0  0  0
  150.8516  139.8738  157.0899 H   0  0  0  0  0  0  0  0  0  0  0  0
  152.2597  139.2713  154.9827 H   0  0  0  0  0  0  0  0  0  0  0  0
  150.2156  139.0233  153.6841 H   0  0  0  0  0  0  0  0  0  0  0  0
  150.1861  138.2518  155.2538 H   0  0  0  0  0  0  0  0  0  0  0  0
  149.1590  140.4999  156.1242 H   0  0  0  0  0  0  0  0  0  0  0  0
  149.6388  141.8893  154.1097 H   0  0  0  0  0  0  0  0  0  0  0  0
  148.6999  140.8009  153.1118 H   0  0  0  0  0  0  0  0  0  0  0  0
  147.6464  142.5268  155.4018 H   0  0  0  0  0  0  0  0  0  0  0  0
  147.3018  142.7428  153.6989 H   0  0  0  0  0  0  0  0  0  0  0  0
  145.4375  141.5509  154.9283 H   0  0  0  0  0  0  0  0  0  0  0  0
  146.0909  140.6010  153.6117 H   0  0  0  0  0  0  0  0  0  0  0  0
  146.8060  140.2652  156.5780 H   0  0  0  0  0  0  0  0  0  0  0  0
  145.8646  139.1583  155.5983 H   0  0  0  0  0  0  0  0  0  0  0  0
  150.6130  144.6251  157.3075 H   0  0  0  0  0  0  0  0  0  0  0  0
  1  2  1  0  0  0  0
  1 17  1  0  0  0  0
  1 18  1  0  0  0  0
  1 19  1  0  0  0  0
  2 16  2  0  0  0  0
  2  3  1  0  0  0  0
  3  4  2  0  0  0  0
  3 20  1  0  0  0  0
  4  5  1  0  0  0  0
  5  6  1  0  0  0  0
  5 16  1  0  0  0  0
  6  7  1  0  0  0  0
  6 21  1  0  0  0  0
  6 22  1  0  0  0  0
  7  8  1  0  0  0  0
  7 23  1  0  0  0  0
  7 24  1  0  0  0  0
  8  9  1  0  0  0  0
  8 25  1  0  0  0  0
  9 10  1  0  0  0  0
  9 26  1  0  0  0  0
  9 27  1  0  0  0  0
 10 15  1  0  0  0  0
 10 11  1  0  0  0  0
 10 28  1  0  0  0  0
 11 12  1  0  0  0  0
 11 29  1  0  0  0  0
 11 30  1  0  0  0  0
 12 13  1  0  0  0  0
 12 31  1  0  0  0  0
 12 32  1  0  0  0  0
 13 14  1  0  0  0  0
 13 33  1  0  0  0  0
 13 34  1  0  0  0  0
 14 15  1  0  0  0  0
 14 35  1  0  0  0  0
 14 36  1  0  0  0  0
 16 37  1  0  0  0  0
M  END
> <s_m_source_file>
AV-unprocessed.smi

> <i_m_source_file_index>
3048

> <i_lp_mmshare_version>
43012

> <i_f3d_flags>
0

> <s_epik_input>
W0NIM11jMVtjSF1ubihbY0hdMSlbQ0gyXVtDSDJdW05IXVtDSDJdW0NAQEhdMltDSDJdW0NIMl1bQ0gyXVtDSDJdTzI=

> <s_epik_cmdline>
J2VwaWtfcHl0aG9uJywgJy1waCcsICc3LjAnLCAnLXRuJywgJzgnLCAnLW1hJywgJzIwMCcsICctbWV0YWxfYmluZGluZycsICctaW1hZScsICc8aW5maWxlLm1hZT4nLCAnLW9tYWUnLCAnPG91dGZpbGUubWFlPic=

> <r_lp_tautomer_probability>
1

> <r_epik_Ionization_Penalty>
2.52229

> <r_epik_Ionization_Penalty_Charging>
0

> <r_epik_Ionization_Penalty_Neutral>
2.52229

> <r_epik_State_Penalty>
2.68614

> <r_epik_Charging_Adjusted_Penalty>
2.68614

> <i_epik_Tot_Q>
0

> <i_epik_Tot_abs_Q>
0

> <r_epik_Metal_State_Penalty>
2.68365

> <b_epik_Metal_Only>
0

> <s_lp_Force_Field>
OPLS_2005

> <r_lp_Energy>
12.9812

> <b_lp_Chiralities_Consistent>
1

> <s_lp_Variant>
AV-unprocessed.smi:3048-4

> <Gold.Version>
5.8.1

> <Gold.Id.Protein>
6NUR|6NUR_protein|mol2

> <Gold.PLP.Fitness>
41.0701

> <Gold.PLP.PLP>
-36.4419

> <Gold.PLP.part.hbond>
-1.0000

> <Gold.PLP.part.metal>
0.0000

> <Gold.PLP.part.buried>
-4.0086

> <Gold.PLP.part.nonpolar>
-32.1642

> <Gold.PLP.part.repulsive>
0.0515

> <Gold.PLP.ligand.clash>
0.0000

> <Gold.PLP.ligand.torsion>
0.4747

> <Gold.PLP.Chemscore.Hbond>
0.8500

> <Gold.PLP.Chemscore.CHOScore>
1.0000

> <Gold.PLP.Chemscore.Metal>
0.0000

> <Gold.Chemscore.Hbonds>
donor molecule, donor type, donor heavy atom, donor atom, acceptor molecule, acceptor atom, score
      P1  H  7989  7998       L1     8  0.86
      L1  C    16    37       P1  8028  1.00

> <Gold.PLP.Chemscore.Internal.Correction>
0.0276

> <Gold.Rescore>
     Score         DG    S(hbond)    S(metal)    S(lipo)     H(rot)  DE(clash)    DE(int)     intcor
     12.64     -13.24       0.06        0.00      98.42       1.54       0.10       0.51       ----

> <Gold.Chemscore.Fitness>
12.6378

> <Gold.Chemscore.DG>
-13.2402

> <Gold.Chemscore.ZeroCoef>
-5.4800

> <Gold.Chemscore.Hbond>
0.0568

> <Gold.Chemscore.Metal>
0.0000

> <Gold.Chemscore.Lipo>
98.4237

> <Gold.Chemscore.Internal_Hbond>
0.0000

> <Gold.Chemscore.DEClash>
0.0962

> <Gold.Chemscore.DEInternal>
0.5062

> <Gold.Chemscore.Rot>
1.5411

> <Gold.Chemscore.Internal.Correction>
   9.000000E+99

> <Gold.Chemscore.Hbonds>
donor molecule, donor type, donor heavy atom, donor atom, acceptor molecule, acceptor atom, score
      P1  H  7989  7998       L1     8  0.04

> <Gold.Chemscore.Hbond.Weighted>
-0.1898

> <Gold.Chemscore.Metal.Weighted>
-0.0000

> <Gold.Chemscore.Lipo.Weighted>
-11.5156

> <Gold.Chemscore.Internal_Hbond.Weighted>
0.0000

> <Gold.Chemscore.DEClash.Weighted>
0.0962

> <Gold.Chemscore.DEInternal.Weighted>
0.5062

> <Gold.Chemscore.Rot.Weighted>
3.9452

> <Gold.Chemscore.Internal.Correction.Weighted>
   9.000000E+99

> <Gold.Protein.RotatedTorsions>
[ 6907 6896 6895 6894 ] final  -58.00 input  -60.11 | X-H torsion
[ 7974 7965 7964 7962 ] final   24.83 input  175.53 | X-H torsion
[ 8008 7997 7996 7995 ] final  -97.77 input   59.86 | X-H torsion
[ 10167 10162 10161 10158 ] final -174.35 input  -65.29 | X-H torsion
[ 10718 10713 10712 10709 ] final   78.80 input   66.30 | X-H torsion
[ 10763 10752 10751 10750 ] final -148.33 input  -60.55 | X-H torsion
[ 11005 11000 10999 10996 ] final -143.43 input  -57.11 | X-H torsion

> <Gold.Protein.ActiveResidues>
 VAL166  LYS551  ARG553  GLY616  TRP617  ASP618  TYR619  PRO620  LYS621  CYS622 
 ASP623  PHE694  ASN695  SER759  ASP760  ASP761  ALA762  ILE779  LEU786  VAL792 
 PHE793  MET794  SER795  GLU796  ALA797  LYS798  CYS799  TRP800  GLU811  SER814 

> <Gold.Protein.RotatedAtoms>
  150.8041  134.7155  159.6627 H   0  0  0  0  0  0  0  0  0  0  0  0  # atno 6907 bound_to 6896
  152.4160  134.6037  160.0017 H   0  0  0  0  0  0  0  0  0  0  0  0  # atno 6908 bound_to 6896
  151.6267  133.3298  159.3136 H   0  0  0  0  0  0  0  0  0  0  0  0  # atno 6909 bound_to 6896
  146.1918  139.7550  142.8826 H   0  0  0  0  0  0  0  0  0  0  0  0  # atno 7974 bound_to 7965
  154.7922  140.0460  157.1209 H   0  0  0  0  0  0  0  0  0  0  0  0  # atno 8008 bound_to 7997
  154.9578  140.3073  155.5025 H   0  0  0  0  0  0  0  0  0  0  0  0  # atno 8009 bound_to 7997
  156.2951  140.2276  156.4661 H   0  0  0  0  0  0  0  0  0  0  0  0  # atno 8010 bound_to 7997
  139.5638  144.1804  152.1281 H   0  0  0  0  0  0  0  0  0  0  0  0  # atno 10167 bound_to 10162
  157.6756  130.9885  150.1839 H   0  0  0  0  0  0  0  0  0  0  0  0  # atno 10718 bound_to 10713
  154.8238  135.3337  154.6957 H   0  0  0  0  0  0  0  0  0  0  0  0  # atno 10763 bound_to 10752
  153.7586  135.6934  153.4934 H   0  0  0  0  0  0  0  0  0  0  0  0  # atno 10764 bound_to 10752
  153.2126  135.4477  155.0346 H   0  0  0  0  0  0  0  0  0  0  0  0  # atno 10765 bound_to 10752
  140.8126  134.2727  157.4934 H   0  0  0  0  0  0  0  0  0  0  0  0  # atno 11005 bound_to 11000
  145.3768  141.0352  143.3200 LP  0  0  0  0  0  0  0  0  0  0  0  0  # atno 17320 bound_to 7965
  144.8502  139.5334  143.6860 LP  0  0  0  0  0  0  0  0  0  0  0  0  # atno 17321 bound_to 7965
  140.1323  144.5277  150.6795 LP  0  0  0  0  0  0  0  0  0  0  0  0  # atno 17342 bound_to 10162
  140.6920  143.2382  151.5104 LP  0  0  0  0  0  0  0  0  0  0  0  0  # atno 17343 bound_to 10162
  156.2565  130.3706  149.8176 LP  0  0  0  0  0  0  0  0  0  0  0  0  # atno 17370 bound_to 10713
  156.5933  130.8516  151.3413 LP  0  0  0  0  0  0  0  0  0  0  0  0  # atno 17371 bound_to 10713
  139.8713  134.9491  156.4016 LP  0  0  0  0  0  0  0  0  0  0  0  0  # atno 17394 bound_to 11000
  140.9182  133.7663  155.9874 LP  0  0  0  0  0  0  0  0  0  0  0  0  # atno 17395 bound_to 11000

$$$$
