AV-unprocessed.smi:1121|AV-procd|sdf|4826|dock8
  -GOLD-   22720 3383D 1   1.00000     0.00000
 Structure written by MMmdl.
 46 48  0  0  0  0  0  0  0  0  1 V2000
  151.3363  141.1751  157.3982 O   0  0  0  0  0  0  0  0  0  0  0  0
  150.6791  142.1159  156.9528 C   0  0  0  0  0  0  0  0  0  0  0  0
  149.8164  142.0419  155.9261 N   0  0  0  0  0  0  0  0  0  0  0  0
  149.4363  140.8910  155.1788 C   0  0  0  0  0  0  0  0  0  0  0  0
  150.2453  139.7309  155.1126 C   0  0  0  0  0  0  0  0  0  0  0  0
  149.8298  138.6488  154.3164 C   0  0  0  0  0  0  0  0  0  0  0  0
  148.6243  138.7690  153.6035 C   0  0  0  0  0  0  0  0  0  0  0  0
  147.8496  139.8720  153.6445 N   0  0  0  0  0  0  0  0  0  0  0  0
  148.2398  140.9187  154.4124 C   0  0  0  0  0  0  0  0  0  0  0  0
  147.3959  142.0471  154.4475 N   0  0  0  0  0  0  0  0  0  0  0  0
  146.6823  142.3877  153.2208 C   0  0  0  0  0  0  0  0  0  0  0  0
  146.0028  143.7591  153.3745 C   0  0  0  0  0  0  0  0  0  0  0  0
  145.1476  143.7430  154.5142 O   0  0  0  0  0  0  0  0  0  0  0  0
  145.8635  143.4824  155.7184 C   0  0  0  0  0  0  0  0  0  0  0  0
  146.5440  142.1059  155.6296 C   0  0  0  0  0  0  0  0  0  0  0  0
  150.7226  143.3570  157.4577 N   0  0  0  0  0  0  0  0  0  0  0  0
  151.5373  143.7787  158.5934 C   0  0  0  0  0  0  0  0  0  0  0  0
  151.5559  142.6882  159.6855 C   0  0  0  0  0  0  0  0  0  0  0  0
  152.3394  143.1460  160.9263 C   0  0  0  0  0  0  0  0  0  0  0  0
  151.7886  144.4702  161.4777 C   0  0  0  0  0  0  0  0  0  0  0  0
  151.7785  145.5595  160.3940 C   0  0  0  0  0  0  0  0  0  0  0  0
  150.9903  145.1049  159.1550 C   0  0  0  0  0  0  0  0  0  0  0  0
  149.2851  142.8779  155.7304 H   0  0  0  0  0  0  0  0  0  0  0  0
  151.1833  139.6604  155.6416 H   0  0  0  0  0  0  0  0  0  0  0  0
  150.4265  137.7513  154.2476 H   0  0  0  0  0  0  0  0  0  0  0  0
  148.2747  137.9599  152.9792 H   0  0  0  0  0  0  0  0  0  0  0  0
  147.3763  142.4059  152.3795 H   0  0  0  0  0  0  0  0  0  0  0  0
  145.9303  141.6267  153.0076 H   0  0  0  0  0  0  0  0  0  0  0  0
  146.7452  144.5525  153.4754 H   0  0  0  0  0  0  0  0  0  0  0  0
  145.4104  143.9873  152.4885 H   0  0  0  0  0  0  0  0  0  0  0  0
  146.6003  144.2681  155.8933 H   0  0  0  0  0  0  0  0  0  0  0  0
  145.1687  143.5053  156.5578 H   0  0  0  0  0  0  0  0  0  0  0  0
  145.7900  141.3204  155.5646 H   0  0  0  0  0  0  0  0  0  0  0  0
  147.1191  141.9184  156.5365 H   0  0  0  0  0  0  0  0  0  0  0  0
  150.1453  144.0643  157.0272 H   0  0  0  0  0  0  0  0  0  0  0  0
  152.5592  143.9523  158.2501 H   0  0  0  0  0  0  0  0  0  0  0  0
  150.5344  142.4383  159.9755 H   0  0  0  0  0  0  0  0  0  0  0  0
  151.9981  141.7706  159.2960 H   0  0  0  0  0  0  0  0  0  0  0  0
  152.2973  142.3762  161.6975 H   0  0  0  0  0  0  0  0  0  0  0  0
  153.3921  143.2678  160.6684 H   0  0  0  0  0  0  0  0  0  0  0  0
  150.7758  144.3177  161.8528 H   0  0  0  0  0  0  0  0  0  0  0  0
  152.3881  144.7966  162.3280 H   0  0  0  0  0  0  0  0  0  0  0  0
  151.3460  146.4773  160.7934 H   0  0  0  0  0  0  0  0  0  0  0  0
  152.8031  145.7996  160.1072 H   0  0  0  0  0  0  0  0  0  0  0  0
  151.0310  145.8811  158.3899 H   0  0  0  0  0  0  0  0  0  0  0  0
  149.9385  144.9886  159.4209 H   0  0  0  0  0  0  0  0  0  0  0  0
  1  2  2  0  0  0  0
  2  3  1  0  0  0  0
  2 16  1  0  0  0  0
  3  4  1  0  0  0  0
  3 23  1  0  0  0  0
  4  9  1  0  0  0  0
  4  5  2  0  0  0  0
  5  6  1  0  0  0  0
  5 24  1  0  0  0  0
  6  7  2  0  0  0  0
  6 25  1  0  0  0  0
  7  8  1  0  0  0  0
  7 26  1  0  0  0  0
  8  9  2  0  0  0  0
  9 10  1  0  0  0  0
 10 15  1  0  0  0  0
 10 11  1  0  0  0  0
 11 12  1  0  0  0  0
 11 27  1  0  0  0  0
 11 28  1  0  0  0  0
 12 13  1  0  0  0  0
 12 29  1  0  0  0  0
 12 30  1  0  0  0  0
 13 14  1  0  0  0  0
 14 15  1  0  0  0  0
 14 31  1  0  0  0  0
 14 32  1  0  0  0  0
 15 33  1  0  0  0  0
 15 34  1  0  0  0  0
 16 17  1  0  0  0  0
 16 35  1  0  0  0  0
 17 22  1  0  0  0  0
 17 18  1  0  0  0  0
 17 36  1  0  0  0  0
 18 19  1  0  0  0  0
 18 37  1  0  0  0  0
 18 38  1  0  0  0  0
 19 20  1  0  0  0  0
 19 39  1  0  0  0  0
 19 40  1  0  0  0  0
 20 21  1  0  0  0  0
 20 41  1  0  0  0  0
 20 42  1  0  0  0  0
 21 22  1  0  0  0  0
 21 43  1  0  0  0  0
 21 44  1  0  0  0  0
 22 45  1  0  0  0  0
 22 46  1  0  0  0  0
M  END
> <s_m_source_file>
AV-unprocessed.smi

> <i_m_source_file_index>
1121

> <i_lp_mmshare_version>
43012

> <i_f3d_flags>
0

> <s_epik_input>
W0NIMl0xW0NIMl1bQ0gyXVtDSDJdW0NIMl1bQ0hdMVtOSF1DKD1PKVtOSF1jMltjSF1bY0hdW2NIXW5jMk4zW0NIMl1bQ0gyXU9bQ0gyXVtDSDJdMw==

> <s_epik_cmdline>
J2VwaWtfcHl0aG9uJywgJy1waCcsICc3LjAnLCAnLXRuJywgJzgnLCAnLW1hJywgJzIwMCcsICctbWV0YWxfYmluZGluZycsICctaW1hZScsICc8aW5maWxlLm1hZT4nLCAnLW9tYWUnLCAnPG91dGZpbGUubWFlPic=

> <r_lp_tautomer_probability>
1

> <r_epik_Ionization_Penalty>
0.00218153

> <r_epik_Ionization_Penalty_Charging>
0

> <r_epik_Ionization_Penalty_Neutral>
0.00218153

> <r_epik_State_Penalty>
0.00146907

> <r_epik_Charging_Adjusted_Penalty>
0.00146907

> <i_epik_Tot_Q>
0

> <i_epik_Tot_abs_Q>
0

> <r_epik_Metal_State_Penalty>
-0

> <b_epik_Metal_Only>
0

> <s_lp_Force_Field>
OPLS_2005

> <r_lp_Energy>
26.2081

> <b_lp_Chiralities_Consistent>
1

> <s_lp_Variant>
AV-unprocessed.smi:1121-1

> <Gold.Version>
5.8.1

> <Gold.Id.Protein>
6NUR|6NUR_protein|mol2

> <Gold.PLP.Fitness>
52.2516

> <Gold.PLP.PLP>
-45.0336

> <Gold.PLP.part.hbond>
-2.0000

> <Gold.PLP.part.metal>
0.0000

> <Gold.PLP.part.buried>
-4.2479

> <Gold.PLP.part.nonpolar>
-39.2968

> <Gold.PLP.part.repulsive>
0.6395

> <Gold.PLP.ligand.clash>
0.0000

> <Gold.PLP.ligand.torsion>
0.9977

> <Gold.PLP.Chemscore.Hbond>
2.0000

> <Gold.PLP.Chemscore.CHOScore>
1.0000

> <Gold.PLP.Chemscore.Metal>
0.0000

> <Gold.Chemscore.Hbonds>
donor molecule, donor type, donor heavy atom, donor atom, acceptor molecule, acceptor atom, score
      L1  H     3    23       P1  8028  1.00
      L1  H    16    35       P1  8028  1.00
      L1  C     7    26       P1  7948  1.00

> <Gold.PLP.Chemscore.Internal.Correction>
0.2134

> <Gold.Rescore>
     Score         DG    S(hbond)    S(metal)    S(lipo)     H(rot)  DE(clash)    DE(int)     intcor
     17.08     -21.96       1.92        0.00     111.96       1.18       0.52       4.36       ----

> <Gold.Chemscore.Fitness>
17.0828

> <Gold.Chemscore.DG>
-21.9584

> <Gold.Chemscore.ZeroCoef>
-5.4800

> <Gold.Chemscore.Hbond>
1.9194

> <Gold.Chemscore.Metal>
0.0000

> <Gold.Chemscore.Lipo>
111.9644

> <Gold.Chemscore.Internal_Hbond>
0.0000

> <Gold.Chemscore.DEClash>
0.5205

> <Gold.Chemscore.DEInternal>
4.3551

> <Gold.Chemscore.Rot>
1.1844

> <Gold.Chemscore.Internal.Correction>
   9.000000E+99

> <Gold.Chemscore.Hbonds>
donor molecule, donor type, donor heavy atom, donor atom, acceptor molecule, acceptor atom, score
      L1  H     3    23       P1  8028  0.99
      L1  H    16    35       P1  8028  0.90

> <Gold.Chemscore.Hbond.Weighted>
-6.4107

> <Gold.Chemscore.Metal.Weighted>
-0.0000

> <Gold.Chemscore.Lipo.Weighted>
-13.0998

> <Gold.Chemscore.Internal_Hbond.Weighted>
0.0000

> <Gold.Chemscore.DEClash.Weighted>
0.5205

> <Gold.Chemscore.DEInternal.Weighted>
4.3551

> <Gold.Chemscore.Rot.Weighted>
3.0321

> <Gold.Chemscore.Internal.Correction.Weighted>
   9.000000E+99

> <Gold.Protein.RotatedTorsions>
[ 6907 6896 6895 6894 ] final  -39.79 input  -60.11 | X-H torsion
[ 7974 7965 7964 7962 ] final   53.22 input  175.53 | X-H torsion
[ 8008 7997 7996 7995 ] final  -61.46 input   59.86 | X-H torsion
[ 10167 10162 10161 10158 ] final  169.85 input  -65.29 | X-H torsion
[ 10718 10713 10712 10709 ] final -163.44 input   66.30 | X-H torsion
[ 10763 10752 10751 10750 ] final  -19.98 input  -60.55 | X-H torsion
[ 11005 11000 10999 10996 ] final   97.73 input  -57.11 | X-H torsion

> <Gold.Protein.ActiveResidues>
 VAL166  LYS551  ARG553  GLY616  TRP617  ASP618  TYR619  PRO620  LYS621  CYS622 
 ASP623  PHE694  ASN695  SER759  ASP760  ASP761  ALA762  ILE779  LEU786  VAL792 
 PHE793  MET794  SER795  GLU796  ALA797  LYS798  CYS799  TRP800  GLU811  SER814 

> <Gold.Protein.RotatedAtoms>
  150.9861  134.9206  159.7872 H   0  0  0  0  0  0  0  0  0  0  0  0  # atno 6907 bound_to 6896
  152.5237  134.3344  159.9204 H   0  0  0  0  0  0  0  0  0  0  0  0  # atno 6908 bound_to 6896
  151.3350  133.3944  159.2700 H   0  0  0  0  0  0  0  0  0  0  0  0  # atno 6909 bound_to 6896
  145.9733  139.4170  143.0176 H   0  0  0  0  0  0  0  0  0  0  0  0  # atno 7974 bound_to 7965
  154.4449  140.1017  156.6434 H   0  0  0  0  0  0  0  0  0  0  0  0  # atno 8008 bound_to 7997
  155.5476  140.3485  155.4442 H   0  0  0  0  0  0  0  0  0  0  0  0  # atno 8009 bound_to 7997
  156.0552  140.1313  156.9994 H   0  0  0  0  0  0  0  0  0  0  0  0  # atno 8010 bound_to 7997
  139.5003  144.3661  151.9774 H   0  0  0  0  0  0  0  0  0  0  0  0  # atno 10167 bound_to 10162
  156.6247  130.8905  151.2965 H   0  0  0  0  0  0  0  0  0  0  0  0  # atno 10718 bound_to 10713
  153.6132  135.6995  153.5339 H   0  0  0  0  0  0  0  0  0  0  0  0  # atno 10763 bound_to 10752
  153.2999  135.4132  155.1243 H   0  0  0  0  0  0  0  0  0  0  0  0  # atno 10764 bound_to 10752
  154.8559  135.3646  154.5671 H   0  0  0  0  0  0  0  0  0  0  0  0  # atno 10765 bound_to 10752
  139.8775  134.9015  156.4351 H   0  0  0  0  0  0  0  0  0  0  0  0  # atno 11005 bound_to 11000
  145.7874  140.9829  143.1067 LP  0  0  0  0  0  0  0  0  0  0  0  0  # atno 17320 bound_to 7965
  144.6842  139.9640  143.7481 LP  0  0  0  0  0  0  0  0  0  0  0  0  # atno 17321 bound_to 7965
  140.3097  144.3552  150.6037 LP  0  0  0  0  0  0  0  0  0  0  0  0  # atno 17342 bound_to 10162
  140.5808  143.2173  151.7431 LP  0  0  0  0  0  0  0  0  0  0  0  0  # atno 17343 bound_to 10162
  157.7217  130.9568  150.1467 LP  0  0  0  0  0  0  0  0  0  0  0  0  # atno 17370 bound_to 10713
  156.2283  130.3680  149.8475 LP  0  0  0  0  0  0  0  0  0  0  0  0  # atno 17371 bound_to 10713
  140.9039  133.7759  155.9712 LP  0  0  0  0  0  0  0  0  0  0  0  0  # atno 17394 bound_to 11000
  140.8620  134.2829  157.5230 LP  0  0  0  0  0  0  0  0  0  0  0  0  # atno 17395 bound_to 11000

$$$$
