AV-unprocessed.smi:546|AV-procd|sdf|2887|dock6
  -GOLD-   2262023383D 1   1.00000     0.00000
 Structure written by MMmdl.
 51 53  0  0  0  0  0  0  0  0  2 V2000
  150.3267  137.3792  155.9076 C   0  0  0  0  0  0  0  0  0  0  0  0
  150.6378  136.3998  154.7742 C   0  0  0  0  0  0  0  0  0  0  0  0
  149.9394  135.1929  155.0195 O   0  0  0  0  0  0  0  0  0  0  0  0
  148.5344  135.3649  155.0839 C   0  0  0  0  0  0  0  0  0  0  0  0
  147.8447  134.0133  155.3232 C   0  0  0  0  0  0  0  0  0  0  0  0
  148.7591  132.8949  155.1175 N   0  0  0  0  0  0  0  0  0  0  0  0
  148.7141  131.9679  154.1274 C   0  0  0  0  0  0  0  0  0  0  0  0
  147.6969  131.9715  153.1766 N   0  0  0  0  0  0  0  0  0  0  0  0
  147.2232  130.7284  152.5728 C   0  0  0  0  0  0  0  0  0  0  0  0
  145.7213  130.7641  152.2400 C   0  0  2  0  0  0  0  0  0  0  0  0
  145.2497  129.4310  151.6437 C   0  0  0  0  0  0  0  0  0  0  0  0
  145.4325  131.9375  151.2904 C   0  0  0  0  0  0  0  0  0  0  0  0
  145.9708  133.2583  151.8653 C   0  0  1  0  0  0  0  0  0  0  0  0
  145.0789  133.8187  152.9849 C   0  0  0  0  0  0  0  0  0  0  0  0
  147.4508  133.1065  152.2859 C   0  0  0  0  0  0  0  0  0  0  0  0
  149.6886  131.0578  154.1623 N   0  0  0  0  0  0  0  0  0  0  0  0
  150.4176  131.4384  155.2794 C   0  0  0  0  0  0  0  0  0  0  0  0
  149.8782  132.5352  155.8757 C   0  0  0  0  0  0  0  0  0  0  0  0
  150.4355  133.1650  157.0930 C   0  0  0  0  0  0  0  0  0  0  0  0
  149.9005  134.1464  157.6051 O   0  0  0  0  0  0  0  0  0  0  0  0
  151.5643  132.5247  157.5341 N   0  5  0  0  0  0  0  0  0  0  0  0
  152.1456  131.4142  156.9598 C   0  0  0  0  0  0  0  0  0  0  0  0
  153.1646  130.9064  157.4282 O   0  0  0  0  0  0  0  0  0  0  0  0
  151.5838  130.8543  155.8404 N   0  0  0  0  0  0  0  0  0  0  0  0
  152.1365  129.6708  155.1744 C   0  0  0  0  0  0  0  0  0  0  0  0
  150.8484  138.3249  155.7612 H   0  0  0  0  0  0  0  0  0  0  0  0
  150.6347  136.9714  156.8708 H   0  0  0  0  0  0  0  0  0  0  0  0
  149.2582  137.5890  155.9600 H   0  0  0  0  0  0  0  0  0  0  0  0
  150.3327  136.8237  153.8165 H   0  0  0  0  0  0  0  0  0  0  0  0
  151.7117  136.2130  154.7291 H   0  0  0  0  0  0  0  0  0  0  0  0
  148.2777  136.0619  155.8826 H   0  0  0  0  0  0  0  0  0  0  0  0
  148.1840  135.7948  154.1463 H   0  0  0  0  0  0  0  0  0  0  0  0
  147.4296  133.9645  156.3284 H   0  0  0  0  0  0  0  0  0  0  0  0
  146.9911  133.9046  154.6543 H   0  0  0  0  0  0  0  0  0  0  0  0
  147.8070  130.5284  151.6732 H   0  0  0  0  0  0  0  0  0  0  0  0
  147.4252  129.9064  153.2609 H   0  0  0  0  0  0  0  0  0  0  0  0
  145.1695  130.9189  153.1679 H   0  0  0  0  0  0  0  0  0  0  0  0
  145.7681  129.2078  150.7105 H   0  0  0  0  0  0  0  0  0  0  0  0
  144.1799  129.4512  151.4342 H   0  0  0  0  0  0  0  0  0  0  0  0
  145.4347  128.6067  152.3331 H   0  0  0  0  0  0  0  0  0  0  0  0
  145.9116  131.7474  150.3288 H   0  0  0  0  0  0  0  0  0  0  0  0
  144.3637  132.0160  151.0883 H   0  0  0  0  0  0  0  0  0  0  0  0
  145.9398  133.9953  151.0618 H   0  0  0  0  0  0  0  0  0  0  0  0
  145.0610  133.1667  153.8571 H   0  0  0  0  0  0  0  0  0  0  0  0
  144.0507  133.9373  152.6423 H   0  0  0  0  0  0  0  0  0  0  0  0
  145.4274  134.8000  153.3068 H   0  0  0  0  0  0  0  0  0  0  0  0
  147.7962  134.0225  152.7666 H   0  0  0  0  0  0  0  0  0  0  0  0
  148.0709  132.9776  151.3979 H   0  0  0  0  0  0  0  0  0  0  0  0
  152.9966  129.2298  155.6789 H   0  0  0  0  0  0  0  0  0  0  0  0
  152.4474  129.9282  154.1616 H   0  0  0  0  0  0  0  0  0  0  0  0
  151.3734  128.8953  155.1029 H   0  0  0  0  0  0  0  0  0  0  0  0
  1  2  1  0  0  0  0
  1 26  1  0  0  0  0
  1 27  1  0  0  0  0
  1 28  1  0  0  0  0
  2  3  1  0  0  0  0
  2 29  1  0  0  0  0
  2 30  1  0  0  0  0
  3  4  1  0  0  0  0
  4  5  1  0  0  0  0
  4 31  1  0  0  0  0
  4 32  1  0  0  0  0
  5  6  1  0  0  0  0
  5 33  1  0  0  0  0
  5 34  1  0  0  0  0
  6 18  1  0  0  0  0
  6  7  1  0  0  0  0
  7  8  1  0  0  0  0
  7 16  2  0  0  0  0
  8 15  1  0  0  0  0
  8  9  1  0  0  0  0
  9 10  1  0  0  0  0
  9 35  1  0  0  0  0
  9 36  1  0  0  0  0
 10 11  1  0  0  0  0
 10 12  1  0  0  0  0
 10 37  1  0  0  0  0
 11 38  1  0  0  0  0
 11 39  1  0  0  0  0
 11 40  1  0  0  0  0
 12 13  1  0  0  0  0
 12 41  1  0  0  0  0
 12 42  1  0  0  0  0
 13 14  1  0  0  0  0
 13 15  1  0  0  0  0
 13 43  1  0  0  0  0
 14 44  1  0  0  0  0
 14 45  1  0  0  0  0
 14 46  1  0  0  0  0
 15 47  1  0  0  0  0
 15 48  1  0  0  0  0
 16 17  1  0  0  0  0
 17 24  1  0  0  0  0
 17 18  2  0  0  0  0
 18 19  1  0  0  0  0
 19 20  2  0  0  0  0
 19 21  1  0  0  0  0
 21 22  1  0  0  0  0
 22 23  2  0  0  0  0
 22 24  1  0  0  0  0
 24 25  1  0  0  0  0
 25 49  1  0  0  0  0
 25 50  1  0  0  0  0
 25 51  1  0  0  0  0
M  CHG  1  21  -1
M  END
> <s_m_source_file>
AV-unprocessed.smi

> <i_m_source_file_index>
546

> <i_lp_mmshare_version>
43012

> <i_f3d_flags>
0

> <s_epik_input>
W0NIM11uMWMoPU8pW25IXWMoPU8pYyhjMTIpbihbQ0gyXVtDSDJdT1tDSDJdW0NIM10pYyhuMilOM1tDSDJdW0NAQEhdKFtDSDNdKVtDSDJdW0NAQEhdKFtDSDNdKVtDSDJdMw==

> <s_epik_cmdline>
J2VwaWtfcHl0aG9uJywgJy1waCcsICc3LjAnLCAnLXRuJywgJzgnLCAnLW1hJywgJzIwMCcsICctbWV0YWxfYmluZGluZycsICctaW1hZScsICc8aW5maWxlLm1hZT4nLCAnLW9tYWUnLCAnPG91dGZpbGUubWFlPic=

> <r_lp_tautomer_probability>
1

> <r_epik_Ionization_Penalty>
5.12825

> <r_epik_Ionization_Penalty_Charging>
0.0743105

> <r_epik_Ionization_Penalty_Neutral>
5.05394

> <r_epik_State_Penalty>
5.04406

> <r_epik_Charging_Adjusted_Penalty>
5.11837

> <i_epik_Tot_Q>
-1

> <i_epik_Tot_abs_Q>
1

> <r_epik_Metal_State_Penalty>
1.15122

> <b_epik_Metal_Only>
1

> <s_lp_Force_Field>
OPLS_2005

> <r_lp_Energy>
46.3243

> <b_lp_Chiralities_Consistent>
1

> <s_lp_Variant>
AV-unprocessed.smi:546-5

> <Gold.Version>
5.8.1

> <Gold.Id.Protein>
6NUR|6NUR_protein|mol2

> <Gold.PLP.Fitness>
38.9938

> <Gold.PLP.PLP>
-33.7512

> <Gold.PLP.part.hbond>
-2.0000

> <Gold.PLP.part.metal>
0.0000

> <Gold.PLP.part.buried>
-0.9560

> <Gold.PLP.part.nonpolar>
-31.6616

> <Gold.PLP.part.repulsive>
0.2203

> <Gold.PLP.ligand.clash>
0.0000

> <Gold.PLP.ligand.torsion>
1.1343

> <Gold.PLP.Chemscore.Hbond>
2.2046

> <Gold.PLP.Chemscore.CHOScore>
0.0000

> <Gold.PLP.Chemscore.Metal>
0.0000

> <Gold.Chemscore.Hbonds>
donor molecule, donor type, donor heavy atom, donor atom, acceptor molecule, acceptor atom, score
      P1  H  6896  6907       L1    20  0.45
      P1  H  6896  6909       L1    21  1.70

> <Gold.PLP.Chemscore.Internal.Correction>
0.8974

> <Gold.Rescore>
     Score         DG    S(hbond)    S(metal)    S(lipo)     H(rot)  DE(clash)    DE(int)     intcor
      9.03     -12.71       0.75        0.00      73.68       1.52       0.29       3.40       ----

> <Gold.Chemscore.Fitness>
9.0270

> <Gold.Chemscore.DG>
-12.7131

> <Gold.Chemscore.ZeroCoef>
-5.4800

> <Gold.Chemscore.Hbond>
0.7501

> <Gold.Chemscore.Metal>
0.0000

> <Gold.Chemscore.Lipo>
73.6778

> <Gold.Chemscore.Internal_Hbond>
0.0000

> <Gold.Chemscore.DEClash>
0.2857

> <Gold.Chemscore.DEInternal>
3.4004

> <Gold.Chemscore.Rot>
1.5206

> <Gold.Chemscore.Internal.Correction>
   9.000000E+99

> <Gold.Chemscore.Hbonds>
donor molecule, donor type, donor heavy atom, donor atom, acceptor molecule, acceptor atom, score
      P1  H  6896  6907       L1    20  0.34
      P1  H  6896  6909       L1    21  0.33

> <Gold.Chemscore.Hbond.Weighted>
-2.5055

> <Gold.Chemscore.Metal.Weighted>
-0.0000

> <Gold.Chemscore.Lipo.Weighted>
-8.6203

> <Gold.Chemscore.Internal_Hbond.Weighted>
0.0000

> <Gold.Chemscore.DEClash.Weighted>
0.2857

> <Gold.Chemscore.DEInternal.Weighted>
3.4004

> <Gold.Chemscore.Rot.Weighted>
3.8926

> <Gold.Chemscore.Internal.Correction.Weighted>
   9.000000E+99

> <Gold.Protein.RotatedTorsions>
[ 6907 6896 6895 6894 ] final  -71.60 input  -60.11 | X-H torsion
[ 7974 7965 7964 7962 ] final    2.71 input  175.53 | X-H torsion
[ 8008 7997 7996 7995 ] final -122.15 input   59.86 | X-H torsion
[ 10167 10162 10161 10158 ] final  111.75 input  -65.29 | X-H torsion
[ 10718 10713 10712 10709 ] final   45.25 input   66.30 | X-H torsion
[ 10763 10752 10751 10750 ] final   26.89 input  -60.55 | X-H torsion
[ 11005 11000 10999 10996 ] final -161.15 input  -57.11 | X-H torsion

> <Gold.Protein.ActiveResidues>
 VAL166  LYS551  ARG553  GLY616  TRP617  ASP618  TYR619  PRO620  LYS621  CYS622 
 ASP623  PHE694  ASN695  SER759  ASP760  ASP761  ALA762  ILE779  LEU786  VAL792 
 PHE793  MET794  SER795  GLU796  ALA797  LYS798  CYS799  TRP800  GLU811  SER814 

> <Gold.Protein.RotatedAtoms>
  150.7205  134.5284  159.5687 H   0  0  0  0  0  0  0  0  0  0  0  0  # atno 6907 bound_to 6896
  152.2823  134.7812  160.0403 H   0  0  0  0  0  0  0  0  0  0  0  0  # atno 6908 bound_to 6896
  151.8454  133.3395  159.3693 H   0  0  0  0  0  0  0  0  0  0  0  0  # atno 6909 bound_to 6896
  146.2444  140.0795  142.8358 H   0  0  0  0  0  0  0  0  0  0  0  0  # atno 7974 bound_to 7965
  155.1596  140.0405  157.2839 H   0  0  0  0  0  0  0  0  0  0  0  0  # atno 8008 bound_to 7997
  154.6346  140.2532  155.7366 H   0  0  0  0  0  0  0  0  0  0  0  0  # atno 8009 bound_to 7997
  156.2502  140.2868  156.0713 H   0  0  0  0  0  0  0  0  0  0  0  0  # atno 8010 bound_to 7997
  139.6588  144.7129  151.1906 H   0  0  0  0  0  0  0  0  0  0  0  0  # atno 10167 bound_to 10162
  157.4355  130.8050  149.7644 H   0  0  0  0  0  0  0  0  0  0  0  0  # atno 10718 bound_to 10713
  153.0592  135.6550  154.0503 H   0  0  0  0  0  0  0  0  0  0  0  0  # atno 10763 bound_to 10752
  154.0175  135.2923  155.3386 H   0  0  0  0  0  0  0  0  0  0  0  0  # atno 10764 bound_to 10752
  154.6922  135.5278  153.8476 H   0  0  0  0  0  0  0  0  0  0  0  0  # atno 10765 bound_to 10752
  140.6235  134.4725  157.5225 H   0  0  0  0  0  0  0  0  0  0  0  0  # atno 11005 bound_to 11000
  145.0745  140.9179  143.4862 LP  0  0  0  0  0  0  0  0  0  0  0  0  # atno 17320 bound_to 7965
  145.0936  139.2873  143.5722 LP  0  0  0  0  0  0  0  0  0  0  0  0  # atno 17321 bound_to 7965
  140.7571  143.6029  150.8682 LP  0  0  0  0  0  0  0  0  0  0  0  0  # atno 17342 bound_to 10162
  139.9684  143.6084  152.2981 LP  0  0  0  0  0  0  0  0  0  0  0  0  # atno 17343 bound_to 10162
  155.9929  130.3928  150.2923 LP  0  0  0  0  0  0  0  0  0  0  0  0  # atno 17370 bound_to 10713
  157.1084  131.0214  151.3058 LP  0  0  0  0  0  0  0  0  0  0  0  0  # atno 17371 bound_to 10713
  139.9144  134.8277  156.1417 LP  0  0  0  0  0  0  0  0  0  0  0  0  # atno 17394 bound_to 11000
  141.0725  133.6790  156.2170 LP  0  0  0  0  0  0  0  0  0  0  0  0  # atno 17395 bound_to 11000

$$$$
