AV-unprocessed.smi:1596|AV-procd|sdf|6416|dock6
  -GOLD-   22720 7 53D 1   1.00000     0.00000
 Structure written by MMmdl.
 49 50  0  0  0  0  0  0  0  0  2 V2000
  152.4489  144.6759  158.0816 C   0  0  0  0  0  0  0  0  0  0  0  0
  151.4613  143.5688  157.6829 C   0  0  0  0  0  0  0  0  0  0  0  0
  151.9005  142.2303  158.0853 N   0  0  0  0  0  0  0  0  0  0  0  0
  152.8944  142.0906  159.1498 C   0  0  0  0  0  0  0  0  0  0  0  0
  152.4530  142.7206  160.4791 C   0  0  0  0  0  0  0  0  0  0  0  0
  151.5030  141.1004  157.3293 C   0  0  0  0  0  0  0  0  0  0  0  0
  151.0061  141.1779  156.0037 C   0  0  0  0  0  0  0  0  0  0  0  0
  150.6322  140.0025  155.3203 C   0  0  0  0  0  0  0  0  0  0  0  0
  150.7637  138.7494  155.9530 C   0  0  0  0  0  0  0  0  0  0  0  0
  150.3591  137.5934  155.2314 N   0  0  0  0  0  0  0  0  0  0  0  0
  150.0779  136.3674  155.7059 C   0  0  0  0  0  0  0  0  0  0  0  0
  150.1738  136.0224  156.8834 O   0  0  0  0  0  0  0  0  0  0  0  0
  149.6931  135.5420  154.7218 N   0  0  0  0  0  0  0  0  0  0  0  0
  149.3272  134.1389  154.8937 C   0  0  2  0  0  0  0  0  0  0  0  0
  150.4552  133.3677  155.6105 C   0  0  0  0  0  0  0  0  0  0  0  0
  150.1218  131.8721  155.7360 C   0  0  0  0  0  0  0  0  0  0  0  0
  149.8174  131.2540  154.3607 C   0  0  1  0  0  0  0  0  0  0  0  0
  149.4469  129.9014  154.5227 O   0  0  0  0  0  0  0  0  0  0  0  0
  148.6858  132.0161  153.6496 C   0  0  0  0  0  0  0  0  0  0  0  0
  149.0213  133.5109  153.5207 C   0  0  0  0  0  0  0  0  0  0  0  0
  151.2553  138.7212  157.2791 C   0  0  0  0  0  0  0  0  0  0  0  0
  151.5987  139.8722  157.8959 N   0  3  0  0  0  0  0  0  0  0  0  0
  152.0914  145.6470  157.7395 H   0  0  0  0  0  0  0  0  0  0  0  0
  153.4332  144.5151  157.6412 H   0  0  0  0  0  0  0  0  0  0  0  0
  152.5715  144.7381  159.1619 H   0  0  0  0  0  0  0  0  0  0  0  0
  150.4944  143.7759  158.1421 H   0  0  0  0  0  0  0  0  0  0  0  0
  151.2806  143.5961  156.6080 H   0  0  0  0  0  0  0  0  0  0  0  0
  153.0880  141.0298  159.3107 H   0  0  0  0  0  0  0  0  0  0  0  0
  153.8492  142.5059  158.8283 H   0  0  0  0  0  0  0  0  0  0  0  0
  153.2439  142.6311  161.2239 H   0  0  0  0  0  0  0  0  0  0  0  0
  151.5707  142.2272  160.8842 H   0  0  0  0  0  0  0  0  0  0  0  0
  152.2237  143.7804  160.3687 H   0  0  0  0  0  0  0  0  0  0  0  0
  150.8956  142.1218  155.4925 H   0  0  0  0  0  0  0  0  0  0  0  0
  150.2501  140.0681  154.3120 H   0  0  0  0  0  0  0  0  0  0  0  0
  150.3135  137.7013  154.2286 H   0  0  0  0  0  0  0  0  0  0  0  0
  149.6480  135.9089  153.7824 H   0  0  0  0  0  0  0  0  0  0  0  0
  148.4204  134.0789  155.4990 H   0  0  0  0  0  0  0  0  0  0  0  0
  151.3902  133.4835  155.0603 H   0  0  0  0  0  0  0  0  0  0  0  0
  150.6273  133.7865  156.6028 H   0  0  0  0  0  0  0  0  0  0  0  0
  150.9535  131.3474  156.2077 H   0  0  0  0  0  0  0  0  0  0  0  0
  149.2628  131.7492  156.3974 H   0  0  0  0  0  0  0  0  0  0  0  0
  150.7165  131.2833  153.7437 H   0  0  0  0  0  0  0  0  0  0  0  0
  150.1693  129.3568  154.2496 H   0  0  0  0  0  0  0  0  0  0  0  0
  148.5100  131.5910  152.6607 H   0  0  0  0  0  0  0  0  0  0  0  0
  147.7543  131.9025  154.2062 H   0  0  0  0  0  0  0  0  0  0  0  0
  148.1887  134.0333  153.0478 H   0  0  0  0  0  0  0  0  0  0  0  0
  149.8792  133.6320  152.8576 H   0  0  0  0  0  0  0  0  0  0  0  0
  151.3780  137.8329  157.8800 H   0  0  0  0  0  0  0  0  0  0  0  0
  151.9494  139.8124  158.8520 H   0  0  0  0  0  0  0  0  0  0  0  0
  1  2  1  0  0  0  0
  1 23  1  0  0  0  0
  1 24  1  0  0  0  0
  1 25  1  0  0  0  0
  2  3  1  0  0  0  0
  2 26  1  0  0  0  0
  2 27  1  0  0  0  0
  3  4  1  0  0  0  0
  3  6  1  0  0  0  0
  4  5  1  0  0  0  0
  4 28  1  0  0  0  0
  4 29  1  0  0  0  0
  5 30  1  0  0  0  0
  5 31  1  0  0  0  0
  5 32  1  0  0  0  0
  6 22  1  0  0  0  0
  6  7  2  0  0  0  0
  7  8  1  0  0  0  0
  7 33  1  0  0  0  0
  8  9  2  0  0  0  0
  8 34  1  0  0  0  0
  9 10  1  0  0  0  0
  9 21  1  0  0  0  0
 10 11  1  0  0  0  0
 10 35  1  0  0  0  0
 11 12  2  0  0  0  0
 11 13  1  0  0  0  0
 13 14  1  0  0  0  0
 13 36  1  0  0  0  0
 14 20  1  0  0  0  0
 14 15  1  0  0  0  0
 14 37  1  0  0  0  0
 15 16  1  0  0  0  0
 15 38  1  0  0  0  0
 15 39  1  0  0  0  0
 16 17  1  0  0  0  0
 16 40  1  0  0  0  0
 16 41  1  0  0  0  0
 17 18  1  0  0  0  0
 17 19  1  0  0  0  0
 17 42  1  0  0  0  0
 18 43  1  0  0  0  0
 19 20  1  0  0  0  0
 19 44  1  0  0  0  0
 19 45  1  0  0  0  0
 20 46  1  0  0  0  0
 20 47  1  0  0  0  0
 21 22  2  0  0  0  0
 21 48  1  0  0  0  0
 22 49  1  0  0  0  0
M  CHG  1  22   1
M  END
> <s_m_source_file>
AV-unprocessed.smi

> <i_m_source_file_index>
1596

> <i_lp_mmshare_version>
43012

> <i_f3d_flags>
0

> <s_epik_input>
W0NIM11bQ0gyXU4oW0NIMl1bQ0gzXSljMVtjSF1bY0hdYyhbY0hdbjEpW05IXUMoPU8pW05IXVtDQEBIXTJbQ0gyXVtDSDJdW0NAQEhdKFtPSF0pW0NIMl1bQ0gyXTI=

> <s_epik_cmdline>
J2VwaWtfcHl0aG9uJywgJy1waCcsICc3LjAnLCAnLXRuJywgJzgnLCAnLW1hJywgJzIwMCcsICctbWV0YWxfYmluZGluZycsICctaW1hZScsICc8aW5maWxlLm1hZT4nLCAnLW9tYWUnLCAnPG91dGZpbGUubWFlPic=

> <r_lp_tautomer_probability>
0.999994

> <r_epik_Ionization_Penalty>
0.224167

> <r_epik_Ionization_Penalty_Charging>
0.224146

> <r_epik_Ionization_Penalty_Neutral>
2.1696e-05

> <r_epik_State_Penalty>
0.0144855

> <r_epik_Charging_Adjusted_Penalty>
0.238631

> <i_epik_Tot_Q>
1

> <i_epik_Tot_abs_Q>
1

> <r_epik_Metal_State_Penalty>
0.0446449

> <b_epik_Metal_Only>
0

> <s_lp_Force_Field>
OPLS_2005

> <r_lp_Energy>
22.6617

> <b_lp_Chiralities_Consistent>
1

> <s_lp_Variant>
AV-unprocessed.smi:1596-1

> <Gold.Version>
5.8.1

> <Gold.Id.Protein>
6NUR|6NUR_protein|mol2

> <Gold.PLP.Fitness>
44.0147

> <Gold.PLP.PLP>
-42.2817

> <Gold.PLP.part.hbond>
-1.0000

> <Gold.PLP.part.metal>
0.0000

> <Gold.PLP.part.buried>
-4.4573

> <Gold.PLP.part.nonpolar>
-36.5670

> <Gold.PLP.part.repulsive>
0.1537

> <Gold.PLP.ligand.clash>
0.0000

> <Gold.PLP.ligand.torsion>
0.6851

> <Gold.PLP.Chemscore.Hbond>
1.0000

> <Gold.PLP.Chemscore.CHOScore>
0.0000

> <Gold.PLP.Chemscore.Metal>
0.0000

> <Gold.Chemscore.Hbonds>
donor molecule, donor type, donor heavy atom, donor atom, acceptor molecule, acceptor atom, score
      L1  H    13    36       P1  7948  0.99

> <Gold.PLP.Chemscore.Internal.Correction>
0.1032

> <Gold.Rescore>
     Score         DG    S(hbond)    S(metal)    S(lipo)     H(rot)  DE(clash)    DE(int)     intcor
     11.76     -14.72       0.57        0.00     102.92       1.83       0.15       2.81       ----

> <Gold.Chemscore.Fitness>
11.7596

> <Gold.Chemscore.DG>
-14.7205

> <Gold.Chemscore.ZeroCoef>
-5.4800

> <Gold.Chemscore.Hbond>
0.5652

> <Gold.Chemscore.Metal>
0.0000

> <Gold.Chemscore.Lipo>
102.9215

> <Gold.Chemscore.Internal_Hbond>
0.0000

> <Gold.Chemscore.DEClash>
0.1508

> <Gold.Chemscore.DEInternal>
2.8102

> <Gold.Chemscore.Rot>
1.8317

> <Gold.Chemscore.Internal.Correction>
   9.000000E+99

> <Gold.Chemscore.Hbonds>
donor molecule, donor type, donor heavy atom, donor atom, acceptor molecule, acceptor atom, score
      L1  H    13    36       P1  7948  0.28

> <Gold.Chemscore.Hbond.Weighted>
-1.8879

> <Gold.Chemscore.Metal.Weighted>
-0.0000

> <Gold.Chemscore.Lipo.Weighted>
-12.0418

> <Gold.Chemscore.Internal_Hbond.Weighted>
0.0000

> <Gold.Chemscore.DEClash.Weighted>
0.1508

> <Gold.Chemscore.DEInternal.Weighted>
2.8102

> <Gold.Chemscore.Rot.Weighted>
4.6892

> <Gold.Chemscore.Internal.Correction.Weighted>
   9.000000E+99

> <Gold.Protein.RotatedTorsions>
[ 6907 6896 6895 6894 ] final  -89.32 input  -60.11 | X-H torsion
[ 7974 7965 7964 7962 ] final  100.34 input  175.53 | X-H torsion
[ 8008 7997 7996 7995 ] final -103.96 input   59.86 | X-H torsion
[ 10167 10162 10161 10158 ] final  -68.82 input  -65.29 | X-H torsion
[ 10718 10713 10712 10709 ] final   36.58 input   66.30 | X-H torsion
[ 10763 10752 10751 10750 ] final   92.54 input  -60.55 | X-H torsion
[ 11005 11000 10999 10996 ] final -120.86 input  -57.11 | X-H torsion

> <Gold.Protein.ActiveResidues>
 VAL166  LYS551  ARG553  GLY616  TRP617  ASP618  TYR619  PRO620  LYS621  CYS622 
 ASP623  PHE694  ASN695  SER759  ASP760  ASP761  ALA762  ILE779  LEU786  VAL792 
 PHE793  MET794  SER795  GLU796  ALA797  LYS798  CYS799  TRP800  GLU811  SER814 

> <Gold.Protein.RotatedAtoms>
  150.6873  134.2604  159.4546 H   0  0  0  0  0  0  0  0  0  0  0  0  # atno 6907 bound_to 6896
  152.0535  134.9636  160.0584 H   0  0  0  0  0  0  0  0  0  0  0  0  # atno 6908 bound_to 6896
  152.1091  133.4256  159.4660 H   0  0  0  0  0  0  0  0  0  0  0  0  # atno 6909 bound_to 6896
  145.3869  139.2369  143.3373 H   0  0  0  0  0  0  0  0  0  0  0  0  # atno 7974 bound_to 7965
  154.8784  140.0420  157.1767 H   0  0  0  0  0  0  0  0  0  0  0  0  # atno 8008 bound_to 7997
  154.8665  140.2952  155.5486 H   0  0  0  0  0  0  0  0  0  0  0  0  # atno 8009 bound_to 7997
  156.2999  140.2437  156.3648 H   0  0  0  0  0  0  0  0  0  0  0  0  # atno 8010 bound_to 7997
  140.5478  143.2312  151.6968 H   0  0  0  0  0  0  0  0  0  0  0  0  # atno 10167 bound_to 10162
  157.3366  130.7525  149.6883 H   0  0  0  0  0  0  0  0  0  0  0  0  # atno 10718 bound_to 10713
  153.2203  135.4358  155.0481 H   0  0  0  0  0  0  0  0  0  0  0  0  # atno 10763 bound_to 10752
  154.8246  135.3354  154.6937 H   0  0  0  0  0  0  0  0  0  0  0  0  # atno 10764 bound_to 10752
  153.7370  135.7007  153.5032 H   0  0  0  0  0  0  0  0  0  0  0  0  # atno 10765 bound_to 10752
  141.0112  134.0261  157.3410 H   0  0  0  0  0  0  0  0  0  0  0  0  # atno 11005 bound_to 11000
  146.2816  140.4546  142.8774 LP  0  0  0  0  0  0  0  0  0  0  0  0  # atno 17320 bound_to 7965
  144.8467  140.6940  143.6194 LP  0  0  0  0  0  0  0  0  0  0  0  0  # atno 17321 bound_to 7965
  139.5015  144.3866  152.0322 LP  0  0  0  0  0  0  0  0  0  0  0  0  # atno 17342 bound_to 10162
  140.2980  144.3678  150.6068 LP  0  0  0  0  0  0  0  0  0  0  0  0  # atno 17343 bound_to 10162
  155.9702  130.4180  150.4305 LP  0  0  0  0  0  0  0  0  0  0  0  0  # atno 17370 bound_to 10713
  157.2346  131.0512  151.2472 LP  0  0  0  0  0  0  0  0  0  0  0  0  # atno 17371 bound_to 10713
  139.9091  135.0186  156.7615 LP  0  0  0  0  0  0  0  0  0  0  0  0  # atno 17394 bound_to 11000
  140.6729  133.9543  155.7867 LP  0  0  0  0  0  0  0  0  0  0  0  0  # atno 17395 bound_to 11000

$$$$
