AV-unprocessed.smi:157|AV-procd|sdf|1296|dock7
  -GOLD-   2262018583D 1   1.00000     0.00000
 Structure written by MMmdl.
 35 37  0  0  0  0  0  0  0  0  1 V2000
  151.1738  144.1004  161.5904 O   0  0  0  0  0  0  0  0  0  0  0  0
  151.8265  144.7111  160.4973 C   0  0  0  0  0  0  0  0  0  0  0  0
  152.2034  143.6585  159.4400 C   0  0  2  0  0  0  0  0  0  0  0  0
  151.0358  143.0871  158.8499 O   0  0  0  0  0  0  0  0  0  0  0  0
  151.2183  141.7168  158.6550 C   0  0  1  0  0  0  0  0  0  0  0  0
  150.8041  141.3561  157.2608 N   0  0  0  0  0  0  0  0  0  0  0  0
  151.5893  140.7485  156.3632 C   0  0  0  0  0  0  0  0  0  0  0  0
  151.0202  140.5290  155.1905 N   0  0  0  0  0  0  0  0  0  0  0  0
  149.7310  141.0359  155.3425 C   0  0  0  0  0  0  0  0  0  0  0  0
  149.5717  141.5499  156.6221 C   0  0  0  0  0  0  0  0  0  0  0  0
  148.5505  142.1668  157.3194 N   0  0  0  0  0  0  0  0  0  0  0  0
  147.3383  142.0099  156.8902 C   0  0  0  0  0  0  0  0  0  0  0  0
  146.8704  141.3829  155.7446 N   0  0  0  0  0  0  0  0  0  0  0  0
  147.4138  141.6465  154.4234 C   0  0  0  0  0  0  0  0  0  0  0  0
  148.7800  140.9930  154.1799 C   0  0  2  0  0  0  0  0  0  0  0  0
  148.5921  139.6323  153.8481 O   0  0  0  0  0  0  0  0  0  0  0  0
  152.6953  141.4058  158.8980 C   0  0  0  0  0  0  0  0  0  0  0  0
  153.0577  142.4694  159.9129 C   0  0  2  0  0  0  0  0  0  0  0  0
  152.7239  142.0444  161.2215 O   0  0  0  0  0  0  0  0  0  0  0  0
  152.7368  144.1548  158.6273 H   0  0  0  0  0  0  0  0  0  0  0  0
  150.5517  141.1611  159.3163 H   0  0  0  0  0  0  0  0  0  0  0  0
  149.2375  141.4676  153.3112 H   0  0  0  0  0  0  0  0  0  0  0  0
  154.1219  142.7050  159.8905 H   0  0  0  0  0  0  0  0  0  0  0  0
  151.7822  143.5135  162.0131 H   0  0  0  0  0  0  0  0  0  0  0  0
  151.1941  145.4930  160.0766 H   0  0  0  0  0  0  0  0  0  0  0  0
  152.7276  145.1993  160.8691 H   0  0  0  0  0  0  0  0  0  0  0  0
  152.6102  140.4652  156.5734 H   0  0  0  0  0  0  0  0  0  0  0  0
  146.5214  142.4254  157.4817 H   0  0  0  0  0  0  0  0  0  0  0  0
  145.8916  141.1396  155.6951 H   0  0  0  0  0  0  0  0  0  0  0  0
  146.6965  141.3480  153.6583 H   0  0  0  0  0  0  0  0  0  0  0  0
  147.5233  142.7280  154.3314 H   0  0  0  0  0  0  0  0  0  0  0  0
  148.9451  139.4889  152.9830 H   0  0  0  0  0  0  0  0  0  0  0  0
  152.8374  140.3809  159.2425 H   0  0  0  0  0  0  0  0  0  0  0  0
  153.2657  141.5526  157.9805 H   0  0  0  0  0  0  0  0  0  0  0  0
  152.6223  142.8101  161.7662 H   0  0  0  0  0  0  0  0  0  0  0  0
  1  2  1  0  0  0  0
  1 24  1  0  0  0  0
  2  3  1  0  0  0  0
  2 25  1  0  0  0  0
  2 26  1  0  0  0  0
  3 20  1  0  0  0  0
  3 18  1  0  0  0  0
  3  4  1  0  0  0  0
  4  5  1  0  0  0  0
  5 21  1  0  0  0  0
  5  6  1  0  0  0  0
  5 17  1  0  0  0  0
  6 10  1  0  0  0  0
  6  7  1  0  0  0  0
  7  8  2  0  0  0  0
  7 27  1  0  0  0  0
  8  9  1  0  0  0  0
  9 15  1  0  0  0  0
  9 10  2  0  0  0  0
 10 11  1  0  0  0  0
 11 12  2  0  0  0  0
 12 13  1  0  0  0  0
 12 28  1  0  0  0  0
 13 14  1  0  0  0  0
 13 29  1  0  0  0  0
 14 15  1  0  0  0  0
 14 30  1  0  0  0  0
 14 31  1  0  0  0  0
 15 22  1  0  0  0  0
 15 16  1  0  0  0  0
 16 32  1  0  0  0  0
 17 18  1  0  0  0  0
 17 33  1  0  0  0  0
 17 34  1  0  0  0  0
 18 23  1  0  0  0  0
 18 19  1  0  0  0  0
 19 35  1  0  0  0  0
M  END
> <s_m_source_file>
AV-unprocessed.smi

> <i_m_source_file_index>
157

> <i_lp_mmshare_version>
43012

> <i_f3d_flags>
0

> <s_epik_input>
W09IXVtDSDJdW0NASF0xT1tDQEhdKFtDSDJdW0NAQEhdMVtPSF0pbihbY0hdbjIpYyhjMjMpTj1bQ0hdW05IXVtDSDJdW0NASF0zW09IXQ==

> <s_epik_cmdline>
J2VwaWtfcHl0aG9uJywgJy1waCcsICc3LjAnLCAnLXRuJywgJzgnLCAnLW1hJywgJzIwMCcsICctbWV0YWxfYmluZGluZycsICctaW1hZScsICc8aW5maWxlLm1hZT4nLCAnLW9tYWUnLCAnPG91dGZpbGUubWFlPic=

> <r_lp_tautomer_probability>
1

> <r_epik_Ionization_Penalty>
0.0357149

> <r_epik_Ionization_Penalty_Charging>
0.0355056

> <r_epik_Ionization_Penalty_Neutral>
0.000209255

> <r_epik_State_Penalty>
0.0296046

> <r_epik_Charging_Adjusted_Penalty>
0.0651102

> <i_epik_Tot_Q>
0

> <i_epik_Tot_abs_Q>
0

> <r_epik_Metal_State_Penalty>
3.03559e-05

> <b_epik_Metal_Only>
0

> <s_epik_Chemistry_Notes>
This compound has an imine and may undergo hydrolysis. This compound contains an acetal/aminal-like group ( X-CH(R)-Y where X, Y are N, S, or O) that may be acid/base labile, releasing an aldehyde.

> <s_lp_Force_Field>
OPLS_2005

> <r_lp_Energy>
46.6241

> <b_lp_Chiralities_Consistent>
1

> <s_lp_Variant>
AV-unprocessed.smi:157-6

> <Gold.Version>
5.8.1

> <Gold.Id.Protein>
6NUR|6NUR_protein|mol2

> <Gold.PLP.Fitness>
44.5865

> <Gold.PLP.PLP>
-38.8380

> <Gold.PLP.part.hbond>
-4.3438

> <Gold.PLP.part.metal>
0.0000

> <Gold.PLP.part.buried>
-6.3754

> <Gold.PLP.part.nonpolar>
-28.1704

> <Gold.PLP.part.repulsive>
1.0855

> <Gold.PLP.ligand.clash>
0.0000

> <Gold.PLP.ligand.torsion>
0.0429

> <Gold.PLP.Chemscore.Hbond>
1.9440

> <Gold.PLP.Chemscore.CHOScore>
0.0000

> <Gold.PLP.Chemscore.Metal>
0.0000

> <Gold.Chemscore.Hbonds>
donor molecule, donor type, donor heavy atom, donor atom, acceptor molecule, acceptor atom, score
      L1  H    16    32       P1  7957  1.00
      P1  H  7989  7998       L1     8  0.96

> <Gold.PLP.Chemscore.Internal.Correction>
0.0024

> <Gold.Rescore>
     Score         DG    S(hbond)    S(metal)    S(lipo)     H(rot)  DE(clash)    DE(int)     intcor
     10.08     -10.21       1.90        0.00      65.64       3.64       0.12       0.02       ----

> <Gold.Chemscore.Fitness>
10.0766

> <Gold.Chemscore.DG>
-10.2119

> <Gold.Chemscore.ZeroCoef>
-5.4800

> <Gold.Chemscore.Hbond>
1.9044

> <Gold.Chemscore.Metal>
0.0000

> <Gold.Chemscore.Lipo>
65.6396

> <Gold.Chemscore.Internal_Hbond>
0.0000

> <Gold.Chemscore.DEClash>
0.1179

> <Gold.Chemscore.DEInternal>
0.0174

> <Gold.Chemscore.Rot>
3.6362

> <Gold.Chemscore.Internal.Correction>
   9.000000E+99

> <Gold.Chemscore.Hbonds>
donor molecule, donor type, donor heavy atom, donor atom, acceptor molecule, acceptor atom, score
      L1  H    16    32       P1  7957  0.94
      P1  H  7989  7998       L1     8  0.69

> <Gold.Chemscore.Hbond.Weighted>
-6.3608

> <Gold.Chemscore.Metal.Weighted>
-0.0000

> <Gold.Chemscore.Lipo.Weighted>
-7.6798

> <Gold.Chemscore.Internal_Hbond.Weighted>
0.0000

> <Gold.Chemscore.DEClash.Weighted>
0.1179

> <Gold.Chemscore.DEInternal.Weighted>
0.0174

> <Gold.Chemscore.Rot.Weighted>
9.3087

> <Gold.Chemscore.Internal.Correction.Weighted>
   9.000000E+99

> <Gold.Protein.RotatedTorsions>
[ 6907 6896 6895 6894 ] final   25.18 input  -60.11 | X-H torsion
[ 7974 7965 7964 7962 ] final  -19.88 input  175.53 | X-H torsion
[ 8008 7997 7996 7995 ] final   23.79 input   59.86 | X-H torsion
[ 10167 10162 10161 10158 ] final   -3.22 input  -65.29 | X-H torsion
[ 10718 10713 10712 10709 ] final  160.36 input   66.30 | X-H torsion
[ 10763 10752 10751 10750 ] final  -33.63 input  -60.55 | X-H torsion
[ 11005 11000 10999 10996 ] final -122.42 input  -57.11 | X-H torsion

> <Gold.Protein.ActiveResidues>
 VAL166  LYS551  ARG553  GLY616  TRP617  ASP618  TYR619  PRO620  LYS621  CYS622 
 ASP623  PHE694  ASN695  SER759  ASP760  ASP761  ALA762  ILE779  LEU786  VAL792 
 PHE793  MET794  SER795  GLU796  ALA797  LYS798  CYS799  TRP800  GLU811  SER814 

> <Gold.Protein.RotatedAtoms>
  151.9687  135.0088  160.0551 H   0  0  0  0  0  0  0  0  0  0  0  0  # atno 6907 bound_to 6896
  152.1803  133.4698  159.4963 H   0  0  0  0  0  0  0  0  0  0  0  0  # atno 6908 bound_to 6896
  150.6916  134.1759  159.4273 H   0  0  0  0  0  0  0  0  0  0  0  0  # atno 6909 bound_to 6896
  146.1818  140.4124  142.8491 H   0  0  0  0  0  0  0  0  0  0  0  0  # atno 7974 bound_to 7965
  154.9863  140.3108  155.4925 H   0  0  0  0  0  0  0  0  0  0  0  0  # atno 8008 bound_to 7997
  156.2946  140.2257  156.4905 H   0  0  0  0  0  0  0  0  0  0  0  0  # atno 8009 bound_to 7997
  154.7744  140.0450  157.1065 H   0  0  0  0  0  0  0  0  0  0  0  0  # atno 8010 bound_to 7997
  140.6881  143.6566  150.8303 H   0  0  0  0  0  0  0  0  0  0  0  0  # atno 10167 bound_to 10162
  157.1515  131.0565  151.2277 H   0  0  0  0  0  0  0  0  0  0  0  0  # atno 10718 bound_to 10713
  153.8333  135.6864  153.4812 H   0  0  0  0  0  0  0  0  0  0  0  0  # atno 10763 bound_to 10752
  153.1497  135.4623  154.9617 H   0  0  0  0  0  0  0  0  0  0  0  0  # atno 10764 bound_to 10752
  154.7877  135.3290  154.7794 H   0  0  0  0  0  0  0  0  0  0  0  0  # atno 10765 bound_to 10752
  140.9996  134.0421  157.3554 H   0  0  0  0  0  0  0  0  0  0  0  0  # atno 11005 bound_to 11000
  144.8328  140.6734  143.6280 LP  0  0  0  0  0  0  0  0  0  0  0  0  # atno 17320 bound_to 7965
  145.4054  139.1590  143.4155 LP  0  0  0  0  0  0  0  0  0  0  0  0  # atno 17321 bound_to 7965
  140.0275  143.5478  152.2774 LP  0  0  0  0  0  0  0  0  0  0  0  0  # atno 17342 bound_to 10162
  139.6259  144.7637  151.2640 LP  0  0  0  0  0  0  0  0  0  0  0  0  # atno 17343 bound_to 10162
  157.4216  130.7440  149.6917 LP  0  0  0  0  0  0  0  0  0  0  0  0  # atno 17370 bound_to 10713
  155.9769  130.4069  150.3744 LP  0  0  0  0  0  0  0  0  0  0  0  0  # atno 17371 bound_to 10713
  139.9032  135.0171  156.7366 LP  0  0  0  0  0  0  0  0  0  0  0  0  # atno 17394 bound_to 11000
  140.6910  133.9390  155.7966 LP  0  0  0  0  0  0  0  0  0  0  0  0  # atno 17395 bound_to 11000

$$$$
