AV-unprocessed.smi:165|AV-procd|sdf|1386|dock10
  -GOLD-   2262019123D 1   1.00000     0.00000
 Structure written by MMmdl.
 55 59  0  0  0  0  0  0  0  0  1 V2000
  146.5218  131.9982  151.0299 O   0  0  0  0  0  0  0  0  0  0  0  0
  145.5825  131.8260  149.9871 C   0  0  0  0  0  0  0  0  0  0  0  0
  144.6188  133.0195  149.8480 C   0  0  0  0  0  0  0  0  0  0  0  0
  143.7797  132.7143  148.5894 C   0  0  0  0  0  0  0  0  0  0  0  0
  143.3986  133.8719  147.8733 O   0  0  0  0  0  0  0  0  0  0  0  0
  143.8286  133.4122  151.1172 C   0  0  0  0  0  0  0  0  0  0  0  0
  144.1367  134.8925  150.8632 C   0  0  0  0  0  0  0  0  0  0  0  0
  144.4090  135.7860  151.9516 N   0  0  0  0  0  0  0  0  0  0  0  0
  145.5981  136.4287  152.2127 C   0  0  0  0  0  0  0  0  0  0  0  0
  145.5855  137.2260  153.2457 N   0  0  0  0  0  0  0  0  0  0  0  0
  144.2760  137.1633  153.7073 C   0  0  0  0  0  0  0  0  0  0  0  0
  143.5734  137.7782  154.7819 C   0  0  0  0  0  0  0  0  0  0  0  0
  144.1628  138.6511  155.6374 N   0  0  0  0  0  0  0  0  0  0  0  0
  144.2089  138.2185  157.0280 C   0  0  0  0  0  0  0  0  0  0  0  0
  144.5433  139.4112  157.9341 C   0  0  0  0  0  0  0  0  0  0  0  0
  145.7466  140.0378  157.4932 O   0  0  0  0  0  0  0  0  0  0  0  0
  145.7339  140.5060  156.1394 C   0  0  2  0  0  0  0  0  0  0  0  0
  147.1681  141.0110  155.8852 C   0  0  0  0  0  0  0  0  0  0  0  0
  147.2678  141.7837  154.5650 C   0  0  0  0  0  0  0  0  0  0  0  0
  146.2095  142.8938  154.5219 C   0  0  0  0  0  0  0  0  0  0  0  0
  144.9179  142.3290  154.7069 O   0  0  0  0  0  0  0  0  0  0  0  0
  144.7526  141.6968  155.9733 C   0  0  0  0  0  0  0  0  0  0  0  0
  145.3867  139.3208  155.2053 C   0  0  0  0  0  0  0  0  0  0  0  0
  142.2597  137.4599  154.9330 N   0  0  0  0  0  0  0  0  0  0  0  0
  141.6694  136.6101  154.0876 C   0  0  0  0  0  0  0  0  0  0  0  0
  142.1985  135.9679  153.0450 N   0  0  0  0  0  0  0  0  0  0  0  0
  143.5198  136.2706  152.8956 C   0  0  0  0  0  0  0  0  0  0  0  0
  145.2541  134.4272  149.9213 C   0  0  0  0  0  0  0  0  0  0  0  0
  147.3593  131.6718  150.7384 H   0  0  0  0  0  0  0  0  0  0  0  0
  146.1388  131.6662  149.0628 H   0  0  0  0  0  0  0  0  0  0  0  0
  145.0322  130.9056  150.1855 H   0  0  0  0  0  0  0  0  0  0  0  0
  144.3324  132.0705  147.9043 H   0  0  0  0  0  0  0  0  0  0  0  0
  142.8682  132.1776  148.8547 H   0  0  0  0  0  0  0  0  0  0  0  0
  144.1777  134.3571  147.6488 H   0  0  0  0  0  0  0  0  0  0  0  0
  142.7663  133.1673  151.0887 H   0  0  0  0  0  0  0  0  0  0  0  0
  144.2790  133.0516  152.0429 H   0  0  0  0  0  0  0  0  0  0  0  0
  143.3294  135.3574  150.2965 H   0  0  0  0  0  0  0  0  0  0  0  0
  146.4861  136.2809  151.6155 H   0  0  0  0  0  0  0  0  0  0  0  0
  143.2663  137.7735  157.3445 H   0  0  0  0  0  0  0  0  0  0  0  0
  144.9734  137.4474  157.1314 H   0  0  0  0  0  0  0  0  0  0  0  0
  143.7204  140.1256  157.9572 H   0  0  0  0  0  0  0  0  0  0  0  0
  144.6839  139.0704  158.9598 H   0  0  0  0  0  0  0  0  0  0  0  0
  147.4661  141.6738  156.6990 H   0  0  0  0  0  0  0  0  0  0  0  0
  147.8774  140.1826  155.8941 H   0  0  0  0  0  0  0  0  0  0  0  0
  148.2648  142.2105  154.4552 H   0  0  0  0  0  0  0  0  0  0  0  0
  147.1255  141.1065  153.7225 H   0  0  0  0  0  0  0  0  0  0  0  0
  146.4022  143.6477  155.2868 H   0  0  0  0  0  0  0  0  0  0  0  0
  146.2379  143.4022  153.5581 H   0  0  0  0  0  0  0  0  0  0  0  0
  143.7156  141.3707  156.0491 H   0  0  0  0  0  0  0  0  0  0  0  0
  144.9066  142.4322  156.7645 H   0  0  0  0  0  0  0  0  0  0  0  0
  146.2007  138.5943  155.2082 H   0  0  0  0  0  0  0  0  0  0  0  0
  145.2751  139.6732  154.1789 H   0  0  0  0  0  0  0  0  0  0  0  0
  140.6237  136.4150  154.2747 H   0  0  0  0  0  0  0  0  0  0  0  0
  146.2328  134.4379  150.4023 H   0  0  0  0  0  0  0  0  0  0  0  0
  145.2881  134.9630  148.9723 H   0  0  0  0  0  0  0  0  0  0  0  0
  1  2  1  0  0  0  0
  1 29  1  0  0  0  0
  2  3  1  0  0  0  0
  2 30  1  0  0  0  0
  2 31  1  0  0  0  0
  3 28  1  0  0  0  0
  3  4  1  0  0  0  0
  3  6  1  0  0  0  0
  4  5  1  0  0  0  0
  4 32  1  0  0  0  0
  4 33  1  0  0  0  0
  5 34  1  0  0  0  0
  6  7  1  0  0  0  0
  6 35  1  0  0  0  0
  6 36  1  0  0  0  0
  7  8  1  0  0  0  0
  7 28  1  0  0  0  0
  7 37  1  0  0  0  0
  8 27  1  0  0  0  0
  8  9  1  0  0  0  0
  9 10  2  0  0  0  0
  9 38  1  0  0  0  0
 10 11  1  0  0  0  0
 11 27  2  0  0  0  0
 11 12  1  0  0  0  0
 12 13  1  0  0  0  0
 12 24  2  0  0  0  0
 13 23  1  0  0  0  0
 13 14  1  0  0  0  0
 14 15  1  0  0  0  0
 14 39  1  0  0  0  0
 14 40  1  0  0  0  0
 15 16  1  0  0  0  0
 15 41  1  0  0  0  0
 15 42  1  0  0  0  0
 16 17  1  0  0  0  0
 17 22  1  0  0  0  0
 17 18  1  0  0  0  0
 17 23  1  0  0  0  0
 18 19  1  0  0  0  0
 18 43  1  0  0  0  0
 18 44  1  0  0  0  0
 19 20  1  0  0  0  0
 19 45  1  0  0  0  0
 19 46  1  0  0  0  0
 20 21  1  0  0  0  0
 20 47  1  0  0  0  0
 20 48  1  0  0  0  0
 21 22  1  0  0  0  0
 22 49  1  0  0  0  0
 22 50  1  0  0  0  0
 23 51  1  0  0  0  0
 23 52  1  0  0  0  0
 24 25  1  0  0  0  0
 25 26  2  0  0  0  0
 25 53  1  0  0  0  0
 26 27  1  0  0  0  0
 28 54  1  0  0  0  0
 28 55  1  0  0  0  0
M  END
> <s_m_source_file>
AV-unprocessed.smi

> <i_m_source_file_index>
165

> <i_lp_mmshare_version>
43012

> <i_f3d_flags>
0

> <s_epik_input>
W09IXVtDSDJdQzEoW0NIMl1bT0hdKVtDSDJdW0NIXShbQ0gyXTEpbihbY0hdbjIpYyhjMjMpbltjSF1uYzNOKFtDSDJdNClbQ0gyXVtDSDJdT1tDQEBdNDVbQ0gyXVtDSDJdW0NIMl1PW0NIMl01

> <s_epik_cmdline>
J2VwaWtfcHl0aG9uJywgJy1waCcsICc3LjAnLCAnLXRuJywgJzgnLCAnLW1hJywgJzIwMCcsICctbWV0YWxfYmluZGluZycsICctaW1hZScsICc8aW5maWxlLm1hZT4nLCAnLW9tYWUnLCAnPG91dGZpbGUubWFlPic=

> <r_lp_tautomer_probability>
1

> <r_epik_Ionization_Penalty>
0.00466923

> <r_epik_Ionization_Penalty_Charging>
0

> <r_epik_Ionization_Penalty_Neutral>
0.00466923

> <r_epik_State_Penalty>
0.0032353

> <r_epik_Charging_Adjusted_Penalty>
0.0032353

> <i_epik_Tot_Q>
0

> <i_epik_Tot_abs_Q>
0

> <r_epik_Metal_State_Penalty>
-0

> <b_epik_Metal_Only>
0

> <s_lp_Force_Field>
OPLS_2005

> <r_lp_Energy>
54.9184

> <b_lp_Chiralities_Consistent>
1

> <s_lp_Variant>
AV-unprocessed.smi:165-1

> <Gold.Version>
5.8.1

> <Gold.Id.Protein>
6NUR|6NUR_protein|mol2

> <Gold.PLP.Fitness>
47.1735

> <Gold.PLP.PLP>
-36.6919

> <Gold.PLP.part.hbond>
-4.9781

> <Gold.PLP.part.metal>
0.0000

> <Gold.PLP.part.buried>
-4.0838

> <Gold.PLP.part.nonpolar>
-29.3872

> <Gold.PLP.part.repulsive>
0.7096

> <Gold.PLP.ligand.clash>
0.0000

> <Gold.PLP.ligand.torsion>
1.1074

> <Gold.PLP.Chemscore.Hbond>
3.0000

> <Gold.PLP.Chemscore.CHOScore>
1.0000

> <Gold.PLP.Chemscore.Metal>
0.0000

> <Gold.Chemscore.Hbonds>
donor molecule, donor type, donor heavy atom, donor atom, acceptor molecule, acceptor atom, score
      L1  H     1    29       P1 10747  1.00
      L1  H     5    34       P1  7921  1.00
      P1  H 10192 10197       L1     5  0.95
      L1  C     9    38       P1  7948  1.00

> <Gold.PLP.Chemscore.Internal.Correction>
0.6965

> <Gold.Rescore>
     Score         DG    S(hbond)    S(metal)    S(lipo)     H(rot)  DE(clash)    DE(int)     intcor
     11.37     -16.19       2.90        0.00      77.33       3.14       2.22       2.60       ----

> <Gold.Chemscore.Fitness>
11.3660

> <Gold.Chemscore.DG>
-16.1910

> <Gold.Chemscore.ZeroCoef>
-5.4800

> <Gold.Chemscore.Hbond>
2.9011

> <Gold.Chemscore.Metal>
0.0000

> <Gold.Chemscore.Lipo>
77.3285

> <Gold.Chemscore.Internal_Hbond>
0.0000

> <Gold.Chemscore.DEClash>
2.2212

> <Gold.Chemscore.DEInternal>
2.6038

> <Gold.Chemscore.Rot>
3.1351

> <Gold.Chemscore.Internal.Correction>
   9.000000E+99

> <Gold.Chemscore.Hbonds>
donor molecule, donor type, donor heavy atom, donor atom, acceptor molecule, acceptor atom, score
      L1  H     1    29       P1 10747  1.00
      L1  H     5    34       P1  7921  0.97
      P1  H 10192 10197       L1     5  0.20

> <Gold.Chemscore.Hbond.Weighted>
-9.6895

> <Gold.Chemscore.Metal.Weighted>
-0.0000

> <Gold.Chemscore.Lipo.Weighted>
-9.0474

> <Gold.Chemscore.Internal_Hbond.Weighted>
0.0000

> <Gold.Chemscore.DEClash.Weighted>
2.2212

> <Gold.Chemscore.DEInternal.Weighted>
2.6038

> <Gold.Chemscore.Rot.Weighted>
8.0260

> <Gold.Chemscore.Internal.Correction.Weighted>
   9.000000E+99

> <Gold.Protein.RotatedTorsions>
[ 6907 6896 6895 6894 ] final   -7.32 input  -60.11 | X-H torsion
[ 7974 7965 7964 7962 ] final -107.29 input  175.53 | X-H torsion
[ 8008 7997 7996 7995 ] final  -78.13 input   59.86 | X-H torsion
[ 10167 10162 10161 10158 ] final  -14.71 input  -65.29 | X-H torsion
[ 10718 10713 10712 10709 ] final   11.93 input   66.30 | X-H torsion
[ 10763 10752 10751 10750 ] final  105.84 input  -60.55 | X-H torsion
[ 11005 11000 10999 10996 ] final   34.96 input  -57.11 | X-H torsion

> <Gold.Protein.ActiveResidues>
 VAL166  LYS551  ARG553  GLY616  TRP617  ASP618  TYR619  PRO620  LYS621  CYS622 
 ASP623  PHE694  ASN695  SER759  ASP760  ASP761  ALA762  ILE779  LEU786  VAL792 
 PHE793  MET794  SER795  GLU796  ALA797  LYS798  CYS799  TRP800  GLU811  SER814 

> <Gold.Protein.RotatedAtoms>
  151.4515  135.1030  159.9698 H   0  0  0  0  0  0  0  0  0  0  0  0  # atno 6907 bound_to 6896
  152.4886  133.8436  159.7176 H   0  0  0  0  0  0  0  0  0  0  0  0  # atno 6908 bound_to 6896
  150.9019  133.7048  159.2904 H   0  0  0  0  0  0  0  0  0  0  0  0  # atno 6909 bound_to 6896
  145.2071  140.9081  143.3336 H   0  0  0  0  0  0  0  0  0  0  0  0  # atno 7974 bound_to 7965
  154.5661  140.0699  156.8893 H   0  0  0  0  0  0  0  0  0  0  0  0  # atno 8008 bound_to 7997
  155.2721  140.3366  155.4246 H   0  0  0  0  0  0  0  0  0  0  0  0  # atno 8009 bound_to 7997
  156.2081  140.1748  156.7741 H   0  0  0  0  0  0  0  0  0  0  0  0  # atno 8010 bound_to 7997
  140.7206  143.5293  150.9539 H   0  0  0  0  0  0  0  0  0  0  0  0  # atno 10167 bound_to 10162
  157.0028  130.6086  149.5698 H   0  0  0  0  0  0  0  0  0  0  0  0  # atno 10718 bound_to 10713
  153.3848  135.3897  155.1882 H   0  0  0  0  0  0  0  0  0  0  0  0  # atno 10763 bound_to 10752
  154.8712  135.3734  154.4812 H   0  0  0  0  0  0  0  0  0  0  0  0  # atno 10764 bound_to 10752
  153.5292  135.7086  153.5753 H   0  0  0  0  0  0  0  0  0  0  0  0  # atno 10765 bound_to 10752
  140.2475  134.3342  155.7902 H   0  0  0  0  0  0  0  0  0  0  0  0  # atno 11005 bound_to 11000
  144.9891  139.3707  143.6223 LP  0  0  0  0  0  0  0  0  0  0  0  0  # atno 17320 bound_to 7965
  146.3405  139.9066  142.8786 LP  0  0  0  0  0  0  0  0  0  0  0  0  # atno 17321 bound_to 7965
  139.9013  143.6832  152.3131 LP  0  0  0  0  0  0  0  0  0  0  0  0  # atno 17342 bound_to 10162
  139.7183  144.7607  151.0998 LP  0  0  0  0  0  0  0  0  0  0  0  0  # atno 17343 bound_to 10162
  156.0165  130.5259  150.8148 LP  0  0  0  0  0  0  0  0  0  0  0  0  # atno 17370 bound_to 10713
  157.5377  131.0939  150.9869 LP  0  0  0  0  0  0  0  0  0  0  0  0  # atno 17371 bound_to 10713
  141.2205  133.7334  156.8984 LP  0  0  0  0  0  0  0  0  0  0  0  0  # atno 17394 bound_to 11000
  140.1591  134.9178  157.2692 LP  0  0  0  0  0  0  0  0  0  0  0  0  # atno 17395 bound_to 11000

$$$$
