AV-unprocessed.smi:2583|AV-procd|sdf|10142|dock5
  -GOLD-   2272014153D 1   1.00000     0.00000
 Structure written by MMmdl.
 54 56  0  0  0  0  0  0  0  0  2 V2000
  153.1005  143.0553  162.1182 C   0  0  0  0  0  0  0  0  0  0  0  0
  152.3093  143.3924  160.8719 C   0  0  0  0  0  0  0  0  0  0  0  0
  151.8474  144.7036  160.6346 C   0  0  0  0  0  0  0  0  0  0  0  0
  151.1290  145.0493  159.5457 N   0  0  0  0  0  0  0  0  0  0  0  0
  150.8483  144.0866  158.6421 C   0  0  0  0  0  0  0  0  0  0  0  0
  151.2712  142.7466  158.7687 C   0  0  0  0  0  0  0  0  0  0  0  0
  150.8893  141.8273  157.7551 N   0  0  0  0  0  0  0  0  0  0  0  0
  149.7202  141.7492  157.0972 C   0  0  0  0  0  0  0  0  0  0  0  0
  148.7354  142.4551  157.3120 O   0  0  0  0  0  0  0  0  0  0  0  0
  149.7506  140.7765  156.1751 N   0  0  0  0  0  0  0  0  0  0  0  0
  148.6552  140.4129  155.2803 C   0  0  2  0  0  0  0  0  0  0  0  0
  148.5951  141.3956  154.0959 C   0  0  0  0  0  0  0  0  0  0  0  0
  147.3423  141.1514  153.2323 C   0  0  0  0  0  0  0  0  0  0  0  0
  146.0894  141.2354  154.0367 N   0  3  2  0  0  0  0  0  0  0  0  0
  145.7087  142.6175  154.4869 C   0  0  0  0  0  0  0  0  0  0  0  0
  144.3449  142.6420  155.2181 C   0  0  0  0  0  0  0  0  0  0  0  0
  143.8976  144.0710  155.5695 C   0  0  0  0  0  0  0  0  0  0  0  0
  143.7997  144.8779  154.3568 N   0  0  0  0  0  0  0  0  0  0  0  0
  143.3017  146.2032  154.6971 C   0  0  0  0  0  0  0  0  0  0  0  0
  145.1201  144.9981  153.7456 C   0  0  0  0  0  0  0  0  0  0  0  0
  145.6263  143.6141  153.3059 C   0  0  0  0  0  0  0  0  0  0  0  0
  146.1294  140.2030  155.1116 C   0  0  0  0  0  0  0  0  0  0  0  0
  147.3264  140.4116  156.0584 C   0  0  0  0  0  0  0  0  0  0  0  0
  152.0125  142.3943  159.9222 C   0  0  0  0  0  0  0  0  0  0  0  0
  153.2745  143.9412  162.7299 H   0  0  0  0  0  0  0  0  0  0  0  0
  154.0682  142.6319  161.8480 H   0  0  0  0  0  0  0  0  0  0  0  0
  152.5614  142.3237  162.7205 H   0  0  0  0  0  0  0  0  0  0  0  0
  152.0524  145.4968  161.3385 H   0  0  0  0  0  0  0  0  0  0  0  0
  150.2687  144.3992  157.7857 H   0  0  0  0  0  0  0  0  0  0  0  0
  151.5730  141.1176  157.5363 H   0  0  0  0  0  0  0  0  0  0  0  0
  150.6048  140.2465  156.0811 H   0  0  0  0  0  0  0  0  0  0  0  0
  148.8054  139.4092  154.8782 H   0  0  0  0  0  0  0  0  0  0  0  0
  148.6031  142.4249  154.4562 H   0  0  0  0  0  0  0  0  0  0  0  0
  149.4890  141.2850  153.4810 H   0  0  0  0  0  0  0  0  0  0  0  0
  147.3252  141.8179  152.3727 H   0  0  0  0  0  0  0  0  0  0  0  0
  147.4017  140.1507  152.8017 H   0  0  0  0  0  0  0  0  0  0  0  0
  146.4636  142.9856  155.1815 H   0  0  0  0  0  0  0  0  0  0  0  0
  143.5816  142.1619  154.6037 H   0  0  0  0  0  0  0  0  0  0  0  0
  144.3936  142.0858  156.1529 H   0  0  0  0  0  0  0  0  0  0  0  0
  142.9248  144.0346  156.0616 H   0  0  0  0  0  0  0  0  0  0  0  0
  144.5958  144.5260  156.2744 H   0  0  0  0  0  0  0  0  0  0  0  0
  143.2146  146.8204  153.8020 H   0  0  0  0  0  0  0  0  0  0  0  0
  143.9636  146.7117  155.3999 H   0  0  0  0  0  0  0  0  0  0  0  0
  142.3112  146.1352  155.1484 H   0  0  0  0  0  0  0  0  0  0  0  0
  145.0598  145.6540  152.8761 H   0  0  0  0  0  0  0  0  0  0  0  0
  145.8227  145.4566  154.4437 H   0  0  0  0  0  0  0  0  0  0  0  0
  146.6048  143.7627  152.8515 H   0  0  0  0  0  0  0  0  0  0  0  0
  144.9736  143.2177  152.5264 H   0  0  0  0  0  0  0  0  0  0  0  0
  145.1956  140.1501  155.6674 H   0  0  0  0  0  0  0  0  0  0  0  0
  146.2215  139.2243  154.6385 H   0  0  0  0  0  0  0  0  0  0  0  0
  147.3410  139.6200  156.8085 H   0  0  0  0  0  0  0  0  0  0  0  0
  147.2073  141.3462  156.6077 H   0  0  0  0  0  0  0  0  0  0  0  0
  152.3417  141.3825  160.1027 H   0  0  0  0  0  0  0  0  0  0  0  0
  145.3458  140.9518  153.4146 H   0  0  0  0  0  0  0  0  0  0  0  0
  1  2  1  0  0  0  0
  1 25  1  0  0  0  0
  1 26  1  0  0  0  0
  1 27  1  0  0  0  0
  2 24  1  0  0  0  0
  2  3  2  0  0  0  0
  3  4  1  0  0  0  0
  3 28  1  0  0  0  0
  4  5  2  0  0  0  0
  5  6  1  0  0  0  0
  5 29  1  0  0  0  0
  6  7  1  0  0  0  0
  6 24  2  0  0  0  0
  7  8  1  0  0  0  0
  7 30  1  0  0  0  0
  8  9  2  0  0  0  0
  8 10  1  0  0  0  0
 10 11  1  0  0  0  0
 10 31  1  0  0  0  0
 11 23  1  0  0  0  0
 11 12  1  0  0  0  0
 11 32  1  0  0  0  0
 12 13  1  0  0  0  0
 12 33  1  0  0  0  0
 12 34  1  0  0  0  0
 13 14  1  0  0  0  0
 13 35  1  0  0  0  0
 13 36  1  0  0  0  0
 14 15  1  0  0  0  0
 14 22  1  0  0  0  0
 14 54  1  0  0  0  0
 15 21  1  0  0  0  0
 15 16  1  0  0  0  0
 15 37  1  0  0  0  0
 16 17  1  0  0  0  0
 16 38  1  0  0  0  0
 16 39  1  0  0  0  0
 17 18  1  0  0  0  0
 17 40  1  0  0  0  0
 17 41  1  0  0  0  0
 18 19  1  0  0  0  0
 18 20  1  0  0  0  0
 19 42  1  0  0  0  0
 19 43  1  0  0  0  0
 19 44  1  0  0  0  0
 20 21  1  0  0  0  0
 20 45  1  0  0  0  0
 20 46  1  0  0  0  0
 21 47  1  0  0  0  0
 21 48  1  0  0  0  0
 22 23  1  0  0  0  0
 22 49  1  0  0  0  0
 22 50  1  0  0  0  0
 23 51  1  0  0  0  0
 23 52  1  0  0  0  0
 24 53  1  0  0  0  0
M  CHG  1  14   1
M  END
> <s_m_source_file>
AV-unprocessed.smi

> <i_m_source_file_index>
2583

> <i_lp_mmshare_version>
43012

> <i_f3d_flags>
0

> <s_epik_input>
W0NIM11jMVtjSF1uW2NIXWMoW2NIXTEpW05IXUMoPU8pW05IXVtDSF0yW0NIMl1bQ0gyXU4oW0NIMl1bQ0gyXTIpW0NIXTNbQ0gyXVtDSDJdTihbQ0gzXSlbQ0gyXVtDSDJdMw==

> <s_epik_cmdline>
J2VwaWtfcHl0aG9uJywgJy1waCcsICc3LjAnLCAnLXRuJywgJzgnLCAnLW1hJywgJzIwMCcsICctbWV0YWxfYmluZGluZycsICctaW1hZScsICc8aW5maWxlLm1hZT4nLCAnLW9tYWUnLCAnPG91dGZpbGUubWFlPic=

> <r_epik_Ionization_Penalty>
1.38006

> <r_epik_Ionization_Penalty_Charging>
0.00081195

> <r_epik_Ionization_Penalty_Neutral>
1.37925

> <r_epik_State_Penalty>
1.55585

> <r_epik_Charging_Adjusted_Penalty>
1.55666

> <i_epik_Tot_Q>
1

> <i_epik_Tot_abs_Q>
1

> <r_epik_Metal_State_Penalty>
1.55173

> <b_epik_Metal_Only>
0

> <s_lp_Force_Field>
OPLS_2005

> <r_lp_Energy>
35.4229

> <b_lp_Chiralities_Consistent>
1

> <s_lp_Variant>
AV-unprocessed.smi:2583-8

> <Gold.Version>
5.8.1

> <Gold.Id.Protein>
6NUR|6NUR_protein|mol2

> <Gold.PLP.Fitness>
48.4199

> <Gold.PLP.PLP>
-40.4289

> <Gold.PLP.part.hbond>
-1.0000

> <Gold.PLP.part.metal>
0.0000

> <Gold.PLP.part.buried>
-8.4174

> <Gold.PLP.part.nonpolar>
-32.6295

> <Gold.PLP.part.repulsive>
2.3729

> <Gold.PLP.ligand.clash>
0.0000

> <Gold.PLP.ligand.torsion>
0.5836

> <Gold.PLP.Chemscore.Hbond>
2.0000

> <Gold.PLP.Chemscore.CHOScore>
1.0384

> <Gold.PLP.Chemscore.Metal>
0.0000

> <Gold.Chemscore.Hbonds>
donor molecule, donor type, donor heavy atom, donor atom, acceptor molecule, acceptor atom, score
      L1  H    14    54       P1 10175  2.00
      L1  C     5    29       P1  8028  1.00
      L1  C     5    29       P1  8029  0.05

> <Gold.PLP.Chemscore.Internal.Correction>
0.0433

> <Gold.Rescore>
     Score         DG    S(hbond)    S(metal)    S(lipo)     H(rot)  DE(clash)    DE(int)     intcor
     15.38     -19.46       0.94        0.00     118.62       1.19       1.05       3.04       ----

> <Gold.Chemscore.Fitness>
15.3796

> <Gold.Chemscore.DG>
-19.4640

> <Gold.Chemscore.ZeroCoef>
-5.4800

> <Gold.Chemscore.Hbond>
0.9443

> <Gold.Chemscore.Metal>
0.0000

> <Gold.Chemscore.Lipo>
118.6221

> <Gold.Chemscore.Internal_Hbond>
0.0000

> <Gold.Chemscore.DEClash>
1.0474

> <Gold.Chemscore.DEInternal>
3.0370

> <Gold.Chemscore.Rot>
1.1910

> <Gold.Chemscore.Internal.Correction>
   9.000000E+99

> <Gold.Chemscore.Hbonds>
donor molecule, donor type, donor heavy atom, donor atom, acceptor molecule, acceptor atom, score
      L1  H    14    54       P1 10175  0.64

> <Gold.Chemscore.Hbond.Weighted>
-3.1541

> <Gold.Chemscore.Metal.Weighted>
-0.0000

> <Gold.Chemscore.Lipo.Weighted>
-13.8788

> <Gold.Chemscore.Internal_Hbond.Weighted>
0.0000

> <Gold.Chemscore.DEClash.Weighted>
1.0474

> <Gold.Chemscore.DEInternal.Weighted>
3.0370

> <Gold.Chemscore.Rot.Weighted>
3.0489

> <Gold.Chemscore.Internal.Correction.Weighted>
   9.000000E+99

> <Gold.Protein.RotatedTorsions>
[ 6907 6896 6895 6894 ] final  -59.41 input  -60.11 | X-H torsion
[ 7974 7965 7964 7962 ] final   91.72 input  175.53 | X-H torsion
[ 8008 7997 7996 7995 ] final   -5.83 input   59.86 | X-H torsion
[ 10167 10162 10161 10158 ] final  -28.21 input  -65.29 | X-H torsion
[ 10718 10713 10712 10709 ] final -100.88 input   66.30 | X-H torsion
[ 10763 10752 10751 10750 ] final  116.88 input  -60.55 | X-H torsion
[ 11005 11000 10999 10996 ] final  146.17 input  -57.11 | X-H torsion

> <Gold.Protein.ActiveResidues>
 VAL166  LYS551  ARG553  GLY616  TRP617  ASP618  TYR619  PRO620  LYS621  CYS622 
 ASP623  PHE694  ASN695  SER759  ASP760  ASP761  ALA762  ILE779  LEU786  VAL792 
 PHE793  MET794  SER795  GLU796  ALA797  LYS798  CYS799  TRP800  GLU811  SER814 

> <Gold.Protein.RotatedAtoms>
  150.7932  134.6972  159.6529 H   0  0  0  0  0  0  0  0  0  0  0  0  # atno 6907 bound_to 6896
  152.4041  134.6234  160.0066 H   0  0  0  0  0  0  0  0  0  0  0  0  # atno 6908 bound_to 6896
  151.6496  133.3285  159.3185 H   0  0  0  0  0  0  0  0  0  0  0  0  # atno 6909 bound_to 6896
  145.5019  139.2276  143.2772 H   0  0  0  0  0  0  0  0  0  0  0  0  # atno 7974 bound_to 7965
  154.5999  140.2448  155.7806 H   0  0  0  0  0  0  0  0  0  0  0  0  # atno 8008 bound_to 7997
  156.2304  140.2968  156.0127 H   0  0  0  0  0  0  0  0  0  0  0  0  # atno 8009 bound_to 7997
  155.2228  140.0401  157.2941 H   0  0  0  0  0  0  0  0  0  0  0  0  # atno 8010 bound_to 7997
  140.7271  143.4029  151.1234 H   0  0  0  0  0  0  0  0  0  0  0  0  # atno 10167 bound_to 10162
  156.0177  130.5348  150.6881 H   0  0  0  0  0  0  0  0  0  0  0  0  # atno 10718 bound_to 10713
  153.5440  135.3553  155.2731 H   0  0  0  0  0  0  0  0  0  0  0  0  # atno 10763 bound_to 10752
  154.8714  135.4098  154.3012 H   0  0  0  0  0  0  0  0  0  0  0  0  # atno 10764 bound_to 10752
  153.3725  135.7065  153.6695 H   0  0  0  0  0  0  0  0  0  0  0  0  # atno 10765 bound_to 10752
  140.0771  134.9118  157.1441 H   0  0  0  0  0  0  0  0  0  0  0  0  # atno 11005 bound_to 11000
  146.2221  140.5820  142.9013 LP  0  0  0  0  0  0  0  0  0  0  0  0  # atno 17320 bound_to 7965
  144.7775  140.5771  143.6628 LP  0  0  0  0  0  0  0  0  0  0  0  0  # atno 17321 bound_to 7965
  139.7651  143.8577  152.3109 LP  0  0  0  0  0  0  0  0  0  0  0  0  # atno 17342 bound_to 10162
  139.8476  144.7180  150.9253 LP  0  0  0  0  0  0  0  0  0  0  0  0  # atno 17343 bound_to 10162
  157.4569  131.0879  151.0787 LP  0  0  0  0  0  0  0  0  0  0  0  0  # atno 17370 bound_to 10713
  157.1287  130.6093  149.5523 LP  0  0  0  0  0  0  0  0  0  0  0  0  # atno 17371 bound_to 10713
  140.3541  134.2566  155.7195 LP  0  0  0  0  0  0  0  0  0  0  0  0  # atno 17394 bound_to 11000
  141.2033  133.7914  157.0344 LP  0  0  0  0  0  0  0  0  0  0  0  0  # atno 17395 bound_to 11000

$$$$
