#       Name:                AV-unprocessed.smi:2176
#       Creating user name   scv26
#       Creation time:       Fri Mar 27 12:03:52 2020


#       File generated by GOLD software.
#

@<TRIPOS>MOLECULE
AV-unprocessed.smi:2176
    35    36     1
SMALL
NO_CHARGES


@<TRIPOS>ATOM
      1 ****        -0.7391   0.9988  -0.6643 O.2            1 S1                 0.0000
      2 ****        -0.0928   0.0867  -0.1467 C.2            1 S1                 0.0000
      3 ****         1.4164   0.2348   0.0974 C.3            1 S1                 0.0000
      4 ****         1.8619   1.6357   0.1332 N.am           1 S1                 0.0000
      5 ****         2.4152   2.2238  -0.9955 C.2            1 S1                 0.0000
      6 ****         2.8370   3.5099  -1.0354 C.2            1 S1                 0.0000
      7 ****         2.7248   4.3611   0.1442 C.2            1 S1                 0.0000
      8 ****         3.0814   5.5354   0.2082 O.2            1 S1                 0.0000
      9 ****         2.1601   3.7344   1.2582 N.am           1 S1                 0.0000
     10 ****         1.7214   2.4102   1.3055 C.2            1 S1                 0.0000
     11 ****         1.2334   1.9571   2.3401 O.2            1 S1                 0.0000
     12 ****        -0.6320  -1.0867   0.2182 N.am           1 S1                 0.0000
     13 ****        -2.0317  -1.4675   0.0697 C.3            1 S1                 0.0000
     14 ****        -2.2331  -2.8064  -0.6088 C.3            1 S1                 0.0000
     15 ****        -3.5597  -3.5222  -0.5094 C.3            1 S1                 0.0000
     16 ****        -2.3470  -4.0804   0.1957 C.3            1 S1                 0.0000
     17 ****         2.0595   4.2858   2.0980 H              1 S1                 0.0000
     18 ****         1.6923  -0.2713   1.0250 H              1 S1                 0.0000
     19 ****         1.9406  -0.3069  -0.6913 H              1 S1                 0.0000
     20 ****         2.5142   1.6321  -1.8946 H              1 S1                 0.0000
     21 ****         3.2588   3.9116  -1.9454 H              1 S1                 0.0000
     22 ****        -0.0198  -1.7758   0.6302 H              1 S1                 0.0000
     23 ****        -2.4851  -1.4939   1.0612 H              1 S1                 0.0000
     24 ****        -2.5863  -0.7196  -0.4987 H              1 S1                 0.0000
     25 ****        -1.7313  -2.8881  -1.5714 H              1 S1                 0.0000
     26 ****        -4.3348  -3.0716   0.1075 H              1 S1                 0.0000
     27 ****        -3.9145  -4.0489  -1.3930 H              1 S1                 0.0000
     28 ****        -1.8919  -4.9778  -0.2189 H              1 S1                 0.0000
     29 ****        -2.3165  -4.0010   1.2806 H              1 S1                 0.0000
     30 ****        -0.2816   1.8472  -0.9305 LP             1 S1                 0.0000
     31 ****        -1.7213   0.8908  -0.8182 LP             1 S1                 0.0000
     32 ****         3.4857   5.9795  -0.5914 LP             1 S1                 0.0000
     33 ****         2.9672   6.0469   1.0599 LP             1 S1                 0.0000
     34 ****         0.9192   1.0082   2.3710 LP             1 S1                 0.0000
     35 ****         1.1508   2.5377   3.1501 LP             1 S1                 0.0000
@<TRIPOS>BOND
    1    1    2 2     
    2    2    3 1     
    3    2   12 am    
    4    3    4 1     
    5    3   18 1     
    6    3   19 1     
    7    4   10 1     
    8    4    5 1     
    9    5    6 2     
   10    5   20 1     
   11    6    7 1     
   12    6   21 1     
   13    7    8 2     
   14    7    9 1     
   15    9   17 1     
   16    9   10 1     
   17   10   11 2     
   18   12   13 1     
   19   12   22 1     
   20   13   14 1     
   21   13   23 1     
   22   13   24 1     
   23   14   16 1     
   24   14   15 1     
   25   14   25 1     
   26   15   16 1     
   27   15   26 1     
   28   15   27 1     
   29   16   28 1     
   30   16   29 1     
   31    1   30 1     
   32    1   31 1     
   33    8   32 1     
   34    8   33 1     
   35   11   34 1     
   36   11   35 1     
@<TRIPOS>SUBSTRUCTURE
      1 S1             1
@<TRIPOS>SET
LONE_PAIRS      STATIC     ATOMS    <user>   **** ""
6 30 31 32 33 34 35
DONOR_HYDROGENS      STATIC     ATOMS    <user>   **** ""
2 17 22
ATOM$BLUE        STATIC     ATOMS    COLORGROUP SYSTEM
6 30 31 32 33 34 35
ATOM$RED        STATIC     ATOMS    COLORGROUP SYSTEM
2 17 22
