AV-unprocessed.smi:1550|AV-procd|sdf|6226|dock10
  -GOLD-   22720 6403D 1   1.00000     0.00000
 Structure written by MMmdl.
 43 44  0  0  0  0  0  0  0  0  1 V2000
  152.7078  138.9598  154.7254 C   0  0  0  0  0  0  0  0  0  0  0  0
  151.5483  139.1084  155.7213 C   0  0  2  0  0  0  0  0  0  0  0  0
  152.0263  139.8738  156.8242 O   0  0  0  0  0  0  0  0  0  0  0  0
  151.1659  140.9182  157.2659 C   0  0  0  0  0  0  0  0  0  0  0  0
  151.9995  141.9447  158.0432 C   0  0  1  0  0  0  0  0  0  0  0  0
  151.6188  143.3922  157.6750 C   0  0  0  0  0  0  0  0  0  0  0  0
  152.4018  144.3912  158.5348 C   0  0  0  0  0  0  0  0  0  0  0  0
  152.2157  144.0531  160.0177 C   0  0  0  0  0  0  0  0  0  0  0  0
  152.5504  142.5754  160.2745 C   0  0  0  0  0  0  0  0  0  0  0  0
  151.7539  141.7462  159.4341 O   0  0  0  0  0  0  0  0  0  0  0  0
  151.0475  137.7370  156.2031 C   0  0  0  0  0  0  0  0  0  0  0  0
  150.7458  137.5830  157.3866 O   0  0  0  0  0  0  0  0  0  0  0  0
  150.9784  136.7802  155.2568 N   0  0  0  0  0  0  0  0  0  0  0  0
  150.5057  135.4623  155.3645 C   0  0  0  0  0  0  0  0  0  0  0  0
  149.4475  134.9632  154.6737 C   0  0  0  0  0  0  0  0  0  0  0  0
  149.0154  133.5831  154.8161 C   0  0  0  0  0  0  0  0  0  0  0  0
  147.8681  133.0199  153.9915 C   0  0  0  0  0  0  0  0  0  0  0  0
  148.2768  132.0163  153.2139 F   0  0  0  0  0  0  0  0  0  0  0  0
  146.9138  132.5581  154.7983 F   0  0  0  0  0  0  0  0  0  0  0  0
  147.3332  133.9610  153.2134 F   0  0  0  0  0  0  0  0  0  0  0  0
  149.7379  132.8113  155.6491 C   0  0  0  0  0  0  0  0  0  0  0  0
  150.8267  133.3169  156.3631 N   0  0  0  0  0  0  0  0  0  0  0  0
  151.2673  134.5918  156.2751 C   0  0  0  0  0  0  0  0  0  0  0  0
  152.2428  134.9592  156.9291 O   0  0  0  0  0  0  0  0  0  0  0  0
  151.3119  132.6758  156.9742 H   0  0  0  0  0  0  0  0  0  0  0  0
  152.4120  138.3693  153.8575 H   0  0  0  0  0  0  0  0  0  0  0  0
  153.5709  138.4748  155.1832 H   0  0  0  0  0  0  0  0  0  0  0  0
  153.0335  139.9354  154.3639 H   0  0  0  0  0  0  0  0  0  0  0  0
  150.7391  139.6512  155.2284 H   0  0  0  0  0  0  0  0  0  0  0  0
  150.7114  141.3927  156.3948 H   0  0  0  0  0  0  0  0  0  0  0  0
  150.3565  140.5449  157.8943 H   0  0  0  0  0  0  0  0  0  0  0  0
  153.0569  141.7806  157.8274 H   0  0  0  0  0  0  0  0  0  0  0  0
  151.8133  143.5788  156.6185 H   0  0  0  0  0  0  0  0  0  0  0  0
  150.5489  143.5411  157.8273 H   0  0  0  0  0  0  0  0  0  0  0  0
  153.4610  144.3471  158.2777 H   0  0  0  0  0  0  0  0  0  0  0  0
  152.0710  145.4101  158.3323 H   0  0  0  0  0  0  0  0  0  0  0  0
  152.8436  144.6965  160.6345 H   0  0  0  0  0  0  0  0  0  0  0  0
  151.1833  144.2475  160.3111 H   0  0  0  0  0  0  0  0  0  0  0  0
  153.6093  142.3782  160.1002 H   0  0  0  0  0  0  0  0  0  0  0  0
  152.3466  142.3205  161.3144 H   0  0  0  0  0  0  0  0  0  0  0  0
  151.3432  137.0240  154.3471 H   0  0  0  0  0  0  0  0  0  0  0  0
  148.9025  135.5798  153.9772 H   0  0  0  0  0  0  0  0  0  0  0  0
  149.5474  131.7631  155.8263 H   0  0  0  0  0  0  0  0  0  0  0  0
  1  2  1  0  0  0  0
  1 26  1  0  0  0  0
  1 27  1  0  0  0  0
  1 28  1  0  0  0  0
  2  3  1  0  0  0  0
  2 11  1  0  0  0  0
  2 29  1  0  0  0  0
  3  4  1  0  0  0  0
  4  5  1  0  0  0  0
  4 30  1  0  0  0  0
  4 31  1  0  0  0  0
  5 10  1  0  0  0  0
  5  6  1  0  0  0  0
  5 32  1  0  0  0  0
  6  7  1  0  0  0  0
  6 33  1  0  0  0  0
  6 34  1  0  0  0  0
  7  8  1  0  0  0  0
  7 35  1  0  0  0  0
  7 36  1  0  0  0  0
  8  9  1  0  0  0  0
  8 37  1  0  0  0  0
  8 38  1  0  0  0  0
  9 10  1  0  0  0  0
  9 39  1  0  0  0  0
  9 40  1  0  0  0  0
 11 12  2  0  0  0  0
 11 13  1  0  0  0  0
 13 14  1  0  0  0  0
 13 41  1  0  0  0  0
 14 23  1  0  0  0  0
 14 15  2  0  0  0  0
 15 16  1  0  0  0  0
 15 42  1  0  0  0  0
 16 17  1  0  0  0  0
 16 21  2  0  0  0  0
 17 18  1  0  0  0  0
 17 19  1  0  0  0  0
 17 20  1  0  0  0  0
 21 22  1  0  0  0  0
 21 43  1  0  0  0  0
 22 25  1  0  0  0  0
 22 23  1  0  0  0  0
 23 24  2  0  0  0  0
M  END
> <s_m_source_file>
AV-unprocessed.smi

> <i_m_source_file_index>
1550

> <i_lp_mmshare_version>
43012

> <i_f3d_flags>
0

> <s_epik_input>
TzFbQ0gyXVtDSDJdW0NIMl1bQ0gyXVtDQEhdMVtDSDJdT1tDQEBIXShbQ0gzXSlDKD1PKVtOSF1jMltjSF1jKEMoRikoRilGKVtjSF1bbkhdYzI9Tw==

> <s_epik_cmdline>
J2VwaWtfcHl0aG9uJywgJy1waCcsICc3LjAnLCAnLXRuJywgJzgnLCAnLW1hJywgJzIwMCcsICctbWV0YWxfYmluZGluZycsICctaW1hZScsICc8aW5maWxlLm1hZT4nLCAnLW9tYWUnLCAnPG91dGZpbGUubWFlPic=

> <r_lp_tautomer_probability>
0.999

> <r_epik_Ionization_Penalty>
0.00891333

> <r_epik_Ionization_Penalty_Charging>
0.00891323

> <r_epik_Ionization_Penalty_Neutral>
1.00146e-07

> <r_epik_State_Penalty>
0.00674197

> <r_epik_Charging_Adjusted_Penalty>
0.0156552

> <i_epik_Tot_Q>
0

> <i_epik_Tot_abs_Q>
0

> <r_epik_Metal_State_Penalty>
0.321024

> <b_epik_Metal_Only>
0

> <s_lp_Force_Field>
OPLS_2005

> <r_lp_Energy>
25.8894

> <b_lp_Chiralities_Consistent>
1

> <s_lp_Variant>
AV-unprocessed.smi:1550-3

> <Gold.Version>
5.8.1

> <Gold.Id.Protein>
6NUR|6NUR_protein|mol2

> <Gold.PLP.Fitness>
40.0566

> <Gold.PLP.PLP>
-41.4755

> <Gold.PLP.part.hbond>
-1.4701

> <Gold.PLP.part.metal>
0.0000

> <Gold.PLP.part.buried>
-2.1107

> <Gold.PLP.part.nonpolar>
-35.9022

> <Gold.PLP.part.repulsive>
0.2099

> <Gold.PLP.ligand.clash>
0.0000

> <Gold.PLP.ligand.torsion>
2.5302

> <Gold.PLP.Chemscore.Hbond>
1.1775

> <Gold.PLP.Chemscore.CHOScore>
0.0000

> <Gold.PLP.Chemscore.Metal>
0.0000

> <Gold.Chemscore.Hbonds>
donor molecule, donor type, donor heavy atom, donor atom, acceptor molecule, acceptor atom, score
      P1  H  7997  8009       L1     3  0.19
      P1  H 10752 10763       L1    24  0.78

> <Gold.PLP.Chemscore.Internal.Correction>
0.1088

> <Gold.Rescore>
     Score         DG    S(hbond)    S(metal)    S(lipo)     H(rot)  DE(clash)    DE(int)     intcor
     14.12     -17.25       1.34        0.00     103.11       1.86       0.57       2.56       ----

> <Gold.Chemscore.Fitness>
14.1203

> <Gold.Chemscore.DG>
-17.2528

> <Gold.Chemscore.ZeroCoef>
-5.4800

> <Gold.Chemscore.Hbond>
1.3363

> <Gold.Chemscore.Metal>
0.0000

> <Gold.Chemscore.Lipo>
103.1088

> <Gold.Chemscore.Internal_Hbond>
0.0000

> <Gold.Chemscore.DEClash>
0.5685

> <Gold.Chemscore.DEInternal>
2.5640

> <Gold.Chemscore.Rot>
1.8571

> <Gold.Chemscore.Internal.Correction>
   9.000000E+99

> <Gold.Chemscore.Hbonds>
donor molecule, donor type, donor heavy atom, donor atom, acceptor molecule, acceptor atom, score
      P1  H  7997  8009       L1     3  0.11
      P1  H 10752 10763       L1    24  0.17

> <Gold.Chemscore.Hbond.Weighted>
-4.4631

> <Gold.Chemscore.Metal.Weighted>
-0.0000

> <Gold.Chemscore.Lipo.Weighted>
-12.0637

> <Gold.Chemscore.Internal_Hbond.Weighted>
0.0000

> <Gold.Chemscore.DEClash.Weighted>
0.5685

> <Gold.Chemscore.DEInternal.Weighted>
2.5640

> <Gold.Chemscore.Rot.Weighted>
4.7541

> <Gold.Chemscore.Internal.Correction.Weighted>
   9.000000E+99

> <Gold.Protein.RotatedTorsions>
[ 6907 6896 6895 6894 ] final   90.73 input  -60.11 | X-H torsion
[ 7974 7965 7964 7962 ] final  -62.72 input  175.53 | X-H torsion
[ 8008 7997 7996 7995 ] final -168.34 input   59.86 | X-H torsion
[ 10167 10162 10161 10158 ] final  -90.56 input  -65.29 | X-H torsion
[ 10718 10713 10712 10709 ] final  149.46 input   66.30 | X-H torsion
[ 10763 10752 10751 10750 ] final  120.99 input  -60.55 | X-H torsion
[ 11005 11000 10999 10996 ] final  136.89 input  -57.11 | X-H torsion

> <Gold.Protein.ActiveResidues>
 VAL166  LYS551  ARG553  GLY616  TRP617  ASP618  TYR619  PRO620  LYS621  CYS622 
 ASP623  PHE694  ASN695  SER759  ASP760  ASP761  ALA762  ILE779  LEU786  VAL792 
 PHE793  MET794  SER795  GLU796  ALA797  LYS798  CYS799  TRP800  GLU811  SER814 

> <Gold.Protein.RotatedAtoms>
  152.5446  134.1767  159.8618 H   0  0  0  0  0  0  0  0  0  0  0  0  # atno 6907 bound_to 6896
  151.1772  133.4740  159.2601 H   0  0  0  0  0  0  0  0  0  0  0  0  # atno 6908 bound_to 6896
  151.1214  135.0093  159.8595 H   0  0  0  0  0  0  0  0  0  0  0  0  # atno 6909 bound_to 6896
  145.7878  140.8726  143.0296 H   0  0  0  0  0  0  0  0  0  0  0  0  # atno 7974 bound_to 7965
  155.8901  140.1023  157.1424 H   0  0  0  0  0  0  0  0  0  0  0  0  # atno 8008 bound_to 7997
  154.4014  140.1312  156.4369 H   0  0  0  0  0  0  0  0  0  0  0  0  # atno 8009 bound_to 7997
  155.7543  140.3464  155.5168 H   0  0  0  0  0  0  0  0  0  0  0  0  # atno 8010 bound_to 7997
  140.3536  143.2878  151.9697 H   0  0  0  0  0  0  0  0  0  0  0  0  # atno 10167 bound_to 10162
  157.2959  131.0862  151.1427 H   0  0  0  0  0  0  0  0  0  0  0  0  # atno 10718 bound_to 10713
  153.6071  135.3437  155.2966 H   0  0  0  0  0  0  0  0  0  0  0  0  # atno 10763 bound_to 10752
  154.8625  135.4241  154.2350 H   0  0  0  0  0  0  0  0  0  0  0  0  # atno 10764 bound_to 10752
  153.3192  135.7037  153.7118 H   0  0  0  0  0  0  0  0  0  0  0  0  # atno 10765 bound_to 10752
  140.0076  134.9452  157.0209 H   0  0  0  0  0  0  0  0  0  0  0  0  # atno 11005 bound_to 11000
  144.6786  140.0081  143.7484 LP  0  0  0  0  0  0  0  0  0  0  0  0  # atno 17320 bound_to 7965
  146.0008  139.3089  143.0929 LP  0  0  0  0  0  0  0  0  0  0  0  0  # atno 17321 bound_to 7965
  139.4823  144.6054  151.7530 LP  0  0  0  0  0  0  0  0  0  0  0  0  # atno 17342 bound_to 10162
  140.5195  144.0901  150.6018 LP  0  0  0  0  0  0  0  0  0  0  0  0  # atno 17343 bound_to 10162
  157.2805  130.6748  149.6064 LP  0  0  0  0  0  0  0  0  0  0  0  0  # atno 17370 bound_to 10713
  155.9669  130.4451  150.5488 LP  0  0  0  0  0  0  0  0  0  0  0  0  # atno 17371 bound_to 10713
  140.4612  134.1482  155.7191 LP  0  0  0  0  0  0  0  0  0  0  0  0  # atno 17394 bound_to 11000
  141.1688  133.8650  157.1633 LP  0  0  0  0  0  0  0  0  0  0  0  0  # atno 17395 bound_to 11000

$$$$
