#       Name:                AV-unprocessed.smi:1978
#       Creating user name   scv26
#       Creation time:       Fri Mar 27 10:18:12 2020


#       File generated by GOLD software.
#

@<TRIPOS>MOLECULE
AV-unprocessed.smi:1978
    50    51     1
SMALL
NO_CHARGES


@<TRIPOS>ATOM
      1 ****        -2.1454   7.4371  -2.2661 C.3            1 S1                 0.0000
      2 ****        -1.8754   6.0152  -1.9101 C.2            1 S1                 0.0000
      3 ****        -1.8661   5.3392  -0.7222 C.2            1 S1                 0.0000
      4 ****        -1.5302   4.0151  -1.1106 C.2            1 S1                 0.0000
      5 ****        -1.4125   2.9809  -0.1469 N.am           1 S1                 0.0000
      6 ****        -1.1094   1.6903  -0.3662 C.2            1 S1                 0.0000
      7 ****        -0.9044   1.1858  -1.4706 O.2            1 S1                 0.0000
      8 ****        -1.0494   0.9987   0.7812 N.am           1 S1                 0.0000
      9 ****        -0.7300  -0.4221   0.8777 C.3            1 S1                 0.0000
     10 ****         0.7852  -0.7021   0.7028 C.3            1 S1                 0.0000
     11 ****         1.6497   0.0672   1.7229 C.3            1 S1                 0.0000
     12 ****         1.1133  -2.1645   0.6923 N.4            1 S1                 1.0000
     13 ****         0.8074  -2.8613   1.9764 C.3            1 S1                 0.0000
     14 ****         1.4131  -4.2720   2.0066 C.3            1 S1                 0.0000
     15 ****         0.9048  -5.1033   0.8266 C.3            1 S1                 0.0000
     16 ****         1.1921  -4.3658  -0.4852 C.3            1 S1                 0.0000
     17 ****         0.5980  -2.9403  -0.4857 C.3            1 S1                 0.0000
     18 ****         0.8892  -2.2743  -1.8463 C.3            1 S1                 0.0000
     19 ****        -1.3488   3.8938  -2.4168 N.2            1 S1                 0.0000
     20 ****        -1.5691   5.1751  -2.9358 O.3            1 S1                 0.0000
     21 ****        -2.6422   7.9561  -1.4462 H              1 S1                 0.0000
     22 ****        -2.7877   7.5019  -3.1444 H              1 S1                 0.0000
     23 ****        -1.2163   7.9628  -2.4863 H              1 S1                 0.0000
     24 ****        -2.0677   5.7322   0.2632 H              1 S1                 0.0000
     25 ****        -1.5652   3.2570   0.8117 H              1 S1                 0.0000
     26 ****        -1.2359   1.4865   1.6454 H              1 S1                 0.0000
     27 ****        -1.0712  -0.7634   1.8549 H              1 S1                 0.0000
     28 ****        -1.3201  -0.9657   0.1391 H              1 S1                 0.0000
     29 ****         1.0985  -0.2940  -0.2558 H              1 S1                 0.0000
     30 ****         1.5917   1.1426   1.5526 H              1 S1                 0.0000
     31 ****         2.7004  -0.2129   1.6397 H              1 S1                 0.0000
     32 ****         1.3325  -0.1078   2.7505 H              1 S1                 0.0000
     33 ****         1.2033  -2.3093   2.8268 H              1 S1                 0.0000
     34 ****        -0.2722  -2.9251   2.1172 H              1 S1                 0.0000
     35 ****         2.5014  -4.2067   1.9724 H              1 S1                 0.0000
     36 ****         1.1608  -4.7667   2.9450 H              1 S1                 0.0000
     37 ****         1.3823  -6.0837   0.8216 H              1 S1                 0.0000
     38 ****        -0.1674  -5.2766   0.9283 H              1 S1                 0.0000
     39 ****         2.2702  -4.3160  -0.6452 H              1 S1                 0.0000
     40 ****         0.7854  -4.9426  -1.3167 H              1 S1                 0.0000
     41 ****        -0.4844  -3.0335  -0.3873 H              1 S1                 0.0000
     42 ****         0.6183  -2.9365  -2.6692 H              1 S1                 0.0000
     43 ****         1.9467  -2.0312  -1.9551 H              1 S1                 0.0000
     44 ****         0.3101  -1.3625  -1.9904 H              1 S1                 0.0000
     45 ****         2.1188  -2.1962   0.6031 H              1 S1                 0.0000
     46 ****        -0.9585   1.7488  -2.2953 LP             1 S1                 0.0000
     47 ****        -0.6839   0.2131  -1.5428 LP             1 S1                 0.0000
     48 ****        -1.1068   3.0659  -2.9229 LP             1 S1                 0.0000
     49 ****        -0.7434   5.4969  -3.3991 LP             1 S1                 0.0000
     50 ****        -2.3277   5.1485  -3.5868 LP             1 S1                 0.0000
@<TRIPOS>BOND
    1    1    2 1     
    2    1   21 1     
    3    1   22 1     
    4    1   23 1     
    5    2   20 1     
    6    2    3 2     
    7    3    4 1     
    8    3   24 1     
    9    4    5 1     
   10    4   19 2     
   11    5    6 am    
   12    5   25 1     
   13    6    7 2     
   14    6    8 am    
   15    8    9 1     
   16    8   26 1     
   17    9   10 1     
   18    9   27 1     
   19    9   28 1     
   20   10   11 1     
   21   10   12 1     
   22   10   29 1     
   23   11   30 1     
   24   11   31 1     
   25   11   32 1     
   26   12   17 1     
   27   12   13 1     
   28   12   45 1     
   29   13   14 1     
   30   13   33 1     
   31   13   34 1     
   32   14   15 1     
   33   14   35 1     
   34   14   36 1     
   35   15   16 1     
   36   15   37 1     
   37   15   38 1     
   38   16   17 1     
   39   16   39 1     
   40   16   40 1     
   41   17   18 1     
   42   17   41 1     
   43   18   42 1     
   44   18   43 1     
   45   18   44 1     
   46   19   20 1     
   47    7   46 1     
   48    7   47 1     
   49   19   48 1     
   50   20   49 1     
   51   20   50 1     
@<TRIPOS>SUBSTRUCTURE
      1 S1             1
@<TRIPOS>SET
LONE_PAIRS      STATIC     ATOMS    <user>   **** ""
5 46 47 48 49 50
DONOR_HYDROGENS      STATIC     ATOMS    <user>   **** ""
3 25 26 45
ATOM$BLUE        STATIC     ATOMS    COLORGROUP SYSTEM
5 46 47 48 49 50
ATOM$RED        STATIC     ATOMS    COLORGROUP SYSTEM
3 25 26 45
