#       Name:                AV-unprocessed.smi:3208
#       Creating user name   scv26
#       Creation time:       Fri Mar 27 18:10:07 2020


#       File generated by GOLD software.
#

@<TRIPOS>MOLECULE
AV-unprocessed.smi:3208
    34    34     1
SMALL
NO_CHARGES


@<TRIPOS>ATOM
      1 ****        -3.7307   2.3859  -0.2157 C.2            1 S1                 0.0000
      2 ****        -3.4220   1.1251   0.1230 C.2            1 S1                 0.0000
      3 ****        -2.0301   0.5367   0.0598 C.3            1 S1                 0.0000
      4 ****        -2.0102  -0.5883  -0.8092 O.3            1 S1                 0.0000
      5 ****        -0.7713  -1.2927  -0.8668 C.3            1 S1                 0.0000
      6 ****        -1.0395  -2.6397  -1.5516 C.3            1 S1                 0.0000
      7 ****         0.2818  -0.4860  -1.6576 C.2            1 S1                 0.0000
      8 ****        -0.0714   0.2346  -2.5907 O.2            1 S1                 0.0000
      9 ****         1.5997  -0.7353  -1.3076 N.2            1 S1                 0.0000
     10 ****         2.0859  -0.2463  -0.1998 C.2            1 S1                 0.0000
     11 ****         1.3456   0.6050   0.6428 N.pl3          1 S1                 0.0000
     12 ****         1.8498   1.1201   1.8178 C.2            1 S1                 0.0000
     13 ****         3.0906   0.8453   2.2242 C.2            1 S1                 0.0000
     14 ****         3.9225  -0.0135   1.4057 C.2            1 S1                 0.0000
     15 ****         3.4655  -0.5689   0.2046 C.2            1 S1                 0.0000
     16 ****         4.2179  -1.3076  -0.4717 O.co2          1 S1                -1.0000
     17 ****        -2.9750   3.0744  -0.5651 H              1 S1                 0.0000
     18 ****        -4.7468   2.7458  -0.1476 H              1 S1                 0.0000
     19 ****        -4.2037   0.4639   0.4675 H              1 S1                 0.0000
     20 ****        -1.3282   1.3020  -0.2734 H              1 S1                 0.0000
     21 ****        -1.7375   0.2376   1.0670 H              1 S1                 0.0000
     22 ****        -0.4274  -1.4926   0.1493 H              1 S1                 0.0000
     23 ****        -0.1328  -3.2432  -1.6078 H              1 S1                 0.0000
     24 ****        -1.4159  -2.5040  -2.5662 H              1 S1                 0.0000
     25 ****        -1.7821  -3.2141  -0.9975 H              1 S1                 0.0000
     26 ****         1.1662   1.7508   2.3665 H              1 S1                 0.0000
     27 ****         3.4701   1.2571   3.1477 H              1 S1                 0.0000
     28 ****         4.9271  -0.2243   1.7433 H              1 S1                 0.0000
     29 ****         0.4016   0.8725   0.4091 H              1 S1                 0.0000
     30 ****        -2.2276  -0.2698  -1.7319 LP             1 S1                 0.0000
     31 ****        -2.7152  -1.2279  -0.5027 LP             1 S1                 0.0000
     32 ****        -1.0389   0.2970  -2.8357 LP             1 S1                 0.0000
     33 ****         0.6091   0.7576  -3.1038 LP             1 S1                 0.0000
     34 ****         2.1785  -1.2906  -1.9048 LP             1 S1                 0.0000
@<TRIPOS>BOND
    1    1    2 2     
    2    1   17 1     
    3    1   18 1     
    4    2    3 1     
    5    2   19 1     
    6    3    4 1     
    7    3   20 1     
    8    3   21 1     
    9    4    5 1     
   10    5    6 1     
   11    5    7 1     
   12    5   22 1     
   13    6   23 1     
   14    6   24 1     
   15    6   25 1     
   16    7    8 2     
   17    7    9 1     
   18    9   10 2     
   19   10   15 1     
   20   10   11 1     
   21   11   29 1     
   22   11   12 1     
   23   12   26 1     
   24   12   13 2     
   25   13   27 1     
   26   13   14 1     
   27   14   15 2     
   28   14   28 1     
   29   15   16 ar    
   30    4   30 1     
   31    4   31 1     
   32    8   32 1     
   33    8   33 1     
   34    9   34 1     
@<TRIPOS>SUBSTRUCTURE
      1 S1             1
@<TRIPOS>SET
LONE_PAIRS      STATIC     ATOMS    <user>   **** ""
6 30 31 32 33 34 16
DONOR_HYDROGENS      STATIC     ATOMS    <user>   **** ""
1 29
ATOM$BLUE        STATIC     ATOMS    COLORGROUP SYSTEM
6 30 31 32 33 34 16
ATOM$RED        STATIC     ATOMS    COLORGROUP SYSTEM
1 29
