AV-unprocessed.smi:1893|AV-procd|sdf|7677|dock9
  -GOLD-   22720 9413D 1   1.00000     0.00000
 Structure written by MMmdl.
 43 44  0  0  0  0  0  0  0  0  2 V2000
  143.9059  136.2227  151.8270 C   0  0  0  0  0  0  0  0  0  0  0  0
  145.3689  135.8843  151.4658 C   0  0  2  0  0  0  0  0  0  0  0  0
  145.4998  134.5140  150.7681 C   0  0  0  0  0  0  0  0  0  0  0  0
  145.3028  133.3463  151.7461 C   0  0  0  0  0  0  0  0  0  0  0  0
  146.2604  133.4901  152.9349 C   0  0  0  0  0  0  0  0  0  0  0  0
  146.1079  134.8631  153.6097 C   0  0  0  0  0  0  0  0  0  0  0  0
  146.3020  135.9668  152.6296 N   0  3  2  0  0  0  0  0  0  0  0  0
  146.3590  137.3138  153.2532 C   0  0  0  0  0  0  0  0  0  0  0  0
  146.5507  138.4333  152.2121 C   0  0  0  0  0  0  0  0  0  0  0  0
  147.2156  139.5908  152.7975 N   0  0  0  0  0  0  0  0  0  0  0  0
  148.2638  139.5337  153.6348 C   0  0  0  0  0  0  0  0  0  0  0  0
  148.7482  138.4706  154.0251 O   0  0  0  0  0  0  0  0  0  0  0  0
  148.8499  140.8821  154.0861 C   0  0  1  0  0  0  0  0  0  0  0  0
  147.7757  141.8724  154.5798 C   0  0  0  0  0  0  0  0  0  0  0  0
  149.8924  140.6735  155.0840 N   0  0  0  0  0  0  0  0  0  0  0  0
  150.1418  141.3347  156.2164 C   0  0  0  0  0  0  0  0  0  0  0  0
  151.2091  140.8991  156.8706 N   0  0  0  0  0  0  0  0  0  0  0  0
  151.6016  139.8990  156.0269 C   0  0  0  0  0  0  0  0  0  0  0  0
  150.8546  139.7287  154.9363 N   0  0  0  0  0  0  0  0  0  0  0  0
  143.2698  136.1647  150.9434 H   0  0  0  0  0  0  0  0  0  0  0  0
  143.8097  137.2352  152.2192 H   0  0  0  0  0  0  0  0  0  0  0  0
  143.4913  135.5407  152.5684 H   0  0  0  0  0  0  0  0  0  0  0  0
  145.6963  136.6328  150.7424 H   0  0  0  0  0  0  0  0  0  0  0  0
  144.7881  134.4373  149.9454 H   0  0  0  0  0  0  0  0  0  0  0  0
  146.4905  134.4352  150.3180 H   0  0  0  0  0  0  0  0  0  0  0  0
  144.2718  133.3208  152.0999 H   0  0  0  0  0  0  0  0  0  0  0  0
  145.4772  132.3979  151.2370 H   0  0  0  0  0  0  0  0  0  0  0  0
  146.0765  132.6961  153.6593 H   0  0  0  0  0  0  0  0  0  0  0  0
  147.2887  133.3642  152.5932 H   0  0  0  0  0  0  0  0  0  0  0  0
  145.1288  134.9476  154.0820 H   0  0  0  0  0  0  0  0  0  0  0  0
  146.8418  134.9385  154.4110 H   0  0  0  0  0  0  0  0  0  0  0  0
  145.4241  137.4970  153.7850 H   0  0  0  0  0  0  0  0  0  0  0  0
  147.1513  137.3450  154.0027 H   0  0  0  0  0  0  0  0  0  0  0  0
  147.1665  138.0916  151.3809 H   0  0  0  0  0  0  0  0  0  0  0  0
  145.5905  138.7301  151.7865 H   0  0  0  0  0  0  0  0  0  0  0  0
  146.8711  140.5013  152.5292 H   0  0  0  0  0  0  0  0  0  0  0  0
  149.3263  141.3303  153.2127 H   0  0  0  0  0  0  0  0  0  0  0  0
  147.0424  142.0797  153.7997 H   0  0  0  0  0  0  0  0  0  0  0  0
  148.2268  142.8238  154.8631 H   0  0  0  0  0  0  0  0  0  0  0  0
  147.2364  141.4921  155.4485 H   0  0  0  0  0  0  0  0  0  0  0  0
  149.5334  142.1558  156.5668 H   0  0  0  0  0  0  0  0  0  0  0  0
  152.4681  139.2831  156.2185 H   0  0  0  0  0  0  0  0  0  0  0  0
  147.2192  135.8209  152.2323 H   0  0  0  0  0  0  0  0  0  0  0  0
  1  2  1  0  0  0  0
  1 20  1  0  0  0  0
  1 21  1  0  0  0  0
  1 22  1  0  0  0  0
  2  7  1  0  0  0  0
  2  3  1  0  0  0  0
  2 23  1  0  0  0  0
  3  4  1  0  0  0  0
  3 24  1  0  0  0  0
  3 25  1  0  0  0  0
  4  5  1  0  0  0  0
  4 26  1  0  0  0  0
  4 27  1  0  0  0  0
  5  6  1  0  0  0  0
  5 28  1  0  0  0  0
  5 29  1  0  0  0  0
  6  7  1  0  0  0  0
  6 30  1  0  0  0  0
  6 31  1  0  0  0  0
  7  8  1  0  0  0  0
  7 43  1  0  0  0  0
  8  9  1  0  0  0  0
  8 32  1  0  0  0  0
  8 33  1  0  0  0  0
  9 10  1  0  0  0  0
  9 34  1  0  0  0  0
  9 35  1  0  0  0  0
 10 11  1  0  0  0  0
 10 36  1  0  0  0  0
 11 12  2  0  0  0  0
 11 13  1  0  0  0  0
 13 14  1  0  0  0  0
 13 15  1  0  0  0  0
 13 37  1  0  0  0  0
 14 38  1  0  0  0  0
 14 39  1  0  0  0  0
 14 40  1  0  0  0  0
 15 19  1  0  0  0  0
 15 16  1  0  0  0  0
 16 17  2  0  0  0  0
 16 41  1  0  0  0  0
 17 18  1  0  0  0  0
 18 19  2  0  0  0  0
 18 42  1  0  0  0  0
M  CHG  1   7   1
M  END
> <s_m_source_file>
AV-unprocessed.smi

> <i_m_source_file_index>
1893

> <i_lp_mmshare_version>
43012

> <i_f3d_flags>
0

> <s_epik_input>
W0NIM11bQ0BASF0xW0NIMl1bQ0gyXVtDSDJdW0NIMl1OMVtDSDJdW0NIMl1bTkhdQyg9TylbQ0BIXShbQ0gzXSluMltjSF1uW2NIXW4y

> <s_epik_cmdline>
J2VwaWtfcHl0aG9uJywgJy1waCcsICc3LjAnLCAnLXRuJywgJzgnLCAnLW1hJywgJzIwMCcsICctbWV0YWxfYmluZGluZycsICctaW1hZScsICc8aW5maWxlLm1hZT4nLCAnLW9tYWUnLCAnPG91dGZpbGUubWFlPic=

> <r_lp_tautomer_probability>
1

> <r_epik_Ionization_Penalty>
0.00266409

> <r_epik_Ionization_Penalty_Charging>
0.00265606

> <r_epik_Ionization_Penalty_Neutral>
8.02794e-06

> <r_epik_State_Penalty>
0.00184955

> <r_epik_Charging_Adjusted_Penalty>
0.00450561

> <i_epik_Tot_Q>
1

> <i_epik_Tot_abs_Q>
1

> <r_epik_Metal_State_Penalty>
-0

> <b_epik_Metal_Only>
0

> <s_lp_Force_Field>
OPLS_2005

> <r_lp_Energy>
24.5349

> <b_lp_Chiralities_Consistent>
1

> <s_lp_Variant>
AV-unprocessed.smi:1893-7

> <Gold.Version>
5.8.1

> <Gold.Id.Protein>
6NUR|6NUR_protein|mol2

> <Gold.PLP.Fitness>
44.1562

> <Gold.PLP.PLP>
-33.5509

> <Gold.PLP.part.hbond>
-3.0000

> <Gold.PLP.part.metal>
0.0000

> <Gold.PLP.part.buried>
0.5932

> <Gold.PLP.part.nonpolar>
-30.3743

> <Gold.PLP.part.repulsive>
0.3852

> <Gold.PLP.ligand.clash>
0.0000

> <Gold.PLP.ligand.torsion>
0.7566

> <Gold.PLP.Chemscore.Hbond>
3.0000

> <Gold.PLP.Chemscore.CHOScore>
0.9912

> <Gold.PLP.Chemscore.Metal>
0.0000

> <Gold.Chemscore.Hbonds>
donor molecule, donor type, donor heavy atom, donor atom, acceptor molecule, acceptor atom, score
      L1  H     7    43       P1  7948  2.00
      P1  H  7989  7998       L1    19  0.40
      L1  C    16    41       P1  8028  0.34

> <Gold.PLP.Chemscore.Internal.Correction>
0.1448

> <Gold.Rescore>
     Score         DG    S(hbond)    S(metal)    S(lipo)     H(rot)  DE(clash)    DE(int)     intcor
      8.14     -11.35       1.89        0.00      51.73       2.54       0.06       3.15       ----

> <Gold.Chemscore.Fitness>
8.1415

> <Gold.Chemscore.DG>
-11.3506

> <Gold.Chemscore.ZeroCoef>
-5.4800

> <Gold.Chemscore.Hbond>
1.8905

> <Gold.Chemscore.Metal>
0.0000

> <Gold.Chemscore.Lipo>
51.7335

> <Gold.Chemscore.Internal_Hbond>
0.0000

> <Gold.Chemscore.DEClash>
0.0596

> <Gold.Chemscore.DEInternal>
3.1494

> <Gold.Chemscore.Rot>
2.5377

> <Gold.Chemscore.Internal.Correction>
   9.000000E+99

> <Gold.Chemscore.Hbonds>
donor molecule, donor type, donor heavy atom, donor atom, acceptor molecule, acceptor atom, score
      L1  H     7    43       P1  7948  0.99
      P1  H  7989  7998       L1    19  0.01

> <Gold.Chemscore.Hbond.Weighted>
-6.3143

> <Gold.Chemscore.Metal.Weighted>
-0.0000

> <Gold.Chemscore.Lipo.Weighted>
-6.0528

> <Gold.Chemscore.Internal_Hbond.Weighted>
0.0000

> <Gold.Chemscore.DEClash.Weighted>
0.0596

> <Gold.Chemscore.DEInternal.Weighted>
3.1494

> <Gold.Chemscore.Rot.Weighted>
6.4966

> <Gold.Chemscore.Internal.Correction.Weighted>
   9.000000E+99

> <Gold.Protein.RotatedTorsions>
[ 6907 6896 6895 6894 ] final  147.36 input  -60.11 | X-H torsion
[ 7974 7965 7964 7962 ] final  -63.06 input  175.53 | X-H torsion
[ 8008 7997 7996 7995 ] final  -62.54 input   59.86 | X-H torsion
[ 10167 10162 10161 10158 ] final  140.45 input  -65.29 | X-H torsion
[ 10718 10713 10712 10709 ] final  -53.34 input   66.30 | X-H torsion
[ 10763 10752 10751 10750 ] final  164.43 input  -60.55 | X-H torsion
[ 11005 11000 10999 10996 ] final   15.73 input  -57.11 | X-H torsion

> <Gold.Protein.ActiveResidues>
 VAL166  LYS551  ARG553  GLY616  TRP617  ASP618  TYR619  PRO620  LYS621  CYS622 
 ASP623  PHE694  ASN695  SER759  ASP760  ASP761  ALA762  ILE779  LEU786  VAL792 
 PHE793  MET794  SER795  GLU796  ALA797  LYS798  CYS799  TRP800  GLU811  SER814 

> <Gold.Protein.RotatedAtoms>
  152.1558  133.4550  159.4835 H   0  0  0  0  0  0  0  0  0  0  0  0  # atno 6907 bound_to 6896
  150.6901  134.2133  159.4377 H   0  0  0  0  0  0  0  0  0  0  0  0  # atno 6908 bound_to 6896
  152.0033  134.9916  160.0616 H   0  0  0  0  0  0  0  0  0  0  0  0  # atno 6909 bound_to 6896
  145.7836  140.8748  143.0317 H   0  0  0  0  0  0  0  0  0  0  0  0  # atno 7974 bound_to 7965
  154.4505  140.0994  156.6602 H   0  0  0  0  0  0  0  0  0  0  0  0  # atno 8008 bound_to 7997
  155.5301  140.3481  155.4406 H   0  0  0  0  0  0  0  0  0  0  0  0  # atno 8009 bound_to 7997
  156.0670  140.1340  156.9863 H   0  0  0  0  0  0  0  0  0  0  0  0  # atno 8010 bound_to 7997
  139.5048  144.6233  151.5999 H   0  0  0  0  0  0  0  0  0  0  0  0  # atno 10167 bound_to 10162
  156.1543  130.4150  149.9893 H   0  0  0  0  0  0  0  0  0  0  0  0  # atno 10718 bound_to 10713
  154.3088  135.2757  155.2576 H   0  0  0  0  0  0  0  0  0  0  0  0  # atno 10763 bound_to 10752
  154.4980  135.5816  153.6513 H   0  0  0  0  0  0  0  0  0  0  0  0  # atno 10764 bound_to 10752
  152.9890  135.6151  154.3264 H   0  0  0  0  0  0  0  0  0  0  0  0  # atno 10765 bound_to 10752
  140.4550  134.1185  155.7708 H   0  0  0  0  0  0  0  0  0  0  0  0  # atno 11005 bound_to 11000
  144.6792  140.0024  143.7484 LP  0  0  0  0  0  0  0  0  0  0  0  0  # atno 17320 bound_to 7965
  146.0049  139.3121  143.0905 LP  0  0  0  0  0  0  0  0  0  0  0  0  # atno 17321 bound_to 7965
  140.5942  143.9726  150.6344 LP  0  0  0  0  0  0  0  0  0  0  0  0  # atno 17342 bound_to 10162
  140.2916  143.3320  152.1057 LP  0  0  0  0  0  0  0  0  0  0  0  0  # atno 17343 bound_to 10162
  156.7742  130.9197  151.3645 LP  0  0  0  0  0  0  0  0  0  0  0  0  # atno 17370 bound_to 10713
  157.6683  130.9027  149.9981 LP  0  0  0  0  0  0  0  0  0  0  0  0  # atno 17371 bound_to 10713
  141.1647  133.8726  157.1749 LP  0  0  0  0  0  0  0  0  0  0  0  0  # atno 17394 bound_to 11000
  139.9982  135.0038  157.0130 LP  0  0  0  0  0  0  0  0  0  0  0  0  # atno 17395 bound_to 11000

$$$$
