AV-unprocessed.smi:72|AV-procd|sdf|663|dock4
  -GOLD-   2262016563D 1   1.00000     0.00000
 Structure written by MMmdl.
 29 30  0  0  0  0  0  0  0  0  1 V2000
  140.8490  134.9636  153.9965 N   0  0  0  0  0  0  0  0  0  0  0  0
  142.0054  135.4303  153.6852 C   0  0  0  0  0  0  0  0  0  0  0  0
  142.2389  136.6538  153.0390 N   0  0  0  0  0  0  0  0  0  0  0  0
  143.4640  137.0065  152.7978 C   0  0  0  0  0  0  0  0  0  0  0  0
  144.5980  136.1809  153.1833 N   0  0  0  0  0  0  0  0  0  0  0  0
  146.0169  136.6070  152.8825 C   0  0  2  0  0  0  0  0  0  0  0  0
  146.7214  136.7369  154.0844 O   0  0  0  0  0  0  0  0  0  0  0  0
  147.3933  137.9899  154.1044 C   0  0  2  0  0  0  0  0  0  0  0  0
  147.6850  138.4367  155.5486 C   0  0  0  0  0  0  0  0  0  0  0  0
  148.5311  137.5313  156.2275 O   0  0  0  0  0  0  0  0  0  0  0  0
  146.5188  138.9113  153.2510 C   0  0  1  0  0  0  0  0  0  0  0  0
  147.2194  140.0355  152.7526 O   0  0  0  0  0  0  0  0  0  0  0  0
  146.0300  137.9658  152.1568 C   0  0  1  0  0  0  0  0  0  0  0  0
  146.8948  137.9280  151.0365 O   0  0  0  0  0  0  0  0  0  0  0  0
  144.3790  134.9279  153.8053 C   0  0  0  0  0  0  0  0  0  0  0  0
  145.2991  134.1687  154.1090 O   0  0  0  0  0  0  0  0  0  0  0  0
  143.0867  134.6113  154.0384 N   0  0  0  0  0  0  0  0  0  0  0  0
  146.4670  135.7967  152.3066 H   0  0  0  0  0  0  0  0  0  0  0  0
  148.3446  137.8307  153.5930 H   0  0  0  0  0  0  0  0  0  0  0  0
  145.6555  139.2569  153.8205 H   0  0  0  0  0  0  0  0  0  0  0  0
  145.0321  138.2360  151.8080 H   0  0  0  0  0  0  0  0  0  0  0  0
  140.1205  135.6026  153.7138 H   0  0  0  0  0  0  0  0  0  0  0  0
  143.7199  137.9371  152.2903 H   0  0  0  0  0  0  0  0  0  0  0  0
  148.1304  139.4319  155.5596 H   0  0  0  0  0  0  0  0  0  0  0  0
  146.7505  138.4998  156.1067 H   0  0  0  0  0  0  0  0  0  0  0  0
  148.7170  137.8802  157.0858 H   0  0  0  0  0  0  0  0  0  0  0  0
  147.9509  139.7288  152.2389 H   0  0  0  0  0  0  0  0  0  0  0  0
  147.7382  137.6085  151.3190 H   0  0  0  0  0  0  0  0  0  0  0  0
  142.8983  133.7270  154.4870 H   0  0  0  0  0  0  0  0  0  0  0  0
  1  2  2  0  0  0  0
  1 22  1  0  0  0  0
  2 17  1  0  0  0  0
  2  3  1  0  0  0  0
  3  4  2  0  0  0  0
  4  5  1  0  0  0  0
  4 23  1  0  0  0  0
  5  6  1  0  0  0  0
  5 15  1  0  0  0  0
  6 18  1  0  0  0  0
  6 13  1  0  0  0  0
  6  7  1  0  0  0  0
  7  8  1  0  0  0  0
  8 19  1  0  0  0  0
  8  9  1  0  0  0  0
  8 11  1  0  0  0  0
  9 10  1  0  0  0  0
  9 24  1  0  0  0  0
  9 25  1  0  0  0  0
 10 26  1  0  0  0  0
 11 20  1  0  0  0  0
 11 12  1  0  0  0  0
 11 13  1  0  0  0  0
 12 27  1  0  0  0  0
 13 21  1  0  0  0  0
 13 14  1  0  0  0  0
 14 28  1  0  0  0  0
 15 16  2  0  0  0  0
 15 17  1  0  0  0  0
 17 29  1  0  0  0  0
M  END
> <s_m_source_file>
AV-unprocessed.smi

> <i_m_source_file_index>
72

> <i_lp_mmshare_version>
43012

> <i_f3d_flags>
0

> <s_epik_input>
W05IMl1jMW5bY0hdbihjKD1PKW4xKVtDQEBIXTJPW0NASF0oW0NIMl1bT0hdKVtDQEBIXShbT0hdKVtDQEhdMltPSF0=

> <s_epik_cmdline>
J2VwaWtfcHl0aG9uJywgJy1waCcsICc3LjAnLCAnLXRuJywgJzgnLCAnLW1hJywgJzIwMCcsICctbWV0YWxfYmluZGluZycsICctaW1hZScsICc8aW5maWxlLm1hZT4nLCAnLW9tYWUnLCAnPG91dGZpbGUubWFlPic=

> <r_lp_tautomer_probability>
7.17554e-07

> <r_epik_Ionization_Penalty>
0.0066451

> <r_epik_Ionization_Penalty_Charging>
0.00663793

> <r_epik_Ionization_Penalty_Neutral>
7.17052e-06

> <r_epik_State_Penalty>
0.419231

> <r_epik_Charging_Adjusted_Penalty>
0.425868

> <i_epik_Tot_Q>
0

> <i_epik_Tot_abs_Q>
0

> <r_epik_Metal_State_Penalty>
1.44144

> <b_epik_Metal_Only>
0

> <s_epik_Chemistry_Notes>
This compound contains an acetal/aminal-like group ( X-CH(R)-Y where X, Y are N, S, or O) that may be acid/base labile, releasing an aldehyde.

> <s_lp_Force_Field>
OPLS_2005

> <r_lp_Energy>
44.3383

> <b_lp_Chiralities_Consistent>
1

> <s_lp_Variant>
AV-unprocessed.smi:72-1

> <Gold.Version>
5.8.1

> <Gold.Id.Protein>
6NUR|6NUR_protein|mol2

> <Gold.PLP.Fitness>
37.4285

> <Gold.PLP.PLP>
-19.4821

> <Gold.PLP.part.hbond>
-5.7417

> <Gold.PLP.part.metal>
0.0000

> <Gold.PLP.part.buried>
-3.5236

> <Gold.PLP.part.nonpolar>
-10.8525

> <Gold.PLP.part.repulsive>
0.3775

> <Gold.PLP.ligand.clash>
0.0000

> <Gold.PLP.ligand.torsion>
0.0086

> <Gold.PLP.Chemscore.Hbond>
3.9913

> <Gold.PLP.Chemscore.CHOScore>
1.9943

> <Gold.PLP.Chemscore.Metal>
0.0000

> <Gold.Chemscore.Hbonds>
donor molecule, donor type, donor heavy atom, donor atom, acceptor molecule, acceptor atom, score
      L1  H    12    27       P1  7957  1.00
      L1  H    14    28       P1  7948  1.00
      L1  H    17    29       P1 10957  1.00
      P1  H 11000 11005       L1     1  1.00
      L1  C     4    23       P1 10171  0.94
      L1  C     4    23       P1 10175  1.00

> <Gold.PLP.Chemscore.Internal.Correction>
0.0070

> <Gold.Rescore>
     Score         DG    S(hbond)    S(metal)    S(lipo)     H(rot)  DE(clash)    DE(int)     intcor
      8.40      -9.49       3.70        0.00      17.33       4.06       0.03       1.06       ----

> <Gold.Chemscore.Fitness>
8.3956

> <Gold.Chemscore.DG>
-9.4862

> <Gold.Chemscore.ZeroCoef>
-5.4800

> <Gold.Chemscore.Hbond>
3.7041

> <Gold.Chemscore.Metal>
0.0000

> <Gold.Chemscore.Lipo>
17.3333

> <Gold.Chemscore.Internal_Hbond>
0.0000

> <Gold.Chemscore.DEClash>
0.0323

> <Gold.Chemscore.DEInternal>
1.0584

> <Gold.Chemscore.Rot>
4.0600

> <Gold.Chemscore.Internal.Correction>
   9.000000E+99

> <Gold.Chemscore.Hbonds>
donor molecule, donor type, donor heavy atom, donor atom, acceptor molecule, acceptor atom, score
      L1  H    12    27       P1  7957  0.94
      L1  H    14    28       P1  7948  0.97
      L1  H    17    29       P1 10957  0.97
      P1  H 11000 11005       L1     1  0.69

> <Gold.Chemscore.Hbond.Weighted>
-12.3718

> <Gold.Chemscore.Metal.Weighted>
-0.0000

> <Gold.Chemscore.Lipo.Weighted>
-2.0280

> <Gold.Chemscore.Internal_Hbond.Weighted>
0.0000

> <Gold.Chemscore.DEClash.Weighted>
0.0323

> <Gold.Chemscore.DEInternal.Weighted>
1.0584

> <Gold.Chemscore.Rot.Weighted>
10.3936

> <Gold.Chemscore.Internal.Correction.Weighted>
   9.000000E+99

> <Gold.Protein.RotatedTorsions>
[ 6907 6896 6895 6894 ] final   59.47 input  -60.11 | X-H torsion
[ 7974 7965 7964 7962 ] final  142.17 input  175.53 | X-H torsion
[ 8008 7997 7996 7995 ] final   28.20 input   59.86 | X-H torsion
[ 10167 10162 10161 10158 ] final -110.00 input  -65.29 | X-H torsion
[ 10718 10713 10712 10709 ] final  172.89 input   66.30 | X-H torsion
[ 10763 10752 10751 10750 ] final   60.92 input  -60.55 | X-H torsion
[ 11005 11000 10999 10996 ] final   22.49 input  -57.11 | X-H torsion

> <Gold.Protein.ActiveResidues>
 VAL166  LYS551  ARG553  GLY616  TRP617  ASP618  TYR619  PRO620  LYS621  CYS622 
 ASP623  PHE694  ASN695  SER759  ASP760  ASP761  ALA762  ILE779  LEU786  VAL792 
 PHE793  MET794  SER795  GLU796  ALA797  LYS798  CYS799  TRP800  GLU811  SER814 

> <Gold.Protein.RotatedAtoms>
  152.3918  134.6429  160.0104 H   0  0  0  0  0  0  0  0  0  0  0  0  # atno 6907 bound_to 6896
  151.6661  133.3310  159.3193 H   0  0  0  0  0  0  0  0  0  0  0  0  # atno 6908 bound_to 6896
  150.7832  134.6839  159.6504 H   0  0  0  0  0  0  0  0  0  0  0  0  # atno 6909 bound_to 6896
  144.9031  139.5396  143.5744 H   0  0  0  0  0  0  0  0  0  0  0  0  # atno 7974 bound_to 7965
  155.0549  140.3184  155.4679 H   0  0  0  0  0  0  0  0  0  0  0  0  # atno 8008 bound_to 7997
  156.2826  140.2139  156.5619 H   0  0  0  0  0  0  0  0  0  0  0  0  # atno 8009 bound_to 7997
  154.7180  140.0492  157.0600 H   0  0  0  0  0  0  0  0  0  0  0  0  # atno 8010 bound_to 7997
  140.1492  143.4214  152.1507 H   0  0  0  0  0  0  0  0  0  0  0  0  # atno 10167 bound_to 10162
  156.9724  131.0094  151.2902 H   0  0  0  0  0  0  0  0  0  0  0  0  # atno 10718 bound_to 10713
  152.9935  135.5519  154.5951 H   0  0  0  0  0  0  0  0  0  0  0  0  # atno 10763 bound_to 10752
  154.5305  135.2813  155.1187 H   0  0  0  0  0  0  0  0  0  0  0  0  # atno 10764 bound_to 10752
  154.2504  135.6400  153.5291 H   0  0  0  0  0  0  0  0  0  0  0  0  # atno 10765 bound_to 10752
  140.3800  134.1931  155.7664 H   0  0  0  0  0  0  0  0  0  0  0  0  # atno 11005 bound_to 11000
  146.3119  139.7777  142.9013 LP  0  0  0  0  0  0  0  0  0  0  0  0  # atno 17320 bound_to 7965
  145.3582  141.0321  143.3299 LP  0  0  0  0  0  0  0  0  0  0  0  0  # atno 17321 bound_to 7965
  139.5434  144.7277  151.4660 LP  0  0  0  0  0  0  0  0  0  0  0  0  # atno 17342 bound_to 10162
  140.6713  143.8287  150.7003 LP  0  0  0  0  0  0  0  0  0  0  0  0  # atno 17343 bound_to 10162
  157.5583  130.8229  149.8233 LP  0  0  0  0  0  0  0  0  0  0  0  0  # atno 17370 bound_to 10713
  156.0277  130.3774  150.1775 LP  0  0  0  0  0  0  0  0  0  0  0  0  # atno 17371 bound_to 10713
  141.1926  133.8168  157.0830 LP  0  0  0  0  0  0  0  0  0  0  0  0  # atno 17394 bound_to 11000
  140.0486  134.9817  157.1094 LP  0  0  0  0  0  0  0  0  0  0  0  0  # atno 17395 bound_to 11000

$$$$
