AV-unprocessed.smi:2538|AV-procd|sdf|9983|dock1
  -GOLD-   2272014 33D 1   1.00000     0.00000
 Structure written by MMmdl.
 49 50  0  0  0  0  0  0  0  0  2 V2000
  152.0696  144.9933  160.3621 C   0  0  0  0  0  0  0  0  0  0  0  0
  151.8582  143.7693  159.4873 C   0  0  0  0  0  0  0  0  0  0  0  0
  151.1599  143.9243  158.2683 C   0  0  0  0  0  0  0  0  0  0  0  0
  150.9820  142.7867  157.4899 C   0  0  0  0  0  0  0  0  0  0  0  0
  150.3495  142.6093  156.2572 N   0  3  0  0  0  0  0  0  0  0  0  0
  150.4329  141.3010  155.8875 C   0  0  0  0  0  0  0  0  0  0  0  0
  151.1104  140.6417  156.8662 N   0  0  0  0  0  0  0  0  0  0  0  0
  151.4863  139.2256  156.9701 C   0  0  0  0  0  0  0  0  0  0  0  0
  153.0028  139.0000  156.8060 C   0  0  2  0  0  0  0  0  0  0  0  0
  153.3210  139.1448  155.4357 O   0  0  0  0  0  0  0  0  0  0  0  0
  153.4297  137.5913  157.2726 C   0  0  0  0  0  0  0  0  0  0  0  0
  154.2229  137.6052  158.5167 N   0  0  0  0  0  0  0  0  0  0  0  0
  155.6814  137.6699  158.3523 C   0  0  0  0  0  0  0  0  0  0  0  0
  153.5800  136.9158  159.9764 S   0  0  0  0  0  0  0  0  0  0  0  0
  152.1410  137.2214  159.9941 O   0  0  0  0  0  0  0  0  0  0  0  0
  154.0282  135.5159  160.0395 O   0  0  0  0  0  0  0  0  0  0  0  0
  154.4096  137.8883  161.3270 C   0  0  0  0  0  0  0  0  0  0  0  0
  153.9787  137.3722  162.7073 C   0  0  0  0  0  0  0  0  0  0  0  0
  154.1219  139.3886  161.1735 C   0  0  0  0  0  0  0  0  0  0  0  0
  151.4711  141.5274  157.8865 C   0  0  0  0  0  0  0  0  0  0  0  0
  152.1612  141.3562  159.0839 C   0  0  0  0  0  0  0  0  0  0  0  0
  152.3536  142.5015  159.8891 C   0  0  0  0  0  0  0  0  0  0  0  0
  153.1046  142.3463  161.2003 C   0  0  0  0  0  0  0  0  0  0  0  0
  151.5948  145.8766  159.9337 H   0  0  0  0  0  0  0  0  0  0  0  0
  153.1334  145.2062  160.4708 H   0  0  0  0  0  0  0  0  0  0  0  0
  151.6441  144.8359  161.3535 H   0  0  0  0  0  0  0  0  0  0  0  0
  150.7813  144.8864  157.9551 H   0  0  0  0  0  0  0  0  0  0  0  0
  150.0387  140.8669  154.9799 H   0  0  0  0  0  0  0  0  0  0  0  0
  151.1373  138.8518  157.9337 H   0  0  0  0  0  0  0  0  0  0  0  0
  150.9319  138.6787  156.2058 H   0  0  0  0  0  0  0  0  0  0  0  0
  153.5269  139.7717  157.3677 H   0  0  0  0  0  0  0  0  0  0  0  0
  154.1263  139.6344  155.3640 H   0  0  0  0  0  0  0  0  0  0  0  0
  152.5408  136.9895  157.4657 H   0  0  0  0  0  0  0  0  0  0  0  0
  153.9641  137.0548  156.4880 H   0  0  0  0  0  0  0  0  0  0  0  0
  156.0941  136.6733  158.1970 H   0  0  0  0  0  0  0  0  0  0  0  0
  156.1430  138.0947  159.2436 H   0  0  0  0  0  0  0  0  0  0  0  0
  155.9511  138.2977  157.5027 H   0  0  0  0  0  0  0  0  0  0  0  0
  155.4820  137.7370  161.2326 H   0  0  0  0  0  0  0  0  0  0  0  0
  154.4654  137.9338  163.5049 H   0  0  0  0  0  0  0  0  0  0  0  0
  154.2422  136.3228  162.8393 H   0  0  0  0  0  0  0  0  0  0  0  0
  152.9009  137.4657  162.8432 H   0  0  0  0  0  0  0  0  0  0  0  0
  154.6469  139.9674  161.9336 H   0  0  0  0  0  0  0  0  0  0  0  0
  153.0570  139.6015  161.2708 H   0  0  0  0  0  0  0  0  0  0  0  0
  154.4494  139.7526  160.1993 H   0  0  0  0  0  0  0  0  0  0  0  0
  152.5373  140.3905  159.3884 H   0  0  0  0  0  0  0  0  0  0  0  0
  153.4529  141.3229  161.3419 H   0  0  0  0  0  0  0  0  0  0  0  0
  152.4595  142.5986  162.0422 H   0  0  0  0  0  0  0  0  0  0  0  0
  153.9768  143.0001  161.2235 H   0  0  0  0  0  0  0  0  0  0  0  0
  149.8955  143.3265  155.7060 H   0  0  0  0  0  0  0  0  0  0  0  0
  1  2  1  0  0  0  0
  1 24  1  0  0  0  0
  1 25  1  0  0  0  0
  1 26  1  0  0  0  0
  2 22  1  0  0  0  0
  2  3  2  0  0  0  0
  3  4  1  0  0  0  0
  3 27  1  0  0  0  0
  4 20  2  0  0  0  0
  4  5  1  0  0  0  0
  5  6  2  0  0  0  0
  5 49  1  0  0  0  0
  6  7  1  0  0  0  0
  6 28  1  0  0  0  0
  7  8  1  0  0  0  0
  7 20  1  0  0  0  0
  8  9  1  0  0  0  0
  8 29  1  0  0  0  0
  8 30  1  0  0  0  0
  9 10  1  0  0  0  0
  9 11  1  0  0  0  0
  9 31  1  0  0  0  0
 10 32  1  0  0  0  0
 11 12  1  0  0  0  0
 11 33  1  0  0  0  0
 11 34  1  0  0  0  0
 12 13  1  0  0  0  0
 12 14  1  0  0  0  0
 13 35  1  0  0  0  0
 13 36  1  0  0  0  0
 13 37  1  0  0  0  0
 14 15  2  0  0  0  0
 14 16  2  0  0  0  0
 14 17  1  0  0  0  0
 17 18  1  0  0  0  0
 17 19  1  0  0  0  0
 17 38  1  0  0  0  0
 18 39  1  0  0  0  0
 18 40  1  0  0  0  0
 18 41  1  0  0  0  0
 19 42  1  0  0  0  0
 19 43  1  0  0  0  0
 19 44  1  0  0  0  0
 20 21  1  0  0  0  0
 21 22  2  0  0  0  0
 21 45  1  0  0  0  0
 22 23  1  0  0  0  0
 23 46  1  0  0  0  0
 23 47  1  0  0  0  0
 23 48  1  0  0  0  0
M  CHG  1   5   1
M  END
> <s_m_source_file>
AV-unprocessed.smi

> <i_m_source_file_index>
2538

> <i_lp_mmshare_version>
43012

> <i_f3d_flags>
0

> <s_epik_input>
W0NIM11jKFtjSF0xKWMoW0NIM10pW2NIXWMoYzEyKW4oW2NIXW4yKVtDSDJdW0NASF0oW09IXSlbQ0gyXU4oW0NIM10pUyg9TykoPU8pW0NIXShbQ0gzXSlbQ0gzXQ==

> <s_epik_cmdline>
J2VwaWtfcHl0aG9uJywgJy1waCcsICc3LjAnLCAnLXRuJywgJzgnLCAnLW1hJywgJzIwMCcsICctbWV0YWxfYmluZGluZycsICctaW1hZScsICc8aW5maWxlLm1hZT4nLCAnLW9tYWUnLCAnPG91dGZpbGUubWFlPic=

> <r_epik_Ionization_Penalty>
1.07686

> <r_epik_Ionization_Penalty_Charging>
1.07685

> <r_epik_Ionization_Penalty_Neutral>
1.40866e-06

> <r_epik_State_Penalty>
1.13193

> <r_epik_Charging_Adjusted_Penalty>
2.20879

> <i_epik_Tot_Q>
1

> <i_epik_Tot_abs_Q>
1

> <r_epik_Metal_State_Penalty>
5.12988

> <b_epik_Metal_Only>
0

> <s_lp_Force_Field>
OPLS_2005

> <r_lp_Energy>
10.0565

> <b_lp_Chiralities_Consistent>
1

> <s_lp_Variant>
AV-unprocessed.smi:2538-3

> <Gold.Version>
5.8.1

> <Gold.Id.Protein>
6NUR|6NUR_protein|mol2

> <Gold.PLP.Fitness>
50.2046

> <Gold.PLP.PLP>
-43.2106

> <Gold.PLP.part.hbond>
-3.7113

> <Gold.PLP.part.metal>
0.0000

> <Gold.PLP.part.buried>
-3.9877

> <Gold.PLP.part.nonpolar>
-35.9216

> <Gold.PLP.part.repulsive>
0.1009

> <Gold.PLP.ligand.clash>
0.0000

> <Gold.PLP.ligand.torsion>
2.3390

> <Gold.PLP.Chemscore.Hbond>
2.9840

> <Gold.PLP.Chemscore.CHOScore>
0.0000

> <Gold.PLP.Chemscore.Metal>
0.0000

> <Gold.Chemscore.Hbonds>
donor molecule, donor type, donor heavy atom, donor atom, acceptor molecule, acceptor atom, score
      L1  H     5    49       P1  8028  1.95
      P1  H  6896  6909       L1    16  1.00

> <Gold.PLP.Chemscore.Internal.Correction>
2.7200

> <Gold.Rescore>
     Score         DG    S(hbond)    S(metal)    S(lipo)     H(rot)  DE(clash)    DE(int)     intcor
     16.83     -19.66       1.94        0.00     117.42       2.36       0.48       2.35       ----

> <Gold.Chemscore.Fitness>
16.8305

> <Gold.Chemscore.DG>
-19.6632

> <Gold.Chemscore.ZeroCoef>
-5.4800

> <Gold.Chemscore.Hbond>
1.9417

> <Gold.Chemscore.Metal>
0.0000

> <Gold.Chemscore.Lipo>
117.4193

> <Gold.Chemscore.Internal_Hbond>
0.0000

> <Gold.Chemscore.DEClash>
0.4779

> <Gold.Chemscore.DEInternal>
2.3547

> <Gold.Chemscore.Rot>
2.3595

> <Gold.Chemscore.Internal.Correction>
   9.000000E+99

> <Gold.Chemscore.Hbonds>
donor molecule, donor type, donor heavy atom, donor atom, acceptor molecule, acceptor atom, score
      L1  H     5    49       P1  8028  0.93
      P1  H  6896  6909       L1    16  0.35

> <Gold.Chemscore.Hbond.Weighted>
-6.4854

> <Gold.Chemscore.Metal.Weighted>
-0.0000

> <Gold.Chemscore.Lipo.Weighted>
-13.7381

> <Gold.Chemscore.Internal_Hbond.Weighted>
0.0000

> <Gold.Chemscore.DEClash.Weighted>
0.4779

> <Gold.Chemscore.DEInternal.Weighted>
2.3547

> <Gold.Chemscore.Rot.Weighted>
6.0403

> <Gold.Chemscore.Internal.Correction.Weighted>
   9.000000E+99

> <Gold.Protein.RotatedTorsions>
[ 6907 6896 6895 6894 ] final -177.90 input  -60.11 | X-H torsion
[ 7974 7965 7964 7962 ] final    9.84 input  175.53 | X-H torsion
[ 8008 7997 7996 7995 ] final -154.37 input   59.86 | X-H torsion
[ 10167 10162 10161 10158 ] final -151.58 input  -65.29 | X-H torsion
[ 10718 10713 10712 10709 ] final -137.40 input   66.30 | X-H torsion
[ 10763 10752 10751 10750 ] final  -15.49 input  -60.55 | X-H torsion
[ 11005 11000 10999 10996 ] final  -53.77 input  -57.11 | X-H torsion

> <Gold.Protein.ActiveResidues>
 VAL166  LYS551  ARG553  GLY616  TRP617  ASP618  TYR619  PRO620  LYS621  CYS622 
 ASP623  PHE694  ASN695  SER759  ASP760  ASP761  ALA762  ILE779  LEU786  VAL792 
 PHE793  MET794  SER795  GLU796  ALA797  LYS798  CYS799  TRP800  GLU811  SER814 

> <Gold.Protein.RotatedAtoms>
  151.6286  133.3333  159.3103 H   0  0  0  0  0  0  0  0  0  0  0  0  # atno 6907 bound_to 6896
  150.8068  134.7202  159.6663 H   0  0  0  0  0  0  0  0  0  0  0  0  # atno 6908 bound_to 6896
  152.4164  134.6038  160.0059 H   0  0  0  0  0  0  0  0  0  0  0  0  # atno 6909 bound_to 6896
  146.2397  139.9723  142.8445 H   0  0  0  0  0  0  0  0  0  0  0  0  # atno 7974 bound_to 7965
  155.6853  140.0749  157.2469 H   0  0  0  0  0  0  0  0  0  0  0  0  # atno 8008 bound_to 7997
  154.4098  140.1674  156.2079 H   0  0  0  0  0  0  0  0  0  0  0  0  # atno 8009 bound_to 7997
  155.9499  140.3378  155.6402 H   0  0  0  0  0  0  0  0  0  0  0  0  # atno 8010 bound_to 7997
  139.7255  143.8890  152.2518 H   0  0  0  0  0  0  0  0  0  0  0  0  # atno 10167 bound_to 10162
  156.2877  130.7357  151.1373 H   0  0  0  0  0  0  0  0  0  0  0  0  # atno 10718 bound_to 10713
  153.5442  135.7013  153.5622 H   0  0  0  0  0  0  0  0  0  0  0  0  # atno 10763 bound_to 10752
  153.3574  135.3979  155.1692 H   0  0  0  0  0  0  0  0  0  0  0  0  # atno 10764 bound_to 10752
  154.8670  135.3780  154.4948 H   0  0  0  0  0  0  0  0  0  0  0  0  # atno 10765 bound_to 10752
  141.0992  133.6620  156.4221 H   0  0  0  0  0  0  0  0  0  0  0  0  # atno 11005 bound_to 11000
  145.1670  140.9701  143.4344 LP  0  0  0  0  0  0  0  0  0  0  0  0  # atno 17320 bound_to 7965
  145.0064  139.3551  143.6142 LP  0  0  0  0  0  0  0  0  0  0  0  0  # atno 17321 bound_to 7965
  139.8798  144.7023  150.8890 LP  0  0  0  0  0  0  0  0  0  0  0  0  # atno 17342 bound_to 10162
  140.7762  143.3670  151.1720 LP  0  0  0  0  0  0  0  0  0  0  0  0  # atno 17343 bound_to 10162
  157.7333  131.0592  150.5582 LP  0  0  0  0  0  0  0  0  0  0  0  0  # atno 17370 bound_to 10713
  156.5695  130.4276  149.6026 LP  0  0  0  0  0  0  0  0  0  0  0  0  # atno 17371 bound_to 10713
  140.5063  134.6437  157.5268 LP  0  0  0  0  0  0  0  0  0  0  0  0  # atno 17394 bound_to 11000
  139.9838  134.7094  155.9810 LP  0  0  0  0  0  0  0  0  0  0  0  0  # atno 17395 bound_to 11000

$$$$
