AV-unprocessed.smi:2995|AV-procd|sdf|11409|dock4
  -GOLD-   2272016333D 1   1.00000     0.00000
 Structure written by MMmdl.
 50 52  0  0  0  0  0  0  0  0  3 V2000
  150.8238  137.9673  154.4523 C   0  0  0  0  0  0  0  0  0  0  0  0
  150.1721  139.3235  154.6604 C   0  0  0  0  0  0  0  0  0  0  0  0
  150.8235  140.2942  155.4535 C   0  0  0  0  0  0  0  0  0  0  0  0
  150.2189  141.5517  155.6439 C   0  0  0  0  0  0  0  0  0  0  0  0
  149.0291  141.8168  155.0661 N   0  3  0  0  0  0  0  0  0  0  0  0
  148.3689  140.9212  154.3010 C   0  0  0  0  0  0  0  0  0  0  0  0
  148.9161  139.6323  154.0769 C   0  0  0  0  0  0  0  0  0  0  0  0
  148.2804  138.6518  153.2624 N   0  0  0  0  0  0  0  0  0  0  0  0
  146.9729  138.5107  152.9831 C   0  0  0  0  0  0  0  0  0  0  0  0
  146.0732  139.2276  153.4200 O   0  0  0  0  0  0  0  0  0  0  0  0
  146.7621  137.4643  152.1710 N   0  0  0  0  0  0  0  0  0  0  0  0
  145.4622  137.0120  151.6800 C   0  0  2  0  0  0  0  0  0  0  0  0
  144.6725  136.3435  152.8195 C   0  0  0  0  0  0  0  0  0  0  0  0
  143.3599  135.7235  152.3020 C   0  0  0  0  0  0  0  0  0  0  0  0
  143.5955  134.7590  151.1915 N   0  3  2  0  0  0  0  0  0  0  0  0
  144.1848  133.4547  151.6205 C   0  0  0  0  0  0  0  0  0  0  0  0
  145.6113  133.5715  152.1750 C   0  0  0  0  0  0  0  0  0  0  0  0
  146.1866  132.1556  152.0869 C   0  0  0  0  0  0  0  0  0  0  0  0
  145.4280  131.4599  150.9487 C   0  0  0  0  0  0  0  0  0  0  0  0
  144.3671  132.4567  150.4674 C   0  0  0  0  0  0  0  0  0  0  0  0
  144.3101  135.4245  150.0666 C   0  0  0  0  0  0  0  0  0  0  0  0
  145.6554  136.0279  150.5133 C   0  0  0  0  0  0  0  0  0  0  0  0
  151.7739  137.8957  154.9825 H   0  0  0  0  0  0  0  0  0  0  0  0
  151.0159  137.7956  153.3928 H   0  0  0  0  0  0  0  0  0  0  0  0
  150.1735  137.1727  154.8197 H   0  0  0  0  0  0  0  0  0  0  0  0
  151.7784  140.0818  155.9124 H   0  0  0  0  0  0  0  0  0  0  0  0
  150.6497  142.3489  156.2323 H   0  0  0  0  0  0  0  0  0  0  0  0
  147.4381  141.2826  153.8911 H   0  0  0  0  0  0  0  0  0  0  0  0
  148.8910  137.9377  152.8923 H   0  0  0  0  0  0  0  0  0  0  0  0
  147.5665  136.9343  151.8685 H   0  0  0  0  0  0  0  0  0  0  0  0
  144.8758  137.8566  151.3133 H   0  0  0  0  0  0  0  0  0  0  0  0
  145.2806  135.5758  153.2994 H   0  0  0  0  0  0  0  0  0  0  0  0
  144.4479  137.0789  153.5933 H   0  0  0  0  0  0  0  0  0  0  0  0
  142.8084  135.2592  153.1186 H   0  0  0  0  0  0  0  0  0  0  0  0
  142.7127  136.5186  151.9297 H   0  0  0  0  0  0  0  0  0  0  0  0
  143.5564  132.9935  152.3831 H   0  0  0  0  0  0  0  0  0  0  0  0
  146.2026  134.2424  151.5497 H   0  0  0  0  0  0  0  0  0  0  0  0
  145.6407  133.9536  153.1958 H   0  0  0  0  0  0  0  0  0  0  0  0
  147.2638  132.1676  151.9177 H   0  0  0  0  0  0  0  0  0  0  0  0
  146.0092  131.6240  153.0227 H   0  0  0  0  0  0  0  0  0  0  0  0
  146.0945  131.1725  150.1347 H   0  0  0  0  0  0  0  0  0  0  0  0
  144.9559  130.5492  151.3195 H   0  0  0  0  0  0  0  0  0  0  0  0
  143.4392  131.9544  150.1926 H   0  0  0  0  0  0  0  0  0  0  0  0
  144.7379  132.9747  149.5815 H   0  0  0  0  0  0  0  0  0  0  0  0
  144.4546  134.7435  149.2289 H   0  0  0  0  0  0  0  0  0  0  0  0
  143.6717  136.2218  149.6831 H   0  0  0  0  0  0  0  0  0  0  0  0
  146.1220  136.5410  149.6716 H   0  0  0  0  0  0  0  0  0  0  0  0
  146.3417  135.2306  150.8009 H   0  0  0  0  0  0  0  0  0  0  0  0
  142.6808  134.5242  150.8327 H   0  0  0  0  0  0  0  0  0  0  0  0
  148.6103  142.7360  155.2098 H   0  0  0  0  0  0  0  0  0  0  0  0
  1  2  1  0  0  0  0
  1 23  1  0  0  0  0
  1 24  1  0  0  0  0
  1 25  1  0  0  0  0
  2  7  1  0  0  0  0
  2  3  2  0  0  0  0
  3  4  1  0  0  0  0
  3 26  1  0  0  0  0
  4  5  2  0  0  0  0
  4 27  1  0  0  0  0
  5  6  1  0  0  0  0
  5 50  1  0  0  0  0
  6  7  2  0  0  0  0
  6 28  1  0  0  0  0
  7  8  1  0  0  0  0
  8  9  1  0  0  0  0
  8 29  1  0  0  0  0
  9 10  2  0  0  0  0
  9 11  1  0  0  0  0
 11 12  1  0  0  0  0
 11 30  1  0  0  0  0
 12 22  1  0  0  0  0
 12 13  1  0  0  0  0
 12 31  1  0  0  0  0
 13 14  1  0  0  0  0
 13 32  1  0  0  0  0
 13 33  1  0  0  0  0
 14 15  1  0  0  0  0
 14 34  1  0  0  0  0
 14 35  1  0  0  0  0
 15 16  1  0  0  0  0
 15 21  1  0  0  0  0
 15 49  1  0  0  0  0
 16 20  1  0  0  0  0
 16 17  1  0  0  0  0
 16 36  1  0  0  0  0
 17 18  1  0  0  0  0
 17 37  1  0  0  0  0
 17 38  1  0  0  0  0
 18 19  1  0  0  0  0
 18 39  1  0  0  0  0
 18 40  1  0  0  0  0
 19 20  1  0  0  0  0
 19 41  1  0  0  0  0
 19 42  1  0  0  0  0
 20 43  1  0  0  0  0
 20 44  1  0  0  0  0
 21 22  1  0  0  0  0
 21 45  1  0  0  0  0
 21 46  1  0  0  0  0
 22 47  1  0  0  0  0
 22 48  1  0  0  0  0
M  CHG  1   5   1
M  CHG  1  15   1
M  END
> <s_m_source_file>
AV-unprocessed.smi

> <i_m_source_file_index>
2995

> <i_lp_mmshare_version>
43012

> <i_f3d_flags>
0

> <s_epik_input>
W0NIM11jMVtjSF1bY0hdbltjSF1jMVtOSF1DKD1PKVtOSF1bQ0hdMltDSDJdW0NIMl1OKFtDSDJdW0NIMl0yKVtDSF0zW0NIMl1bQ0gyXVtDSDJdW0NIMl0z

> <s_epik_cmdline>
J2VwaWtfcHl0aG9uJywgJy1waCcsICc3LjAnLCAnLXRuJywgJzgnLCAnLW1hJywgJzIwMCcsICctbWV0YWxfYmluZGluZycsICctaW1hZScsICc8aW5maWxlLm1hZT4nLCAnLW9tYWUnLCAnPG91dGZpbGUubWFlPic=

> <r_epik_Ionization_Penalty>
2.08537

> <r_epik_Ionization_Penalty_Charging>
2.08535

> <r_epik_Ionization_Penalty_Neutral>
2.13957e-05

> <r_epik_State_Penalty>
2.21824

> <r_epik_Charging_Adjusted_Penalty>
4.30358

> <i_epik_Tot_Q>
2

> <i_epik_Tot_abs_Q>
2

> <r_epik_Metal_State_Penalty>
2.23856

> <b_epik_Metal_Only>
0

> <s_lp_Force_Field>
OPLS_2005

> <r_lp_Energy>
50.6964

> <b_lp_Chiralities_Consistent>
1

> <s_lp_Variant>
AV-unprocessed.smi:2995-4

> <Gold.Version>
5.8.1

> <Gold.Id.Protein>
6NUR|6NUR_protein|mol2

> <Gold.PLP.Fitness>
54.0696

> <Gold.PLP.PLP>
-39.7185

> <Gold.PLP.part.hbond>
-4.8035

> <Gold.PLP.part.metal>
0.0000

> <Gold.PLP.part.buried>
0.8311

> <Gold.PLP.part.nonpolar>
-37.2866

> <Gold.PLP.part.repulsive>
2.1838

> <Gold.PLP.ligand.clash>
1.2367

> <Gold.PLP.ligand.torsion>
0.3185

> <Gold.PLP.Chemscore.Hbond>
5.3909

> <Gold.PLP.Chemscore.CHOScore>
0.0000

> <Gold.PLP.Chemscore.Metal>
0.0000

> <Gold.Chemscore.Hbonds>
donor molecule, donor type, donor heavy atom, donor atom, acceptor molecule, acceptor atom, score
      L1  H     5    50       P1  8028  1.90
      L1  H     8    29       P1  7948  0.91
      L1  H    11    30       P1  7948  1.00
      L1  H    15    49       P1 10186  1.49

> <Gold.PLP.Chemscore.Internal.Correction>
0.0523

> <Gold.Rescore>
     Score         DG    S(hbond)    S(metal)    S(lipo)     H(rot)  DE(clash)    DE(int)     intcor
     19.60     -23.14       2.63        0.00     101.84       1.19       0.18       3.37       ----

> <Gold.Chemscore.Fitness>
19.6025

> <Gold.Chemscore.DG>
-23.1441

> <Gold.Chemscore.ZeroCoef>
-5.4800

> <Gold.Chemscore.Hbond>
2.6304

> <Gold.Chemscore.Metal>
0.0000

> <Gold.Chemscore.Lipo>
101.8369

> <Gold.Chemscore.Internal_Hbond>
0.0000

> <Gold.Chemscore.DEClash>
0.1763

> <Gold.Chemscore.DEInternal>
3.3653

> <Gold.Chemscore.Rot>
1.1861

> <Gold.Chemscore.Internal.Correction>
   9.000000E+99

> <Gold.Chemscore.Hbonds>
donor molecule, donor type, donor heavy atom, donor atom, acceptor molecule, acceptor atom, score
      L1  H     5    50       P1  8028  0.86
      L1  H     8    29       P1  7948  0.87
      L1  H    11    30       P1  7948  0.93
      L1  H    15    49       P1 10186  0.15

> <Gold.Chemscore.Hbond.Weighted>
-8.7856

> <Gold.Chemscore.Metal.Weighted>
-0.0000

> <Gold.Chemscore.Lipo.Weighted>
-11.9149

> <Gold.Chemscore.Internal_Hbond.Weighted>
0.0000

> <Gold.Chemscore.DEClash.Weighted>
0.1763

> <Gold.Chemscore.DEInternal.Weighted>
3.3653

> <Gold.Chemscore.Rot.Weighted>
3.0364

> <Gold.Chemscore.Internal.Correction.Weighted>
   9.000000E+99

> <Gold.Protein.RotatedTorsions>
[ 6907 6896 6895 6894 ] final -164.64 input  -60.11 | X-H torsion
[ 7974 7965 7964 7962 ] final  -84.22 input  175.53 | X-H torsion
[ 8008 7997 7996 7995 ] final   -4.21 input   59.86 | X-H torsion
[ 10167 10162 10161 10158 ] final -175.88 input  -65.29 | X-H torsion
[ 10718 10713 10712 10709 ] final -159.64 input   66.30 | X-H torsion
[ 10763 10752 10751 10750 ] final -173.64 input  -60.55 | X-H torsion
[ 11005 11000 10999 10996 ] final  -88.25 input  -57.11 | X-H torsion

> <Gold.Protein.ActiveResidues>
 VAL166  LYS551  ARG553  GLY616  TRP617  ASP618  TYR619  PRO620  LYS621  CYS622 
 ASP623  PHE694  ASN695  SER759  ASP760  ASP761  ALA762  ILE779  LEU786  VAL792 
 PHE793  MET794  SER795  GLU796  ALA797  LYS798  CYS799  TRP800  GLU811  SER814 

> <Gold.Protein.RotatedAtoms>
  151.4150  133.3715  159.2748 H   0  0  0  0  0  0  0  0  0  0  0  0  # atno 6907 bound_to 6896
  150.9335  134.8750  159.7577 H   0  0  0  0  0  0  0  0  0  0  0  0  # atno 6908 bound_to 6896
  152.5039  134.4097  159.9496 H   0  0  0  0  0  0  0  0  0  0  0  0  # atno 6909 bound_to 6896
  145.5095  140.9541  143.1715 H   0  0  0  0  0  0  0  0  0  0  0  0  # atno 7974 bound_to 7965
  154.6167  140.2490  155.7600 H   0  0  0  0  0  0  0  0  0  0  0  0  # atno 8008 bound_to 7997
  156.2403  140.2935  156.0375 H   0  0  0  0  0  0  0  0  0  0  0  0  # atno 8009 bound_to 7997
  155.1963  140.0393  157.2900 H   0  0  0  0  0  0  0  0  0  0  0  0  # atno 8010 bound_to 7997
  139.5558  144.1993  152.1156 H   0  0  0  0  0  0  0  0  0  0  0  0  # atno 10167 bound_to 10162
  156.5709  130.8688  151.2837 H   0  0  0  0  0  0  0  0  0  0  0  0  # atno 10718 bound_to 10713
  154.6055  135.2859  155.0489 H   0  0  0  0  0  0  0  0  0  0  0  0  # atno 10763 bound_to 10752
  154.1738  135.6468  153.5020 H   0  0  0  0  0  0  0  0  0  0  0  0  # atno 10764 bound_to 10752
  153.0174  135.5407  154.6790 H   0  0  0  0  0  0  0  0  0  0  0  0  # atno 10765 bound_to 10752
  141.1605  133.7559  156.9424 H   0  0  0  0  0  0  0  0  0  0  0  0  # atno 11005 bound_to 11000
  144.7735  139.6682  143.7185 LP  0  0  0  0  0  0  0  0  0  0  0  0  # atno 17320 bound_to 7965
  146.2175  139.5576  142.9640 LP  0  0  0  0  0  0  0  0  0  0  0  0  # atno 17321 bound_to 7965
  140.1497  144.5126  150.6694 LP  0  0  0  0  0  0  0  0  0  0  0  0  # atno 17342 bound_to 10162
  140.6830  143.2336  151.5334 LP  0  0  0  0  0  0  0  0  0  0  0  0  # atno 17343 bound_to 10162
  157.7348  130.9752  150.2049 LP  0  0  0  0  0  0  0  0  0  0  0  0  # atno 17370 bound_to 10713
  156.2715  130.3722  149.8026 LP  0  0  0  0  0  0  0  0  0  0  0  0  # atno 17371 bound_to 10713
  140.1313  134.9354  157.2340 LP  0  0  0  0  0  0  0  0  0  0  0  0  # atno 17394 bound_to 11000
  140.2950  134.3197  155.7305 LP  0  0  0  0  0  0  0  0  0  0  0  0  # atno 17395 bound_to 11000

$$$$
