AV-unprocessed.smi:2240|AV-procd|sdf|9057|dock1
  -GOLD-   2272012263D 1   1.00000     0.00000
 Structure written by MMmdl.
 37 38  0  0  0  0  0  0  0  0  1 V2000
  149.6866  140.8543  154.9060 C   0  0  0  0  0  0  0  0  0  0  0  0
  150.3779  139.7477  154.3411 O   0  0  0  0  0  0  0  0  0  0  0  0
  150.8017  138.7387  155.2588 C   0  0  0  0  0  0  0  0  0  0  0  0
  152.0930  139.1366  155.9938 C   0  0  0  0  0  0  0  0  0  0  0  0
  151.8699  140.2532  156.9071 N   0  0  0  0  0  0  0  0  0  0  0  0
  152.5005  140.4471  158.0739 C   0  0  0  0  0  0  0  0  0  0  0  0
  153.3792  139.7003  158.5059 O   0  0  0  0  0  0  0  0  0  0  0  0
  152.0321  141.5405  158.7008 N   0  0  0  0  0  0  0  0  0  0  0  0
  152.3953  142.0511  159.9753 C   0  0  0  0  0  0  0  0  0  0  0  0
  153.2986  141.3431  160.8091 C   0  0  0  0  0  0  0  0  0  0  0  0
  153.6617  141.8890  162.0553 C   0  0  0  0  0  0  0  0  0  0  0  0
  153.1252  143.1333  162.4347 C   0  0  0  0  0  0  0  0  0  0  0  0
  153.4841  143.7599  163.7658 C   0  0  0  0  0  0  0  0  0  0  0  0
  152.2481  143.7759  161.5398 C   0  0  0  0  0  0  0  0  0  0  0  0
  151.9003  143.2553  160.3441 N   0  0  0  0  0  0  0  0  0  0  0  0
  149.5808  138.3179  156.1009 C   0  0  0  0  0  0  0  0  0  0  0  0
  149.9731  136.8583  155.8684 C   0  0  0  0  0  0  0  0  0  0  0  0
  150.7190  137.3361  154.6221 C   0  0  0  0  0  0  0  0  0  0  0  0
  149.5225  141.6050  154.1332 H   0  0  0  0  0  0  0  0  0  0  0  0
  150.2540  141.3252  155.7088 H   0  0  0  0  0  0  0  0  0  0  0  0
  148.7086  140.5658  155.2900 H   0  0  0  0  0  0  0  0  0  0  0  0
  152.5072  138.2813  156.5302 H   0  0  0  0  0  0  0  0  0  0  0  0
  152.8687  139.4275  155.2861 H   0  0  0  0  0  0  0  0  0  0  0  0
  151.1575  140.9162  156.6391 H   0  0  0  0  0  0  0  0  0  0  0  0
  151.2431  141.9948  158.2654 H   0  0  0  0  0  0  0  0  0  0  0  0
  153.7282  140.3992  160.5096 H   0  0  0  0  0  0  0  0  0  0  0  0
  154.3452  141.3616  162.7044 H   0  0  0  0  0  0  0  0  0  0  0  0
  153.2449  144.8237  163.7765 H   0  0  0  0  0  0  0  0  0  0  0  0
  154.5504  143.6500  163.9648 H   0  0  0  0  0  0  0  0  0  0  0  0
  152.9319  143.2756  164.5711 H   0  0  0  0  0  0  0  0  0  0  0  0
  151.8141  144.7343  161.7847 H   0  0  0  0  0  0  0  0  0  0  0  0
  149.6031  138.6260  157.1457 H   0  0  0  0  0  0  0  0  0  0  0  0
  148.6276  138.5723  155.6341 H   0  0  0  0  0  0  0  0  0  0  0  0
  150.6391  136.4691  156.6401 H   0  0  0  0  0  0  0  0  0  0  0  0
  149.1384  136.1847  155.6729 H   0  0  0  0  0  0  0  0  0  0  0  0
  150.0938  137.3022  153.7279 H   0  0  0  0  0  0  0  0  0  0  0  0
  151.6808  136.8501  154.4565 H   0  0  0  0  0  0  0  0  0  0  0  0
  1  2  1  0  0  0  0
  1 19  1  0  0  0  0
  1 20  1  0  0  0  0
  1 21  1  0  0  0  0
  2  3  1  0  0  0  0
  3 18  1  0  0  0  0
  3  4  1  0  0  0  0
  3 16  1  0  0  0  0
  4  5  1  0  0  0  0
  4 22  1  0  0  0  0
  4 23  1  0  0  0  0
  5  6  1  0  0  0  0
  5 24  1  0  0  0  0
  6  7  2  0  0  0  0
  6  8  1  0  0  0  0
  8  9  1  0  0  0  0
  8 25  1  0  0  0  0
  9 15  1  0  0  0  0
  9 10  2  0  0  0  0
 10 11  1  0  0  0  0
 10 26  1  0  0  0  0
 11 12  2  0  0  0  0
 11 27  1  0  0  0  0
 12 13  1  0  0  0  0
 12 14  1  0  0  0  0
 13 28  1  0  0  0  0
 13 29  1  0  0  0  0
 13 30  1  0  0  0  0
 14 15  2  0  0  0  0
 14 31  1  0  0  0  0
 16 17  1  0  0  0  0
 16 32  1  0  0  0  0
 16 33  1  0  0  0  0
 17 18  1  0  0  0  0
 17 34  1  0  0  0  0
 17 35  1  0  0  0  0
 18 36  1  0  0  0  0
 18 37  1  0  0  0  0
M  END
> <s_m_source_file>
AV-unprocessed.smi

> <i_m_source_file_index>
2240

> <i_lp_mmshare_version>
43012

> <i_f3d_flags>
0

> <s_epik_input>
W0NIMl0xW0NIMl1bQ0gyXUMxKE9bQ0gzXSlbQ0gyXVtOSF1DKD1PKVtOSF1jMltjSF1bY0hdYyhbQ0gzXSlbY0hdbjI=

> <s_epik_cmdline>
J2VwaWtfcHl0aG9uJywgJy1waCcsICc3LjAnLCAnLXRuJywgJzgnLCAnLW1hJywgJzIwMCcsICctbWV0YWxfYmluZGluZycsICctaW1hZScsICc8aW5maWxlLm1hZT4nLCAnLW9tYWUnLCAnPG91dGZpbGUubWFlPic=

> <r_lp_tautomer_probability>
1

> <r_epik_Ionization_Penalty>
5.83017e-05

> <r_epik_Ionization_Penalty_Charging>
0

> <r_epik_Ionization_Penalty_Neutral>
5.83017e-05

> <r_epik_State_Penalty>
-0

> <r_epik_Charging_Adjusted_Penalty>
0

> <i_epik_Tot_Q>
0

> <i_epik_Tot_abs_Q>
0

> <r_epik_Metal_State_Penalty>
-0

> <b_epik_Metal_Only>
0

> <s_lp_Force_Field>
OPLS_2005

> <r_lp_Energy>
21.5554

> <b_lp_Chiralities_Consistent>
1

> <s_lp_Variant>
AV-unprocessed.smi:2240-1

> <Gold.Version>
5.8.1

> <Gold.Id.Protein>
6NUR|6NUR_protein|mol2

> <Gold.PLP.Fitness>
44.0201

> <Gold.PLP.PLP>
-39.0345

> <Gold.PLP.part.hbond>
-2.0000

> <Gold.PLP.part.metal>
0.0000

> <Gold.PLP.part.buried>
-3.8805

> <Gold.PLP.part.nonpolar>
-31.6038

> <Gold.PLP.part.repulsive>
0.4087

> <Gold.PLP.ligand.clash>
0.0000

> <Gold.PLP.ligand.torsion>
0.6430

> <Gold.PLP.Chemscore.Hbond>
2.0000

> <Gold.PLP.Chemscore.CHOScore>
0.0000

> <Gold.PLP.Chemscore.Metal>
0.0000

> <Gold.Chemscore.Hbonds>
donor molecule, donor type, donor heavy atom, donor atom, acceptor molecule, acceptor atom, score
      P1  H  7989  7998       L1     2  0.60
      P1  H  7997  8009       L1     7  0.65

> <Gold.PLP.Chemscore.Internal.Correction>
0.2715

> <Gold.Rescore>
     Score         DG    S(hbond)    S(metal)    S(lipo)     H(rot)  DE(clash)    DE(int)     intcor
     14.11     -16.29       1.15        0.00      91.26       1.45       0.06       2.12       ----

> <Gold.Chemscore.Fitness>
14.1065

> <Gold.Chemscore.DG>
-16.2869

> <Gold.Chemscore.ZeroCoef>
-5.4800

> <Gold.Chemscore.Hbond>
1.1521

> <Gold.Chemscore.Metal>
0.0000

> <Gold.Chemscore.Lipo>
91.2555

> <Gold.Chemscore.Internal_Hbond>
0.0000

> <Gold.Chemscore.DEClash>
0.0628

> <Gold.Chemscore.DEInternal>
2.1177

> <Gold.Chemscore.Rot>
1.4523

> <Gold.Chemscore.Internal.Correction>
   9.000000E+99

> <Gold.Chemscore.Hbonds>
donor molecule, donor type, donor heavy atom, donor atom, acceptor molecule, acceptor atom, score
      P1  H  7989  7998       L1     2  0.04
      P1  H  7997  8009       L1     7  0.06

> <Gold.Chemscore.Hbond.Weighted>
-3.8479

> <Gold.Chemscore.Metal.Weighted>
-0.0000

> <Gold.Chemscore.Lipo.Weighted>
-10.6769

> <Gold.Chemscore.Internal_Hbond.Weighted>
0.0000

> <Gold.Chemscore.DEClash.Weighted>
0.0628

> <Gold.Chemscore.DEInternal.Weighted>
2.1177

> <Gold.Chemscore.Rot.Weighted>
3.7179

> <Gold.Chemscore.Internal.Correction.Weighted>
   9.000000E+99

> <Gold.Protein.RotatedTorsions>
[ 6907 6896 6895 6894 ] final  -38.47 input  -60.11 | X-H torsion
[ 7974 7965 7964 7962 ] final   69.85 input  175.53 | X-H torsion
[ 8008 7997 7996 7995 ] final  157.80 input   59.86 | X-H torsion
[ 10167 10162 10161 10158 ] final   46.46 input  -65.29 | X-H torsion
[ 10718 10713 10712 10709 ] final  -51.67 input   66.30 | X-H torsion
[ 10763 10752 10751 10750 ] final -104.68 input  -60.55 | X-H torsion
[ 11005 11000 10999 10996 ] final  100.61 input  -57.11 | X-H torsion

> <Gold.Protein.ActiveResidues>
 VAL166  LYS551  ARG553  GLY616  TRP617  ASP618  TYR619  PRO620  LYS621  CYS622 
 ASP623  PHE694  ASN695  SER759  ASP760  ASP761  ALA762  ILE779  LEU786  VAL792 
 PHE793  MET794  SER795  GLU796  ALA797  LYS798  CYS799  TRP800  GLU811  SER814 

> <Gold.Protein.RotatedAtoms>
  151.0020  134.9330  159.7958 H   0  0  0  0  0  0  0  0  0  0  0  0  # atno 6907 bound_to 6896
  152.5280  134.3141  159.9134 H   0  0  0  0  0  0  0  0  0  0  0  0  # atno 6908 bound_to 6896
  151.3147  133.4024  159.2684 H   0  0  0  0  0  0  0  0  0  0  0  0  # atno 6909 bound_to 6896
  145.7853  139.2907  143.1242 H   0  0  0  0  0  0  0  0  0  0  0  0  # atno 7974 bound_to 7965
  156.2342  140.1875  156.7164 H   0  0  0  0  0  0  0  0  0  0  0  0  # atno 8008 bound_to 7997
  154.6076  140.0626  156.9479 H   0  0  0  0  0  0  0  0  0  0  0  0  # atno 8009 bound_to 7997
  155.2070  140.3297  155.4337 H   0  0  0  0  0  0  0  0  0  0  0  0  # atno 8010 bound_to 7997
  140.3136  144.2790  150.6195 H   0  0  0  0  0  0  0  0  0  0  0  0  # atno 10167 bound_to 10162
  156.1689  130.4149  149.9677 H   0  0  0  0  0  0  0  0  0  0  0  0  # atno 10718 bound_to 10713
  154.7895  135.4777  154.0021 H   0  0  0  0  0  0  0  0  0  0  0  0  # atno 10763 bound_to 10752
  153.1610  135.6808  153.8750 H   0  0  0  0  0  0  0  0  0  0  0  0  # atno 10764 bound_to 10752
  153.8364  135.3185  155.3401 H   0  0  0  0  0  0  0  0  0  0  0  0  # atno 10765 bound_to 10752
  139.8771  134.9148  156.4782 H   0  0  0  0  0  0  0  0  0  0  0  0  # atno 11005 bound_to 11000
  146.0032  140.8502  143.0008 LP  0  0  0  0  0  0  0  0  0  0  0  0  # atno 17320 bound_to 7965
  144.6790  140.2382  143.7347 LP  0  0  0  0  0  0  0  0  0  0  0  0  # atno 17321 bound_to 7965
  140.5546  143.2201  151.7869 LP  0  0  0  0  0  0  0  0  0  0  0  0  # atno 17342 bound_to 10162
  139.4888  144.4431  151.9741 LP  0  0  0  0  0  0  0  0  0  0  0  0  # atno 17343 bound_to 10162
  156.7483  130.9106  151.3636 LP  0  0  0  0  0  0  0  0  0  0  0  0  # atno 17370 bound_to 10713
  157.6788  130.9120  150.0217 LP  0  0  0  0  0  0  0  0  0  0  0  0  # atno 17371 bound_to 10713
  140.8746  133.7963  155.9401 LP  0  0  0  0  0  0  0  0  0  0  0  0  # atno 17394 bound_to 11000
  140.8917  134.2487  157.5091 LP  0  0  0  0  0  0  0  0  0  0  0  0  # atno 17395 bound_to 11000

$$$$
