AV-unprocessed.smi:2564|AV-procd|sdf|10067|dock2
  -GOLD-   2272014103D 1   1.00000     0.00000
 Structure written by MMmdl.
 28 29  0  0  0  0  0  0  0  0  1 V2000
  152.6493  144.4418  158.6998 C   0  0  0  0  0  0  0  0  0  0  0  0
  152.7553  143.6085  159.8281 C   0  0  0  0  0  0  0  0  0  0  0  0
  151.9258  142.5625  160.0411 N   0  0  0  0  0  0  0  0  0  0  0  0
  150.9583  142.2849  159.1597 N   0  0  0  0  0  0  0  0  0  0  0  0
  150.8002  143.0437  158.0454 C   0  0  0  0  0  0  0  0  0  0  0  0
  149.7791  142.7288  157.1373 N   0  0  0  0  0  0  0  0  0  0  0  0
  149.3722  141.3480  156.9019 C   0  0  0  0  0  0  0  0  0  0  0  0
  150.0981  140.7160  155.7021 C   0  0  1  0  0  0  0  0  0  0  0  0
  151.6180  140.6272  155.9460 C   0  0  0  0  0  0  0  0  0  0  0  0
  152.2779  139.9504  154.8304 N   0  0  0  0  0  0  0  0  0  0  0  0
  151.6898  138.6357  154.5839 C   0  0  0  0  0  0  0  0  0  0  0  0
  150.1696  138.7610  154.3842 C   0  0  0  0  0  0  0  0  0  0  0  0
  149.5945  139.3943  155.5218 O   0  0  0  0  0  0  0  0  0  0  0  0
  151.6325  144.1482  157.7748 C   0  0  0  0  0  0  0  0  0  0  0  0
  153.3223  145.2730  158.5507 H   0  0  0  0  0  0  0  0  0  0  0  0
  153.5178  143.7829  160.5730 H   0  0  0  0  0  0  0  0  0  0  0  0
  149.4861  143.4286  156.4710 H   0  0  0  0  0  0  0  0  0  0  0  0
  149.5448  140.7588  157.8033 H   0  0  0  0  0  0  0  0  0  0  0  0
  148.2955  141.3313  156.7317 H   0  0  0  0  0  0  0  0  0  0  0  0
  149.9108  141.3092  154.8049 H   0  0  0  0  0  0  0  0  0  0  0  0
  152.0355  141.6263  156.0730 H   0  0  0  0  0  0  0  0  0  0  0  0
  151.8120  140.0870  156.8735 H   0  0  0  0  0  0  0  0  0  0  0  0
  153.2674  139.8481  155.0321 H   0  0  0  0  0  0  0  0  0  0  0  0
  152.1477  138.1784  153.7067 H   0  0  0  0  0  0  0  0  0  0  0  0
  151.8945  137.9739  155.4263 H   0  0  0  0  0  0  0  0  0  0  0  0
  149.9371  139.3234  153.4783 H   0  0  0  0  0  0  0  0  0  0  0  0
  149.7248  137.7726  154.2683 H   0  0  0  0  0  0  0  0  0  0  0  0
  151.4997  144.7498  156.8877 H   0  0  0  0  0  0  0  0  0  0  0  0
  1 14  1  0  0  0  0
  1  2  2  0  0  0  0
  1 15  1  0  0  0  0
  2  3  1  0  0  0  0
  2 16  1  0  0  0  0
  3  4  2  0  0  0  0
  4  5  1  0  0  0  0
  5  6  1  0  0  0  0
  5 14  2  0  0  0  0
  6  7  1  0  0  0  0
  6 17  1  0  0  0  0
  7  8  1  0  0  0  0
  7 18  1  0  0  0  0
  7 19  1  0  0  0  0
  8 13  1  0  0  0  0
  8  9  1  0  0  0  0
  8 20  1  0  0  0  0
  9 10  1  0  0  0  0
  9 21  1  0  0  0  0
  9 22  1  0  0  0  0
 10 11  1  0  0  0  0
 10 23  1  0  0  0  0
 11 12  1  0  0  0  0
 11 24  1  0  0  0  0
 11 25  1  0  0  0  0
 12 13  1  0  0  0  0
 12 26  1  0  0  0  0
 12 27  1  0  0  0  0
 14 28  1  0  0  0  0
M  END
> <s_m_source_file>
AV-unprocessed.smi

> <i_m_source_file_index>
2564

> <i_lp_mmshare_version>
43012

> <i_f3d_flags>
0

> <s_epik_input>
W2NIXTFbY0hdW2NIXW5uYzFbTkhdW0NIMl1bQ0BASF0yW0NIMl1bTkhdW0NIMl1bQ0gyXU8y

> <s_epik_cmdline>
J2VwaWtfcHl0aG9uJywgJy1waCcsICc3LjAnLCAnLXRuJywgJzgnLCAnLW1hJywgJzIwMCcsICctbWV0YWxfYmluZGluZycsICctaW1hZScsICc8aW5maWxlLm1hZT4nLCAnLW9tYWUnLCAnPG91dGZpbGUubWFlPic=

> <r_lp_tautomer_probability>
0.999978

> <r_epik_Ionization_Penalty>
2.48194

> <r_epik_Ionization_Penalty_Charging>
0

> <r_epik_Ionization_Penalty_Neutral>
2.48194

> <r_epik_State_Penalty>
2.63388

> <r_epik_Charging_Adjusted_Penalty>
2.63388

> <i_epik_Tot_Q>
0

> <i_epik_Tot_abs_Q>
0

> <r_epik_Metal_State_Penalty>
2.61931

> <b_epik_Metal_Only>
0

> <s_lp_Force_Field>
OPLS_2005

> <r_lp_Energy>
19.9467

> <b_lp_Chiralities_Consistent>
1

> <s_lp_Variant>
AV-unprocessed.smi:2564-6

> <Gold.Version>
5.8.1

> <Gold.Id.Protein>
6NUR|6NUR_protein|mol2

> <Gold.PLP.Fitness>
37.1510

> <Gold.PLP.PLP>
-32.9599

> <Gold.PLP.part.hbond>
-3.5351

> <Gold.PLP.part.metal>
0.0000

> <Gold.PLP.part.buried>
-5.4326

> <Gold.PLP.part.nonpolar>
-24.9864

> <Gold.PLP.part.repulsive>
0.0777

> <Gold.PLP.ligand.clash>
0.0000

> <Gold.PLP.ligand.torsion>
0.4120

> <Gold.PLP.Chemscore.Hbond>
1.6688

> <Gold.PLP.Chemscore.CHOScore>
0.0000

> <Gold.PLP.Chemscore.Metal>
0.0000

> <Gold.Chemscore.Hbonds>
donor molecule, donor type, donor heavy atom, donor atom, acceptor molecule, acceptor atom, score
      L1  H     6    17       P1  8028  1.00
      P1  H  7989  7998       L1    10  0.69

> <Gold.PLP.Chemscore.Internal.Correction>
0.0087

> <Gold.Rescore>
     Score         DG    S(hbond)    S(metal)    S(lipo)     H(rot)  DE(clash)    DE(int)     intcor
     14.50     -14.88       1.26        0.00      72.88       1.30       0.00       0.37       ----

> <Gold.Chemscore.Fitness>
14.5023

> <Gold.Chemscore.DG>
-14.8756

> <Gold.Chemscore.ZeroCoef>
-5.4800

> <Gold.Chemscore.Hbond>
1.2570

> <Gold.Chemscore.Metal>
0.0000

> <Gold.Chemscore.Lipo>
72.8792

> <Gold.Chemscore.Internal_Hbond>
0.0000

> <Gold.Chemscore.DEClash>
0.0000

> <Gold.Chemscore.DEInternal>
0.3733

> <Gold.Chemscore.Rot>
1.3006

> <Gold.Chemscore.Internal.Correction>
   9.000000E+99

> <Gold.Chemscore.Hbonds>
donor molecule, donor type, donor heavy atom, donor atom, acceptor molecule, acceptor atom, score
      L1  H     6    17       P1  8028  1.00
      P1  H  7989  7998       L1    10  0.07

> <Gold.Chemscore.Hbond.Weighted>
-4.1983

> <Gold.Chemscore.Metal.Weighted>
-0.0000

> <Gold.Chemscore.Lipo.Weighted>
-8.5269

> <Gold.Chemscore.Internal_Hbond.Weighted>
0.0000

> <Gold.Chemscore.DEClash.Weighted>
0.0000

> <Gold.Chemscore.DEInternal.Weighted>
0.3733

> <Gold.Chemscore.Rot.Weighted>
3.3296

> <Gold.Chemscore.Internal.Correction.Weighted>
   9.000000E+99

> <Gold.Protein.RotatedTorsions>
[ 6907 6896 6895 6894 ] final -151.45 input  -60.11 | X-H torsion
[ 7974 7965 7964 7962 ] final   79.04 input  175.53 | X-H torsion
[ 8008 7997 7996 7995 ] final   53.13 input   59.86 | X-H torsion
[ 10167 10162 10161 10158 ] final  161.12 input  -65.29 | X-H torsion
[ 10718 10713 10712 10709 ] final   69.87 input   66.30 | X-H torsion
[ 10763 10752 10751 10750 ] final  104.49 input  -60.55 | X-H torsion
[ 11005 11000 10999 10996 ] final  -76.32 input  -57.11 | X-H torsion

> <Gold.Protein.ActiveResidues>
 VAL166  LYS551  ARG553  GLY616  TRP617  ASP618  TYR619  PRO620  LYS621  CYS622 
 ASP623  PHE694  ASN695  SER759  ASP760  ASP761  ALA762  ILE779  LEU786  VAL792 
 PHE793  MET794  SER795  GLU796  ALA797  LYS798  CYS799  TRP800  GLU811  SER814 

> <Gold.Protein.RotatedAtoms>
  151.2132  133.4544  159.2598 H   0  0  0  0  0  0  0  0  0  0  0  0  # atno 6907 bound_to 6896
  151.0956  134.9942  159.8434 H   0  0  0  0  0  0  0  0  0  0  0  0  # atno 6908 bound_to 6896
  152.5439  134.2063  159.8785 H   0  0  0  0  0  0  0  0  0  0  0  0  # atno 6909 bound_to 6896
  145.6693  139.2492  143.1877 H   0  0  0  0  0  0  0  0  0  0  0  0  # atno 7974 bound_to 7965
  155.4632  140.3462  155.4315 H   0  0  0  0  0  0  0  0  0  0  0  0  # atno 8008 bound_to 7997
  156.1148  140.1471  156.9318 H   0  0  0  0  0  0  0  0  0  0  0  0  # atno 8009 bound_to 7997
  154.4781  140.0878  156.7290 H   0  0  0  0  0  0  0  0  0  0  0  0  # atno 8010 bound_to 7997
  139.4846  144.4568  151.8758 H   0  0  0  0  0  0  0  0  0  0  0  0  # atno 10167 bound_to 10162
  157.6369  130.9448  150.0572 H   0  0  0  0  0  0  0  0  0  0  0  0  # atno 10718 bound_to 10713
  153.3666  135.3941  155.1757 H   0  0  0  0  0  0  0  0  0  0  0  0  # atno 10763 bound_to 10752
  154.8688  135.3692  154.5031 H   0  0  0  0  0  0  0  0  0  0  0  0  # atno 10764 bound_to 10752
  153.5495  135.7083  153.5658 H   0  0  0  0  0  0  0  0  0  0  0  0  # atno 10765 bound_to 10752
  141.1653  133.6979  156.7651 H   0  0  0  0  0  0  0  0  0  0  0  0  # atno 11005 bound_to 11000
  146.1059  140.7488  142.9526 LP  0  0  0  0  0  0  0  0  0  0  0  0  # atno 17320 bound_to 7965
  144.7062  140.3861  143.7116 LP  0  0  0  0  0  0  0  0  0  0  0  0  # atno 17321 bound_to 7965
  140.4028  144.2471  150.5892 LP  0  0  0  0  0  0  0  0  0  0  0  0  # atno 17342 bound_to 10162
  140.5041  143.2309  151.8634 LP  0  0  0  0  0  0  0  0  0  0  0  0  # atno 17343 bound_to 10162
  156.1616  130.3644  149.9291 LP  0  0  0  0  0  0  0  0  0  0  0  0  # atno 17370 bound_to 10713
  156.7288  130.9035  151.3624 LP  0  0  0  0  0  0  0  0  0  0  0  0  # atno 17371 bound_to 10713
  140.2505  134.8544  157.3663 LP  0  0  0  0  0  0  0  0  0  0  0  0  # atno 17394 bound_to 11000
  140.1707  134.4612  155.7833 LP  0  0  0  0  0  0  0  0  0  0  0  0  # atno 17395 bound_to 11000

$$$$
