AV-unprocessed.smi:47|AV-procd|sdf|432|dock3
  -GOLD-   2262016303D 1   1.00000     0.00000
 Structure written by MMmdl.
 32 34  0  0  0  0  0  0  0  0  2 V2000
  145.4793  140.6366  154.3205 O   0  0  0  0  0  0  0  0  0  0  0  0
  146.7833  140.8990  153.8476 C   0  0  2  0  0  0  0  0  0  0  0  0
  147.5641  139.6119  153.5586 C   0  0  0  0  0  0  0  0  0  0  0  0
  148.9862  139.9327  153.7950 N   0  3  0  0  0  0  0  0  0  0  0  0
  149.0613  141.2690  154.4229 C   0  0  2  0  0  0  0  0  0  0  0  0
  150.0770  141.1388  155.5185 C   0  0  0  0  0  0  0  0  0  0  0  0
  150.9005  140.0880  155.5916 N   0  0  0  0  0  0  0  0  0  0  0  0
  151.7164  140.2272  156.6583 N   0  0  0  0  0  0  0  0  0  0  0  0
  151.3102  141.3936  157.1570 C   0  0  0  0  0  0  0  0  0  0  0  0
  151.9310  141.9851  158.3653 C   0  0  0  0  0  0  0  0  0  0  0  0
  152.5975  141.1730  159.3154 C   0  0  0  0  0  0  0  0  0  0  0  0
  153.1889  141.7310  160.4654 C   0  0  0  0  0  0  0  0  0  0  0  0
  153.1248  143.1178  160.6880 C   0  0  0  0  0  0  0  0  0  0  0  0
  152.4674  143.9419  159.7578 C   0  0  0  0  0  0  0  0  0  0  0  0
  151.8773  143.3793  158.6095 C   0  0  0  0  0  0  0  0  0  0  0  0
  150.2896  142.0190  156.4955 N   0  0  0  0  0  0  0  0  0  0  0  0
  147.6434  141.6012  154.8938 C   0  0  0  0  0  0  0  0  0  0  0  0
  146.7287  141.5101  152.9453 H   0  0  0  0  0  0  0  0  0  0  0  0
  149.3961  141.9885  153.6738 H   0  0  0  0  0  0  0  0  0  0  0  0
  144.8551  140.9463  153.6812 H   0  0  0  0  0  0  0  0  0  0  0  0
  147.2818  138.8237  154.2583 H   0  0  0  0  0  0  0  0  0  0  0  0
  147.3967  139.2397  152.5474 H   0  0  0  0  0  0  0  0  0  0  0  0
  149.3763  139.2458  154.4253 H   0  0  0  0  0  0  0  0  0  0  0  0
  152.6619  140.1044  159.1725 H   0  0  0  0  0  0  0  0  0  0  0  0
  153.6918  141.0928  161.1771 H   0  0  0  0  0  0  0  0  0  0  0  0
  153.5777  143.5478  161.5693 H   0  0  0  0  0  0  0  0  0  0  0  0
  152.4151  145.0079  159.9243 H   0  0  0  0  0  0  0  0  0  0  0  0
  151.3794  144.0378  157.9131 H   0  0  0  0  0  0  0  0  0  0  0  0
  147.4561  142.6726  154.9713 H   0  0  0  0  0  0  0  0  0  0  0  0
  147.4599  141.1555  155.8734 H   0  0  0  0  0  0  0  0  0  0  0  0
  149.5024  139.9323  152.9272 H   0  0  0  0  0  0  0  0  0  0  0  0
  150.9426  139.2942  154.9682 H   0  0  0  0  0  0  0  0  0  0  0  0
  1  2  1  0  0  0  0
  1 20  1  0  0  0  0
  2 18  1  0  0  0  0
  2 17  1  0  0  0  0
  2  3  1  0  0  0  0
  3  4  1  0  0  0  0
  3 21  1  0  0  0  0
  3 22  1  0  0  0  0
  4  5  1  0  0  0  0
  4 23  1  0  0  0  0
  4 31  1  0  0  0  0
  5 19  1  0  0  0  0
  5  6  1  0  0  0  0
  5 17  1  0  0  0  0
  6 16  2  0  0  0  0
  6  7  1  0  0  0  0
  7  8  1  0  0  0  0
  7 32  1  0  0  0  0
  8  9  2  0  0  0  0
  9 10  1  0  0  0  0
  9 16  1  0  0  0  0
 10 15  1  0  0  0  0
 10 11  2  0  0  0  0
 11 12  1  0  0  0  0
 11 24  1  0  0  0  0
 12 13  2  0  0  0  0
 12 25  1  0  0  0  0
 13 14  1  0  0  0  0
 13 26  1  0  0  0  0
 14 15  2  0  0  0  0
 14 27  1  0  0  0  0
 15 28  1  0  0  0  0
 17 29  1  0  0  0  0
 17 30  1  0  0  0  0
M  CHG  1   4   1
M  END
> <s_m_source_file>
AV-unprocessed.smi

> <i_m_source_file_index>
47

> <i_lp_mmshare_version>
43012

> <i_f3d_flags>
0

> <s_epik_input>
W09IXVtDQEhdMVtDSDJdW05IXVtDQEBIXShbQ0gyXTEpYzJuW25IXWMobjIpLWMzW2NIXVtjSF1bY0hdW2NIXVtjSF0z

> <s_epik_cmdline>
J2VwaWtfcHl0aG9uJywgJy1waCcsICc3LjAnLCAnLXRuJywgJzgnLCAnLW1hJywgJzIwMCcsICctbWV0YWxfYmluZGluZycsICctaW1hZScsICc8aW5maWxlLm1hZT4nLCAnLW9tYWUnLCAnPG91dGZpbGUubWFlPic=

> <r_epik_Ionization_Penalty>
1.14296

> <r_epik_Ionization_Penalty_Charging>
0.0688988

> <r_epik_Ionization_Penalty_Neutral>
1.07406

> <r_epik_State_Penalty>
1.72347

> <r_epik_Charging_Adjusted_Penalty>
1.79237

> <i_epik_Tot_Q>
1

> <i_epik_Tot_abs_Q>
1

> <r_epik_Metal_State_Penalty>
2.22085

> <b_epik_Metal_Only>
0

> <s_lp_Force_Field>
OPLS_2005

> <r_lp_Energy>
30.6831

> <b_lp_Chiralities_Consistent>
1

> <s_lp_Variant>
AV-unprocessed.smi:47-10

> <Gold.Version>
5.8.1

> <Gold.Id.Protein>
6NUR|6NUR_protein|mol2

> <Gold.PLP.Fitness>
40.8822

> <Gold.PLP.PLP>
-35.8703

> <Gold.PLP.part.hbond>
-2.0000

> <Gold.PLP.part.metal>
0.0000

> <Gold.PLP.part.buried>
-5.0808

> <Gold.PLP.part.nonpolar>
-29.0466

> <Gold.PLP.part.repulsive>
0.3810

> <Gold.PLP.ligand.clash>
0.0000

> <Gold.PLP.ligand.torsion>
0.5006

> <Gold.PLP.Chemscore.Hbond>
2.0000

> <Gold.PLP.Chemscore.CHOScore>
0.0000

> <Gold.PLP.Chemscore.Metal>
0.0000

> <Gold.Chemscore.Hbonds>
donor molecule, donor type, donor heavy atom, donor atom, acceptor molecule, acceptor atom, score
      L1  H     1    20       P1 10175  0.93
      L1  H     4    31       P1  7957  1.00

> <Gold.PLP.Chemscore.Internal.Correction>
0.0131

> <Gold.Rescore>
     Score         DG    S(hbond)    S(metal)    S(lipo)     H(rot)  DE(clash)    DE(int)     intcor
     18.48     -18.75       1.98        0.00      89.54       1.50       0.04       0.23       ----

> <Gold.Chemscore.Fitness>
18.4764

> <Gold.Chemscore.DG>
-18.7493

> <Gold.Chemscore.ZeroCoef>
-5.4800

> <Gold.Chemscore.Hbond>
1.9833

> <Gold.Chemscore.Metal>
0.0000

> <Gold.Chemscore.Lipo>
89.5417

> <Gold.Chemscore.Internal_Hbond>
0.0000

> <Gold.Chemscore.DEClash>
0.0426

> <Gold.Chemscore.DEInternal>
0.2302

> <Gold.Chemscore.Rot>
1.4966

> <Gold.Chemscore.Internal.Correction>
   9.000000E+99

> <Gold.Chemscore.Hbonds>
donor molecule, donor type, donor heavy atom, donor atom, acceptor molecule, acceptor atom, score
      L1  H     1    20       P1 10175  0.75
      L1  H     4    31       P1  7957  0.97

> <Gold.Chemscore.Hbond.Weighted>
-6.6241

> <Gold.Chemscore.Metal.Weighted>
-0.0000

> <Gold.Chemscore.Lipo.Weighted>
-10.4764

> <Gold.Chemscore.Internal_Hbond.Weighted>
0.0000

> <Gold.Chemscore.DEClash.Weighted>
0.0426

> <Gold.Chemscore.DEInternal.Weighted>
0.2302

> <Gold.Chemscore.Rot.Weighted>
3.8312

> <Gold.Chemscore.Internal.Correction.Weighted>
   9.000000E+99

> <Gold.Protein.RotatedTorsions>
[ 6907 6896 6895 6894 ] final  111.47 input  -60.11 | X-H torsion
[ 7974 7965 7964 7962 ] final  121.18 input  175.53 | X-H torsion
[ 8008 7997 7996 7995 ] final -120.39 input   59.86 | X-H torsion
[ 10167 10162 10161 10158 ] final   50.99 input  -65.29 | X-H torsion
[ 10718 10713 10712 10709 ] final  159.77 input   66.30 | X-H torsion
[ 10763 10752 10751 10750 ] final   57.91 input  -60.55 | X-H torsion
[ 11005 11000 10999 10996 ] final  -87.63 input  -57.11 | X-H torsion

> <Gold.Protein.ActiveResidues>
 VAL166  LYS551  ARG553  GLY616  TRP617  ASP618  TYR619  PRO620  LYS621  CYS622 
 ASP623  PHE694  ASN695  SER759  ASP760  ASP761  ALA762  ILE779  LEU786  VAL792 
 PHE793  MET794  SER795  GLU796  ALA797  LYS798  CYS799  TRP800  GLU811  SER814 

> <Gold.Protein.RotatedAtoms>
  152.4967  133.8653  159.7270 H   0  0  0  0  0  0  0  0  0  0  0  0  # atno 6907 bound_to 6896
  150.9154  133.6937  159.2851 H   0  0  0  0  0  0  0  0  0  0  0  0  # atno 6908 bound_to 6896
  151.4332  135.1016  159.9701 H   0  0  0  0  0  0  0  0  0  0  0  0  # atno 6909 bound_to 6896
  145.1223  139.3381  143.4708 H   0  0  0  0  0  0  0  0  0  0  0  0  # atno 7974 bound_to 7965
  155.1310  140.0400  157.2775 H   0  0  0  0  0  0  0  0  0  0  0  0  # atno 8008 bound_to 7997
  154.6543  140.2576  155.7153 H   0  0  0  0  0  0  0  0  0  0  0  0  # atno 8009 bound_to 7997
  156.2591  140.2830  156.0989 H   0  0  0  0  0  0  0  0  0  0  0  0  # atno 8010 bound_to 7997
  140.2666  144.3313  150.6302 H   0  0  0  0  0  0  0  0  0  0  0  0  # atno 10167 bound_to 10162
  157.1596  131.0584  151.2239 H   0  0  0  0  0  0  0  0  0  0  0  0  # atno 10718 bound_to 10713
  152.9859  135.5625  154.5467 H   0  0  0  0  0  0  0  0  0  0  0  0  # atno 10763 bound_to 10752
  154.4912  135.2793  155.1497 H   0  0  0  0  0  0  0  0  0  0  0  0  # atno 10764 bound_to 10752
  154.2966  135.6315  153.5460 H   0  0  0  0  0  0  0  0  0  0  0  0  # atno 10765 bound_to 10752
  141.1614  133.7522  156.9334 H   0  0  0  0  0  0  0  0  0  0  0  0  # atno 11005 bound_to 11000
  146.3520  140.1188  142.8601 LP  0  0  0  0  0  0  0  0  0  0  0  0  # atno 17320 bound_to 7965
  145.0726  140.9166  143.4873 LP  0  0  0  0  0  0  0  0  0  0  0  0  # atno 17321 bound_to 7965
  140.5923  143.2167  151.7229 LP  0  0  0  0  0  0  0  0  0  0  0  0  # atno 17342 bound_to 10162
  139.5001  144.3920  152.0270 LP  0  0  0  0  0  0  0  0  0  0  0  0  # atno 17343 bound_to 10162
  157.4145  130.7403  149.6865 LP  0  0  0  0  0  0  0  0  0  0  0  0  # atno 17370 bound_to 10713
  155.9756  130.4086  150.3837 LP  0  0  0  0  0  0  0  0  0  0  0  0  # atno 17371 bound_to 10713
  140.1370  134.9318  157.2416 LP  0  0  0  0  0  0  0  0  0  0  0  0  # atno 17394 bound_to 11000
  140.2882  134.3271  155.7323 LP  0  0  0  0  0  0  0  0  0  0  0  0  # atno 17395 bound_to 11000

$$$$
