AV-unprocessed.smi:54|AV-procd|sdf|558|dock5
  -GOLD-   2262016463D 1   1.00000     0.00000
 Structure written by MMmdl.
 43 45  0  0  0  0  0  0  0  0  2 V2000
  152.4179  143.0934  161.5753 C   0  0  0  0  0  0  0  0  0  0  0  0
  152.7740  143.1619  160.0812 C   0  0  0  0  0  0  0  0  0  0  0  0
  151.7616  144.0217  159.3062 C   0  0  0  0  0  0  0  0  0  0  0  0
  152.8661  141.7518  159.4802 C   0  0  0  0  0  0  0  0  0  0  0  0
  153.4562  140.8710  160.1093 O   0  0  0  0  0  0  0  0  0  0  0  0
  152.2793  141.6017  158.2715 N   0  0  0  0  0  0  0  0  0  0  0  0
  152.1991  140.4681  157.4523 C   0  0  0  0  0  0  0  0  0  0  0  0
  151.2717  140.5695  156.5308 N   0  0  0  0  0  0  0  0  0  0  0  0
  151.1919  139.4453  155.7308 C   0  0  0  0  0  0  0  0  0  0  0  0
  151.9452  138.3067  155.8072 C   0  0  0  0  0  0  0  0  0  0  0  0
  151.5838  137.3922  154.8254 N   0  0  0  0  0  0  0  0  0  0  0  0
  150.6065  138.0370  154.1896 C   0  0  0  0  0  0  0  0  0  0  0  0
  150.3041  139.2590  154.6771 N   0  0  0  0  0  0  0  0  0  0  0  0
  149.2761  140.2348  154.1879 C   0  0  1  0  0  0  0  0  0  0  0  0
  148.6694  139.7058  153.0460 O   0  0  0  0  0  0  0  0  0  0  0  0
  147.4679  139.0370  153.4145 C   0  0  2  0  0  0  0  0  0  0  0  0
  146.5619  138.8008  152.1936 C   0  0  0  0  0  0  0  0  0  0  0  0
  147.2378  138.0104  151.2393 O   0  0  0  0  0  0  0  0  0  0  0  0
  146.9065  139.9752  154.4895 C   0  0  2  0  0  0  0  0  0  0  0  0
  146.2337  141.0713  153.8906 O   0  0  0  0  0  0  0  0  0  0  0  0
  148.1666  140.3996  155.2447 C   0  0  2  0  0  0  0  0  0  0  0  0
  148.0795  141.7133  155.7643 O   0  0  0  0  0  0  0  0  0  0  0  0
  152.9715  138.2545  156.8745 C   0  0  0  0  0  0  0  0  0  0  0  0
  153.6735  137.2508  156.9822 O   0  0  0  0  0  0  0  0  0  0  0  0
  153.0467  139.3633  157.6701 N   0  5  0  0  0  0  0  0  0  0  0  0
  149.8385  141.1413  153.9607 H   0  0  0  0  0  0  0  0  0  0  0  0
  147.7143  138.0839  153.8867 H   0  0  0  0  0  0  0  0  0  0  0  0
  146.2017  139.4625  155.1448 H   0  0  0  0  0  0  0  0  0  0  0  0
  148.3419  139.7064  156.0694 H   0  0  0  0  0  0  0  0  0  0  0  0
  153.1319  142.4790  162.1250 H   0  0  0  0  0  0  0  0  0  0  0  0
  151.4245  142.6711  161.7328 H   0  0  0  0  0  0  0  0  0  0  0  0
  152.4287  144.0870  162.0239 H   0  0  0  0  0  0  0  0  0  0  0  0
  153.7516  143.6390  159.9929 H   0  0  0  0  0  0  0  0  0  0  0  0
  152.0069  144.0625  158.2442 H   0  0  0  0  0  0  0  0  0  0  0  0
  151.7549  145.0460  159.6795 H   0  0  0  0  0  0  0  0  0  0  0  0
  150.7474  143.6307  159.3992 H   0  0  0  0  0  0  0  0  0  0  0  0
  151.8752  142.4460  157.8947 H   0  0  0  0  0  0  0  0  0  0  0  0
  150.0963  137.6010  153.3435 H   0  0  0  0  0  0  0  0  0  0  0  0
  145.6642  138.2585  152.4918 H   0  0  0  0  0  0  0  0  0  0  0  0
  146.2415  139.7413  151.7445 H   0  0  0  0  0  0  0  0  0  0  0  0
  147.6149  137.2661  151.6832 H   0  0  0  0  0  0  0  0  0  0  0  0
  145.4819  140.7375  153.4249 H   0  0  0  0  0  0  0  0  0  0  0  0
  148.3782  141.6974  156.6610 H   0  0  0  0  0  0  0  0  0  0  0  0
  1  2  1  0  0  0  0
  1 30  1  0  0  0  0
  1 31  1  0  0  0  0
  1 32  1  0  0  0  0
  2  3  1  0  0  0  0
  2  4  1  0  0  0  0
  2 33  1  0  0  0  0
  3 34  1  0  0  0  0
  3 35  1  0  0  0  0
  3 36  1  0  0  0  0
  4  5  2  0  0  0  0
  4  6  1  0  0  0  0
  6 37  1  0  0  0  0
  6  7  1  0  0  0  0
  7 25  1  0  0  0  0
  7  8  2  0  0  0  0
  8  9  1  0  0  0  0
  9 13  1  0  0  0  0
  9 10  2  0  0  0  0
 10 11  1  0  0  0  0
 10 23  1  0  0  0  0
 11 12  2  0  0  0  0
 12 13  1  0  0  0  0
 12 38  1  0  0  0  0
 13 14  1  0  0  0  0
 14 26  1  0  0  0  0
 14 21  1  0  0  0  0
 14 15  1  0  0  0  0
 15 16  1  0  0  0  0
 16 27  1  0  0  0  0
 16 17  1  0  0  0  0
 16 19  1  0  0  0  0
 17 18  1  0  0  0  0
 17 39  1  0  0  0  0
 17 40  1  0  0  0  0
 18 41  1  0  0  0  0
 19 28  1  0  0  0  0
 19 20  1  0  0  0  0
 19 21  1  0  0  0  0
 20 42  1  0  0  0  0
 21 29  1  0  0  0  0
 21 22  1  0  0  0  0
 22 43  1  0  0  0  0
 23 24  2  0  0  0  0
 23 25  1  0  0  0  0
M  CHG  1  25  -1
M  END
> <s_m_source_file>
AV-unprocessed.smi

> <i_m_source_file_index>
54

> <i_lp_mmshare_version>
43012

> <i_f3d_flags>
0

> <s_epik_input>
W0NIM11bQ0hdKFtDSDNdKUMoPU8pW05IXWMobjEpW25IXWMoPU8pYyhjMTIpbltjSF1uMltDQEBIXTNPW0NASF0oW0NIMl1bT0hdKVtDQEBIXShbT0hdKVtDQEhdM1tPSF0=

> <s_epik_cmdline>
J2VwaWtfcHl0aG9uJywgJy1waCcsICc3LjAnLCAnLXRuJywgJzgnLCAnLW1hJywgJzIwMCcsICctbWV0YWxfYmluZGluZycsICctaW1hZScsICc8aW5maWxlLm1hZT4nLCAnLW9tYWUnLCAnPG91dGZpbGUubWFlPic=

> <r_lp_tautomer_probability>
0.85571

> <r_epik_Ionization_Penalty>
1.75936

> <r_epik_Ionization_Penalty_Charging>
4.55893e-11

> <r_epik_Ionization_Penalty_Neutral>
1.75936

> <r_epik_State_Penalty>
1.72072

> <r_epik_Charging_Adjusted_Penalty>
1.72072

> <i_epik_Tot_Q>
-1

> <i_epik_Tot_abs_Q>
1

> <r_epik_Metal_State_Penalty>
0.400338

> <b_epik_Metal_Only>
1

> <s_epik_Chemistry_Notes>
This compound contains an acetal/aminal-like group ( X-CH(R)-Y where X, Y are N, S, or O) that may be acid/base labile, releasing an aldehyde.

> <s_lp_Force_Field>
OPLS_2005

> <r_lp_Energy>
63.0293

> <b_lp_Chiralities_Consistent>
1

> <s_lp_Variant>
AV-unprocessed.smi:54-30

> <Gold.Version>
5.8.1

> <Gold.Id.Protein>
6NUR|6NUR_protein|mol2

> <Gold.PLP.Fitness>
53.2066

> <Gold.PLP.PLP>
-38.2825

> <Gold.PLP.part.hbond>
-6.4567

> <Gold.PLP.part.metal>
0.0000

> <Gold.PLP.part.buried>
-3.9571

> <Gold.PLP.part.nonpolar>
-35.0716

> <Gold.PLP.part.repulsive>
6.8882

> <Gold.PLP.ligand.clash>
2.4316

> <Gold.PLP.ligand.torsion>
0.4850

> <Gold.PLP.Chemscore.Hbond>
5.0049

> <Gold.PLP.Chemscore.CHOScore>
1.0845

> <Gold.PLP.Chemscore.Metal>
0.0000

> <Gold.Chemscore.Hbonds>
donor molecule, donor type, donor heavy atom, donor atom, acceptor molecule, acceptor atom, score
      L1  H    18    41       P1  7948  0.91
      L1  H    20    42       P1 10175  0.96
      P1  H  7954  7966       L1    18  0.75
      P1  H  7997  8010       L1    25  1.90
      P1  H 10752 10764       L1    11  0.27
      L1  C    12    38       P1  7948  1.00
      L1  C    12    38       P1  7949  0.07

> <Gold.PLP.Chemscore.Internal.Correction>
0.0575

> <Gold.Rescore>
     Score         DG    S(hbond)    S(metal)    S(lipo)     H(rot)  DE(clash)    DE(int)     intcor
      9.59     -13.43       3.19        0.00      64.71       4.02       2.39       1.44       ----

> <Gold.Chemscore.Fitness>
9.5934

> <Gold.Chemscore.DG>
-13.4277

> <Gold.Chemscore.ZeroCoef>
-5.4800

> <Gold.Chemscore.Hbond>
3.1935

> <Gold.Chemscore.Metal>
0.0000

> <Gold.Chemscore.Lipo>
64.7061

> <Gold.Chemscore.Internal_Hbond>
0.0000

> <Gold.Chemscore.DEClash>
2.3922

> <Gold.Chemscore.DEInternal>
1.4421

> <Gold.Chemscore.Rot>
4.0192

> <Gold.Chemscore.Internal.Correction>
   9.000000E+99

> <Gold.Chemscore.Hbonds>
donor molecule, donor type, donor heavy atom, donor atom, acceptor molecule, acceptor atom, score
      L1  H    18    41       P1  7948  0.89
      L1  H    20    42       P1 10175  0.78
      P1  H  7954  7966       L1    18  0.09
      P1  H  7997  8010       L1    25  0.07
      P1  H 10752 10764       L1    11  0.26

> <Gold.Chemscore.Hbond.Weighted>
-10.6663

> <Gold.Chemscore.Metal.Weighted>
-0.0000

> <Gold.Chemscore.Lipo.Weighted>
-7.5706

> <Gold.Chemscore.Internal_Hbond.Weighted>
0.0000

> <Gold.Chemscore.DEClash.Weighted>
2.3922

> <Gold.Chemscore.DEInternal.Weighted>
1.4421

> <Gold.Chemscore.Rot.Weighted>
10.2893

> <Gold.Chemscore.Internal.Correction.Weighted>
   9.000000E+99

> <Gold.Protein.RotatedTorsions>
[ 6907 6896 6895 6894 ] final    1.11 input  -60.11 | X-H torsion
[ 7974 7965 7964 7962 ] final    9.39 input  175.53 | X-H torsion
[ 8008 7997 7996 7995 ] final   26.83 input   59.86 | X-H torsion
[ 10167 10162 10161 10158 ] final  -24.28 input  -65.29 | X-H torsion
[ 10718 10713 10712 10709 ] final   80.41 input   66.30 | X-H torsion
[ 10763 10752 10751 10750 ] final  -87.91 input  -60.55 | X-H torsion
[ 11005 11000 10999 10996 ] final    8.91 input  -57.11 | X-H torsion

> <Gold.Protein.ActiveResidues>
 VAL166  LYS551  ARG553  GLY616  TRP617  ASP618  TYR619  PRO620  LYS621  CYS622 
 ASP623  PHE694  ASN695  SER759  ASP760  ASP761  ALA762  ILE779  LEU786  VAL792 
 PHE793  MET794  SER795  GLU796  ALA797  LYS798  CYS799  TRP800  GLU811  SER814 

> <Gold.Protein.RotatedAtoms>
  151.5873  135.1055  160.0030 H   0  0  0  0  0  0  0  0  0  0  0  0  # atno 6907 bound_to 6896
  152.4324  133.7296  159.6591 H   0  0  0  0  0  0  0  0  0  0  0  0  # atno 6908 bound_to 6896
  150.8218  133.8170  159.3158 H   0  0  0  0  0  0  0  0  0  0  0  0  # atno 6909 bound_to 6896
  146.2404  139.9790  142.8438 H   0  0  0  0  0  0  0  0  0  0  0  0  # atno 7974 bound_to 7965
  155.0334  140.3161  155.4750 H   0  0  0  0  0  0  0  0  0  0  0  0  # atno 8008 bound_to 7997
  156.2869  140.2176  156.5398 H   0  0  0  0  0  0  0  0  0  0  0  0  # atno 8009 bound_to 7997
  154.7351  140.0478  157.0749 H   0  0  0  0  0  0  0  0  0  0  0  0  # atno 8010 bound_to 7997
  140.7288  143.4367  151.0719 H   0  0  0  0  0  0  0  0  0  0  0  0  # atno 10167 bound_to 10162
  157.6805  130.9958  150.2075 H   0  0  0  0  0  0  0  0  0  0  0  0  # atno 10718 bound_to 10713
  154.6388  135.5396  153.7765 H   0  0  0  0  0  0  0  0  0  0  0  0  # atno 10763 bound_to 10752
  153.0322  135.6454  154.1191 H   0  0  0  0  0  0  0  0  0  0  0  0  # atno 10764 bound_to 10752
  154.1117  135.2926  155.3209 H   0  0  0  0  0  0  0  0  0  0  0  0  # atno 10765 bound_to 10752
  140.5316  134.0461  155.7875 H   0  0  0  0  0  0  0  0  0  0  0  0  # atno 11005 bound_to 11000
  145.1610  140.9672  143.4377 LP  0  0  0  0  0  0  0  0  0  0  0  0  # atno 17320 bound_to 7965
  145.0116  139.3504  143.6117 LP  0  0  0  0  0  0  0  0  0  0  0  0  # atno 17321 bound_to 7965
  139.8030  143.8058  152.3164 LP  0  0  0  0  0  0  0  0  0  0  0  0  # atno 17342 bound_to 10162
  139.8081  144.7347  150.9734 LP  0  0  0  0  0  0  0  0  0  0  0  0  # atno 17343 bound_to 10162
  156.2753  130.3727  149.7990 LP  0  0  0  0  0  0  0  0  0  0  0  0  # atno 17370 bound_to 10713
  156.5694  130.8418  151.3352 LP  0  0  0  0  0  0  0  0  0  0  0  0  # atno 17371 bound_to 10713
  141.1278  133.9354  157.2599 LP  0  0  0  0  0  0  0  0  0  0  0  0  # atno 17394 bound_to 11000
  139.9551  135.0167  156.9105 LP  0  0  0  0  0  0  0  0  0  0  0  0  # atno 17395 bound_to 11000

$$$$
