AV-unprocessed.smi:899|AV-procd|sdf|4088|dock7
  -GOLD-   22720 1573D 1   1.00000     0.00000
 Structure written by MMmdl.
 32 33  0  0  0  0  0  0  0  0  2 V2000
  151.8772  142.4814  161.8003 N   0  0  0  0  0  0  0  0  0  0  0  0
  152.3079  142.8083  160.7772 C   0  0  0  0  0  0  0  0  0  0  0  0
  152.8559  143.2241  159.4771 C   0  0  0  0  0  0  0  0  0  0  0  0
  152.2174  142.4765  158.3248 C   0  0  0  0  0  0  0  0  0  0  0  0
  151.4615  143.1744  157.3629 C   0  0  0  0  0  0  0  0  0  0  0  0
  150.8698  142.4803  156.2904 C   0  0  0  0  0  0  0  0  0  0  0  0
  151.0235  141.0848  156.1600 C   0  0  0  0  0  0  0  0  0  0  0  0
  150.4147  140.4872  155.0773 O   0  0  0  0  0  0  0  0  0  0  0  0
  150.4173  139.0681  155.0024 C   0  0  0  0  0  0  0  0  0  0  0  0
  149.3729  138.5233  155.9875 C   0  0  0  0  0  0  0  0  0  0  0  0
  149.6584  137.1303  156.3552 N   0  0  0  0  0  0  0  0  0  0  0  0
  149.6311  136.1681  155.3315 C   0  0  0  0  0  0  0  0  0  0  0  0
  149.8737  134.8644  155.5690 C   0  0  0  0  0  0  0  0  0  0  0  0
  149.8328  133.7032  154.2902 Cl  0  0  0  0  0  0  0  0  0  0  0  0
  150.1694  134.4609  156.9423 C   0  0  0  0  0  0  0  0  0  0  0  0
  150.3992  133.2787  157.1936 O   0  0  0  0  0  0  0  0  0  0  0  0
  150.1756  135.4328  157.9013 N   0  5  0  0  0  0  0  0  0  0  0  0
  149.9240  136.7528  157.6410 C   0  0  0  0  0  0  0  0  0  0  0  0
  149.9263  137.6102  158.5247 O   0  0  0  0  0  0  0  0  0  0  0  0
  151.7839  140.3880  157.1333 C   0  0  0  0  0  0  0  0  0  0  0  0
  152.3755  141.0815  158.2072 C   0  0  0  0  0  0  0  0  0  0  0  0
  152.6904  144.2953  159.3589 H   0  0  0  0  0  0  0  0  0  0  0  0
  153.9335  143.0573  159.4885 H   0  0  0  0  0  0  0  0  0  0  0  0
  151.3335  144.2438  157.4457 H   0  0  0  0  0  0  0  0  0  0  0  0
  150.2923  143.0250  155.5579 H   0  0  0  0  0  0  0  0  0  0  0  0
  150.1766  138.7439  153.9886 H   0  0  0  0  0  0  0  0  0  0  0  0
  151.4049  138.6814  155.2593 H   0  0  0  0  0  0  0  0  0  0  0  0
  149.3533  139.1500  156.8801 H   0  0  0  0  0  0  0  0  0  0  0  0
  148.3732  138.6083  155.5580 H   0  0  0  0  0  0  0  0  0  0  0  0
  149.3987  136.5522  154.3489 H   0  0  0  0  0  0  0  0  0  0  0  0
  151.9293  139.3198  157.0781 H   0  0  0  0  0  0  0  0  0  0  0  0
  152.9527  140.5377  158.9406 H   0  0  0  0  0  0  0  0  0  0  0  0
  1  2  3  0  0  0  0
  2  3  1  0  0  0  0
  3  4  1  0  0  0  0
  3 22  1  0  0  0  0
  3 23  1  0  0  0  0
  4 21  1  0  0  0  0
  4  5  2  0  0  0  0
  5  6  1  0  0  0  0
  5 24  1  0  0  0  0
  6  7  2  0  0  0  0
  6 25  1  0  0  0  0
  7  8  1  0  0  0  0
  7 20  1  0  0  0  0
  8  9  1  0  0  0  0
  9 10  1  0  0  0  0
  9 26  1  0  0  0  0
  9 27  1  0  0  0  0
 10 11  1  0  0  0  0
 10 28  1  0  0  0  0
 10 29  1  0  0  0  0
 11 18  1  0  0  0  0
 11 12  1  0  0  0  0
 12 13  2  0  0  0  0
 12 30  1  0  0  0  0
 13 14  1  0  0  0  0
 13 15  1  0  0  0  0
 15 16  2  0  0  0  0
 15 17  1  0  0  0  0
 17 18  1  0  0  0  0
 18 19  2  0  0  0  0
 20 21  2  0  0  0  0
 20 31  1  0  0  0  0
 21 32  1  0  0  0  0
M  CHG  1  17  -1
M  END
> <s_m_source_file>
AV-unprocessed.smi

> <i_m_source_file_index>
899

> <i_lp_mmshare_version>
43012

> <i_f3d_flags>
0

> <s_epik_input>
TiNDW0NIMl1jMVtjSF1bY0hdYyhbY0hdW2NIXTEpT1tDSDJdW0NIMl1uMltjSF1jKENsKWMoPU8pW25IXWMyPU8=

> <s_epik_cmdline>
J2VwaWtfcHl0aG9uJywgJy1waCcsICc3LjAnLCAnLXRuJywgJzgnLCAnLW1hJywgJzIwMCcsICctbWV0YWxfYmluZGluZycsICctaW1hZScsICc8aW5maWxlLm1hZT4nLCAnLW9tYWUnLCAnPG91dGZpbGUubWFlPic=

> <r_lp_tautomer_probability>
1

> <r_epik_Ionization_Penalty>
1.54028

> <r_epik_Ionization_Penalty_Charging>
7.31917e-09

> <r_epik_Ionization_Penalty_Neutral>
1.54028

> <r_epik_State_Penalty>
1.63364

> <r_epik_Charging_Adjusted_Penalty>
1.63364

> <i_epik_Tot_Q>
-1

> <i_epik_Tot_abs_Q>
1

> <r_epik_Metal_State_Penalty>
0.00867927

> <b_epik_Metal_Only>
0

> <s_lp_Force_Field>
OPLS_2005

> <r_lp_Energy>
21.9466

> <b_lp_Chiralities_Consistent>
1

> <s_lp_Variant>
AV-unprocessed.smi:899-2

> <Gold.Version>
5.8.1

> <Gold.Id.Protein>
6NUR|6NUR_protein|mol2

> <Gold.PLP.Fitness>
44.2969

> <Gold.PLP.PLP>
-31.8377

> <Gold.PLP.part.hbond>
-4.0000

> <Gold.PLP.part.metal>
0.0000

> <Gold.PLP.part.buried>
-4.3927

> <Gold.PLP.part.nonpolar>
-23.3122

> <Gold.PLP.part.repulsive>
0.1950

> <Gold.PLP.ligand.clash>
0.0000

> <Gold.PLP.ligand.torsion>
0.2457

> <Gold.PLP.Chemscore.Hbond>
3.3987

> <Gold.PLP.Chemscore.CHOScore>
0.9134

> <Gold.PLP.Chemscore.Metal>
0.0000

> <Gold.Chemscore.Hbonds>
donor molecule, donor type, donor heavy atom, donor atom, acceptor molecule, acceptor atom, score
      P1  H  6896  6907       L1    17  1.28
      P1  H  6896  6909       L1    16  0.17
      P1  H  6933  6945       L1     1  0.80
      P1  H  7989  7998       L1     8  0.95
      L1  C    12    30       P1  7948  1.00

> <Gold.PLP.Chemscore.Internal.Correction>
0.0144

> <Gold.Rescore>
     Score         DG    S(hbond)    S(metal)    S(lipo)     H(rot)  DE(clash)    DE(int)     intcor
     15.32     -15.73       1.77        0.00      86.37       2.25       0.10       0.31       ----

> <Gold.Chemscore.Fitness>
15.3203

> <Gold.Chemscore.DG>
-15.7290

> <Gold.Chemscore.ZeroCoef>
-5.4800

> <Gold.Chemscore.Hbond>
1.7668

> <Gold.Chemscore.Metal>
0.0000

> <Gold.Chemscore.Lipo>
86.3709

> <Gold.Chemscore.Internal_Hbond>
0.0000

> <Gold.Chemscore.DEClash>
0.1014

> <Gold.Chemscore.DEInternal>
0.3073

> <Gold.Chemscore.Rot>
2.2491

> <Gold.Chemscore.Internal.Correction>
   9.000000E+99

> <Gold.Chemscore.Hbonds>
donor molecule, donor type, donor heavy atom, donor atom, acceptor molecule, acceptor atom, score
      P1  H  6896  6907       L1    17  0.55
      P1  H  6896  6909       L1    16  0.08
      P1  H  6933  6945       L1     1  0.76
      P1  H  7989  7998       L1     8  0.10

> <Gold.Chemscore.Hbond.Weighted>
-5.9012

> <Gold.Chemscore.Metal.Weighted>
-0.0000

> <Gold.Chemscore.Lipo.Weighted>
-10.1054

> <Gold.Chemscore.Internal_Hbond.Weighted>
0.0000

> <Gold.Chemscore.DEClash.Weighted>
0.1014

> <Gold.Chemscore.DEInternal.Weighted>
0.3073

> <Gold.Chemscore.Rot.Weighted>
5.7576

> <Gold.Chemscore.Internal.Correction.Weighted>
   9.000000E+99

> <Gold.Protein.RotatedTorsions>
[ 6907 6896 6895 6894 ] final  -51.18 input  -60.11 | X-H torsion
[ 7974 7965 7964 7962 ] final  179.54 input  175.53 | X-H torsion
[ 8008 7997 7996 7995 ] final  141.54 input   59.86 | X-H torsion
[ 10167 10162 10161 10158 ] final -155.98 input  -65.29 | X-H torsion
[ 10718 10713 10712 10709 ] final -173.08 input   66.30 | X-H torsion
[ 10763 10752 10751 10750 ] final -126.34 input  -60.55 | X-H torsion
[ 11005 11000 10999 10996 ] final    5.40 input  -57.11 | X-H torsion

> <Gold.Protein.ActiveResidues>
 VAL166  LYS551  ARG553  GLY616  TRP617  ASP618  TYR619  PRO620  LYS621  CYS622 
 ASP623  PHE694  ASN695  SER759  ASP760  ASP761  ALA762  ILE779  LEU786  VAL792 
 PHE793  MET794  SER795  GLU796  ALA797  LYS798  CYS799  TRP800  GLU811  SER814 

> <Gold.Protein.RotatedAtoms>
  150.8636  134.7994  159.7101 H   0  0  0  0  0  0  0  0  0  0  0  0  # atno 6907 bound_to 6896
  152.4665  134.5059  159.9749 H   0  0  0  0  0  0  0  0  0  0  0  0  # atno 6908 bound_to 6896
  151.5159  133.3437  159.2928 H   0  0  0  0  0  0  0  0  0  0  0  0  # atno 6909 bound_to 6896
  144.7145  140.0563  143.6434 H   0  0  0  0  0  0  0  0  0  0  0  0  # atno 7974 bound_to 7965
  156.2964  140.2312  156.4581 H   0  0  0  0  0  0  0  0  0  0  0  0  # atno 8008 bound_to 7997
  154.8042  140.0446  157.1316 H   0  0  0  0  0  0  0  0  0  0  0  0  # atno 8009 bound_to 7997
  154.9498  140.3040  155.5084 H   0  0  0  0  0  0  0  0  0  0  0  0  # atno 8010 bound_to 7997
  139.6887  143.9457  152.2374 H   0  0  0  0  0  0  0  0  0  0  0  0  # atno 10167 bound_to 10162
  156.7651  130.9428  151.3119 H   0  0  0  0  0  0  0  0  0  0  0  0  # atno 10718 bound_to 10713
  154.8744  135.3999  154.3415 H   0  0  0  0  0  0  0  0  0  0  0  0  # atno 10763 bound_to 10752
  153.4214  135.7023  153.6297 H   0  0  0  0  0  0  0  0  0  0  0  0  # atno 10764 bound_to 10752
  153.4958  135.3738  155.2485 H   0  0  0  0  0  0  0  0  0  0  0  0  # atno 10765 bound_to 10752
  140.5711  134.0101  155.8009 H   0  0  0  0  0  0  0  0  0  0  0  0  # atno 11005 bound_to 11000
  145.9902  139.3009  143.0989 LP  0  0  0  0  0  0  0  0  0  0  0  0  # atno 17320 bound_to 7965
  145.8912  140.9302  143.0551 LP  0  0  0  0  0  0  0  0  0  0  0  0  # atno 17321 bound_to 7965
  139.9267  144.6766  150.8405 LP  0  0  0  0  0  0  0  0  0  0  0  0  # atno 17342 bound_to 10162
  140.7676  143.3337  151.2355 LP  0  0  0  0  0  0  0  0  0  0  0  0  # atno 17343 bound_to 10162
  157.6717  130.9057  150.0055 LP  0  0  0  0  0  0  0  0  0  0  0  0  # atno 17370 bound_to 10713
  156.1314  130.3643  149.9726 LP  0  0  0  0  0  0  0  0  0  0  0  0  # atno 17371 bound_to 10713
  141.1055  133.9700  157.3004 LP  0  0  0  0  0  0  0  0  0  0  0  0  # atno 17394 bound_to 11000
  139.9361  135.0196  156.8560 LP  0  0  0  0  0  0  0  0  0  0  0  0  # atno 17395 bound_to 11000

$$$$
