AV-unprocessed.smi:114|AV-procd|sdf|1110|dock4
  -GOLD-   2262018223D 1   1.00000     0.00000
 Structure written by MMmdl.
 32 34  0  0  0  0  0  0  0  0  1 V2000
  154.4742  140.7987  160.4791 N   0  0  0  0  0  0  0  0  0  0  0  0
  153.5607  141.4546  159.7494 C   0  0  0  0  0  0  0  0  0  0  0  0
  153.2298  142.7151  160.1125 N   0  0  0  0  0  0  0  0  0  0  0  0
  152.3210  143.4027  159.4108 C   0  0  0  0  0  0  0  0  0  0  0  0
  152.0504  144.6572  159.8416 F   0  0  0  0  0  0  0  0  0  0  0  0
  151.6501  142.9896  158.3306 N   0  0  0  0  0  0  0  0  0  0  0  0
  151.9782  141.7191  157.9579 C   0  0  0  0  0  0  0  0  0  0  0  0
  152.9256  140.8887  158.6167 C   0  0  0  0  0  0  0  0  0  0  0  0
  153.0140  139.6634  157.9721 N   0  0  0  0  0  0  0  0  0  0  0  0
  152.1622  139.7672  156.9881 C   0  0  0  0  0  0  0  0  0  0  0  0
  151.4906  140.9671  156.9050 N   0  0  0  0  0  0  0  0  0  0  0  0
  150.4677  141.3432  155.8786 C   0  0  1  0  0  0  0  0  0  0  0  0
  150.4814  140.4114  154.8422 O   0  0  0  0  0  0  0  0  0  0  0  0
  149.1555  140.0657  154.4334 C   0  0  1  0  0  0  0  0  0  0  0  0
  148.9538  138.5582  154.6969 C   0  0  0  0  0  0  0  0  0  0  0  0
  149.8953  137.8109  153.9569 O   0  0  0  0  0  0  0  0  0  0  0  0
  148.2397  141.0021  155.2472 C   0  0  1  0  0  0  0  0  0  0  0  0
  146.9975  140.4230  155.5990 O   0  0  0  0  0  0  0  0  0  0  0  0
  149.0648  141.3345  156.4800 C   0  0  2  0  0  0  0  0  0  0  0  0
  148.6909  142.6104  156.9625 O   0  0  0  0  0  0  0  0  0  0  0  0
  150.7798  142.3176  155.4995 H   0  0  0  0  0  0  0  0  0  0  0  0
  149.0282  140.2706  153.3696 H   0  0  0  0  0  0  0  0  0  0  0  0
  148.0585  141.9059  154.6626 H   0  0  0  0  0  0  0  0  0  0  0  0
  148.9864  140.5583  157.2436 H   0  0  0  0  0  0  0  0  0  0  0  0
  154.7361  139.8564  160.2267 H   0  0  0  0  0  0  0  0  0  0  0  0
  154.8965  141.2452  161.2802 H   0  0  0  0  0  0  0  0  0  0  0  0
  151.9986  138.9628  156.2855 H   0  0  0  0  0  0  0  0  0  0  0  0
  149.0168  138.3194  155.7576 H   0  0  0  0  0  0  0  0  0  0  0  0
  147.9716  138.2310  154.3566 H   0  0  0  0  0  0  0  0  0  0  0  0
  149.5169  137.5984  153.1174 H   0  0  0  0  0  0  0  0  0  0  0  0
  147.1307  139.8515  156.3396 H   0  0  0  0  0  0  0  0  0  0  0  0
  148.8441  143.2470  156.2813 H   0  0  0  0  0  0  0  0  0  0  0  0
  1  2  1  0  0  0  0
  1 25  1  0  0  0  0
  1 26  1  0  0  0  0
  2  8  1  0  0  0  0
  2  3  2  0  0  0  0
  3  4  1  0  0  0  0
  4  5  1  0  0  0  0
  4  6  2  0  0  0  0
  6  7  1  0  0  0  0
  7 11  1  0  0  0  0
  7  8  2  0  0  0  0
  8  9  1  0  0  0  0
  9 10  2  0  0  0  0
 10 11  1  0  0  0  0
 10 27  1  0  0  0  0
 11 12  1  0  0  0  0
 12 21  1  0  0  0  0
 12 19  1  0  0  0  0
 12 13  1  0  0  0  0
 13 14  1  0  0  0  0
 14 22  1  0  0  0  0
 14 15  1  0  0  0  0
 14 17  1  0  0  0  0
 15 16  1  0  0  0  0
 15 28  1  0  0  0  0
 15 29  1  0  0  0  0
 16 30  1  0  0  0  0
 17 23  1  0  0  0  0
 17 18  1  0  0  0  0
 17 19  1  0  0  0  0
 18 31  1  0  0  0  0
 19 24  1  0  0  0  0
 19 20  1  0  0  0  0
 20 32  1  0  0  0  0
M  END
> <s_m_source_file>
AV-unprocessed.smi

> <i_m_source_file_index>
114

> <i_lp_mmshare_version>
43012

> <i_f3d_flags>
0

> <s_epik_input>
RmMobjEpbmMoW05IMl0pYyhjMTIpbltjSF1uMltDQEBIXTNPW0NASF0oW0NIMl1bT0hdKVtDQEBIXShbT0hdKVtDQEBIXTNbT0hd

> <s_epik_cmdline>
J2VwaWtfcHl0aG9uJywgJy1waCcsICc3LjAnLCAnLXRuJywgJzgnLCAnLW1hJywgJzIwMCcsICctbWV0YWxfYmluZGluZycsICctaW1hZScsICc8aW5maWxlLm1hZT4nLCAnLW9tYWUnLCAnPG91dGZpbGUubWFlPic=

> <r_lp_tautomer_probability>
1

> <r_epik_Ionization_Penalty>
1.13199e-05

> <r_epik_Ionization_Penalty_Charging>
0

> <r_epik_Ionization_Penalty_Neutral>
1.13199e-05

> <r_epik_State_Penalty>
-0

> <r_epik_Charging_Adjusted_Penalty>
0

> <i_epik_Tot_Q>
0

> <i_epik_Tot_abs_Q>
0

> <r_epik_Metal_State_Penalty>
-0

> <b_epik_Metal_Only>
0

> <s_epik_Chemistry_Notes>
This compound contains an acetal/aminal-like group ( X-CH(R)-Y where X, Y are N, S, or O) that may be acid/base labile, releasing an aldehyde.

> <s_lp_Force_Field>
OPLS_2005

> <r_lp_Energy>
42.0862

> <b_lp_Chiralities_Consistent>
1

> <s_lp_Variant>
AV-unprocessed.smi:114-4

> <Gold.Version>
5.8.1

> <Gold.Id.Protein>
6NUR|6NUR_protein|mol2

> <Gold.PLP.Fitness>
46.2876

> <Gold.PLP.PLP>
-34.9952

> <Gold.PLP.part.hbond>
-4.2592

> <Gold.PLP.part.metal>
0.0000

> <Gold.PLP.part.buried>
-5.3993

> <Gold.PLP.part.nonpolar>
-24.2501

> <Gold.PLP.part.repulsive>
0.1783

> <Gold.PLP.ligand.clash>
0.0000

> <Gold.PLP.ligand.torsion>
0.3091

> <Gold.PLP.Chemscore.Hbond>
3.9680

> <Gold.PLP.Chemscore.CHOScore>
0.0000

> <Gold.PLP.Chemscore.Metal>
0.0000

> <Gold.Chemscore.Hbonds>
donor molecule, donor type, donor heavy atom, donor atom, acceptor molecule, acceptor atom, score
      L1  H    16    30       P1  7948  0.98
      L1  H    20    32       P1  8028  1.00
      P1  H  7989  7998       L1    13  1.00
      P1  H  7997  8009       L1     9  0.75

> <Gold.PLP.Chemscore.Internal.Correction>
0.0066

> <Gold.Rescore>
     Score         DG    S(hbond)    S(metal)    S(lipo)     H(rot)  DE(clash)    DE(int)     intcor
      8.60      -8.73       3.05        0.00      28.95       4.03       0.13       0.00       ----

> <Gold.Chemscore.Fitness>
8.5966

> <Gold.Chemscore.DG>
-8.7312

> <Gold.Chemscore.ZeroCoef>
-5.4800

> <Gold.Chemscore.Hbond>
3.0465

> <Gold.Chemscore.Metal>
0.0000

> <Gold.Chemscore.Lipo>
28.9466

> <Gold.Chemscore.Internal_Hbond>
0.0000

> <Gold.Chemscore.DEClash>
0.1304

> <Gold.Chemscore.DEInternal>
0.0042

> <Gold.Chemscore.Rot>
4.0277

> <Gold.Chemscore.Internal.Correction>
   9.000000E+99

> <Gold.Chemscore.Hbonds>
donor molecule, donor type, donor heavy atom, donor atom, acceptor molecule, acceptor atom, score
      L1  H    16    30       P1  7948  0.79
      L1  H    20    32       P1  8028  0.94
      P1  H  7989  7998       L1    13  0.74
      P1  H  7997  8009       L1     9  0.04

> <Gold.Chemscore.Hbond.Weighted>
-10.1754

> <Gold.Chemscore.Metal.Weighted>
-0.0000

> <Gold.Chemscore.Lipo.Weighted>
-3.3868

> <Gold.Chemscore.Internal_Hbond.Weighted>
0.0000

> <Gold.Chemscore.DEClash.Weighted>
0.1304

> <Gold.Chemscore.DEInternal.Weighted>
0.0042

> <Gold.Chemscore.Rot.Weighted>
10.3110

> <Gold.Chemscore.Internal.Correction.Weighted>
   9.000000E+99

> <Gold.Protein.RotatedTorsions>
[ 6907 6896 6895 6894 ] final -145.35 input  -60.11 | X-H torsion
[ 7974 7965 7964 7962 ] final  -35.07 input  175.53 | X-H torsion
[ 8008 7997 7996 7995 ] final  143.93 input   59.86 | X-H torsion
[ 10167 10162 10161 10158 ] final  167.99 input  -65.29 | X-H torsion
[ 10718 10713 10712 10709 ] final  165.06 input   66.30 | X-H torsion
[ 10763 10752 10751 10750 ] final   62.42 input  -60.55 | X-H torsion
[ 11005 11000 10999 10996 ] final   56.89 input  -57.11 | X-H torsion

> <Gold.Protein.ActiveResidues>
 VAL166  LYS551  ARG553  GLY616  TRP617  ASP618  TYR619  PRO620  LYS621  CYS622 
 ASP623  PHE694  ASN695  SER759  ASP760  ASP761  ALA762  ILE779  LEU786  VAL792 
 PHE793  MET794  SER795  GLU796  ALA797  LYS798  CYS799  TRP800  GLU811  SER814 

> <Gold.Protein.RotatedAtoms>
  151.1265  133.5067  159.2600 H   0  0  0  0  0  0  0  0  0  0  0  0  # atno 6907 bound_to 6896
  151.1804  135.0358  159.8800 H   0  0  0  0  0  0  0  0  0  0  0  0  # atno 6908 bound_to 6896
  152.5458  134.1118  159.8415 H   0  0  0  0  0  0  0  0  0  0  0  0  # atno 6909 bound_to 6896
  146.0777  140.6114  142.8923 H   0  0  0  0  0  0  0  0  0  0  0  0  # atno 7974 bound_to 7965
  156.2919  140.2249  156.4971 H   0  0  0  0  0  0  0  0  0  0  0  0  # atno 8008 bound_to 7997
  154.7721  140.0466  157.1081 H   0  0  0  0  0  0  0  0  0  0  0  0  # atno 8009 bound_to 7997
  154.9861  140.3084  155.4929 H   0  0  0  0  0  0  0  0  0  0  0  0  # atno 8010 bound_to 7997
  139.4958  144.3862  151.9567 H   0  0  0  0  0  0  0  0  0  0  0  0  # atno 10167 bound_to 10162
  157.0855  131.0403  151.2558 H   0  0  0  0  0  0  0  0  0  0  0  0  # atno 10718 bound_to 10713
  152.9982  135.5466  154.6189 H   0  0  0  0  0  0  0  0  0  0  0  0  # atno 10763 bound_to 10752
  154.5493  135.2825  155.1025 H   0  0  0  0  0  0  0  0  0  0  0  0  # atno 10764 bound_to 10752
  154.2271  135.6440  153.5216 H   0  0  0  0  0  0  0  0  0  0  0  0  # atno 10765 bound_to 10752
  140.0494  134.5759  155.9282 H   0  0  0  0  0  0  0  0  0  0  0  0  # atno 11005 bound_to 11000
  144.7273  140.4563  143.6964 LP  0  0  0  0  0  0  0  0  0  0  0  0  # atno 17320 bound_to 7965
  145.6275  139.1532  143.2988 LP  0  0  0  0  0  0  0  0  0  0  0  0  # atno 17321 bound_to 7965
  140.3299  144.3328  150.5990 LP  0  0  0  0  0  0  0  0  0  0  0  0  # atno 17342 bound_to 10162
  140.5653  143.2187  151.7694 LP  0  0  0  0  0  0  0  0  0  0  0  0  # atno 17343 bound_to 10162
  157.4765  130.7739  149.7372 LP  0  0  0  0  0  0  0  0  0  0  0  0  # atno 17370 bound_to 10713
  155.9912  130.3939  150.2995 LP  0  0  0  0  0  0  0  0  0  0  0  0  # atno 17371 bound_to 10713
  141.1923  133.6574  156.5495 LP  0  0  0  0  0  0  0  0  0  0  0  0  # atno 17394 bound_to 11000
  140.3941  134.7414  157.4740 LP  0  0  0  0  0  0  0  0  0  0  0  0  # atno 17395 bound_to 11000

$$$$
