AV-unprocessed.smi:219|AV-procd|sdf|1681|dock10
  -GOLD-   2262020113D 1   1.00000     0.00000
 Structure written by MMmdl.
 50 53  0  0  0  0  0  0  0  0  1 V2000
  155.5372  139.3813  161.2447 N   0  0  0  0  0  0  0  0  0  0  0  0
  155.0790  139.5591  160.0033 C   0  0  0  0  0  0  0  0  0  0  0  0
  155.7819  140.0185  159.1054 O   0  0  0  0  0  0  0  0  0  0  0  0
  153.6105  139.2007  159.7427 C   0  0  0  0  0  0  0  0  0  0  0  0
  152.6538  140.4166  159.5601 C   0  0  1  0  0  0  0  0  0  0  0  0
  153.1866  141.6004  160.4012 C   0  0  0  0  0  0  0  0  0  0  0  0
  152.3135  142.8539  160.2585 C   0  0  0  0  0  0  0  0  0  0  0  0
  152.1817  143.2282  158.7793 C   0  0  0  0  0  0  0  0  0  0  0  0
  151.6298  142.0399  157.9829 C   0  0  0  0  0  0  0  0  0  0  0  0
  152.4599  140.8466  158.1610 N   0  0  0  0  0  0  0  0  0  0  0  0
  152.1142  139.8803  157.2814 C   0  0  0  0  0  0  0  0  0  0  0  0
  152.7759  139.7677  156.0989 N   0  0  0  0  0  0  0  0  0  0  0  0
  152.4096  138.8309  155.2191 C   0  0  0  0  0  0  0  0  0  0  0  0
  151.4269  137.9325  155.3162 N   0  0  0  0  0  0  0  0  0  0  0  0
  150.7632  138.0480  156.5029 C   0  0  0  0  0  0  0  0  0  0  0  0
  151.0497  138.9788  157.5391 C   0  0  0  0  0  0  0  0  0  0  0  0
  150.1745  138.7999  158.6018 N   0  0  0  0  0  0  0  0  0  0  0  0
  149.4009  137.8248  158.2089 C   0  0  0  0  0  0  0  0  0  0  0  0
  149.6726  137.3257  156.9539 N   0  0  0  0  0  0  0  0  0  0  0  0
  148.9571  136.2630  156.2650 C   0  0  0  0  0  0  0  0  0  0  0  0
  149.8924  135.2425  155.5737 C   0  0  2  0  0  0  0  0  0  0  0  0
  150.4270  135.8314  154.4003 O   0  0  0  0  0  0  0  0  0  0  0  0
  149.1804  133.9554  155.1794 C   0  0  0  0  0  0  0  0  0  0  0  0
  150.3028  132.9272  155.2177 C   0  0  0  0  0  0  0  0  0  0  0  0
  151.0527  133.3154  156.3563 O   0  0  0  0  0  0  0  0  0  0  0  0
  151.0633  134.7377  156.4437 C   0  0  0  0  0  0  0  0  0  0  0  0
  156.4995  139.6004  161.4583 H   0  0  0  0  0  0  0  0  0  0  0  0
  154.9242  139.0251  161.9634 H   0  0  0  0  0  0  0  0  0  0  0  0
  153.6064  138.5910  158.8382 H   0  0  0  0  0  0  0  0  0  0  0  0
  153.2428  138.5454  160.5337 H   0  0  0  0  0  0  0  0  0  0  0  0
  151.6716  140.1516  159.9549 H   0  0  0  0  0  0  0  0  0  0  0  0
  153.2405  141.3199  161.4538 H   0  0  0  0  0  0  0  0  0  0  0  0
  154.2060  141.8372  160.0929 H   0  0  0  0  0  0  0  0  0  0  0  0
  151.3263  142.6679  160.6836 H   0  0  0  0  0  0  0  0  0  0  0  0
  152.7468  143.6821  160.8196 H   0  0  0  0  0  0  0  0  0  0  0  0
  151.5270  144.0922  158.6655 H   0  0  0  0  0  0  0  0  0  0  0  0
  153.1554  143.5177  158.3819 H   0  0  0  0  0  0  0  0  0  0  0  0
  150.6100  141.8280  158.3080 H   0  0  0  0  0  0  0  0  0  0  0  0
  151.5797  142.3028  156.9250 H   0  0  0  0  0  0  0  0  0  0  0  0
  152.9804  138.8025  154.3027 H   0  0  0  0  0  0  0  0  0  0  0  0
  148.5958  137.4489  158.8231 H   0  0  0  0  0  0  0  0  0  0  0  0
  148.3194  135.7558  156.9902 H   0  0  0  0  0  0  0  0  0  0  0  0
  148.2870  136.7180  155.5347 H   0  0  0  0  0  0  0  0  0  0  0  0
  149.7301  135.9243  153.7688 H   0  0  0  0  0  0  0  0  0  0  0  0
  148.4321  133.6915  155.9281 H   0  0  0  0  0  0  0  0  0  0  0  0
  148.6779  134.0085  154.2125 H   0  0  0  0  0  0  0  0  0  0  0  0
  149.9369  131.9041  155.3060 H   0  0  0  0  0  0  0  0  0  0  0  0
  150.9287  132.9955  154.3265 H   0  0  0  0  0  0  0  0  0  0  0  0
  152.0259  135.1311  156.1136 H   0  0  0  0  0  0  0  0  0  0  0  0
  150.9459  135.0059  157.4926 H   0  0  0  0  0  0  0  0  0  0  0  0
  1  2  1  0  0  0  0
  1 27  1  0  0  0  0
  1 28  1  0  0  0  0
  2  3  2  0  0  0  0
  2  4  1  0  0  0  0
  4  5  1  0  0  0  0
  4 29  1  0  0  0  0
  4 30  1  0  0  0  0
  5 10  1  0  0  0  0
  5  6  1  0  0  0  0
  5 31  1  0  0  0  0
  6  7  1  0  0  0  0
  6 32  1  0  0  0  0
  6 33  1  0  0  0  0
  7  8  1  0  0  0  0
  7 34  1  0  0  0  0
  7 35  1  0  0  0  0
  8  9  1  0  0  0  0
  8 36  1  0  0  0  0
  8 37  1  0  0  0  0
  9 10  1  0  0  0  0
  9 38  1  0  0  0  0
  9 39  1  0  0  0  0
 10 11  1  0  0  0  0
 11 16  1  0  0  0  0
 11 12  2  0  0  0  0
 12 13  1  0  0  0  0
 13 14  2  0  0  0  0
 13 40  1  0  0  0  0
 14 15  1  0  0  0  0
 15 19  1  0  0  0  0
 15 16  2  0  0  0  0
 16 17  1  0  0  0  0
 17 18  2  0  0  0  0
 18 19  1  0  0  0  0
 18 41  1  0  0  0  0
 19 20  1  0  0  0  0
 20 21  1  0  0  0  0
 20 42  1  0  0  0  0
 20 43  1  0  0  0  0
 21 26  1  0  0  0  0
 21 22  1  0  0  0  0
 21 23  1  0  0  0  0
 22 44  1  0  0  0  0
 23 24  1  0  0  0  0
 23 45  1  0  0  0  0
 23 46  1  0  0  0  0
 24 25  1  0  0  0  0
 24 47  1  0  0  0  0
 24 48  1  0  0  0  0
 25 26  1  0  0  0  0
 26 49  1  0  0  0  0
 26 50  1  0  0  0  0
M  END
> <s_m_source_file>
AV-unprocessed.smi

> <i_m_source_file_index>
219

> <i_lp_mmshare_version>
43012

> <i_f3d_flags>
0

> <s_epik_input>
W05IMl1DKD1PKVtDSDJdW0NAQEhdMVtDSDJdW0NIMl1bQ0gyXVtDSDJdTjFjKG5bY0hdbjIpYyhjMjMpbltjSF1uM1tDSDJdW0NAQF00KFtPSF0pW0NIMl1bQ0gyXU9bQ0gyXTQ=

> <s_epik_cmdline>
J2VwaWtfcHl0aG9uJywgJy1waCcsICc3LjAnLCAnLXRuJywgJzgnLCAnLW1hJywgJzIwMCcsICctbWV0YWxfYmluZGluZycsICctaW1hZScsICc8aW5maWxlLm1hZT4nLCAnLW9tYWUnLCAnPG91dGZpbGUubWFlPic=

> <r_lp_tautomer_probability>
1

> <r_epik_Ionization_Penalty>
0.00228532

> <r_epik_Ionization_Penalty_Charging>
0

> <r_epik_Ionization_Penalty_Neutral>
0.00228532

> <r_epik_State_Penalty>
0.00140978

> <r_epik_Charging_Adjusted_Penalty>
0.00140978

> <i_epik_Tot_Q>
0

> <i_epik_Tot_abs_Q>
0

> <r_epik_Metal_State_Penalty>
-0

> <b_epik_Metal_Only>
0

> <s_lp_Force_Field>
OPLS_2005

> <r_lp_Energy>
35.4504

> <b_lp_Chiralities_Consistent>
1

> <s_lp_Variant>
AV-unprocessed.smi:219-4

> <Gold.Version>
5.8.1

> <Gold.Id.Protein>
6NUR|6NUR_protein|mol2

> <Gold.PLP.Fitness>
43.2114

> <Gold.PLP.PLP>
-36.6795

> <Gold.PLP.part.hbond>
-4.0763

> <Gold.PLP.part.metal>
0.0000

> <Gold.PLP.part.buried>
-4.4665

> <Gold.PLP.part.nonpolar>
-27.9830

> <Gold.PLP.part.repulsive>
0.0605

> <Gold.PLP.ligand.clash>
0.0000

> <Gold.PLP.ligand.torsion>
1.3610

> <Gold.PLP.Chemscore.Hbond>
3.0000

> <Gold.PLP.Chemscore.CHOScore>
0.0000

> <Gold.PLP.Chemscore.Metal>
0.0000

> <Gold.Chemscore.Hbonds>
donor molecule, donor type, donor heavy atom, donor atom, acceptor molecule, acceptor atom, score
      L1  H    22    44       P1  7948  0.93
      P1  H  7997  8008       L1     3  1.00
      P1  H  7997  8009       L1    12  1.00

> <Gold.PLP.Chemscore.Internal.Correction>
0.2539

> <Gold.Rescore>
     Score         DG    S(hbond)    S(metal)    S(lipo)     H(rot)  DE(clash)    DE(int)     intcor
     13.40     -14.49       2.59        0.00      76.75       3.37       0.01       1.08       ----

> <Gold.Chemscore.Fitness>
13.4027

> <Gold.Chemscore.DG>
-14.4869

> <Gold.Chemscore.ZeroCoef>
-5.4800

> <Gold.Chemscore.Hbond>
2.5909

> <Gold.Chemscore.Metal>
0.0000

> <Gold.Chemscore.Lipo>
76.7482

> <Gold.Chemscore.Internal_Hbond>
0.0000

> <Gold.Chemscore.DEClash>
0.0060

> <Gold.Chemscore.DEInternal>
1.0781

> <Gold.Chemscore.Rot>
3.3697

> <Gold.Chemscore.Internal.Correction>
   9.000000E+99

> <Gold.Chemscore.Hbonds>
donor molecule, donor type, donor heavy atom, donor atom, acceptor molecule, acceptor atom, score
      L1  H    22    44       P1  7948  0.19
      P1  H  7997  8008       L1     3  0.97
      P1  H  7997  8009       L1    12  0.86
      P1  H 10752 10764       L1    22  0.01

> <Gold.Chemscore.Hbond.Weighted>
-8.6537

> <Gold.Chemscore.Metal.Weighted>
-0.0000

> <Gold.Chemscore.Lipo.Weighted>
-8.9795

> <Gold.Chemscore.Internal_Hbond.Weighted>
0.0000

> <Gold.Chemscore.DEClash.Weighted>
0.0060

> <Gold.Chemscore.DEInternal.Weighted>
1.0781

> <Gold.Chemscore.Rot.Weighted>
8.6264

> <Gold.Chemscore.Internal.Correction.Weighted>
   9.000000E+99

> <Gold.Protein.RotatedTorsions>
[ 6907 6896 6895 6894 ] final   29.36 input  -60.11 | X-H torsion
[ 7974 7965 7964 7962 ] final -165.77 input  175.53 | X-H torsion
[ 8008 7997 7996 7995 ] final -143.70 input   59.86 | X-H torsion
[ 10167 10162 10161 10158 ] final  -74.84 input  -65.29 | X-H torsion
[ 10718 10713 10712 10709 ] final  126.98 input   66.30 | X-H torsion
[ 10763 10752 10751 10750 ] final  -77.48 input  -60.55 | X-H torsion
[ 11005 11000 10999 10996 ] final   84.16 input  -57.11 | X-H torsion

> <Gold.Protein.ActiveResidues>
 VAL166  LYS551  ARG553  GLY616  TRP617  ASP618  TYR619  PRO620  LYS621  CYS622 
 ASP623  PHE694  ASN695  SER759  ASP760  ASP761  ALA762  ILE779  LEU786  VAL792 
 PHE793  MET794  SER795  GLU796  ALA797  LYS798  CYS799  TRP800  GLU811  SER814 

> <Gold.Protein.RotatedAtoms>
  152.0303  134.9771  160.0572 H   0  0  0  0  0  0  0  0  0  0  0  0  # atno 6907 bound_to 6896
  152.1250  133.4370  159.4702 H   0  0  0  0  0  0  0  0  0  0  0  0  # atno 6908 bound_to 6896
  150.6852  134.2407  159.4515 H   0  0  0  0  0  0  0  0  0  0  0  0  # atno 6909 bound_to 6896
  144.7262  140.2766  143.6242 H   0  0  0  0  0  0  0  0  0  0  0  0  # atno 7974 bound_to 7965
  155.5149  140.0586  157.2917 H   0  0  0  0  0  0  0  0  0  0  0  0  # atno 8008 bound_to 7997
  154.4538  140.1962  156.0386 H   0  0  0  0  0  0  0  0  0  0  0  0  # atno 8009 bound_to 7997
  156.0759  140.3254  155.7637 H   0  0  0  0  0  0  0  0  0  0  0  0  # atno 8010 bound_to 7997
  140.4993  143.2364  151.7779 H   0  0  0  0  0  0  0  0  0  0  0  0  # atno 10167 bound_to 10162
  157.5372  131.1097  150.8916 H   0  0  0  0  0  0  0  0  0  0  0  0  # atno 10718 bound_to 10713
  154.5135  135.5762  153.6623 H   0  0  0  0  0  0  0  0  0  0  0  0  # atno 10763 bound_to 10752
  152.9902  135.6164  154.2848 H   0  0  0  0  0  0  0  0  0  0  0  0  # atno 10764 bound_to 10752
  154.2764  135.2852  155.2695 H   0  0  0  0  0  0  0  0  0  0  0  0  # atno 10765 bound_to 10752
  139.9009  134.8196  156.2407 H   0  0  0  0  0  0  0  0  0  0  0  0  # atno 11005 bound_to 11000
  145.7991  139.1957  143.2058 LP  0  0  0  0  0  0  0  0  0  0  0  0  # atno 17320 bound_to 7965
  146.0692  140.7888  142.9696 LP  0  0  0  0  0  0  0  0  0  0  0  0  # atno 17321 bound_to 7965
  139.4868  144.4544  151.9616 LP  0  0  0  0  0  0  0  0  0  0  0  0  # atno 17342 bound_to 10162
  140.3632  144.2947  150.5930 LP  0  0  0  0  0  0  0  0  0  0  0  0  # atno 17343 bound_to 10162
  156.9480  130.5409  149.5281 LP  0  0  0  0  0  0  0  0  0  0  0  0  # atno 17370 bound_to 10713
  156.0468  130.5543  150.8899 LP  0  0  0  0  0  0  0  0  0  0  0  0  # atno 17371 bound_to 10713
  141.0287  133.7001  156.1392 LP  0  0  0  0  0  0  0  0  0  0  0  0  # atno 17394 bound_to 11000
  140.7128  134.4442  157.5580 LP  0  0  0  0  0  0  0  0  0  0  0  0  # atno 17395 bound_to 11000

$$$$
