#       Name:                AV-unprocessed.smi:158
#       Creating user name   scv26
#       Creation time:       Thu Mar 26 19:02:13 2020


#       File generated by GOLD software.
#

@<TRIPOS>MOLECULE
AV-unprocessed.smi:158
    40    42     1
SMALL
NO_CHARGES


@<TRIPOS>ATOM
      1 ****        -4.8851   1.1398   0.2200 N.pl3          1 S1                 0.0000
      2 ****        -3.6249   1.5892   0.1415 C.ar           1 S1                 0.0000
      3 ****        -3.4217   2.8839  -0.1973 N.ar           1 S1                 0.0000
      4 ****        -2.1785   3.3731  -0.2865 C.ar           1 S1                 0.0000
      5 ****        -2.0396   5.0340  -0.7282 Cl             1 S1                 0.0000
      6 ****        -1.0314   2.7186  -0.0735 N.ar           1 S1                 0.0000
      7 ****        -1.2347   1.4128   0.2658 C.ar           1 S1                 0.0000
      8 ****        -2.4955   0.7734   0.3952 C.ar           1 S1                 0.0000
      9 ****        -2.3167  -0.5553   0.7552 N.2            1 S1                 0.0000
     10 ****        -1.0190  -0.6876   0.8318 C.2            1 S1                 0.0000
     11 ****        -0.2912   0.4491   0.5444 N.pl3          1 S1                 0.0000
     12 ****         1.1910   0.6565   0.5355 C.3            1 S1                 0.0000
     13 ****         1.7850  -0.4642   1.1230 O.3            1 S1                 0.0000
     14 ****         2.5332  -1.2174   0.1669 C.3            1 S1                 0.0000
     15 ****         2.3823  -2.7315   0.3989 C.3            1 S1                 0.0000
     16 ****         3.2279  -3.1461   1.4499 O.3            1 S1                 0.0000
     17 ****         2.0766  -0.7060  -1.2082 C.3            1 S1                 0.0000
     18 ****         0.9749  -1.4261  -1.7316 O.3            1 S1                 0.0000
     19 ****         1.6939   0.7315  -0.9098 C.3            1 S1                 0.0000
     20 ****         2.7760   1.5104  -0.9460 F              1 S1                 0.0000
     21 ****         1.3446   1.5649   1.1193 H              1 S1                 0.0000
     22 ****         3.5802  -0.9318   0.2849 H              1 S1                 0.0000
     23 ****         2.8819  -0.7633  -1.9413 H              1 S1                 0.0000
     24 ****         0.9579   1.1593  -1.5922 H              1 S1                 0.0000
     25 ****        -5.0605   0.1771   0.4703 H              1 S1                 0.0000
     26 ****        -5.6561   1.7623   0.0264 H              1 S1                 0.0000
     27 ****        -0.5606  -1.6275   1.0995 H              1 S1                 0.0000
     28 ****         1.3497  -3.0056   0.6139 H              1 S1                 0.0000
     29 ****         2.6851  -3.2801  -0.4934 H              1 S1                 0.0000
     30 ****         3.1277  -4.0784   1.5673 H              1 S1                 0.0000
     31 ****         1.2486  -2.3144  -1.9020 H              1 S1                 0.0000
     32 ****        -4.2044   3.4783  -0.3820 LP             1 S1                 0.0000
     33 ****        -0.1275   3.1387  -0.1538 LP             1 S1                 0.0000
     34 ****        -3.0178  -1.2496   0.9180 LP             1 S1                 0.0000
     35 ****         1.0699  -1.0470   1.5090 LP             1 S1                 0.0000
     36 ****         2.3990  -0.1625   1.8524 LP             1 S1                 0.0000
     37 ****         2.9752  -2.6713   2.2929 LP             1 S1                 0.0000
     38 ****         4.1782  -2.9356   1.2208 LP             1 S1                 0.0000
     39 ****         0.6670  -0.9995  -2.5820 LP             1 S1                 0.0000
     40 ****         0.2264  -1.4256  -1.0684 LP             1 S1                 0.0000
@<TRIPOS>BOND
    1    1    2 1     
    2    1   25 1     
    3    1   26 1     
    4    2    8 ar    
    5    2    3 ar    
    6    3    4 ar    
    7    4    5 1     
    8    4    6 ar    
    9    6    7 ar    
   10    7   11 1     
   11    7    8 ar    
   12    8    9 1     
   13    9   10 2     
   14   10   11 1     
   15   10   27 1     
   16   11   12 1     
   17   12   21 1     
   18   12   19 1     
   19   12   13 1     
   20   13   14 1     
   21   14   22 1     
   22   14   15 1     
   23   14   17 1     
   24   15   16 1     
   25   15   28 1     
   26   15   29 1     
   27   16   30 1     
   28   17   23 1     
   29   17   18 1     
   30   17   19 1     
   31   18   31 1     
   32   19   24 1     
   33   19   20 1     
   34    3   32 1     
   35    6   33 1     
   36    9   34 1     
   37   13   35 1     
   38   13   36 1     
   39   16   37 1     
   40   16   38 1     
   41   18   39 1     
   42   18   40 1     
@<TRIPOS>SUBSTRUCTURE
      1 S1             1
@<TRIPOS>SET
LONE_PAIRS      STATIC     ATOMS    <user>   **** ""
9 32 33 34 35 36 37 38 39 40
DONOR_HYDROGENS      STATIC     ATOMS    <user>   **** ""
4 25 26 30 31
ATOM$BLUE        STATIC     ATOMS    COLORGROUP SYSTEM
9 32 33 34 35 36 37 38 39 40
ATOM$RED        STATIC     ATOMS    COLORGROUP SYSTEM
4 25 26 30 31
