AV-unprocessed.smi:91|AV-procd|sdf|833|dock1
  -GOLD-   2262017253D 1   1.00000     0.00000
 Structure written by MMmdl.
 60 63  0  0  0  0  0  0  0  0  1 V2000
  146.6411  143.7874  161.3164 C   0  0  0  0  0  0  0  0  0  0  0  0
  147.7525  143.4196  160.5187 O   0  0  0  0  0  0  0  0  0  0  0  0
  148.5534  144.5331  160.1547 C   0  0  0  0  0  0  0  0  0  0  0  0
  149.6781  144.0866  159.2103 C   0  0  2  0  0  0  0  0  0  0  0  0
  149.3249  142.8178  158.4138 C   0  0  0  0  0  0  0  0  0  0  0  0
  150.4726  142.3976  157.6247 N   0  0  0  0  0  0  0  0  0  0  0  0
  150.1991  141.3956  156.7633 C   0  0  0  0  0  0  0  0  0  0  0  0
  150.0991  141.6485  155.4317 N   0  0  0  0  0  0  0  0  0  0  0  0
  149.8319  140.6501  154.5842 C   0  0  0  0  0  0  0  0  0  0  0  0
  149.6351  139.3570  154.8522 N   0  0  0  0  0  0  0  0  0  0  0  0
  149.7396  139.1038  156.1885 C   0  0  0  0  0  0  0  0  0  0  0  0
  150.0143  140.0603  157.2049 C   0  0  0  0  0  0  0  0  0  0  0  0
  150.0384  139.4443  158.4490 N   0  0  0  0  0  0  0  0  0  0  0  0
  149.7917  138.1902  158.1830 C   0  0  0  0  0  0  0  0  0  0  0  0
  149.6081  137.8951  156.8501 N   0  0  0  0  0  0  0  0  0  0  0  0
  149.3328  136.5895  156.2748 C   0  0  0  0  0  0  0  0  0  0  0  0
  150.4865  135.5788  156.5200 C   0  0  2  0  0  0  0  0  0  0  0  0
  151.8360  136.3132  156.6882 C   0  0  0  0  0  0  0  0  0  0  0  0
  152.8862  135.3953  156.9070 O   0  0  0  0  0  0  0  0  0  0  0  0
  150.5686  134.5210  155.3890 C   0  0  2  0  0  0  0  0  0  0  0  0
  149.2301  134.0949  154.8104 C   0  0  0  0  0  0  0  0  0  0  0  0
  149.5836  132.7871  154.1133 C   0  0  0  0  0  0  0  0  0  0  0  0
  150.5932  132.1929  154.9190 O   0  0  0  0  0  0  0  0  0  0  0  0
  151.1255  133.1583  155.8210 C   0  0  0  0  0  0  0  0  0  0  0  0
  151.6560  142.1722  158.4444 C   0  0  0  0  0  0  0  0  0  0  0  0
  152.0146  143.4403  159.2513 C   0  0  0  0  0  0  0  0  0  0  0  0
  153.0695  143.0979  160.3144 C   0  0  0  0  0  0  0  0  0  0  0  0
  152.5551  144.5672  158.3453 C   0  0  0  0  0  0  0  0  0  0  0  0
  150.8622  143.8771  159.9823 O   0  0  0  0  0  0  0  0  0  0  0  0
  146.0608  142.8998  161.5677 H   0  0  0  0  0  0  0  0  0  0  0  0
  145.9857  144.4786  160.7849 H   0  0  0  0  0  0  0  0  0  0  0  0
  146.9619  144.2548  162.2483 H   0  0  0  0  0  0  0  0  0  0  0  0
  147.9342  145.2820  159.6582 H   0  0  0  0  0  0  0  0  0  0  0  0
  148.9782  145.0006  161.0444 H   0  0  0  0  0  0  0  0  0  0  0  0
  149.8552  144.9051  158.5125 H   0  0  0  0  0  0  0  0  0  0  0  0
  149.0384  142.0120  159.0912 H   0  0  0  0  0  0  0  0  0  0  0  0
  148.4726  143.0093  157.7601 H   0  0  0  0  0  0  0  0  0  0  0  0
  149.7669  140.9262  153.5420 H   0  0  0  0  0  0  0  0  0  0  0  0
  149.7384  137.4434  158.9607 H   0  0  0  0  0  0  0  0  0  0  0  0
  148.3891  136.2289  156.6840 H   0  0  0  0  0  0  0  0  0  0  0  0
  149.1446  136.7238  155.2089 H   0  0  0  0  0  0  0  0  0  0  0  0
  150.2956  135.0406  157.4508 H   0  0  0  0  0  0  0  0  0  0  0  0
  152.0916  136.8806  155.7941 H   0  0  0  0  0  0  0  0  0  0  0  0
  151.7940  137.0224  157.5154 H   0  0  0  0  0  0  0  0  0  0  0  0
  152.5722  134.7063  157.4724 H   0  0  0  0  0  0  0  0  0  0  0  0
  151.1880  134.9059  154.5769 H   0  0  0  0  0  0  0  0  0  0  0  0
  148.5103  133.9089  155.6089 H   0  0  0  0  0  0  0  0  0  0  0  0
  148.8012  134.8241  154.1231 H   0  0  0  0  0  0  0  0  0  0  0  0
  148.7233  132.1277  153.9966 H   0  0  0  0  0  0  0  0  0  0  0  0
  149.9983  132.9834  153.1239 H   0  0  0  0  0  0  0  0  0  0  0  0
  152.2154  133.1334  155.8133 H   0  0  0  0  0  0  0  0  0  0  0  0
  150.7901  132.9030  156.8271 H   0  0  0  0  0  0  0  0  0  0  0  0
  151.4609  141.3435  159.1273 H   0  0  0  0  0  0  0  0  0  0  0  0
  152.4952  141.8734  157.8144 H   0  0  0  0  0  0  0  0  0  0  0  0
  153.9889  142.7307  159.8573 H   0  0  0  0  0  0  0  0  0  0  0  0
  152.7083  142.3270  160.9958 H   0  0  0  0  0  0  0  0  0  0  0  0
  153.3234  143.9724  160.9144 H   0  0  0  0  0  0  0  0  0  0  0  0
  153.4988  144.2759  157.8832 H   0  0  0  0  0  0  0  0  0  0  0  0
  152.7354  145.4777  158.9176 H   0  0  0  0  0  0  0  0  0  0  0  0
  151.8708  144.8163  157.5348 H   0  0  0  0  0  0  0  0  0  0  0  0
  1  2  1  0  0  0  0
  1 30  1  0  0  0  0
  1 31  1  0  0  0  0
  1 32  1  0  0  0  0
  2  3  1  0  0  0  0
  3  4  1  0  0  0  0
  3 33  1  0  0  0  0
  3 34  1  0  0  0  0
  4 29  1  0  0  0  0
  4  5  1  0  0  0  0
  4 35  1  0  0  0  0
  5  6  1  0  0  0  0
  5 36  1  0  0  0  0
  5 37  1  0  0  0  0
  6  7  1  0  0  0  0
  6 25  1  0  0  0  0
  7 12  1  0  0  0  0
  7  8  2  0  0  0  0
  8  9  1  0  0  0  0
  9 10  2  0  0  0  0
  9 38  1  0  0  0  0
 10 11  1  0  0  0  0
 11 15  1  0  0  0  0
 11 12  2  0  0  0  0
 12 13  1  0  0  0  0
 13 14  2  0  0  0  0
 14 15  1  0  0  0  0
 14 39  1  0  0  0  0
 15 16  1  0  0  0  0
 16 17  1  0  0  0  0
 16 40  1  0  0  0  0
 16 41  1  0  0  0  0
 17 18  1  0  0  0  0
 17 20  1  0  0  0  0
 17 42  1  0  0  0  0
 18 19  1  0  0  0  0
 18 43  1  0  0  0  0
 18 44  1  0  0  0  0
 19 45  1  0  0  0  0
 20 24  1  0  0  0  0
 20 21  1  0  0  0  0
 20 46  1  0  0  0  0
 21 22  1  0  0  0  0
 21 47  1  0  0  0  0
 21 48  1  0  0  0  0
 22 23  1  0  0  0  0
 22 49  1  0  0  0  0
 22 50  1  0  0  0  0
 23 24  1  0  0  0  0
 24 51  1  0  0  0  0
 24 52  1  0  0  0  0
 25 26  1  0  0  0  0
 25 53  1  0  0  0  0
 25 54  1  0  0  0  0
 26 27  1  0  0  0  0
 26 28  1  0  0  0  0
 26 29  1  0  0  0  0
 27 55  1  0  0  0  0
 27 56  1  0  0  0  0
 27 57  1  0  0  0  0
 28 58  1  0  0  0  0
 28 59  1  0  0  0  0
 28 60  1  0  0  0  0
M  END
> <s_m_source_file>
AV-unprocessed.smi

> <i_m_source_file_index>
91

> <i_lp_mmshare_version>
43012

> <i_f3d_flags>
0

> <s_epik_input>
W0NIM11PW0NIMl1bQ0BASF0oTzEpW0NIMl1OKFtDSDJdQzEoW0NIM10pW0NIM10pYyhuW2NIXW4yKWMoYzIzKW5bY0hdbjNbQ0gyXVtDQEhdKFtDSDJdW09IXSlbQ0BASF00W0NIMl1bQ0gyXU9bQ0gyXTQ=

> <s_epik_cmdline>
J2VwaWtfcHl0aG9uJywgJy1waCcsICc3LjAnLCAnLXRuJywgJzgnLCAnLW1hJywgJzIwMCcsICctbWV0YWxfYmluZGluZycsICctaW1hZScsICc8aW5maWxlLm1hZT4nLCAnLW9tYWUnLCAnPG91dGZpbGUubWFlPic=

> <r_lp_tautomer_probability>
1

> <r_epik_Ionization_Penalty>
8.63591e-05

> <r_epik_Ionization_Penalty_Charging>
0

> <r_epik_Ionization_Penalty_Neutral>
8.63591e-05

> <r_epik_State_Penalty>
-0

> <r_epik_Charging_Adjusted_Penalty>
0

> <i_epik_Tot_Q>
0

> <i_epik_Tot_abs_Q>
0

> <r_epik_Metal_State_Penalty>
-0

> <b_epik_Metal_Only>
0

> <s_lp_Force_Field>
OPLS_2005

> <r_lp_Energy>
49.9364

> <b_lp_Chiralities_Consistent>
1

> <s_lp_Variant>
AV-unprocessed.smi:91-1

> <Gold.Version>
5.8.1

> <Gold.Id.Protein>
6NUR|6NUR_protein|mol2

> <Gold.PLP.Fitness>
49.3561

> <Gold.PLP.PLP>
-43.2568

> <Gold.PLP.part.hbond>
-2.5001

> <Gold.PLP.part.metal>
0.0000

> <Gold.PLP.part.buried>
-5.4230

> <Gold.PLP.part.nonpolar>
-35.1867

> <Gold.PLP.part.repulsive>
0.4870

> <Gold.PLP.ligand.clash>
0.0000

> <Gold.PLP.ligand.torsion>
1.6212

> <Gold.PLP.Chemscore.Hbond>
2.0000

> <Gold.PLP.Chemscore.CHOScore>
0.9911

> <Gold.PLP.Chemscore.Metal>
0.0000

> <Gold.Chemscore.Hbonds>
donor molecule, donor type, donor heavy atom, donor atom, acceptor molecule, acceptor atom, score
      P1  H  6933  6944       L1     2  1.00
      P1  H 10752 10764       L1    19  1.00
      L1  C     9    38       P1  7957  0.98

> <Gold.PLP.Chemscore.Internal.Correction>
0.3685

> <Gold.Rescore>
     Score         DG    S(hbond)    S(metal)    S(lipo)     H(rot)  DE(clash)    DE(int)     intcor
     12.57     -14.62       1.62        0.00      98.29       3.03       0.10       1.95       ----

> <Gold.Chemscore.Fitness>
12.5716

> <Gold.Chemscore.DG>
-14.6224

> <Gold.Chemscore.ZeroCoef>
-5.4800

> <Gold.Chemscore.Hbond>
1.6154

> <Gold.Chemscore.Metal>
0.0000

> <Gold.Chemscore.Lipo>
98.2898

> <Gold.Chemscore.Internal_Hbond>
0.0000

> <Gold.Chemscore.DEClash>
0.1046

> <Gold.Chemscore.DEInternal>
1.9461

> <Gold.Chemscore.Rot>
3.0284

> <Gold.Chemscore.Internal.Correction>
   9.000000E+99

> <Gold.Chemscore.Hbonds>
donor molecule, donor type, donor heavy atom, donor atom, acceptor molecule, acceptor atom, score
      P1  H  6933  6944       L1     2  0.34
      P1  H 10752 10764       L1    19  0.53

> <Gold.Chemscore.Hbond.Weighted>
-5.3953

> <Gold.Chemscore.Metal.Weighted>
-0.0000

> <Gold.Chemscore.Lipo.Weighted>
-11.4999

> <Gold.Chemscore.Internal_Hbond.Weighted>
0.0000

> <Gold.Chemscore.DEClash.Weighted>
0.1046

> <Gold.Chemscore.DEInternal.Weighted>
1.9461

> <Gold.Chemscore.Rot.Weighted>
7.7528

> <Gold.Chemscore.Internal.Correction.Weighted>
   9.000000E+99

> <Gold.Protein.RotatedTorsions>
[ 6907 6896 6895 6894 ] final   70.34 input  -60.11 | X-H torsion
[ 7974 7965 7964 7962 ] final   73.80 input  175.53 | X-H torsion
[ 8008 7997 7996 7995 ] final   47.38 input   59.86 | X-H torsion
[ 10167 10162 10161 10158 ] final  147.04 input  -65.29 | X-H torsion
[ 10718 10713 10712 10709 ] final  177.19 input   66.30 | X-H torsion
[ 10763 10752 10751 10750 ] final   15.96 input  -60.55 | X-H torsion
[ 11005 11000 10999 10996 ] final  -17.37 input  -57.11 | X-H torsion

> <Gold.Protein.ActiveResidues>
 VAL166  LYS551  ARG553  GLY616  TRP617  ASP618  TYR619  PRO620  LYS621  CYS622 
 ASP623  PHE694  ASN695  SER759  ASP760  ASP761  ALA762  ILE779  LEU786  VAL792 
 PHE793  MET794  SER795  GLU796  ALA797  LYS798  CYS799  TRP800  GLU811  SER814 

> <Gold.Protein.RotatedAtoms>
  152.4743  134.4883  159.9687 H   0  0  0  0  0  0  0  0  0  0  0  0  # atno 6907 bound_to 6896
  151.4903  133.3520  159.2860 H   0  0  0  0  0  0  0  0  0  0  0  0  # atno 6908 bound_to 6896
  150.8771  134.8183  159.7259 H   0  0  0  0  0  0  0  0  0  0  0  0  # atno 6909 bound_to 6896
  145.7363  139.2703  143.1512 H   0  0  0  0  0  0  0  0  0  0  0  0  # atno 7974 bound_to 7965
  155.3681  140.3422  155.4242 H   0  0  0  0  0  0  0  0  0  0  0  0  # atno 8008 bound_to 7997
  156.1677  140.1621  156.8536 H   0  0  0  0  0  0  0  0  0  0  0  0  # atno 8009 bound_to 7997
  154.5202  140.0769  156.8139 H   0  0  0  0  0  0  0  0  0  0  0  0  # atno 8010 bound_to 7997
  139.4897  144.5785  151.6918 H   0  0  0  0  0  0  0  0  0  0  0  0  # atno 10167 bound_to 10162
  156.9090  130.9903  151.3024 H   0  0  0  0  0  0  0  0  0  0  0  0  # atno 10718 bound_to 10713
  153.1475  135.6772  153.8932 H   0  0  0  0  0  0  0  0  0  0  0  0  # atno 10763 bound_to 10752
  153.8369  135.3110  155.3424 H   0  0  0  0  0  0  0  0  0  0  0  0  # atno 10764 bound_to 10752
  154.7837  135.4874  153.9984 H   0  0  0  0  0  0  0  0  0  0  0  0  # atno 10765 bound_to 10752
  140.8162  133.8103  155.9613 H   0  0  0  0  0  0  0  0  0  0  0  0  # atno 11005 bound_to 11000
  146.0490  140.8088  142.9791 LP  0  0  0  0  0  0  0  0  0  0  0  0  # atno 17320 bound_to 7965
  144.6881  140.3025  143.7261 LP  0  0  0  0  0  0  0  0  0  0  0  0  # atno 17321 bound_to 7965
  140.5386  144.0615  150.6080 LP  0  0  0  0  0  0  0  0  0  0  0  0  # atno 17342 bound_to 10162
  140.3630  143.2897  152.0363 LP  0  0  0  0  0  0  0  0  0  0  0  0  # atno 17343 bound_to 10162
  157.5979  130.8491  149.8757 LP  0  0  0  0  0  0  0  0  0  0  0  0  # atno 17370 bound_to 10713
  156.0545  130.3711  150.1123 LP  0  0  0  0  0  0  0  0  0  0  0  0  # atno 17371 bound_to 10713
  140.9147  134.2217  157.4964 LP  0  0  0  0  0  0  0  0  0  0  0  0  # atno 17394 bound_to 11000
  139.8711  134.9765  156.4925 LP  0  0  0  0  0  0  0  0  0  0  0  0  # atno 17395 bound_to 11000

$$$$
