AV-unprocessed.smi:1803|AV-procd|sdf|7279|dock4
  -GOLD-   22720 8543D 1   1.00000     0.00000
 Structure written by MMmdl.
 36 38  0  0  0  0  0  0  0  0  2 V2000
  150.7434  134.2847  155.5360 O   0  0  0  0  0  0  0  0  0  0  0  0
  150.2525  134.8346  154.5519 C   0  0  0  0  0  0  0  0  0  0  0  0
  150.6417  136.0736  154.1812 N   0  0  0  0  0  0  0  0  0  0  0  0
  151.5920  136.9769  154.7414 C   0  0  0  0  0  0  0  0  0  0  0  0
  152.5584  136.6272  155.6063 N   0  0  0  0  0  0  0  0  0  0  0  0
  153.3451  137.7088  155.9776 N   0  0  0  0  0  0  0  0  0  0  0  0
  152.9482  138.8328  155.3744 C   0  0  0  0  0  0  0  0  0  0  0  0
  151.5749  138.6774  154.2936 S   0  0  0  0  0  0  0  0  0  0  0  0
  149.3152  134.2497  153.7880 N   0  0  0  0  0  0  0  0  0  0  0  0
  148.7443  132.9247  154.0054 C   0  0  2  0  0  0  0  0  0  0  0  0
  149.7986  131.8599  154.2839 C   0  0  0  0  0  0  0  0  0  0  0  0
  149.0426  130.5678  153.9717 C   0  0  0  0  0  0  0  0  0  0  0  0
  148.1142  130.8963  152.8655 N   0  3  1  0  0  0  0  0  0  0  0  0
  146.8165  130.1793  152.9156 C   0  0  0  0  0  0  0  0  0  0  0  0
  145.9289  130.5740  151.7206 C   0  0  0  0  0  0  0  0  0  0  0  0
  145.8111  132.1011  151.5319 C   0  0  0  0  0  0  0  0  0  0  0  0
  146.5707  132.8859  152.6125 C   0  0  0  0  0  0  0  0  0  0  0  0
  148.0240  132.3805  152.7601 C   0  0  1  0  0  0  0  0  0  0  0  0
  150.1927  136.4152  153.3436 H   0  0  0  0  0  0  0  0  0  0  0  0
  153.4688  139.7595  155.5659 H   0  0  0  0  0  0  0  0  0  0  0  0
  148.9683  134.7707  152.9946 H   0  0  0  0  0  0  0  0  0  0  0  0
  148.0564  132.9423  154.8536 H   0  0  0  0  0  0  0  0  0  0  0  0
  150.6448  131.9714  153.6038 H   0  0  0  0  0  0  0  0  0  0  0  0
  150.1773  131.8919  155.3061 H   0  0  0  0  0  0  0  0  0  0  0  0
  149.7089  129.7478  153.7028 H   0  0  0  0  0  0  0  0  0  0  0  0
  148.4769  130.2619  154.8534 H   0  0  0  0  0  0  0  0  0  0  0  0
  146.9951  129.1035  152.9085 H   0  0  0  0  0  0  0  0  0  0  0  0
  146.3062  130.4063  153.8531 H   0  0  0  0  0  0  0  0  0  0  0  0
  146.3358  130.1339  150.8093 H   0  0  0  0  0  0  0  0  0  0  0  0
  144.9373  130.1379  151.8461 H   0  0  0  0  0  0  0  0  0  0  0  0
  146.2066  132.3711  150.5518 H   0  0  0  0  0  0  0  0  0  0  0  0
  144.7623  132.3996  151.5260 H   0  0  0  0  0  0  0  0  0  0  0  0
  146.5649  133.9487  152.3694 H   0  0  0  0  0  0  0  0  0  0  0  0
  146.0428  132.7922  153.5625 H   0  0  0  0  0  0  0  0  0  0  0  0
  148.5882  132.6530  151.8664 H   0  0  0  0  0  0  0  0  0  0  0  0
  148.5674  130.5968  152.0139 H   0  0  0  0  0  0  0  0  0  0  0  0
  1  2  2  0  0  0  0
  2  3  1  0  0  0  0
  2  9  1  0  0  0  0
  3  4  1  0  0  0  0
  3 19  1  0  0  0  0
  4  8  1  0  0  0  0
  4  5  2  0  0  0  0
  5  6  1  0  0  0  0
  6  7  2  0  0  0  0
  7  8  1  0  0  0  0
  7 20  1  0  0  0  0
  9 10  1  0  0  0  0
  9 21  1  0  0  0  0
 10 18  1  0  0  0  0
 10 11  1  0  0  0  0
 10 22  1  0  0  0  0
 11 12  1  0  0  0  0
 11 23  1  0  0  0  0
 11 24  1  0  0  0  0
 12 13  1  0  0  0  0
 12 25  1  0  0  0  0
 12 26  1  0  0  0  0
 13 18  1  0  0  0  0
 13 14  1  0  0  0  0
 13 36  1  0  0  0  0
 14 15  1  0  0  0  0
 14 27  1  0  0  0  0
 14 28  1  0  0  0  0
 15 16  1  0  0  0  0
 15 29  1  0  0  0  0
 15 30  1  0  0  0  0
 16 17  1  0  0  0  0
 16 31  1  0  0  0  0
 16 32  1  0  0  0  0
 17 18  1  0  0  0  0
 17 33  1  0  0  0  0
 17 34  1  0  0  0  0
 18 35  1  0  0  0  0
M  CHG  1  13   1
M  END
> <s_m_source_file>
AV-unprocessed.smi

> <i_m_source_file_index>
1803

> <i_lp_mmshare_version>
43012

> <i_f3d_flags>
0

> <s_epik_input>
czFbY0hdbm5jMVtOSF1DKD1PKVtOSF1bQ0BIXShbQ0gyXVtDSDJdMilbQ0BASF0oTjIzKVtDSDJdW0NIMl1bQ0gyXVtDSDJdMw==

> <s_epik_cmdline>
J2VwaWtfcHl0aG9uJywgJy1waCcsICc3LjAnLCAnLXRuJywgJzgnLCAnLW1hJywgJzIwMCcsICctbWV0YWxfYmluZGluZycsICctaW1hZScsICc8aW5maWxlLm1hZT4nLCAnLW9tYWUnLCAnPG91dGZpbGUubWFlPic=

> <r_lp_tautomer_probability>
1

> <r_epik_Ionization_Penalty>
0.00213286

> <r_epik_Ionization_Penalty_Charging>
0.00107044

> <r_epik_Ionization_Penalty_Neutral>
0.00106242

> <r_epik_State_Penalty>
-0

> <r_epik_Charging_Adjusted_Penalty>
0.00107044

> <i_epik_Tot_Q>
1

> <i_epik_Tot_abs_Q>
1

> <r_epik_Metal_State_Penalty>
0.292783

> <b_epik_Metal_Only>
0

> <s_lp_Force_Field>
OPLS_2005

> <r_lp_Energy>
41.2334

> <b_lp_Chiralities_Consistent>
1

> <s_lp_Variant>
AV-unprocessed.smi:1803-1

> <Gold.Version>
5.8.1

> <Gold.Id.Protein>
6NUR|6NUR_protein|mol2

> <Gold.PLP.Fitness>
44.4888

> <Gold.PLP.PLP>
-33.0572

> <Gold.PLP.part.hbond>
-5.0000

> <Gold.PLP.part.metal>
0.0000

> <Gold.PLP.part.buried>
-1.9634

> <Gold.PLP.part.nonpolar>
-26.0934

> <Gold.PLP.part.repulsive>
0.1525

> <Gold.PLP.ligand.clash>
0.0000

> <Gold.PLP.ligand.torsion>
0.2522

> <Gold.PLP.Chemscore.Hbond>
3.9760

> <Gold.PLP.Chemscore.CHOScore>
0.0000

> <Gold.PLP.Chemscore.Metal>
0.0000

> <Gold.Chemscore.Hbonds>
donor molecule, donor type, donor heavy atom, donor atom, acceptor molecule, acceptor atom, score
      L1  H     3    19       P1  7948  0.40
      L1  H     9    21       P1  7948  0.65
      L1  H    13    36       P1 10747  1.00
      P1  H 10752 10763       L1     5  0.56

> <Gold.PLP.Chemscore.Internal.Correction>
0.0080

> <Gold.Rescore>
     Score         DG    S(hbond)    S(metal)    S(lipo)     H(rot)  DE(clash)    DE(int)     intcor
     19.70     -20.04       3.10        0.00      57.87       1.00       0.00       0.34       ----

> <Gold.Chemscore.Fitness>
19.7050

> <Gold.Chemscore.DG>
-20.0415

> <Gold.Chemscore.ZeroCoef>
-5.4800

> <Gold.Chemscore.Hbond>
3.0991

> <Gold.Chemscore.Metal>
0.0000

> <Gold.Chemscore.Lipo>
57.8692

> <Gold.Chemscore.Internal_Hbond>
0.0000

> <Gold.Chemscore.DEClash>
0.0000

> <Gold.Chemscore.DEInternal>
0.3366

> <Gold.Chemscore.Rot>
1.0000

> <Gold.Chemscore.Internal.Correction>
   9.000000E+99

> <Gold.Chemscore.Hbonds>
donor molecule, donor type, donor heavy atom, donor atom, acceptor molecule, acceptor atom, score
      L1  H     3    19       P1  7948  0.01
      L1  H     9    21       P1  7948  0.05
      L1  H    13    36       P1 10747  0.79
      P1  H 10752 10763       L1     5  0.21

> <Gold.Chemscore.Hbond.Weighted>
-10.3508

> <Gold.Chemscore.Metal.Weighted>
-0.0000

> <Gold.Chemscore.Lipo.Weighted>
-6.7707

> <Gold.Chemscore.Internal_Hbond.Weighted>
0.0000

> <Gold.Chemscore.DEClash.Weighted>
0.0000

> <Gold.Chemscore.DEInternal.Weighted>
0.3366

> <Gold.Chemscore.Rot.Weighted>
2.5600

> <Gold.Chemscore.Internal.Correction.Weighted>
   9.000000E+99

> <Gold.Protein.RotatedTorsions>
[ 6907 6896 6895 6894 ] final -155.20 input  -60.11 | X-H torsion
[ 7974 7965 7964 7962 ] final  115.44 input  175.53 | X-H torsion
[ 8008 7997 7996 7995 ] final   70.87 input   59.86 | X-H torsion
[ 10167 10162 10161 10158 ] final   30.72 input  -65.29 | X-H torsion
[ 10718 10713 10712 10709 ] final  156.84 input   66.30 | X-H torsion
[ 10763 10752 10751 10750 ] final   86.33 input  -60.55 | X-H torsion
[ 11005 11000 10999 10996 ] final -101.30 input  -57.11 | X-H torsion

> <Gold.Protein.ActiveResidues>
 VAL166  LYS551  ARG553  GLY616  TRP617  ASP618  TYR619  PRO620  LYS621  CYS622 
 ASP623  PHE694  ASN695  SER759  ASP760  ASP761  ALA762  ILE779  LEU786  VAL792 
 PHE793  MET794  SER795  GLU796  ALA797  LYS798  CYS799  TRP800  GLU811  SER814 

> <Gold.Protein.RotatedAtoms>
  151.2689  133.4265  159.2619 H   0  0  0  0  0  0  0  0  0  0  0  0  # atno 6907 bound_to 6896
  151.0463  134.9642  159.8198 H   0  0  0  0  0  0  0  0  0  0  0  0  # atno 6908 bound_to 6896
  152.5374  134.2645  159.9000 H   0  0  0  0  0  0  0  0  0  0  0  0  # atno 6909 bound_to 6896
  145.1920  139.2995  143.4363 H   0  0  0  0  0  0  0  0  0  0  0  0  # atno 7974 bound_to 7965
  155.7453  140.3489  155.5124 H   0  0  0  0  0  0  0  0  0  0  0  0  # atno 8008 bound_to 7997
  155.9056  140.1041  157.1339 H   0  0  0  0  0  0  0  0  0  0  0  0  # atno 8009 bound_to 7997
  154.4049  140.1278  156.4478 H   0  0  0  0  0  0  0  0  0  0  0  0  # atno 8010 bound_to 7997
  140.4652  144.0846  150.6223 H   0  0  0  0  0  0  0  0  0  0  0  0  # atno 10167 bound_to 10162
  157.1996  131.0673  151.2033 H   0  0  0  0  0  0  0  0  0  0  0  0  # atno 10718 bound_to 10713
  153.1560  135.4584  154.9705 H   0  0  0  0  0  0  0  0  0  0  0  0  # atno 10763 bound_to 10752
  154.7861  135.3204  154.7884 H   0  0  0  0  0  0  0  0  0  0  0  0  # atno 10764 bound_to 10752
  153.8382  135.6932  153.4860 H   0  0  0  0  0  0  0  0  0  0  0  0  # atno 10765 bound_to 10752
  141.1236  133.8467  157.1214 H   0  0  0  0  0  0  0  0  0  0  0  0  # atno 11005 bound_to 11000
  146.3434  140.2136  142.8590 LP  0  0  0  0  0  0  0  0  0  0  0  0  # atno 17320 bound_to 7965
  145.0032  140.8650  143.5269 LP  0  0  0  0  0  0  0  0  0  0  0  0  # atno 17321 bound_to 7965
  140.4044  143.2687  151.9908 LP  0  0  0  0  0  0  0  0  0  0  0  0  # atno 17342 bound_to 10162
  139.4811  144.5969  151.7674 LP  0  0  0  0  0  0  0  0  0  0  0  0  # atno 17343 bound_to 10162
  157.3781  130.7216  149.6611 LP  0  0  0  0  0  0  0  0  0  0  0  0  # atno 17370 bound_to 10713
  155.9702  130.4180  150.4307 LP  0  0  0  0  0  0  0  0  0  0  0  0  # atno 17371 bound_to 10713
  140.0214  134.9944  157.0600 LP  0  0  0  0  0  0  0  0  0  0  0  0  # atno 17394 bound_to 11000
  140.4433  134.1658  155.7175 LP  0  0  0  0  0  0  0  0  0  0  0  0  # atno 17395 bound_to 11000

$$$$
