AV-unprocessed.smi:375|AV-procd|sdf|2454|dock3
  -GOLD-   2262022393D 1   1.00000     0.00000
 Structure written by MMmdl.
 36 38  0  0  0  0  0  0  0  0  1 V2000
  154.3012  140.1796  160.6068 C   0  0  0  0  0  0  0  0  0  0  0  0
  153.3231  140.9594  159.8581 N   0  0  0  0  0  0  0  0  0  0  0  0
  152.7956  140.6618  158.6473 C   0  0  0  0  0  0  0  0  0  0  0  0
  153.0588  139.6705  157.9666 O   0  0  0  0  0  0  0  0  0  0  0  0
  151.9285  141.6472  158.3150 N   0  0  0  0  0  0  0  0  0  0  0  0
  151.1465  141.7413  157.0838 C   0  0  0  0  0  0  0  0  0  0  0  0
  150.2874  140.4827  156.8516 C   0  0  1  0  0  0  0  0  0  0  0  0
  149.5910  140.1838  158.0461 O   0  0  0  0  0  0  0  0  0  0  0  0
  149.3325  140.6892  155.6826 C   0  0  0  0  0  0  0  0  0  0  0  0
  148.3160  141.6687  155.7537 C   0  0  0  0  0  0  0  0  0  0  0  0
  147.4404  141.8678  154.6690 C   0  0  0  0  0  0  0  0  0  0  0  0
  147.5771  141.0922  153.5025 C   0  0  0  0  0  0  0  0  0  0  0  0
  148.5923  140.1206  153.4207 C   0  0  0  0  0  0  0  0  0  0  0  0
  149.4696  139.9196  154.5044 C   0  0  0  0  0  0  0  0  0  0  0  0
  150.4464  138.9861  154.4023 F   0  0  0  0  0  0  0  0  0  0  0  0
  151.9071  142.6052  159.3387 C   0  0  0  0  0  0  0  0  0  0  0  0
  151.1894  143.8070  159.4682 C   0  0  0  0  0  0  0  0  0  0  0  0
  151.3990  144.5607  160.6470 C   0  0  0  0  0  0  0  0  0  0  0  0
  152.2985  144.1101  161.6482 C   0  0  0  0  0  0  0  0  0  0  0  0
  153.0096  142.8972  161.4910 C   0  0  0  0  0  0  0  0  0  0  0  0
  152.7832  142.1699  160.3102 C   0  0  0  0  0  0  0  0  0  0  0  0
  154.6441  139.3068  160.0497 H   0  0  0  0  0  0  0  0  0  0  0  0
  153.8666  139.8329  161.5447 H   0  0  0  0  0  0  0  0  0  0  0  0
  155.1730  140.7917  160.8393 H   0  0  0  0  0  0  0  0  0  0  0  0
  150.5346  142.6452  157.0668 H   0  0  0  0  0  0  0  0  0  0  0  0
  151.8572  141.8521  156.2639 H   0  0  0  0  0  0  0  0  0  0  0  0
  150.9301  139.6293  156.6323 H   0  0  0  0  0  0  0  0  0  0  0  0
  149.9402  140.7229  158.7394 H   0  0  0  0  0  0  0  0  0  0  0  0
  148.2057  142.2753  156.6407 H   0  0  0  0  0  0  0  0  0  0  0  0
  146.6650  142.6172  154.7315 H   0  0  0  0  0  0  0  0  0  0  0  0
  146.9064  141.2449  152.6698 H   0  0  0  0  0  0  0  0  0  0  0  0
  148.7006  139.5293  152.5234 H   0  0  0  0  0  0  0  0  0  0  0  0
  150.5070  144.1450  158.7026 H   0  0  0  0  0  0  0  0  0  0  0  0
  150.8677  145.4907  160.7864 H   0  0  0  0  0  0  0  0  0  0  0  0
  152.4434  144.7010  162.5408 H   0  0  0  0  0  0  0  0  0  0  0  0
  153.6973  142.5479  162.2469 H   0  0  0  0  0  0  0  0  0  0  0  0
  1  2  1  0  0  0  0
  1 22  1  0  0  0  0
  1 23  1  0  0  0  0
  1 24  1  0  0  0  0
  2 21  1  0  0  0  0
  2  3  1  0  0  0  0
  3  4  2  0  0  0  0
  3  5  1  0  0  0  0
  5  6  1  0  0  0  0
  5 16  1  0  0  0  0
  6  7  1  0  0  0  0
  6 25  1  0  0  0  0
  6 26  1  0  0  0  0
  7  8  1  0  0  0  0
  7  9  1  0  0  0  0
  7 27  1  0  0  0  0
  8 28  1  0  0  0  0
  9 14  1  0  0  0  0
  9 10  2  0  0  0  0
 10 11  1  0  0  0  0
 10 29  1  0  0  0  0
 11 12  2  0  0  0  0
 11 30  1  0  0  0  0
 12 13  1  0  0  0  0
 12 31  1  0  0  0  0
 13 14  2  0  0  0  0
 13 32  1  0  0  0  0
 14 15  1  0  0  0  0
 16 21  2  0  0  0  0
 16 17  1  0  0  0  0
 17 18  2  0  0  0  0
 17 33  1  0  0  0  0
 18 19  1  0  0  0  0
 18 34  1  0  0  0  0
 19 20  2  0  0  0  0
 19 35  1  0  0  0  0
 20 21  1  0  0  0  0
 20 36  1  0  0  0  0
M  END
> <s_m_source_file>
AV-unprocessed.smi

> <i_m_source_file_index>
375

> <i_lp_mmshare_version>
43012

> <i_f3d_flags>
0

> <s_epik_input>
W2NIXTFbY0hdW2NIXVtjSF1jKGMxMiluKFtDSDNdKWMoPU8pbjJbQ0gyXVtDQEhdKFtPSF0pYzNbY0hdW2NIXVtjSF1bY0hdYzNG

> <s_epik_cmdline>
J2VwaWtfcHl0aG9uJywgJy1waCcsICc3LjAnLCAnLXRuJywgJzgnLCAnLW1hJywgJzIwMCcsICctbWV0YWxfYmluZGluZycsICctaW1hZScsICc8aW5maWxlLm1hZT4nLCAnLW9tYWUnLCAnPG91dGZpbGUubWFlPic=

> <r_lp_tautomer_probability>
1

> <r_epik_Ionization_Penalty>
1.34619e-06

> <r_epik_Ionization_Penalty_Charging>
2.57375e-09

> <r_epik_Ionization_Penalty_Neutral>
1.34362e-06

> <r_epik_State_Penalty>
-0

> <r_epik_Charging_Adjusted_Penalty>
2.57375e-09

> <i_epik_Tot_Q>
0

> <i_epik_Tot_abs_Q>
0

> <r_epik_Metal_State_Penalty>
-0

> <b_epik_Metal_Only>
0

> <s_lp_Force_Field>
OPLS_2005

> <r_lp_Energy>
44.2188

> <b_lp_Chiralities_Consistent>
1

> <s_lp_Variant>
AV-unprocessed.smi:375-2

> <Gold.Version>
5.8.1

> <Gold.Id.Protein>
6NUR|6NUR_protein|mol2

> <Gold.PLP.Fitness>
49.2581

> <Gold.PLP.PLP>
-46.4803

> <Gold.PLP.part.hbond>
-1.0000

> <Gold.PLP.part.metal>
0.0000

> <Gold.PLP.part.buried>
-0.4595

> <Gold.PLP.part.nonpolar>
-44.4178

> <Gold.PLP.part.repulsive>
0.0000

> <Gold.PLP.ligand.clash>
0.0000

> <Gold.PLP.ligand.torsion>
0.1151

> <Gold.PLP.Chemscore.Hbond>
1.0000

> <Gold.PLP.Chemscore.CHOScore>
0.0000

> <Gold.PLP.Chemscore.Metal>
0.0000

> <Gold.Chemscore.Hbonds>
donor molecule, donor type, donor heavy atom, donor atom, acceptor molecule, acceptor atom, score
      P1  H  7997  8010       L1     4  1.00

> <Gold.PLP.Chemscore.Internal.Correction>
0.0080

> <Gold.Rescore>
     Score         DG    S(hbond)    S(metal)    S(lipo)     H(rot)  DE(clash)    DE(int)     intcor
     16.86     -18.39       0.93        0.00     124.06       1.85       1.45       0.08       ----

> <Gold.Chemscore.Fitness>
16.8610

> <Gold.Chemscore.DG>
-18.3876

> <Gold.Chemscore.ZeroCoef>
-5.4800

> <Gold.Chemscore.Hbond>
0.9341

> <Gold.Chemscore.Metal>
0.0000

> <Gold.Chemscore.Lipo>
124.0586

> <Gold.Chemscore.Internal_Hbond>
0.0000

> <Gold.Chemscore.DEClash>
1.4469

> <Gold.Chemscore.DEInternal>
0.0796

> <Gold.Chemscore.Rot>
1.8465

> <Gold.Chemscore.Internal.Correction>
   9.000000E+99

> <Gold.Chemscore.Hbonds>
donor molecule, donor type, donor heavy atom, donor atom, acceptor molecule, acceptor atom, score
      P1  H  7997  8010       L1     4  0.70

> <Gold.Chemscore.Hbond.Weighted>
-3.1198

> <Gold.Chemscore.Metal.Weighted>
-0.0000

> <Gold.Chemscore.Lipo.Weighted>
-14.5149

> <Gold.Chemscore.Internal_Hbond.Weighted>
0.0000

> <Gold.Chemscore.DEClash.Weighted>
1.4469

> <Gold.Chemscore.DEInternal.Weighted>
0.0796

> <Gold.Chemscore.Rot.Weighted>
4.7270

> <Gold.Chemscore.Internal.Correction.Weighted>
   9.000000E+99

> <Gold.Protein.RotatedTorsions>
[ 6907 6896 6895 6894 ] final  175.72 input  -60.11 | X-H torsion
[ 7974 7965 7964 7962 ] final   51.76 input  175.53 | X-H torsion
[ 8008 7997 7996 7995 ] final   43.99 input   59.86 | X-H torsion
[ 10167 10162 10161 10158 ] final   -7.86 input  -65.29 | X-H torsion
[ 10718 10713 10712 10709 ] final   99.73 input   66.30 | X-H torsion
[ 10763 10752 10751 10750 ] final  -82.87 input  -60.55 | X-H torsion
[ 11005 11000 10999 10996 ] final  113.62 input  -57.11 | X-H torsion

> <Gold.Protein.ActiveResidues>
 VAL166  LYS551  ARG553  GLY616  TRP617  ASP618  TYR619  PRO620  LYS621  CYS622 
 ASP623  PHE694  ASN695  SER759  ASP760  ASP761  ALA762  ILE779  LEU786  VAL792 
 PHE793  MET794  SER795  GLU796  ALA797  LYS798  CYS799  TRP800  GLU811  SER814 

> <Gold.Protein.RotatedAtoms>
  151.7316  133.3318  159.3341 H   0  0  0  0  0  0  0  0  0  0  0  0  # atno 6907 bound_to 6896
  150.7610  134.6358  159.6220 H   0  0  0  0  0  0  0  0  0  0  0  0  # atno 6908 bound_to 6896
  152.3588  134.6904  160.0265 H   0  0  0  0  0  0  0  0  0  0  0  0  # atno 6909 bound_to 6896
  145.9881  139.4311  143.0090 H   0  0  0  0  0  0  0  0  0  0  0  0  # atno 7974 bound_to 7965
  155.3119  140.3391  155.4243 H   0  0  0  0  0  0  0  0  0  0  0  0  # atno 8008 bound_to 7997
  156.1951  140.1712  156.8052 H   0  0  0  0  0  0  0  0  0  0  0  0  # atno 8009 bound_to 7997
  154.5489  140.0709  156.8619 H   0  0  0  0  0  0  0  0  0  0  0  0  # atno 8010 bound_to 7997
  140.7042  143.6033  150.8776 H   0  0  0  0  0  0  0  0  0  0  0  0  # atno 10167 bound_to 10162
  157.6870  131.0678  150.4993 H   0  0  0  0  0  0  0  0  0  0  0  0  # atno 10718 bound_to 10713
  154.5809  135.5576  153.7185 H   0  0  0  0  0  0  0  0  0  0  0  0  # atno 10763 bound_to 10752
  153.0081  135.6320  154.1983 H   0  0  0  0  0  0  0  0  0  0  0  0  # atno 10764 bound_to 10752
  154.1924  135.2882  155.2997 H   0  0  0  0  0  0  0  0  0  0  0  0  # atno 10765 bound_to 10752
  139.8958  134.9553  156.6766 H   0  0  0  0  0  0  0  0  0  0  0  0  # atno 11005 bound_to 11000
  145.7670  140.9912  143.1170 LP  0  0  0  0  0  0  0  0  0  0  0  0  # atno 17320 bound_to 7965
  144.6881  139.9400  143.7475 LP  0  0  0  0  0  0  0  0  0  0  0  0  # atno 17321 bound_to 7965
  139.9757  143.6007  152.2959 LP  0  0  0  0  0  0  0  0  0  0  0  0  # atno 17342 bound_to 10162
  139.6610  144.7662  151.1964 LP  0  0  0  0  0  0  0  0  0  0  0  0  # atno 17343 bound_to 10162
  156.5315  130.4186  149.6199 LP  0  0  0  0  0  0  0  0  0  0  0  0  # atno 17370 bound_to 10713
  156.3065  130.7205  151.2089 LP  0  0  0  0  0  0  0  0  0  0  0  0  # atno 17371 bound_to 10713
  140.7332  133.9041  155.8225 LP  0  0  0  0  0  0  0  0  0  0  0  0  # atno 17394 bound_to 11000
  141.0137  134.0985  157.4195 LP  0  0  0  0  0  0  0  0  0  0  0  0  # atno 17395 bound_to 11000

$$$$
