#       Name:                AV-unprocessed.smi:3062
#       Creating user name   scv26
#       Creation time:       Fri Mar 27 17:09:04 2020


#       File generated by GOLD software.
#

@<TRIPOS>MOLECULE
AV-unprocessed.smi:3062
    47    48     1
SMALL
NO_CHARGES


@<TRIPOS>ATOM
      1 ****        -1.3843   4.1464   1.4807 C.3            1 S1                 0.0000
      2 ****        -1.2425   3.3440   0.2153 C.2            1 S1                 0.0000
      3 ****        -0.7778   2.1441   0.3376 N.2            1 S1                 0.0000
      4 ****        -0.6108   1.3221  -0.7590 N.am           1 S1                 0.0000
      5 ****        -0.0705  -0.0028  -0.4322 C.3            1 S1                 0.0000
      6 ****         1.4437  -0.1042  -0.7210 C.3            1 S1                 0.0000
      7 ****         2.1858   0.5031   0.3173 O.3            1 S1                 0.0000
      8 ****         1.9326  -1.5556  -0.8561 C.3            1 S1                 0.0000
      9 ****         1.4111  -2.3374   0.2062 O.3            1 S1                 0.0000
     10 ****         1.7992  -3.6993   0.1364 C.3            1 S1                 0.0000
     11 ****         1.1830  -4.4169   1.2970 C.2            1 S1                 0.0000
     12 ****         1.4523  -5.6996   1.7020 C.2            1 S1                 0.0000
     13 ****         0.6960  -6.1033   2.8416 C.2            1 S1                 0.0000
     14 ****        -0.1471  -5.1237   3.2937 C.2            1 S1                 0.0000
     15 ****        -0.0302  -3.6822   2.3228 S.3            1 S1                 0.0000
     16 ****        -0.9085   1.6703  -2.0434 C.2            1 S1                 0.0000
     17 ****        -0.7424   0.9034  -2.9933 O.2            1 S1                 0.0000
     18 ****        -1.4343   3.0310  -2.1754 C.2            1 S1                 0.0000
     19 ****        -1.7621   3.4362  -3.5043 C.1            1 S1                 0.0000
     20 ****        -2.0371   3.7819  -4.5745 N.1            1 S1                 0.0000
     21 ****        -1.5991   3.8498  -1.1065 C.2            1 S1                 0.0000
     22 ****        -2.1423   5.2698  -1.1906 C.3            1 S1                 0.0000
     23 ****        -2.4049   4.5110   1.5962 H              1 S1                 0.0000
     24 ****        -0.7157   5.0073   1.4685 H              1 S1                 0.0000
     25 ****        -1.1459   3.5554   2.3666 H              1 S1                 0.0000
     26 ****        -0.2774  -0.2609   0.6085 H              1 S1                 0.0000
     27 ****        -0.6055  -0.7526  -1.0177 H              1 S1                 0.0000
     28 ****         1.6897   0.4187  -1.6458 H              1 S1                 0.0000
     29 ****         2.0156   0.0319   1.1187 H              1 S1                 0.0000
     30 ****         1.5786  -1.9660  -1.8030 H              1 S1                 0.0000
     31 ****         3.0230  -1.5999  -0.8748 H              1 S1                 0.0000
     32 ****         1.4588  -4.1441  -0.7995 H              1 S1                 0.0000
     33 ****         2.8861  -3.7862   0.1746 H              1 S1                 0.0000
     34 ****         2.1624  -6.3576   1.2231 H              1 S1                 0.0000
     35 ****         0.7952  -7.0839   3.2834 H              1 S1                 0.0000
     36 ****        -0.8270  -5.1602   4.1322 H              1 S1                 0.0000
     37 ****        -2.2850   5.5966  -2.2203 H              1 S1                 0.0000
     38 ****        -1.4567   5.9749  -0.7194 H              1 S1                 0.0000
     39 ****        -3.1066   5.3374  -0.6859 H              1 S1                 0.0000
     40 ****        -0.5340   1.8040   1.2458 LP             1 S1                 0.0000
     41 ****         1.9051   1.4574   0.4200 LP             1 S1                 0.0000
     42 ****         3.1618   0.4640   0.1029 LP             1 S1                 0.0000
     43 ****         0.4127  -2.2890   0.1768 LP             1 S1                 0.0000
     44 ****         1.7379  -1.9572   1.0715 LP             1 S1                 0.0000
     45 ****        -0.3763  -0.0139  -2.8372 LP             1 S1                 0.0000
     46 ****        -0.9737   1.1984  -3.9204 LP             1 S1                 0.0000
     47 ****        -2.2746   4.0805  -5.4988 LP             1 S1                 0.0000
@<TRIPOS>BOND
    1    1    2 1     
    2    1   23 1     
    3    1   24 1     
    4    1   25 1     
    5    2   21 1     
    6    2    3 2     
    7    3    4 1     
    8    4    5 1     
    9    4   16 am    
   10    5    6 1     
   11    5   26 1     
   12    5   27 1     
   13    6    7 1     
   14    6    8 1     
   15    6   28 1     
   16    7   29 1     
   17    8    9 1     
   18    8   30 1     
   19    8   31 1     
   20    9   10 1     
   21   10   11 1     
   22   10   32 1     
   23   10   33 1     
   24   11   15 1     
   25   11   12 2     
   26   12   13 1     
   27   12   34 1     
   28   13   14 2     
   29   13   35 1     
   30   14   15 1     
   31   14   36 1     
   32   16   17 2     
   33   16   18 1     
   34   18   19 1     
   35   18   21 2     
   36   19   20 3     
   37   21   22 1     
   38   22   37 1     
   39   22   38 1     
   40   22   39 1     
   41    3   40 1     
   42    7   41 1     
   43    7   42 1     
   44    9   43 1     
   45    9   44 1     
   46   17   45 1     
   47   17   46 1     
   48   20   47 1     
@<TRIPOS>SUBSTRUCTURE
      1 S1             1
@<TRIPOS>SET
LONE_PAIRS      STATIC     ATOMS    <user>   **** ""
8 40 41 42 43 44 45 46 47
DONOR_HYDROGENS      STATIC     ATOMS    <user>   **** ""
1 29
ATOM$BLUE        STATIC     ATOMS    COLORGROUP SYSTEM
8 40 41 42 43 44 45 46 47
ATOM$RED        STATIC     ATOMS    COLORGROUP SYSTEM
1 29
