#       Name:                AV-unprocessed.smi:1015
#       Creating user name   scv26
#       Creation time:       Fri Mar 27 02:39:11 2020


#       File generated by GOLD software.
#

@<TRIPOS>MOLECULE
AV-unprocessed.smi:1015
    50    51     1
SMALL
NO_CHARGES


@<TRIPOS>ATOM
      1 ****        -3.6537   4.1421  -2.0092 C.3            1 S1                 0.0000
      2 ****        -3.2324   2.8578  -1.5841 O.3            1 S1                 0.0000
      3 ****        -3.6482   2.5583  -0.2621 C.3            1 S1                 0.0000
      4 ****        -3.1630   1.1469   0.1037 C.3            1 S1                 0.0000
      5 ****        -1.6814   1.0452   0.1316 N.4            1 S1                 1.0000
      6 ****        -1.2078  -0.3456  -0.0830 C.3            1 S1                 0.0000
      7 ****         0.3242  -0.4003  -0.2007 C.3            1 S1                 0.0000
      8 ****         1.0113   0.2113   1.0377 C.3            1 S1                 0.0000
      9 ****         2.5515   0.2249   0.9372 C.3            1 S1                 0.0000
     10 ****         3.1012  -1.1216   0.8244 N.am           1 S1                 0.0000
     11 ****         3.5321  -1.6959  -0.3099 C.2            1 S1                 0.0000
     12 ****         3.5814  -1.1149  -1.3936 O.2            1 S1                 0.0000
     13 ****         3.9290  -3.1680  -0.2142 C.3            1 S1                 0.0000
     14 ****         2.7459  -4.0072  -0.2177 N.pl3          1 S1                 0.0000
     15 ****         2.0272  -4.5047  -1.2260 C.2            1 S1                 0.0000
     16 ****         0.9875  -5.1989  -0.7890 N.2            1 S1                 0.0000
     17 ****         1.1028  -5.1059   0.5879 N.2            1 S1                 0.0000
     18 ****         2.1436  -4.3989   0.9330 N.2            1 S1                 0.0000
     19 ****         0.4635   1.6319   1.2600 C.3            1 S1                 0.0000
     20 ****        -1.0715   1.6408   1.3493 C.3            1 S1                 0.0000
     21 ****        -3.3039   4.3245  -3.0252 H              1 S1                 0.0000
     22 ****        -3.2444   4.9234  -1.3676 H              1 S1                 0.0000
     23 ****        -4.7415   4.2219  -2.0085 H              1 S1                 0.0000
     24 ****        -3.2757   3.3057   0.4385 H              1 S1                 0.0000
     25 ****        -4.7376   2.5895  -0.2097 H              1 S1                 0.0000
     26 ****        -3.5695   0.8414   1.0687 H              1 S1                 0.0000
     27 ****        -3.5680   0.4514  -0.6327 H              1 S1                 0.0000
     28 ****        -1.5459  -0.9790   0.7390 H              1 S1                 0.0000
     29 ****        -1.6483  -0.7491  -0.9956 H              1 S1                 0.0000
     30 ****         0.6271  -1.4394  -0.3322 H              1 S1                 0.0000
     31 ****         0.6420   0.1303  -1.0993 H              1 S1                 0.0000
     32 ****         0.7391  -0.3926   1.9051 H              1 S1                 0.0000
     33 ****         2.8743   0.8537   0.1055 H              1 S1                 0.0000
     34 ****         2.9734   0.6746   1.8365 H              1 S1                 0.0000
     35 ****         3.1023  -1.6817   1.6648 H              1 S1                 0.0000
     36 ****         4.5593  -3.4432  -1.0608 H              1 S1                 0.0000
     37 ****         4.5049  -3.3507   0.6945 H              1 S1                 0.0000
     38 ****         2.2572  -4.3502  -2.2698 H              1 S1                 0.0000
     39 ****         0.8831   2.0536   2.1741 H              1 S1                 0.0000
     40 ****         0.7831   2.2836   0.4454 H              1 S1                 0.0000
     41 ****        -1.4086   2.6681   1.4808 H              1 S1                 0.0000
     42 ****        -1.3985   1.0872   2.2310 H              1 S1                 0.0000
     43 ****        -1.3477   1.5786  -0.6590 H              1 S1                 0.0000
     44 ****        -2.2339   2.8192  -1.6224 LP             1 S1                 0.0000
     45 ****        -3.6165   2.1733  -2.2036 LP             1 S1                 0.0000
     46 ****         3.2904  -0.1607  -1.4630 LP             1 S1                 0.0000
     47 ****         3.9125  -1.5970  -2.2047 LP             1 S1                 0.0000
     48 ****         0.2889  -5.6746  -1.3234 LP             1 S1                 0.0000
     49 ****         0.4684  -5.5274   1.2359 LP             1 S1                 0.0000
     50 ****         2.4397  -4.1870   1.8644 LP             1 S1                 0.0000
@<TRIPOS>BOND
    1    1    2 1     
    2    1   21 1     
    3    1   22 1     
    4    1   23 1     
    5    2    3 1     
    6    3    4 1     
    7    3   24 1     
    8    3   25 1     
    9    4    5 1     
   10    4   26 1     
   11    4   27 1     
   12    5   20 1     
   13    5    6 1     
   14    5   43 1     
   15    6    7 1     
   16    6   28 1     
   17    6   29 1     
   18    7    8 1     
   19    7   30 1     
   20    7   31 1     
   21    8    9 1     
   22    8   19 1     
   23    8   32 1     
   24    9   10 1     
   25    9   33 1     
   26    9   34 1     
   27   10   11 am    
   28   10   35 1     
   29   11   12 2     
   30   11   13 1     
   31   13   14 1     
   32   13   36 1     
   33   13   37 1     
   34   14   18 1     
   35   14   15 1     
   36   15   16 2     
   37   15   38 1     
   38   16   17 1     
   39   17   18 2     
   40   19   20 1     
   41   19   39 1     
   42   19   40 1     
   43   20   41 1     
   44   20   42 1     
   45    2   44 1     
   46    2   45 1     
   47   12   46 1     
   48   12   47 1     
   49   16   48 1     
   50   17   49 1     
   51   18   50 1     
@<TRIPOS>SUBSTRUCTURE
      1 S1             1
@<TRIPOS>SET
LONE_PAIRS      STATIC     ATOMS    <user>   **** ""
7 44 45 46 47 48 49 50
DONOR_HYDROGENS      STATIC     ATOMS    <user>   **** ""
2 43 35
ATOM$BLUE        STATIC     ATOMS    COLORGROUP SYSTEM
7 44 45 46 47 48 49 50
ATOM$RED        STATIC     ATOMS    COLORGROUP SYSTEM
2 43 35
