AV-unprocessed.smi:1963|AV-procd|sdf|7927|dock2
  -GOLD-   2272010 93D 1   1.00000     0.00000
 Structure written by MMmdl.
 47 48  0  0  0  0  0  0  0  0  1 V2000
  154.4068  133.0132  157.6375 C   0  0  0  0  0  0  0  0  0  0  0  0
  153.9541  133.8200  158.8493 C   0  0  0  0  0  0  0  0  0  0  0  0
  152.7618  133.8690  159.1500 O   0  0  0  0  0  0  0  0  0  0  0  0
  154.9198  134.4500  159.5363 N   0  0  0  0  0  0  0  0  0  0  0  0
  154.7158  135.2680  160.7342 C   0  0  1  0  0  0  0  0  0  0  0  0
  153.9186  136.5291  160.3462 C   0  0  0  0  0  0  0  0  0  0  0  0
  152.7588  136.4240  159.9446 O   0  0  0  0  0  0  0  0  0  0  0  0
  154.5617  137.6986  160.5200 N   0  0  0  0  0  0  0  0  0  0  0  0
  154.0866  139.0147  160.2753 C   0  0  0  0  0  0  0  0  0  0  0  0
  154.6546  140.0718  161.0117 C   0  0  0  0  0  0  0  0  0  0  0  0
  154.2117  141.3878  160.7814 C   0  0  0  0  0  0  0  0  0  0  0  0
  153.2109  141.6189  159.8085 C   0  0  0  0  0  0  0  0  0  0  0  0
  152.7457  142.9297  159.5650 N   0  0  0  0  0  0  0  0  0  0  0  0
  152.3440  143.6895  160.7465 C   0  0  0  0  0  0  0  0  0  0  0  0
  152.1572  145.1747  160.3914 C   0  0  0  0  0  0  0  0  0  0  0  0
  151.2370  145.3021  159.3124 O   0  0  0  0  0  0  0  0  0  0  0  0
  151.7051  144.6478  158.1381 C   0  0  0  0  0  0  0  0  0  0  0  0
  151.8700  143.1439  158.4140 C   0  0  0  0  0  0  0  0  0  0  0  0
  152.6826  140.6030  159.0824 N   0  0  0  0  0  0  0  0  0  0  0  0
  153.1081  139.3420  159.3076 C   0  0  0  0  0  0  0  0  0  0  0  0
  153.9202  134.4346  161.7829 C   0  0  0  0  0  0  0  0  0  0  0  0
  153.9596  135.0453  163.1996 C   0  0  0  0  0  0  0  0  0  0  0  0
  154.4154  132.9763  161.8512 C   0  0  0  0  0  0  0  0  0  0  0  0
  155.1038  132.2313  157.9403 H   0  0  0  0  0  0  0  0  0  0  0  0
  154.9041  133.6597  156.9139 H   0  0  0  0  0  0  0  0  0  0  0  0
  153.5560  132.5407  157.1454 H   0  0  0  0  0  0  0  0  0  0  0  0
  155.8721  134.3450  159.2176 H   0  0  0  0  0  0  0  0  0  0  0  0
  155.6833  135.5514  161.1547 H   0  0  0  0  0  0  0  0  0  0  0  0
  155.4788  137.6391  160.9384 H   0  0  0  0  0  0  0  0  0  0  0  0
  155.4202  139.8801  161.7494 H   0  0  0  0  0  0  0  0  0  0  0  0
  154.6527  142.2000  161.3397 H   0  0  0  0  0  0  0  0  0  0  0  0
  151.4085  143.2774  161.1274 H   0  0  0  0  0  0  0  0  0  0  0  0
  153.0756  143.6075  161.5490 H   0  0  0  0  0  0  0  0  0  0  0  0
  151.7709  145.7201  161.2526 H   0  0  0  0  0  0  0  0  0  0  0  0
  153.1113  145.6335  160.1263 H   0  0  0  0  0  0  0  0  0  0  0  0
  150.9866  144.8048  157.3337 H   0  0  0  0  0  0  0  0  0  0  0  0
  152.6485  145.0897  157.8134 H   0  0  0  0  0  0  0  0  0  0  0  0
  152.2827  142.6580  157.5289 H   0  0  0  0  0  0  0  0  0  0  0  0
  150.8970  142.6920  158.6118 H   0  0  0  0  0  0  0  0  0  0  0  0
  152.6568  138.5938  158.6748 H   0  0  0  0  0  0  0  0  0  0  0  0
  152.8733  134.4011  161.4758 H   0  0  0  0  0  0  0  0  0  0  0  0
  154.9855  135.1646  163.5496 H   0  0  0  0  0  0  0  0  0  0  0  0
  153.4387  134.4088  163.9154 H   0  0  0  0  0  0  0  0  0  0  0  0
  153.4767  136.0216  163.2409 H   0  0  0  0  0  0  0  0  0  0  0  0
  155.4710  132.9305  162.1212 H   0  0  0  0  0  0  0  0  0  0  0  0
  154.2920  132.4568  160.9006 H   0  0  0  0  0  0  0  0  0  0  0  0
  153.8584  132.4075  162.5963 H   0  0  0  0  0  0  0  0  0  0  0  0
  1  2  1  0  0  0  0
  1 24  1  0  0  0  0
  1 25  1  0  0  0  0
  1 26  1  0  0  0  0
  2  3  2  0  0  0  0
  2  4  1  0  0  0  0
  4  5  1  0  0  0  0
  4 27  1  0  0  0  0
  5  6  1  0  0  0  0
  5 21  1  0  0  0  0
  5 28  1  0  0  0  0
  6  7  2  0  0  0  0
  6  8  1  0  0  0  0
  8  9  1  0  0  0  0
  8 29  1  0  0  0  0
  9 20  1  0  0  0  0
  9 10  2  0  0  0  0
 10 11  1  0  0  0  0
 10 30  1  0  0  0  0
 11 12  2  0  0  0  0
 11 31  1  0  0  0  0
 12 13  1  0  0  0  0
 12 19  1  0  0  0  0
 13 18  1  0  0  0  0
 13 14  1  0  0  0  0
 14 15  1  0  0  0  0
 14 32  1  0  0  0  0
 14 33  1  0  0  0  0
 15 16  1  0  0  0  0
 15 34  1  0  0  0  0
 15 35  1  0  0  0  0
 16 17  1  0  0  0  0
 17 18  1  0  0  0  0
 17 36  1  0  0  0  0
 17 37  1  0  0  0  0
 18 38  1  0  0  0  0
 18 39  1  0  0  0  0
 19 20  2  0  0  0  0
 20 40  1  0  0  0  0
 21 22  1  0  0  0  0
 21 23  1  0  0  0  0
 21 41  1  0  0  0  0
 22 42  1  0  0  0  0
 22 43  1  0  0  0  0
 22 44  1  0  0  0  0
 23 45  1  0  0  0  0
 23 46  1  0  0  0  0
 23 47  1  0  0  0  0
M  END
> <s_m_source_file>
AV-unprocessed.smi

> <i_m_source_file_index>
1963

> <i_lp_mmshare_version>
43012

> <i_f3d_flags>
0

> <s_epik_input>
W0NIM11DKD1PKVtOSF1bQ0BASF0oW0NIXShbQ0gzXSlbQ0gzXSlDKD1PKVtOSF1jMVtjSF1bY0hdYyhuW2NIXTEpTjJbQ0gyXVtDSDJdT1tDSDJdW0NIMl0y

> <s_epik_cmdline>
J2VwaWtfcHl0aG9uJywgJy1waCcsICc3LjAnLCAnLXRuJywgJzgnLCAnLW1hJywgJzIwMCcsICctbWV0YWxfYmluZGluZycsICctaW1hZScsICc8aW5maWxlLm1hZT4nLCAnLW9tYWUnLCAnPG91dGZpbGUubWFlPic=

> <r_lp_tautomer_probability>
1

> <r_epik_Ionization_Penalty>
0.00051446

> <r_epik_Ionization_Penalty_Charging>
0

> <r_epik_Ionization_Penalty_Neutral>
0.00051446

> <r_epik_State_Penalty>
0.00031949

> <r_epik_Charging_Adjusted_Penalty>
0.00031949

> <i_epik_Tot_Q>
0

> <i_epik_Tot_abs_Q>
0

> <r_epik_Metal_State_Penalty>
-0

> <b_epik_Metal_Only>
0

> <s_lp_Force_Field>
OPLS_2005

> <r_lp_Energy>
25.5716

> <b_lp_Chiralities_Consistent>
1

> <s_lp_Variant>
AV-unprocessed.smi:1963-2

> <Gold.Version>
5.8.1

> <Gold.Id.Protein>
6NUR|6NUR_protein|mol2

> <Gold.PLP.Fitness>
41.2077

> <Gold.PLP.PLP>
-37.6183

> <Gold.PLP.part.hbond>
-2.0000

> <Gold.PLP.part.metal>
0.0000

> <Gold.PLP.part.buried>
-5.4950

> <Gold.PLP.part.nonpolar>
-30.3947

> <Gold.PLP.part.repulsive>
0.1591

> <Gold.PLP.ligand.clash>
0.0000

> <Gold.PLP.ligand.torsion>
0.6983

> <Gold.PLP.Chemscore.Hbond>
1.5353

> <Gold.PLP.Chemscore.CHOScore>
0.0000

> <Gold.PLP.Chemscore.Metal>
0.0000

> <Gold.Chemscore.Hbonds>
donor molecule, donor type, donor heavy atom, donor atom, acceptor molecule, acceptor atom, score
      P1  H  6896  6909       L1     7  1.00

> <Gold.PLP.Chemscore.Internal.Correction>
0.3803

> <Gold.Rescore>
     Score         DG    S(hbond)    S(metal)    S(lipo)     H(rot)  DE(clash)    DE(int)     intcor
     15.20     -18.32       1.80        0.00      96.34       1.74       0.00       3.12       ----

> <Gold.Chemscore.Fitness>
15.1990

> <Gold.Chemscore.DG>
-18.3220

> <Gold.Chemscore.ZeroCoef>
-5.4800

> <Gold.Chemscore.Hbond>
1.8031

> <Gold.Chemscore.Metal>
0.0000

> <Gold.Chemscore.Lipo>
96.3446

> <Gold.Chemscore.Internal_Hbond>
0.0000

> <Gold.Chemscore.DEClash>
0.0038

> <Gold.Chemscore.DEInternal>
3.1192

> <Gold.Chemscore.Rot>
1.7394

> <Gold.Chemscore.Internal.Correction>
   9.000000E+99

> <Gold.Chemscore.Hbonds>
donor molecule, donor type, donor heavy atom, donor atom, acceptor molecule, acceptor atom, score
      P1  H  6896  6909       L1     7  0.95

> <Gold.Chemscore.Hbond.Weighted>
-6.0225

> <Gold.Chemscore.Metal.Weighted>
-0.0000

> <Gold.Chemscore.Lipo.Weighted>
-11.2723

> <Gold.Chemscore.Internal_Hbond.Weighted>
0.0000

> <Gold.Chemscore.DEClash.Weighted>
0.0038

> <Gold.Chemscore.DEInternal.Weighted>
3.1192

> <Gold.Chemscore.Rot.Weighted>
4.4528

> <Gold.Chemscore.Internal.Correction.Weighted>
   9.000000E+99

> <Gold.Protein.RotatedTorsions>
[ 6907 6896 6895 6894 ] final  144.85 input  -60.11 | X-H torsion
[ 7974 7965 7964 7962 ] final   73.99 input  175.53 | X-H torsion
[ 8008 7997 7996 7995 ] final -145.58 input   59.86 | X-H torsion
[ 10167 10162 10161 10158 ] final -174.14 input  -65.29 | X-H torsion
[ 10718 10713 10712 10709 ] final   -4.67 input   66.30 | X-H torsion
[ 10763 10752 10751 10750 ] final  100.89 input  -60.55 | X-H torsion
[ 11005 11000 10999 10996 ] final   99.26 input  -57.11 | X-H torsion

> <Gold.Protein.ActiveResidues>
 VAL166  LYS551  ARG553  GLY616  TRP617  ASP618  TYR619  PRO620  LYS621  CYS622 
 ASP623  PHE694  ASN695  SER759  ASP760  ASP761  ALA762  ILE779  LEU786  VAL792 
 PHE793  MET794  SER795  GLU796  ALA797  LYS798  CYS799  TRP800  GLU811  SER814 

> <Gold.Protein.RotatedAtoms>
  152.1884  133.4756  159.4994 H   0  0  0  0  0  0  0  0  0  0  0  0  # atno 6907 bound_to 6896
  150.6947  134.1743  159.4233 H   0  0  0  0  0  0  0  0  0  0  0  0  # atno 6908 bound_to 6896
  151.9657  135.0101  160.0601 H   0  0  0  0  0  0  0  0  0  0  0  0  # atno 6909 bound_to 6896
  145.7339  139.2694  143.1525 H   0  0  0  0  0  0  0  0  0  0  0  0  # atno 7974 bound_to 7965
  155.5454  140.0612  157.2861 H   0  0  0  0  0  0  0  0  0  0  0  0  # atno 8008 bound_to 7997
  154.4438  140.1912  156.0677 H   0  0  0  0  0  0  0  0  0  0  0  0  # atno 8009 bound_to 7997
  156.0554  140.3279  155.7404 H   0  0  0  0  0  0  0  0  0  0  0  0  # atno 8010 bound_to 7997
  139.5650  144.1778  152.1298 H   0  0  0  0  0  0  0  0  0  0  0  0  # atno 10167 bound_to 10162
  156.7579  130.5260  149.5791 H   0  0  0  0  0  0  0  0  0  0  0  0  # atno 10718 bound_to 10713
  153.3197  135.4063  155.1406 H   0  0  0  0  0  0  0  0  0  0  0  0  # atno 10763 bound_to 10752
  154.8597  135.3584  154.5612 H   0  0  0  0  0  0  0  0  0  0  0  0  # atno 10764 bound_to 10752
  153.6045  135.7070  153.5430 H   0  0  0  0  0  0  0  0  0  0  0  0  # atno 10765 bound_to 10752
  139.8771  134.9087  156.4580 H   0  0  0  0  0  0  0  0  0  0  0  0  # atno 11005 bound_to 11000
  146.0512  140.8067  142.9781 LP  0  0  0  0  0  0  0  0  0  0  0  0  # atno 17320 bound_to 7965
  144.6886  140.3055  143.7256 LP  0  0  0  0  0  0  0  0  0  0  0  0  # atno 17321 bound_to 7965
  140.1299  144.5298  150.6809 LP  0  0  0  0  0  0  0  0  0  0  0  0  # atno 17342 bound_to 10162
  140.6933  143.2388  151.5072 LP  0  0  0  0  0  0  0  0  0  0  0  0  # atno 17343 bound_to 10162
  156.1358  130.6210  151.0398 LP  0  0  0  0  0  0  0  0  0  0  0  0  # atno 17370 bound_to 10713
  157.6748  131.0853  150.7523 LP  0  0  0  0  0  0  0  0  0  0  0  0  # atno 17371 bound_to 10713
  140.8884  133.7866  155.9545 LP  0  0  0  0  0  0  0  0  0  0  0  0  # atno 17394 bound_to 11000
  140.8779  134.2647  157.5158 LP  0  0  0  0  0  0  0  0  0  0  0  0  # atno 17395 bound_to 11000

$$$$
