#       Name:                AV-unprocessed.smi:3173
#       Creating user name   scv26
#       Creation time:       Fri Mar 27 17:55:51 2020


#       File generated by GOLD software.
#

@<TRIPOS>MOLECULE
AV-unprocessed.smi:3173
    38    39     1
SMALL
NO_CHARGES


@<TRIPOS>ATOM
      1 ****        -0.6297   1.5228   1.2508 O.2            1 S1                 0.0000
      2 ****        -1.1027   0.3864   1.2783 C.2            1 S1                 0.0000
      3 ****        -2.6209   0.1775   1.2721 C.3            1 S1                 0.0000
      4 ****        -3.3593   1.1090   0.2883 C.3            1 S1                 0.0000
      5 ****        -4.8509   0.8958   0.3080 C.2            1 S1                 0.0000
      6 ****        -5.3618   0.7176  -0.9084 C.2            1 S1                 0.0000
      7 ****        -4.3150   0.7742  -1.9859 C.3            1 S1                 0.0000
      8 ****        -2.9884   0.8928  -1.2039 C.3            1 S1                 0.0000
      9 ****        -0.3476  -0.7225   1.3096 N.am           1 S1                 0.0000
     10 ****         1.1104  -0.7397   1.2908 C.3            1 S1                 0.0000
     11 ****         1.6578  -0.5304  -0.1312 C.3            1 S1                 0.0000
     12 ****         3.1734  -0.5354  -0.1709 C.ar           1 S1                 0.0000
     13 ****         3.9256   0.6592  -0.1914 C.ar           1 S1                 0.0000
     14 ****         5.3338   0.5865  -0.2232 C.ar           1 S1                 0.0000
     15 ****         5.9596  -0.6774  -0.2333 C.ar           1 S1                 0.0000
     16 ****         5.1599  -1.8384  -0.2097 C.ar           1 S1                 0.0000
     17 ****         3.8135  -1.7274  -0.1785 N.pl3          1 S1                 1.0000
     18 ****        -2.8475  -0.8631   1.0334 H              1 S1                 0.0000
     19 ****        -2.9866   0.3478   2.2853 H              1 S1                 0.0000
     20 ****        -3.1877   2.1507   0.5639 H              1 S1                 0.0000
     21 ****        -5.4216   0.9090   1.2249 H              1 S1                 0.0000
     22 ****        -6.4079   0.5637  -1.1288 H              1 S1                 0.0000
     23 ****        -4.3443  -0.1239  -2.6038 H              1 S1                 0.0000
     24 ****        -4.4875   1.6428  -2.6221 H              1 S1                 0.0000
     25 ****        -2.3694   1.7067  -1.5832 H              1 S1                 0.0000
     26 ****        -2.4167  -0.0278  -1.3299 H              1 S1                 0.0000
     27 ****        -0.8175  -1.6161   1.3381 H              1 S1                 0.0000
     28 ****         1.5000   0.0236   1.9668 H              1 S1                 0.0000
     29 ****         1.4439  -1.7009   1.6827 H              1 S1                 0.0000
     30 ****         1.2823  -1.3100  -0.7955 H              1 S1                 0.0000
     31 ****         1.3003   0.4164  -0.5383 H              1 S1                 0.0000
     32 ****         3.4309   1.6198  -0.1813 H              1 S1                 0.0000
     33 ****         5.9265   1.4896  -0.2393 H              1 S1                 0.0000
     34 ****         7.0368  -0.7546  -0.2584 H              1 S1                 0.0000
     35 ****         5.5532  -2.8445  -0.2144 H              1 S1                 0.0000
     36 ****         3.2551  -2.5811  -0.1616 H              1 S1                 0.0000
     37 ****        -1.2372   2.3167   1.2242 LP             1 S1                 0.0000
     38 ****         0.3619   1.6519   1.2551 LP             1 S1                 0.0000
@<TRIPOS>BOND
    1    1    2 2     
    2    2    3 1     
    3    2    9 am    
    4    3    4 1     
    5    3   18 1     
    6    3   19 1     
    7    4    8 1     
    8    4    5 1     
    9    4   20 1     
   10    5    6 2     
   11    5   21 1     
   12    6    7 1     
   13    6   22 1     
   14    7    8 1     
   15    7   23 1     
   16    7   24 1     
   17    8   25 1     
   18    8   26 1     
   19    9   10 1     
   20    9   27 1     
   21   10   11 1     
   22   10   28 1     
   23   10   29 1     
   24   11   12 1     
   25   11   30 1     
   26   11   31 1     
   27   12   17 ar    
   28   12   13 ar    
   29   13   14 ar    
   30   13   32 1     
   31   14   15 ar    
   32   14   33 1     
   33   15   16 ar    
   34   15   34 1     
   35   16   17 ar    
   36   16   35 1     
   37   17   36 1     
   38    1   37 1     
   39    1   38 1     
@<TRIPOS>SUBSTRUCTURE
      1 S1             1
@<TRIPOS>SET
LONE_PAIRS      STATIC     ATOMS    <user>   **** ""
2 37 38
DONOR_HYDROGENS      STATIC     ATOMS    <user>   **** ""
2 27 36
ATOM$BLUE        STATIC     ATOMS    COLORGROUP SYSTEM
2 37 38
ATOM$RED        STATIC     ATOMS    COLORGROUP SYSTEM
2 27 36
