AV-unprocessed.smi:847|AV-procd|sdf|3937|dock2
  -GOLD-   22720 1403D 1   1.00000     0.00000
 Structure written by MMmdl.
 46 47  0  0  0  0  0  0  0  0  1 V2000
  153.7260  132.6922  157.3335 C   0  0  0  0  0  0  0  0  0  0  0  0
  152.5578  132.6140  158.1311 O   0  0  0  0  0  0  0  0  0  0  0  0
  151.3808  132.4577  157.3559 C   0  0  0  0  0  0  0  0  0  0  0  0
  150.7960  133.8390  157.0470 C   0  0  0  0  0  0  0  0  0  0  0  0
  151.7420  134.5787  156.2809 O   0  0  0  0  0  0  0  0  0  0  0  0
  151.4602  135.8955  155.9799 C   0  0  0  0  0  0  0  0  0  0  0  0
  150.1459  136.3648  156.1757 C   0  0  0  0  0  0  0  0  0  0  0  0
  149.8514  137.7069  155.8693 C   0  0  0  0  0  0  0  0  0  0  0  0
  150.8772  138.5365  155.3730 C   0  0  0  0  0  0  0  0  0  0  0  0
  150.5878  139.9935  155.0393 C   0  0  0  0  0  0  0  0  0  0  0  0
  150.6093  140.8875  156.1918 N   0  0  0  0  0  0  0  0  0  0  0  0
  151.6333  141.0121  157.0532 C   0  0  0  0  0  0  0  0  0  0  0  0
  152.6788  140.3724  156.9419 O   0  0  0  0  0  0  0  0  0  0  0  0
  151.4730  141.9938  158.2338 C   0  0  2  0  0  0  0  0  0  0  0  0
  151.0913  143.3781  157.6837 C   0  0  0  0  0  0  0  0  0  0  0  0
  151.6472  144.3687  158.6888 C   0  0  0  0  0  0  0  0  0  0  0  0
  152.8576  143.6682  159.3035 C   0  0  0  0  0  0  0  0  0  0  0  0
  152.6645  142.2336  159.0756 N   0  0  0  0  0  0  0  0  0  0  0  0
  153.4375  141.2804  159.6513 C   0  0  0  0  0  0  0  0  0  0  0  0
  154.6466  141.7183  160.4815 C   0  0  0  0  0  0  0  0  0  0  0  0
  153.2071  140.0762  159.5437 O   0  0  0  0  0  0  0  0  0  0  0  0
  152.1639  137.9744  155.2174 C   0  0  0  0  0  0  0  0  0  0  0  0
  152.4545  136.6888  155.5090 N   0  0  0  0  0  0  0  0  0  0  0  0
  150.6799  141.6307  158.8899 H   0  0  0  0  0  0  0  0  0  0  0  0
  154.6012  132.7964  157.9746 H   0  0  0  0  0  0  0  0  0  0  0  0
  153.6914  133.5559  156.6680 H   0  0  0  0  0  0  0  0  0  0  0  0
  153.8546  131.7911  156.7319 H   0  0  0  0  0  0  0  0  0  0  0  0
  151.6307  131.9528  156.4216 H   0  0  0  0  0  0  0  0  0  0  0  0
  150.6479  131.8394  157.8769 H   0  0  0  0  0  0  0  0  0  0  0  0
  149.8482  133.7352  156.5161 H   0  0  0  0  0  0  0  0  0  0  0  0
  150.6006  134.3620  157.9845 H   0  0  0  0  0  0  0  0  0  0  0  0
  149.3774  135.7070  156.5539 H   0  0  0  0  0  0  0  0  0  0  0  0
  148.8519  138.0902  156.0117 H   0  0  0  0  0  0  0  0  0  0  0  0
  151.2923  140.3498  154.2858 H   0  0  0  0  0  0  0  0  0  0  0  0
  149.5979  140.0497  154.5865 H   0  0  0  0  0  0  0  0  0  0  0  0
  149.7868  141.4517  156.3486 H   0  0  0  0  0  0  0  0  0  0  0  0
  151.5640  143.5626  156.7169 H   0  0  0  0  0  0  0  0  0  0  0  0
  150.0151  143.4889  157.5463 H   0  0  0  0  0  0  0  0  0  0  0  0
  151.8955  145.3328  158.2440 H   0  0  0  0  0  0  0  0  0  0  0  0
  150.9012  144.5452  159.4647 H   0  0  0  0  0  0  0  0  0  0  0  0
  153.7714  143.9882  158.8009 H   0  0  0  0  0  0  0  0  0  0  0  0
  152.9473  143.9132  160.3627 H   0  0  0  0  0  0  0  0  0  0  0  0
  155.2967  142.3777  159.9060 H   0  0  0  0  0  0  0  0  0  0  0  0
  155.2366  140.8530  160.7858 H   0  0  0  0  0  0  0  0  0  0  0  0
  154.3270  142.2388  161.3845 H   0  0  0  0  0  0  0  0  0  0  0  0
  152.9889  138.5678  154.8517 H   0  0  0  0  0  0  0  0  0  0  0  0
  1  2  1  0  0  0  0
  1 25  1  0  0  0  0
  1 26  1  0  0  0  0
  1 27  1  0  0  0  0
  2  3  1  0  0  0  0
  3  4  1  0  0  0  0
  3 28  1  0  0  0  0
  3 29  1  0  0  0  0
  4  5  1  0  0  0  0
  4 30  1  0  0  0  0
  4 31  1  0  0  0  0
  5  6  1  0  0  0  0
  6 23  1  0  0  0  0
  6  7  2  0  0  0  0
  7  8  1  0  0  0  0
  7 32  1  0  0  0  0
  8  9  2  0  0  0  0
  8 33  1  0  0  0  0
  9 10  1  0  0  0  0
  9 22  1  0  0  0  0
 10 11  1  0  0  0  0
 10 34  1  0  0  0  0
 10 35  1  0  0  0  0
 11 12  1  0  0  0  0
 11 36  1  0  0  0  0
 12 13  2  0  0  0  0
 12 14  1  0  0  0  0
 14 24  1  0  0  0  0
 14 18  1  0  0  0  0
 14 15  1  0  0  0  0
 15 16  1  0  0  0  0
 15 37  1  0  0  0  0
 15 38  1  0  0  0  0
 16 17  1  0  0  0  0
 16 39  1  0  0  0  0
 16 40  1  0  0  0  0
 17 18  1  0  0  0  0
 17 41  1  0  0  0  0
 17 42  1  0  0  0  0
 18 19  1  0  0  0  0
 19 20  1  0  0  0  0
 19 21  2  0  0  0  0
 20 43  1  0  0  0  0
 20 44  1  0  0  0  0
 20 45  1  0  0  0  0
 22 23  2  0  0  0  0
 22 46  1  0  0  0  0
M  END
> <s_m_source_file>
AV-unprocessed.smi

> <i_m_source_file_index>
847

> <i_lp_mmshare_version>
43012

> <i_f3d_flags>
0

> <s_epik_input>
W0NIM11PW0NIMl1bQ0gyXU9jMVtjSF1bY0hdYyhbY0hdbjEpW0NIMl1bTkhdQyg9TylbQ0BASF0yW0NIMl1bQ0gyXVtDSDJdTjJDKD1PKVtDSDNd

> <s_epik_cmdline>
J2VwaWtfcHl0aG9uJywgJy1waCcsICc3LjAnLCAnLXRuJywgJzgnLCAnLW1hJywgJzIwMCcsICctbWV0YWxfYmluZGluZycsICctaW1hZScsICc8aW5maWxlLm1hZT4nLCAnLW9tYWUnLCAnPG91dGZpbGUubWFlPic=

> <r_lp_tautomer_probability>
1

> <r_epik_Ionization_Penalty>
6.04138e-05

> <r_epik_Ionization_Penalty_Charging>
0

> <r_epik_Ionization_Penalty_Neutral>
6.04138e-05

> <r_epik_State_Penalty>
-0

> <r_epik_Charging_Adjusted_Penalty>
0

> <i_epik_Tot_Q>
0

> <i_epik_Tot_abs_Q>
0

> <r_epik_Metal_State_Penalty>
-0

> <b_epik_Metal_Only>
0

> <s_lp_Force_Field>
OPLS_2005

> <r_lp_Energy>
14.576

> <b_lp_Chiralities_Consistent>
1

> <s_lp_Variant>
AV-unprocessed.smi:847-1

> <Gold.Version>
5.8.1

> <Gold.Id.Protein>
6NUR|6NUR_protein|mol2

> <Gold.PLP.Fitness>
47.4511

> <Gold.PLP.PLP>
-39.8536

> <Gold.PLP.part.hbond>
-3.0000

> <Gold.PLP.part.metal>
0.0000

> <Gold.PLP.part.buried>
-2.4112

> <Gold.PLP.part.nonpolar>
-34.3824

> <Gold.PLP.part.repulsive>
0.2355

> <Gold.PLP.ligand.clash>
0.0065

> <Gold.PLP.ligand.torsion>
0.8010

> <Gold.PLP.Chemscore.Hbond>
3.0000

> <Gold.PLP.Chemscore.CHOScore>
0.0000

> <Gold.PLP.Chemscore.Metal>
0.0000

> <Gold.Chemscore.Hbonds>
donor molecule, donor type, donor heavy atom, donor atom, acceptor molecule, acceptor atom, score
      P1  H  7997  8008       L1    13  0.94
      P1  H 10752 10763       L1    23  0.30

> <Gold.PLP.Chemscore.Internal.Correction>
0.2061

> <Gold.Rescore>
     Score         DG    S(hbond)    S(metal)    S(lipo)     H(rot)  DE(clash)    DE(int)     intcor
     13.36     -18.94       2.76        0.00      86.77       2.31       0.19       5.39       ----

> <Gold.Chemscore.Fitness>
13.3584

> <Gold.Chemscore.DG>
-18.9359

> <Gold.Chemscore.ZeroCoef>
-5.4800

> <Gold.Chemscore.Hbond>
2.7568

> <Gold.Chemscore.Metal>
0.0000

> <Gold.Chemscore.Lipo>
86.7694

> <Gold.Chemscore.Internal_Hbond>
0.0000

> <Gold.Chemscore.DEClash>
0.1917

> <Gold.Chemscore.DEInternal>
5.3858

> <Gold.Chemscore.Rot>
2.3062

> <Gold.Chemscore.Internal.Correction>
   9.000000E+99

> <Gold.Chemscore.Hbonds>
donor molecule, donor type, donor heavy atom, donor atom, acceptor molecule, acceptor atom, score
      P1  H  7997  8008       L1    13  0.91
      P1  H 10752 10763       L1    23  0.01

> <Gold.Chemscore.Hbond.Weighted>
-9.2077

> <Gold.Chemscore.Metal.Weighted>
-0.0000

> <Gold.Chemscore.Lipo.Weighted>
-10.1520

> <Gold.Chemscore.Internal_Hbond.Weighted>
0.0000

> <Gold.Chemscore.DEClash.Weighted>
0.1917

> <Gold.Chemscore.DEInternal.Weighted>
5.3858

> <Gold.Chemscore.Rot.Weighted>
5.9038

> <Gold.Chemscore.Internal.Correction.Weighted>
   9.000000E+99

> <Gold.Protein.RotatedTorsions>
[ 6907 6896 6895 6894 ] final   90.51 input  -60.11 | X-H torsion
[ 7974 7965 7964 7962 ] final  122.90 input  175.53 | X-H torsion
[ 8008 7997 7996 7995 ] final  -52.09 input   59.86 | X-H torsion
[ 10167 10162 10161 10158 ] final -109.84 input  -65.29 | X-H torsion
[ 10718 10713 10712 10709 ] final   12.69 input   66.30 | X-H torsion
[ 10763 10752 10751 10750 ] final   81.60 input  -60.55 | X-H torsion
[ 11005 11000 10999 10996 ] final  -36.84 input  -57.11 | X-H torsion

> <Gold.Protein.ActiveResidues>
 VAL166  LYS551  ARG553  GLY616  TRP617  ASP618  TYR619  PRO620  LYS621  CYS622 
 ASP623  PHE694  ASN695  SER759  ASP760  ASP761  ALA762  ILE779  LEU786  VAL792 
 PHE793  MET794  SER795  GLU796  ALA797  LYS798  CYS799  TRP800  GLU811  SER814 

> <Gold.Protein.RotatedAtoms>
  152.5445  134.1800  159.8631 H   0  0  0  0  0  0  0  0  0  0  0  0  # atno 6907 bound_to 6896
  151.1803  133.4722  159.2601 H   0  0  0  0  0  0  0  0  0  0  0  0  # atno 6908 bound_to 6896
  151.1185  135.0077  159.8582 H   0  0  0  0  0  0  0  0  0  0  0  0  # atno 6909 bound_to 6896
  145.1022  139.3511  143.4806 H   0  0  0  0  0  0  0  0  0  0  0  0  # atno 7974 bound_to 7965
  154.4098  140.1232  156.4935 H   0  0  0  0  0  0  0  0  0  0  0  0  # atno 8008 bound_to 7997
  155.6966  140.3495  155.4896 H   0  0  0  0  0  0  0  0  0  0  0  0  # atno 8009 bound_to 7997
  155.9422  140.1089  157.1036 H   0  0  0  0  0  0  0  0  0  0  0  0  # atno 8010 bound_to 7997
  140.1509  143.4200  152.1495 H   0  0  0  0  0  0  0  0  0  0  0  0  # atno 10167 bound_to 10162
  157.0139  130.6128  149.5711 H   0  0  0  0  0  0  0  0  0  0  0  0  # atno 10718 bound_to 10713
  153.1131  135.4759  154.9069 H   0  0  0  0  0  0  0  0  0  0  0  0  # atno 10763 bound_to 10752
  154.7501  135.3104  154.8576 H   0  0  0  0  0  0  0  0  0  0  0  0  # atno 10764 bound_to 10752
  153.9160  135.6860  153.4803 H   0  0  0  0  0  0  0  0  0  0  0  0  # atno 10765 bound_to 10752
  140.9906  133.7007  156.1843 H   0  0  0  0  0  0  0  0  0  0  0  0  # atno 11005 bound_to 11000
  146.3529  140.0904  142.8613 LP  0  0  0  0  0  0  0  0  0  0  0  0  # atno 17320 bound_to 7965
  145.0943  140.9305  143.4750 LP  0  0  0  0  0  0  0  0  0  0  0  0  # atno 17321 bound_to 7965
  139.5426  144.7270  151.4684 LP  0  0  0  0  0  0  0  0  0  0  0  0  # atno 17342 bound_to 10162
  140.6703  143.8308  150.6991 LP  0  0  0  0  0  0  0  0  0  0  0  0  # atno 17343 bound_to 10162
  156.0126  130.5219  150.8037 LP  0  0  0  0  0  0  0  0  0  0  0  0  # atno 17370 bound_to 10713
  157.5300  131.0936  150.9967 LP  0  0  0  0  0  0  0  0  0  0  0  0  # atno 17371 bound_to 10713
  140.7046  134.4527  157.5584 LP  0  0  0  0  0  0  0  0  0  0  0  0  # atno 17394 bound_to 11000
  139.8990  134.8600  156.1976 LP  0  0  0  0  0  0  0  0  0  0  0  0  # atno 17395 bound_to 11000

$$$$
