#       Name:                AV-unprocessed.smi:1947
#       Creating user name   scv26
#       Creation time:       Fri Mar 27 10:02:32 2020


#       File generated by GOLD software.
#

@<TRIPOS>MOLECULE
AV-unprocessed.smi:1947
    45    46     1
SMALL
NO_CHARGES


@<TRIPOS>ATOM
      1 ****        -1.3808   0.2337   1.1675 C.3            1 S1                 0.0000
      2 ****        -1.8122   0.8234  -0.1863 C.3            1 S1                 0.0000
      3 ****        -2.5083   2.1856   0.0078 C.3            1 S1                 0.0000
      4 ****        -2.9340   2.8050  -1.3324 C.3            1 S1                 0.0000
      5 ****        -1.7360   2.9428  -2.2825 C.3            1 S1                 0.0000
      6 ****        -1.0438   1.5884  -2.4949 C.3            1 S1                 0.0000
      7 ****        -0.6165   0.9562  -1.1552 C.3            1 S1                 0.0000
      8 ****        -0.1083  -0.3497  -1.3911 O.3            1 S1                 0.0000
      9 ****         1.2717  -0.3969  -1.7216 C.3            1 S1                 0.0000
     10 ****         1.7282  -1.8641  -1.7197 C.3            1 S1                 0.0000
     11 ****         1.4710  -2.5080  -0.4346 N.am           1 S1                 0.0000
     12 ****         2.1324  -2.2818   0.7090 C.2            1 S1                 0.0000
     13 ****         3.0895  -1.5044   0.7241 O.2            1 S1                 0.0000
     14 ****         1.6360  -2.9617   1.7673 N.pl3          1 S1                -1.0000
     15 ****         2.1600  -2.7748   2.9897 C.2            1 S1                 0.0000
     16 ****         3.0581  -3.6170   3.5250 N.2            1 S1                 0.0000
     17 ****         3.4672  -3.2412   4.7974 N.2            1 S1                 0.0000
     18 ****         2.8577  -2.1242   5.1936 C.2            1 S1                 0.0000
     19 ****         1.7258  -1.4321   4.0511 S.3            1 S1                 0.0000
     20 ****        -0.6428   0.8676   1.6599 H              1 S1                 0.0000
     21 ****        -0.9376  -0.7557   1.0490 H              1 S1                 0.0000
     22 ****        -2.2323   0.1300   1.8400 H              1 S1                 0.0000
     23 ****        -2.5350   0.1382  -0.6317 H              1 S1                 0.0000
     24 ****        -3.3829   2.0692   0.6483 H              1 S1                 0.0000
     25 ****        -1.8368   2.8717   0.5258 H              1 S1                 0.0000
     26 ****        -3.7005   2.1830  -1.7963 H              1 S1                 0.0000
     27 ****        -3.3882   3.7816  -1.1629 H              1 S1                 0.0000
     28 ****        -2.0651   3.3466  -3.2403 H              1 S1                 0.0000
     29 ****        -1.0226   3.6587  -1.8725 H              1 S1                 0.0000
     30 ****        -1.7223   0.9128  -3.0176 H              1 S1                 0.0000
     31 ****        -0.1792   1.7210  -3.1451 H              1 S1                 0.0000
     32 ****         0.1389   1.5841  -0.6789 H              1 S1                 0.0000
     33 ****         1.4398   0.0471  -2.7030 H              1 S1                 0.0000
     34 ****         1.8593   0.1755  -1.0026 H              1 S1                 0.0000
     35 ****         1.1926  -2.4185  -2.4904 H              1 S1                 0.0000
     36 ****         2.7890  -1.9335  -1.9644 H              1 S1                 0.0000
     37 ****         0.6954  -3.1530  -0.3983 H              1 S1                 0.0000
     38 ****         3.0730  -1.7073   6.1659 H              1 S1                 0.0000
     39 ****        -0.6239  -0.7530  -2.1470 LP             1 S1                 0.0000
     40 ****        -0.2495  -0.8933  -0.5637 LP             1 S1                 0.0000
     41 ****         3.3721  -1.0428  -0.1168 LP             1 S1                 0.0000
     42 ****         3.5831  -1.3355   1.5773 LP             1 S1                 0.0000
     43 ****         0.8794  -3.6030   1.6399 LP             1 S1                 0.0000
     44 ****         3.3977  -4.4318   3.0552 LP             1 S1                 0.0000
     45 ****         4.1342  -3.7445   5.3467 LP             1 S1                 0.0000
@<TRIPOS>BOND
    1    1    2 1     
    2    1   20 1     
    3    1   21 1     
    4    1   22 1     
    5    2    7 1     
    6    2    3 1     
    7    2   23 1     
    8    3    4 1     
    9    3   24 1     
   10    3   25 1     
   11    4    5 1     
   12    4   26 1     
   13    4   27 1     
   14    5    6 1     
   15    5   28 1     
   16    5   29 1     
   17    6    7 1     
   18    6   30 1     
   19    6   31 1     
   20    7    8 1     
   21    7   32 1     
   22    8    9 1     
   23    9   10 1     
   24    9   33 1     
   25    9   34 1     
   26   10   11 1     
   27   10   35 1     
   28   10   36 1     
   29   11   12 am    
   30   11   37 1     
   31   12   13 2     
   32   12   14 1     
   33   14   15 1     
   34   15   19 1     
   35   15   16 2     
   36   16   17 1     
   37   17   18 2     
   38   18   19 1     
   39   18   38 1     
   40    8   39 1     
   41    8   40 1     
   42   13   41 1     
   43   13   42 1     
   44   14   43 1     
   45   16   44 1     
   46   17   45 1     
@<TRIPOS>SUBSTRUCTURE
      1 S1             1
@<TRIPOS>SET
LONE_PAIRS      STATIC     ATOMS    <user>   **** ""
7 39 40 41 42 43 44 45
DONOR_HYDROGENS      STATIC     ATOMS    <user>   **** ""
1 37
ATOM$BLUE        STATIC     ATOMS    COLORGROUP SYSTEM
7 39 40 41 42 43 44 45
ATOM$RED        STATIC     ATOMS    COLORGROUP SYSTEM
1 37
