AV-unprocessed.smi:2162|AV-procd|sdf|8802|dock9
  -GOLD-   2272011583D 1   1.00000     0.00000
 Structure written by MMmdl.
 41 42  0  0  0  0  0  0  0  0  1 V2000
  145.8755  129.6765  152.9967 C   0  0  0  0  0  0  0  0  0  0  0  0
  146.5280  131.0163  152.9918 C   0  0  0  0  0  0  0  0  0  0  0  0
  147.6021  131.3190  153.7256 N   0  0  0  0  0  0  0  0  0  0  0  0
  148.0241  132.6395  153.5425 C   0  0  0  0  0  0  0  0  0  0  0  0
  149.2268  133.1522  154.2809 C   0  0  0  0  0  0  0  0  0  0  0  0
  148.9486  134.4286  155.0940 C   0  0  0  0  0  0  0  0  0  0  0  0
  149.7160  135.5631  154.5898 N   0  0  0  0  0  0  0  0  0  0  0  0
  150.5784  136.3006  155.3033 C   0  0  0  0  0  0  0  0  0  0  0  0
  150.8237  136.0962  156.4926 O   0  0  0  0  0  0  0  0  0  0  0  0
  151.2694  137.4527  154.5564 C   0  0  2  0  0  0  0  0  0  0  0  0
  152.4683  138.0048  155.3494 C   0  0  0  0  0  0  0  0  0  0  0  0
  152.0062  139.3803  155.8008 C   0  0  0  0  0  0  0  0  0  0  0  0
  152.6595  140.0757  156.5774 O   0  0  0  0  0  0  0  0  0  0  0  0
  150.8195  139.6953  155.2650 N   0  0  0  0  0  0  0  0  0  0  0  0
  150.0566  140.9198  155.5432 C   0  0  0  0  0  0  0  0  0  0  0  0
  149.6979  140.9920  157.0361 C   0  0  0  0  0  0  0  0  0  0  0  0
  148.8122  141.0622  154.6480 C   0  0  0  0  0  0  0  0  0  0  0  0
  150.3357  138.6640  154.3555 C   0  0  0  0  0  0  0  0  0  0  0  0
  147.2451  133.3381  152.6539 C   0  0  0  0  0  0  0  0  0  0  0  0
  145.9554  132.3598  152.0111 S   0  0  0  0  0  0  0  0  0  0  0  0
  146.3754  129.0071  153.6979 H   0  0  0  0  0  0  0  0  0  0  0  0
  145.9212  129.2368  152.0004 H   0  0  0  0  0  0  0  0  0  0  0  0
  144.8300  129.7727  153.2902 H   0  0  0  0  0  0  0  0  0  0  0  0
  149.5980  132.3796  154.9554 H   0  0  0  0  0  0  0  0  0  0  0  0
  150.0403  133.3441  153.5802 H   0  0  0  0  0  0  0  0  0  0  0  0
  147.8773  134.6356  155.0863 H   0  0  0  0  0  0  0  0  0  0  0  0
  149.2304  134.2708  156.1357 H   0  0  0  0  0  0  0  0  0  0  0  0
  149.5824  135.8016  153.6176 H   0  0  0  0  0  0  0  0  0  0  0  0
  151.6083  137.0912  153.5836 H   0  0  0  0  0  0  0  0  0  0  0  0
  152.7471  137.3922  156.2085 H   0  0  0  0  0  0  0  0  0  0  0  0
  153.3465  138.1092  154.7116 H   0  0  0  0  0  0  0  0  0  0  0  0
  150.6995  141.7723  155.3172 H   0  0  0  0  0  0  0  0  0  0  0  0
  149.1646  141.9144  157.2670 H   0  0  0  0  0  0  0  0  0  0  0  0
  150.5918  140.9658  157.6601 H   0  0  0  0  0  0  0  0  0  0  0  0
  149.0620  140.1566  157.3311 H   0  0  0  0  0  0  0  0  0  0  0  0
  148.3215  142.0206  154.8191 H   0  0  0  0  0  0  0  0  0  0  0  0
  148.0765  140.2819  154.8450 H   0  0  0  0  0  0  0  0  0  0  0  0
  149.0786  141.0171  153.5917 H   0  0  0  0  0  0  0  0  0  0  0  0
  150.3997  139.0234  153.3277 H   0  0  0  0  0  0  0  0  0  0  0  0
  149.2895  138.4289  154.5594 H   0  0  0  0  0  0  0  0  0  0  0  0
  147.3543  134.3646  152.3366 H   0  0  0  0  0  0  0  0  0  0  0  0
  1  2  1  0  0  0  0
  1 21  1  0  0  0  0
  1 22  1  0  0  0  0
  1 23  1  0  0  0  0
  2 20  1  0  0  0  0
  2  3  2  0  0  0  0
  3  4  1  0  0  0  0
  4  5  1  0  0  0  0
  4 19  2  0  0  0  0
  5  6  1  0  0  0  0
  5 24  1  0  0  0  0
  5 25  1  0  0  0  0
  6  7  1  0  0  0  0
  6 26  1  0  0  0  0
  6 27  1  0  0  0  0
  7  8  1  0  0  0  0
  7 28  1  0  0  0  0
  8  9  2  0  0  0  0
  8 10  1  0  0  0  0
 10 18  1  0  0  0  0
 10 11  1  0  0  0  0
 10 29  1  0  0  0  0
 11 12  1  0  0  0  0
 11 30  1  0  0  0  0
 11 31  1  0  0  0  0
 12 13  2  0  0  0  0
 12 14  1  0  0  0  0
 14 15  1  0  0  0  0
 14 18  1  0  0  0  0
 15 16  1  0  0  0  0
 15 17  1  0  0  0  0
 15 32  1  0  0  0  0
 16 33  1  0  0  0  0
 16 34  1  0  0  0  0
 16 35  1  0  0  0  0
 17 36  1  0  0  0  0
 17 37  1  0  0  0  0
 17 38  1  0  0  0  0
 18 39  1  0  0  0  0
 18 40  1  0  0  0  0
 19 20  1  0  0  0  0
 19 41  1  0  0  0  0
M  END
> <s_m_source_file>
AV-unprocessed.smi

> <i_m_source_file_index>
2162

> <i_lp_mmshare_version>
43012

> <i_f3d_flags>
0

> <s_epik_input>
W0NIM11jMW5jKFtjSF1zMSlbQ0gyXVtDSDJdW05IXUMoPU8pW0NAQEhdMltDSDJdQyg9TylOKFtDSDJdMilbQ0hdKFtDSDNdKVtDSDNd

> <s_epik_cmdline>
J2VwaWtfcHl0aG9uJywgJy1waCcsICc3LjAnLCAnLXRuJywgJzgnLCAnLW1hJywgJzIwMCcsICctbWV0YWxfYmluZGluZycsICctaW1hZScsICc8aW5maWxlLm1hZT4nLCAnLW9tYWUnLCAnPG91dGZpbGUubWFlPic=

> <r_epik_Ionization_Penalty>
0.000973993

> <r_epik_Ionization_Penalty_Charging>
0

> <r_epik_Ionization_Penalty_Neutral>
0.000973993

> <r_epik_State_Penalty>
0.000633765

> <r_epik_Charging_Adjusted_Penalty>
0.000633765

> <i_epik_Tot_Q>
0

> <i_epik_Tot_abs_Q>
0

> <r_epik_Metal_State_Penalty>
-0

> <b_epik_Metal_Only>
0

> <s_lp_Force_Field>
OPLS_2005

> <r_lp_Energy>
15.0968

> <b_lp_Chiralities_Consistent>
1

> <s_lp_Variant>
AV-unprocessed.smi:2162-1

> <Gold.Version>
5.8.1

> <Gold.Id.Protein>
6NUR|6NUR_protein|mol2

> <Gold.PLP.Fitness>
47.5554

> <Gold.PLP.PLP>
-40.9108

> <Gold.PLP.part.hbond>
-2.3963

> <Gold.PLP.part.metal>
0.0000

> <Gold.PLP.part.buried>
-0.2387

> <Gold.PLP.part.nonpolar>
-37.6723

> <Gold.PLP.part.repulsive>
0.1462

> <Gold.PLP.ligand.clash>
0.0000

> <Gold.PLP.ligand.torsion>
0.8327

> <Gold.PLP.Chemscore.Hbond>
1.7500

> <Gold.PLP.Chemscore.CHOScore>
1.0000

> <Gold.PLP.Chemscore.Metal>
0.0000

> <Gold.Chemscore.Hbonds>
donor molecule, donor type, donor heavy atom, donor atom, acceptor molecule, acceptor atom, score
      L1  H     7    28       P1  7948  1.00
      P1  H  7997  8008       L1    13  1.00
      L1  C    19    41       P1  7948  1.00

> <Gold.PLP.Chemscore.Internal.Correction>
0.0600

> <Gold.Rescore>
     Score         DG    S(hbond)    S(metal)    S(lipo)     H(rot)  DE(clash)    DE(int)     intcor
     13.50     -14.61       1.15        0.00      81.42       1.66       0.02       1.09       ----

> <Gold.Chemscore.Fitness>
13.4981

> <Gold.Chemscore.DG>
-14.6054

> <Gold.Chemscore.ZeroCoef>
-5.4800

> <Gold.Chemscore.Hbond>
1.1510

> <Gold.Chemscore.Metal>
0.0000

> <Gold.Chemscore.Lipo>
81.4238

> <Gold.Chemscore.Internal_Hbond>
0.0000

> <Gold.Chemscore.DEClash>
0.0214

> <Gold.Chemscore.DEInternal>
1.0860

> <Gold.Chemscore.Rot>
1.6585

> <Gold.Chemscore.Internal.Correction>
   9.000000E+99

> <Gold.Chemscore.Hbonds>
donor molecule, donor type, donor heavy atom, donor atom, acceptor molecule, acceptor atom, score
      L1  H     7    28       P1  7948  0.26
      P1  H  7997  8008       L1    13  0.93

> <Gold.Chemscore.Hbond.Weighted>
-3.8445

> <Gold.Chemscore.Metal.Weighted>
-0.0000

> <Gold.Chemscore.Lipo.Weighted>
-9.5266

> <Gold.Chemscore.Internal_Hbond.Weighted>
0.0000

> <Gold.Chemscore.DEClash.Weighted>
0.0214

> <Gold.Chemscore.DEInternal.Weighted>
1.0860

> <Gold.Chemscore.Rot.Weighted>
4.2457

> <Gold.Chemscore.Internal.Correction.Weighted>
   9.000000E+99

> <Gold.Protein.RotatedTorsions>
[ 6907 6896 6895 6894 ] final -120.00 input  -60.11 | X-H torsion
[ 7974 7965 7964 7962 ] final -146.82 input  175.53 | X-H torsion
[ 8008 7997 7996 7995 ] final  -40.12 input   59.86 | X-H torsion
[ 10167 10162 10161 10158 ] final -119.81 input  -65.29 | X-H torsion
[ 10718 10713 10712 10709 ] final  -31.84 input   66.30 | X-H torsion
[ 10763 10752 10751 10750 ] final   61.18 input  -60.55 | X-H torsion
[ 11005 11000 10999 10996 ] final  -62.45 input  -57.11 | X-H torsion

> <Gold.Protein.ActiveResidues>
 VAL166  LYS551  ARG553  GLY616  TRP617  ASP618  TYR619  PRO620  LYS621  CYS622 
 ASP623  PHE694  ASN695  SER759  ASP760  ASP761  ALA762  ILE779  LEU786  VAL792 
 PHE793  MET794  SER795  GLU796  ALA797  LYS798  CYS799  TRP800  GLU811  SER814 

> <Gold.Protein.RotatedAtoms>
  150.8355  133.8021  159.3081 H   0  0  0  0  0  0  0  0  0  0  0  0  # atno 6907 bound_to 6896
  151.5738  135.1060  160.0011 H   0  0  0  0  0  0  0  0  0  0  0  0  # atno 6908 bound_to 6896
  152.4428  133.7437  159.6712 H   0  0  0  0  0  0  0  0  0  0  0  0  # atno 6909 bound_to 6896
  144.8134  140.5406  143.5627 H   0  0  0  0  0  0  0  0  0  0  0  0  # atno 7974 bound_to 7965
  154.4015  140.1534  156.2975 H   0  0  0  0  0  0  0  0  0  0  0  0  # atno 8008 bound_to 7997
  155.8731  140.3448  155.5813 H   0  0  0  0  0  0  0  0  0  0  0  0  # atno 8009 bound_to 7997
  155.7752  140.0836  157.2078 H   0  0  0  0  0  0  0  0  0  0  0  0  # atno 8010 bound_to 7997
  140.0426  143.5138  152.2122 H   0  0  0  0  0  0  0  0  0  0  0  0  # atno 10167 bound_to 10162
  156.3823  130.4358  149.7459 H   0  0  0  0  0  0  0  0  0  0  0  0  # atno 10718 bound_to 10713
  152.9943  135.5510  154.5992 H   0  0  0  0  0  0  0  0  0  0  0  0  # atno 10763 bound_to 10752
  154.5337  135.2815  155.1159 H   0  0  0  0  0  0  0  0  0  0  0  0  # atno 10764 bound_to 10752
  154.2464  135.6407  153.5277 H   0  0  0  0  0  0  0  0  0  0  0  0  # atno 10765 bound_to 10752
  141.1360  133.6640  156.5530 H   0  0  0  0  0  0  0  0  0  0  0  0  # atno 11005 bound_to 11000
  145.5271  139.1476  143.3520 LP  0  0  0  0  0  0  0  0  0  0  0  0  # atno 17320 bound_to 7965
  146.2435  140.5412  142.8924 LP  0  0  0  0  0  0  0  0  0  0  0  0  # atno 17321 bound_to 7965
  139.6004  144.7580  151.3186 LP  0  0  0  0  0  0  0  0  0  0  0  0  # atno 17342 bound_to 10162
  140.7253  143.7021  150.7836 LP  0  0  0  0  0  0  0  0  0  0  0  0  # atno 17343 bound_to 10162
  156.4545  130.7922  151.2943 LP  0  0  0  0  0  0  0  0  0  0  0  0  # atno 17370 bound_to 10713
  157.7493  131.0085  150.3231 LP  0  0  0  0  0  0  0  0  0  0  0  0  # atno 17371 bound_to 10713
  140.4049  134.7324  157.4801 LP  0  0  0  0  0  0  0  0  0  0  0  0  # atno 17394 bound_to 11000
  140.0469  134.6186  155.8909 LP  0  0  0  0  0  0  0  0  0  0  0  0  # atno 17395 bound_to 11000

$$$$
