AV-unprocessed.smi:2712|AV-procd|sdf|10474|dock2
  -GOLD-   2272014513D 1   1.00000     0.00000
 Structure written by MMmdl.
 52 53  0  0  0  0  0  0  0  0  1 V2000
  148.6885  132.1792  153.4619 C   0  0  0  0  0  0  0  0  0  0  0  0
  149.4034  133.0041  154.4909 C   0  0  0  0  0  0  0  0  0  0  0  0
  150.3551  132.4416  155.4297 C   0  0  0  0  0  0  0  0  0  0  0  0
  150.9572  133.2511  156.3270 C   0  0  0  0  0  0  0  0  0  0  0  0
  150.6782  134.6845  156.3765 C   0  0  0  0  0  0  0  0  0  0  0  0
  151.2211  135.4506  157.1720 O   0  0  0  0  0  0  0  0  0  0  0  0
  149.7676  135.0999  155.4460 N   0  0  0  0  0  0  0  0  0  0  0  0
  149.3843  136.5170  155.3312 C   0  0  0  0  0  0  0  0  0  0  0  0
  150.5564  137.5113  155.4117 C   0  0  0  0  0  0  0  0  0  0  0  0
  151.6986  137.1109  155.1905 O   0  0  0  0  0  0  0  0  0  0  0  0
  150.2778  138.7898  155.7181 N   0  0  0  0  0  0  0  0  0  0  0  0
  151.2376  139.8858  155.8078 C   0  0  2  0  0  0  0  0  0  0  0  0
  152.3392  139.5169  156.8189 C   0  0  0  0  0  0  0  0  0  0  0  0
  151.9875  139.8065  158.2858 C   0  0  0  0  0  0  0  0  0  0  0  0
  152.3750  141.2289  158.7316 C   0  0  0  0  0  0  0  0  0  0  0  0
  151.4866  142.3860  158.1949 C   0  0  1  0  0  0  0  0  0  0  0  0
  151.9045  143.7990  158.7482 C   0  0  0  0  0  0  0  0  0  0  0  0
  152.3287  143.7326  160.2317 C   0  0  0  0  0  0  0  0  0  0  0  0
  150.7466  144.8161  158.6222 C   0  0  0  0  0  0  0  0  0  0  0  0
  153.0782  144.3805  157.9240 C   0  0  0  0  0  0  0  0  0  0  0  0
  151.3682  142.3493  156.6434 C   0  0  0  0  0  0  0  0  0  0  0  0
  150.4909  141.2010  156.1156 C   0  0  0  0  0  0  0  0  0  0  0  0
  149.1457  134.2702  154.5274 N   0  0  0  0  0  0  0  0  0  0  0  0
  149.0333  131.1450  153.4757 H   0  0  0  0  0  0  0  0  0  0  0  0
  148.8584  132.5738  152.4596 H   0  0  0  0  0  0  0  0  0  0  0  0
  147.6140  132.1757  153.6466 H   0  0  0  0  0  0  0  0  0  0  0  0
  150.5734  131.3842  155.4056 H   0  0  0  0  0  0  0  0  0  0  0  0
  151.6650  132.8305  157.0264 H   0  0  0  0  0  0  0  0  0  0  0  0
  148.8686  136.6839  154.3838 H   0  0  0  0  0  0  0  0  0  0  0  0
  148.6564  136.7742  156.1029 H   0  0  0  0  0  0  0  0  0  0  0  0
  149.3107  139.0260  155.8869 H   0  0  0  0  0  0  0  0  0  0  0  0
  151.7281  139.9863  154.8378 H   0  0  0  0  0  0  0  0  0  0  0  0
  152.5788  138.4580  156.7099 H   0  0  0  0  0  0  0  0  0  0  0  0
  153.2617  140.0382  156.5604 H   0  0  0  0  0  0  0  0  0  0  0  0
  150.9359  139.6010  158.4903 H   0  0  0  0  0  0  0  0  0  0  0  0
  152.5484  139.1061  158.9054 H   0  0  0  0  0  0  0  0  0  0  0  0
  152.3282  141.2158  159.8193 H   0  0  0  0  0  0  0  0  0  0  0  0
  153.4208  141.4081  158.4826 H   0  0  0  0  0  0  0  0  0  0  0  0
  150.4877  142.2005  158.5924 H   0  0  0  0  0  0  0  0  0  0  0  0
  152.5969  144.7208  160.6071 H   0  0  0  0  0  0  0  0  0  0  0  0
  153.1983  143.0921  160.3791 H   0  0  0  0  0  0  0  0  0  0  0  0
  151.5288  143.3554  160.8683 H   0  0  0  0  0  0  0  0  0  0  0  0
  149.9269  144.5938  159.3051 H   0  0  0  0  0  0  0  0  0  0  0  0
  150.3445  144.8396  157.6085 H   0  0  0  0  0  0  0  0  0  0  0  0
  151.0761  145.8270  158.8646 H   0  0  0  0  0  0  0  0  0  0  0  0
  153.2926  145.4103  158.2124 H   0  0  0  0  0  0  0  0  0  0  0  0
  152.8514  144.3869  156.8574 H   0  0  0  0  0  0  0  0  0  0  0  0
  154.0079  143.8311  158.0623 H   0  0  0  0  0  0  0  0  0  0  0  0
  150.9032  143.2648  156.2871 H   0  0  0  0  0  0  0  0  0  0  0  0
  152.3517  142.3276  156.1730 H   0  0  0  0  0  0  0  0  0  0  0  0
  150.0069  141.5302  155.1951 H   0  0  0  0  0  0  0  0  0  0  0  0
  149.6723  141.0203  156.8138 H   0  0  0  0  0  0  0  0  0  0  0  0
  1  2  1  0  0  0  0
  1 24  1  0  0  0  0
  1 25  1  0  0  0  0
  1 26  1  0  0  0  0
  2 23  2  0  0  0  0
  2  3  1  0  0  0  0
  3  4  2  0  0  0  0
  3 27  1  0  0  0  0
  4  5  1  0  0  0  0
  4 28  1  0  0  0  0
  5  6  2  0  0  0  0
  5  7  1  0  0  0  0
  7  8  1  0  0  0  0
  7 23  1  0  0  0  0
  8  9  1  0  0  0  0
  8 29  1  0  0  0  0
  8 30  1  0  0  0  0
  9 10  2  0  0  0  0
  9 11  1  0  0  0  0
 11 12  1  0  0  0  0
 11 31  1  0  0  0  0
 12 22  1  0  0  0  0
 12 13  1  0  0  0  0
 12 32  1  0  0  0  0
 13 14  1  0  0  0  0
 13 33  1  0  0  0  0
 13 34  1  0  0  0  0
 14 15  1  0  0  0  0
 14 35  1  0  0  0  0
 14 36  1  0  0  0  0
 15 16  1  0  0  0  0
 15 37  1  0  0  0  0
 15 38  1  0  0  0  0
 16 17  1  0  0  0  0
 16 21  1  0  0  0  0
 16 39  1  0  0  0  0
 17 18  1  0  0  0  0
 17 19  1  0  0  0  0
 17 20  1  0  0  0  0
 18 40  1  0  0  0  0
 18 41  1  0  0  0  0
 18 42  1  0  0  0  0
 19 43  1  0  0  0  0
 19 44  1  0  0  0  0
 19 45  1  0  0  0  0
 20 46  1  0  0  0  0
 20 47  1  0  0  0  0
 20 48  1  0  0  0  0
 21 22  1  0  0  0  0
 21 49  1  0  0  0  0
 21 50  1  0  0  0  0
 22 51  1  0  0  0  0
 22 52  1  0  0  0  0
M  END
> <s_m_source_file>
AV-unprocessed.smi

> <i_m_source_file_index>
2712

> <i_lp_mmshare_version>
43012

> <i_f3d_flags>
0

> <s_epik_input>
W0NIM11jMVtjSF1bY0hdYyg9TyluKG4xKVtDSDJdQyg9TylbTkhdW0NAQEhdMltDSDJdW0NIMl1bQ0gyXVtDQEBIXShDKFtDSDNdKShbQ0gzXSlbQ0gzXSlbQ0gyXVtDSDJdMg==

> <s_epik_cmdline>
J2VwaWtfcHl0aG9uJywgJy1waCcsICc3LjAnLCAnLXRuJywgJzgnLCAnLW1hJywgJzIwMCcsICctbWV0YWxfYmluZGluZycsICctaW1hZScsICc8aW5maWxlLm1hZT4nLCAnLW9tYWUnLCAnPG91dGZpbGUubWFlPic=

> <r_lp_tautomer_probability>
1

> <r_epik_Ionization_Penalty>
8.71758e-07

> <r_epik_Ionization_Penalty_Charging>
8.50442e-07

> <r_epik_Ionization_Penalty_Neutral>
2.13165e-08

> <r_epik_State_Penalty>
-0

> <r_epik_Charging_Adjusted_Penalty>
8.50442e-07

> <i_epik_Tot_Q>
0

> <i_epik_Tot_abs_Q>
0

> <r_epik_Metal_State_Penalty>
-0

> <b_epik_Metal_Only>
0

> <s_lp_Force_Field>
OPLS_2005

> <r_lp_Energy>
38.8827

> <b_lp_Chiralities_Consistent>
1

> <s_lp_Variant>
AV-unprocessed.smi:2712-1

> <Gold.Version>
5.8.1

> <Gold.Id.Protein>
6NUR|6NUR_protein|mol2

> <Gold.PLP.Fitness>
44.7081

> <Gold.PLP.PLP>
-43.5403

> <Gold.PLP.part.hbond>
-1.7482

> <Gold.PLP.part.metal>
0.0000

> <Gold.PLP.part.buried>
-5.7966

> <Gold.PLP.part.nonpolar>
-36.6921

> <Gold.PLP.part.repulsive>
0.2759

> <Gold.PLP.ligand.clash>
0.0000

> <Gold.PLP.ligand.torsion>
0.9469

> <Gold.PLP.Chemscore.Hbond>
0.9913

> <Gold.PLP.Chemscore.CHOScore>
0.0000

> <Gold.PLP.Chemscore.Metal>
0.0000

> <Gold.Chemscore.Hbonds>
donor molecule, donor type, donor heavy atom, donor atom, acceptor molecule, acceptor atom, score
      P1  H 10752 10764       L1    10  0.96

> <Gold.PLP.Chemscore.Internal.Correction>
0.0880

> <Gold.Rescore>
     Score         DG    S(hbond)    S(metal)    S(lipo)     H(rot)  DE(clash)    DE(int)     intcor
     14.05     -18.93       0.97        0.00     120.61       1.52       0.07       4.82       ----

> <Gold.Chemscore.Fitness>
14.0472

> <Gold.Chemscore.DG>
-18.9331

> <Gold.Chemscore.ZeroCoef>
-5.4800

> <Gold.Chemscore.Hbond>
0.9651

> <Gold.Chemscore.Metal>
0.0000

> <Gold.Chemscore.Lipo>
120.6059

> <Gold.Chemscore.Internal_Hbond>
0.0000

> <Gold.Chemscore.DEClash>
0.0685

> <Gold.Chemscore.DEInternal>
4.8173

> <Gold.Chemscore.Rot>
1.5162

> <Gold.Chemscore.Internal.Correction>
   9.000000E+99

> <Gold.Chemscore.Hbonds>
donor molecule, donor type, donor heavy atom, donor atom, acceptor molecule, acceptor atom, score
      P1  H 10752 10764       L1    10  0.87

> <Gold.Chemscore.Hbond.Weighted>
-3.2236

> <Gold.Chemscore.Metal.Weighted>
-0.0000

> <Gold.Chemscore.Lipo.Weighted>
-14.1109

> <Gold.Chemscore.Internal_Hbond.Weighted>
0.0000

> <Gold.Chemscore.DEClash.Weighted>
0.0685

> <Gold.Chemscore.DEInternal.Weighted>
4.8173

> <Gold.Chemscore.Rot.Weighted>
3.8814

> <Gold.Chemscore.Internal.Correction.Weighted>
   9.000000E+99

> <Gold.Protein.RotatedTorsions>
[ 6907 6896 6895 6894 ] final -107.37 input  -60.11 | X-H torsion
[ 7974 7965 7964 7962 ] final   -6.57 input  175.53 | X-H torsion
[ 8008 7997 7996 7995 ] final   -2.85 input   59.86 | X-H torsion
[ 10167 10162 10161 10158 ] final    6.10 input  -65.29 | X-H torsion
[ 10718 10713 10712 10709 ] final  156.63 input   66.30 | X-H torsion
[ 10763 10752 10751 10750 ] final  -65.03 input  -60.55 | X-H torsion
[ 11005 11000 10999 10996 ] final  167.04 input  -57.11 | X-H torsion

> <Gold.Protein.ActiveResidues>
 VAL166  LYS551  ARG553  GLY616  TRP617  ASP618  TYR619  PRO620  LYS621  CYS622 
 ASP623  PHE694  ASN695  SER759  ASP760  ASP761  ALA762  ILE779  LEU786  VAL792 
 PHE793  MET794  SER795  GLU796  ALA797  LYS798  CYS799  TRP800  GLU811  SER814 

> <Gold.Protein.RotatedAtoms>
  150.7440  133.9836  159.3583 H   0  0  0  0  0  0  0  0  0  0  0  0  # atno 6907 bound_to 6896
  151.7779  135.0767  160.0379 H   0  0  0  0  0  0  0  0  0  0  0  0  # atno 6908 bound_to 6896
  152.3294  133.5905  159.5835 H   0  0  0  0  0  0  0  0  0  0  0  0  # atno 6909 bound_to 6896
  146.2328  140.2190  142.8337 H   0  0  0  0  0  0  0  0  0  0  0  0  # atno 7974 bound_to 7965
  154.6313  140.2524  155.7431 H   0  0  0  0  0  0  0  0  0  0  0  0  # atno 8008 bound_to 7997
  156.2481  140.2906  156.0585 H   0  0  0  0  0  0  0  0  0  0  0  0  # atno 8009 bound_to 7997
  155.1741  140.0387  157.2859 H   0  0  0  0  0  0  0  0  0  0  0  0  # atno 8010 bound_to 7997
  140.6446  143.7692  150.7479 H   0  0  0  0  0  0  0  0  0  0  0  0  # atno 10167 bound_to 10162
  157.2023  131.0679  151.2018 H   0  0  0  0  0  0  0  0  0  0  0  0  # atno 10718 bound_to 10713
  154.3389  135.6161  153.5587 H   0  0  0  0  0  0  0  0  0  0  0  0  # atno 10763 bound_to 10752
  152.9805  135.5765  154.4876 H   0  0  0  0  0  0  0  0  0  0  0  0  # atno 10764 bound_to 10752
  154.4576  135.2855  155.1713 H   0  0  0  0  0  0  0  0  0  0  0  0  # atno 10765 bound_to 10752
  140.2726  134.7814  157.3689 H   0  0  0  0  0  0  0  0  0  0  0  0  # atno 11005 bound_to 11000
  144.9647  140.8310  143.5492 LP  0  0  0  0  0  0  0  0  0  0  0  0  # atno 17320 bound_to 7965
  145.2165  139.2179  143.5116 LP  0  0  0  0  0  0  0  0  0  0  0  0  # atno 17321 bound_to 7965
  140.1331  143.4508  152.2242 LP  0  0  0  0  0  0  0  0  0  0  0  0  # atno 17342 bound_to 10162
  139.5656  144.7433  151.4031 LP  0  0  0  0  0  0  0  0  0  0  0  0  # atno 17343 bound_to 10162
  157.3754  130.7203  149.6593 LP  0  0  0  0  0  0  0  0  0  0  0  0  # atno 17370 bound_to 10713
  155.9699  130.4187  150.4340 LP  0  0  0  0  0  0  0  0  0  0  0  0  # atno 17371 bound_to 10713
  140.1358  134.5035  155.8069 LP  0  0  0  0  0  0  0  0  0  0  0  0  # atno 17394 bound_to 11000
  141.2175  133.6807  156.7122 LP  0  0  0  0  0  0  0  0  0  0  0  0  # atno 17395 bound_to 11000

$$$$
