AV-unprocessed.smi:229|AV-procd|sdf|1760|dock5
  -GOLD-   2262020293D 1   1.00000     0.00000
 Structure written by MMmdl.
 58 62  0  0  0  0  0  0  0  0  1 V2000
  152.5374  143.4832  159.7087 C   0  0  0  0  0  0  0  0  0  0  0  0
  153.2202  142.1560  159.3557 C   0  0  0  0  0  0  0  0  0  0  0  0
  152.2241  141.0617  158.9442 C   0  0  1  0  0  0  0  0  0  0  0  0
  151.2391  141.5584  157.8728 C   0  0  0  0  0  0  0  0  0  0  0  0
  150.3850  140.4585  157.4387 N   0  0  0  0  0  0  0  0  0  0  0  0
  149.2559  140.7507  156.7454 C   0  0  0  0  0  0  0  0  0  0  0  0
  149.0544  140.2091  155.5140 N   0  0  0  0  0  0  0  0  0  0  0  0
  147.9453  140.4922  154.8242 C   0  0  0  0  0  0  0  0  0  0  0  0
  146.9268  141.2826  155.1687 N   0  0  0  0  0  0  0  0  0  0  0  0
  147.1261  141.8342  156.3995 C   0  0  0  0  0  0  0  0  0  0  0  0
  148.2495  141.6234  157.2481 C   0  0  0  0  0  0  0  0  0  0  0  0
  148.1041  142.3644  158.4157 N   0  0  0  0  0  0  0  0  0  0  0  0
  146.9572  142.9698  158.2698 C   0  0  0  0  0  0  0  0  0  0  0  0
  146.3057  142.7115  157.0853 N   0  0  0  0  0  0  0  0  0  0  0  0
  145.0301  143.2565  156.6552 C   0  0  0  0  0  0  0  0  0  0  0  0
  145.0217  144.7980  156.6469 C   0  0  2  0  0  0  0  0  0  0  0  0
  144.8380  145.2692  157.9693 O   0  0  0  0  0  0  0  0  0  0  0  0
  143.9323  145.3646  155.7131 C   0  0  1  0  0  0  0  0  0  0  0  0
  143.8110  146.8898  155.6213 C   0  0  0  0  0  0  0  0  0  0  0  0
  143.1727  147.0533  154.2604 C   0  0  0  0  0  0  0  0  0  0  0  0
  143.8686  145.9563  153.4589 C   0  0  0  0  0  0  0  0  0  0  0  0
  144.1020  144.8932  154.3787 O   0  0  0  0  0  0  0  0  0  0  0  0
  151.1426  139.3142  156.9469 C   0  0  0  0  0  0  0  0  0  0  0  0
  152.1673  138.8411  158.0034 C   0  0  2  0  0  0  0  0  0  0  0  0
  153.1097  137.7918  157.4214 C   0  0  0  0  0  0  0  0  0  0  0  0
  152.4772  136.4763  157.8489 C   0  0  0  0  0  0  0  0  0  0  0  0
  152.0518  136.7627  159.1676 O   0  0  0  0  0  0  0  0  0  0  0  0
  151.5147  138.0801  159.1820 C   0  0  0  0  0  0  0  0  0  0  0  0
  152.9627  139.9524  158.4277 O   0  0  0  0  0  0  0  0  0  0  0  0
  153.2745  144.2377  159.9837 H   0  0  0  0  0  0  0  0  0  0  0  0
  151.8532  143.3656  160.5493 H   0  0  0  0  0  0  0  0  0  0  0  0
  151.9666  143.8687  158.8635 H   0  0  0  0  0  0  0  0  0  0  0  0
  153.9223  142.3314  158.5399 H   0  0  0  0  0  0  0  0  0  0  0  0
  153.8143  141.8137  160.2037 H   0  0  0  0  0  0  0  0  0  0  0  0
  151.6599  140.7586  159.8265 H   0  0  0  0  0  0  0  0  0  0  0  0
  150.6328  142.3683  158.2811 H   0  0  0  0  0  0  0  0  0  0  0  0
  151.7821  141.9565  157.0142 H   0  0  0  0  0  0  0  0  0  0  0  0
  147.8625  140.0180  153.8572 H   0  0  0  0  0  0  0  0  0  0  0  0
  146.5567  143.6335  159.0225 H   0  0  0  0  0  0  0  0  0  0  0  0
  144.8148  142.8724  155.6574 H   0  0  0  0  0  0  0  0  0  0  0  0
  144.2488  142.8718  157.3119 H   0  0  0  0  0  0  0  0  0  0  0  0
  145.9940  145.1488  156.2982 H   0  0  0  0  0  0  0  0  0  0  0  0
  144.3410  146.0721  157.9339 H   0  0  0  0  0  0  0  0  0  0  0  0
  142.9663  144.9693  156.0315 H   0  0  0  0  0  0  0  0  0  0  0  0
  143.2146  147.3178  156.4273 H   0  0  0  0  0  0  0  0  0  0  0  0
  144.7867  147.3762  155.6247 H   0  0  0  0  0  0  0  0  0  0  0  0
  142.1018  146.8540  154.3210 H   0  0  0  0  0  0  0  0  0  0  0  0
  143.3135  148.0477  153.8357 H   0  0  0  0  0  0  0  0  0  0  0  0
  143.2793  145.6240  152.6041 H   0  0  0  0  0  0  0  0  0  0  0  0
  144.8319  146.3107  153.0893 H   0  0  0  0  0  0  0  0  0  0  0  0
  150.4927  138.4871  156.6634 H   0  0  0  0  0  0  0  0  0  0  0  0
  151.6624  139.6231  156.0388 H   0  0  0  0  0  0  0  0  0  0  0  0
  153.2432  137.8698  156.3421 H   0  0  0  0  0  0  0  0  0  0  0  0
  154.0954  137.8755  157.8817 H   0  0  0  0  0  0  0  0  0  0  0  0
  151.6163  136.2298  157.2255 H   0  0  0  0  0  0  0  0  0  0  0  0
  153.1774  135.6413  157.8229 H   0  0  0  0  0  0  0  0  0  0  0  0
  151.7236  138.5325  160.1510 H   0  0  0  0  0  0  0  0  0  0  0  0
  150.4310  138.0254  159.0697 H   0  0  0  0  0  0  0  0  0  0  0  0
  1  2  1  0  0  0  0
  1 30  1  0  0  0  0
  1 31  1  0  0  0  0
  1 32  1  0  0  0  0
  2  3  1  0  0  0  0
  2 33  1  0  0  0  0
  2 34  1  0  0  0  0
  3 29  1  0  0  0  0
  3  4  1  0  0  0  0
  3 35  1  0  0  0  0
  4  5  1  0  0  0  0
  4 36  1  0  0  0  0
  4 37  1  0  0  0  0
  5  6  1  0  0  0  0
  5 23  1  0  0  0  0
  6 11  1  0  0  0  0
  6  7  2  0  0  0  0
  7  8  1  0  0  0  0
  8  9  2  0  0  0  0
  8 38  1  0  0  0  0
  9 10  1  0  0  0  0
 10 14  1  0  0  0  0
 10 11  2  0  0  0  0
 11 12  1  0  0  0  0
 12 13  2  0  0  0  0
 13 14  1  0  0  0  0
 13 39  1  0  0  0  0
 14 15  1  0  0  0  0
 15 16  1  0  0  0  0
 15 40  1  0  0  0  0
 15 41  1  0  0  0  0
 16 17  1  0  0  0  0
 16 18  1  0  0  0  0
 16 42  1  0  0  0  0
 17 43  1  0  0  0  0
 18 22  1  0  0  0  0
 18 19  1  0  0  0  0
 18 44  1  0  0  0  0
 19 20  1  0  0  0  0
 19 45  1  0  0  0  0
 19 46  1  0  0  0  0
 20 21  1  0  0  0  0
 20 47  1  0  0  0  0
 20 48  1  0  0  0  0
 21 22  1  0  0  0  0
 21 49  1  0  0  0  0
 21 50  1  0  0  0  0
 23 24  1  0  0  0  0
 23 51  1  0  0  0  0
 23 52  1  0  0  0  0
 24 28  1  0  0  0  0
 24 25  1  0  0  0  0
 24 29  1  0  0  0  0
 25 26  1  0  0  0  0
 25 53  1  0  0  0  0
 25 54  1  0  0  0  0
 26 27  1  0  0  0  0
 26 55  1  0  0  0  0
 26 56  1  0  0  0  0
 27 28  1  0  0  0  0
 28 57  1  0  0  0  0
 28 58  1  0  0  0  0
M  END
> <s_m_source_file>
AV-unprocessed.smi

> <i_m_source_file_index>
229

> <i_lp_mmshare_version>
43012

> <i_f3d_flags>
0

> <s_epik_input>
W0NIMl0xT1tDSDJdW0NIMl1bQ0BdMTJbQ0gyXU4oW0NIMl1bQ0BIXShPMilbQ0gyXVtDSDNdKWMobltjSF1uMyljKGMzNCluW2NIXW40W0NIMl1bQ0BIXShbT0hdKVtDQEBIXTVbQ0gyXVtDSDJdW0NIMl1PNQ==

> <s_epik_cmdline>
J2VwaWtfcHl0aG9uJywgJy1waCcsICc3LjAnLCAnLXRuJywgJzgnLCAnLW1hJywgJzIwMCcsICctbWV0YWxfYmluZGluZycsICctaW1hZScsICc8aW5maWxlLm1hZT4nLCAnLW9tYWUnLCAnPG91dGZpbGUubWFlPic=

> <r_lp_tautomer_probability>
1

> <r_epik_Ionization_Penalty>
0.00318402

> <r_epik_Ionization_Penalty_Charging>
0

> <r_epik_Ionization_Penalty_Neutral>
0.00318402

> <r_epik_State_Penalty>
0.00215642

> <r_epik_Charging_Adjusted_Penalty>
0.00215642

> <i_epik_Tot_Q>
0

> <i_epik_Tot_abs_Q>
0

> <r_epik_Metal_State_Penalty>
-0

> <b_epik_Metal_Only>
0

> <s_lp_Force_Field>
OPLS_2005

> <r_lp_Energy>
56.4449

> <b_lp_Chiralities_Consistent>
1

> <s_lp_Variant>
AV-unprocessed.smi:229-14

> <Gold.Version>
5.8.1

> <Gold.Id.Protein>
6NUR|6NUR_protein|mol2

> <Gold.PLP.Fitness>
43.9193

> <Gold.PLP.PLP>
-38.6787

> <Gold.PLP.part.hbond>
-2.4936

> <Gold.PLP.part.metal>
0.0000

> <Gold.PLP.part.buried>
-5.3014

> <Gold.PLP.part.nonpolar>
-30.0609

> <Gold.PLP.part.repulsive>
0.3372

> <Gold.PLP.ligand.clash>
0.0000

> <Gold.PLP.ligand.torsion>
0.4562

> <Gold.PLP.Chemscore.Hbond>
1.9200

> <Gold.PLP.Chemscore.CHOScore>
0.0000

> <Gold.PLP.Chemscore.Metal>
0.0000

> <Gold.Chemscore.Hbonds>
donor molecule, donor type, donor heavy atom, donor atom, acceptor molecule, acceptor atom, score
      P1  H  6896  6907       L1    27  0.93
      P1  H  7997  8008       L1    29  0.55

> <Gold.PLP.Chemscore.Internal.Correction>
0.3929

> <Gold.Rescore>
     Score         DG    S(hbond)    S(metal)    S(lipo)     H(rot)  DE(clash)    DE(int)     intcor
     14.84     -15.36       1.53        0.00      94.55       2.46       0.04       0.48       ----

> <Gold.Chemscore.Fitness>
14.8360

> <Gold.Chemscore.DG>
-15.3552

> <Gold.Chemscore.ZeroCoef>
-5.4800

> <Gold.Chemscore.Hbond>
1.5295

> <Gold.Chemscore.Metal>
0.0000

> <Gold.Chemscore.Lipo>
94.5452

> <Gold.Chemscore.Internal_Hbond>
0.0000

> <Gold.Chemscore.DEClash>
0.0440

> <Gold.Chemscore.DEInternal>
0.4751

> <Gold.Chemscore.Rot>
2.4591

> <Gold.Chemscore.Internal.Correction>
   9.000000E+99

> <Gold.Chemscore.Hbonds>
donor molecule, donor type, donor heavy atom, donor atom, acceptor molecule, acceptor atom, score
      P1  H  6896  6907       L1    27  0.50
      P1  H  7997  8008       L1    29  0.37

> <Gold.Chemscore.Hbond.Weighted>
-5.1087

> <Gold.Chemscore.Metal.Weighted>
-0.0000

> <Gold.Chemscore.Lipo.Weighted>
-11.0618

> <Gold.Chemscore.Internal_Hbond.Weighted>
0.0000

> <Gold.Chemscore.DEClash.Weighted>
0.0440

> <Gold.Chemscore.DEInternal.Weighted>
0.4751

> <Gold.Chemscore.Rot.Weighted>
6.2953

> <Gold.Chemscore.Internal.Correction.Weighted>
   9.000000E+99

> <Gold.Protein.RotatedTorsions>
[ 6907 6896 6895 6894 ] final   17.55 input  -60.11 | X-H torsion
[ 7974 7965 7964 7962 ] final  122.67 input  175.53 | X-H torsion
[ 8008 7997 7996 7995 ] final -100.19 input   59.86 | X-H torsion
[ 10167 10162 10161 10158 ] final   20.73 input  -65.29 | X-H torsion
[ 10718 10713 10712 10709 ] final   15.56 input   66.30 | X-H torsion
[ 10763 10752 10751 10750 ] final   90.76 input  -60.55 | X-H torsion
[ 11005 11000 10999 10996 ] final -174.41 input  -57.11 | X-H torsion

> <Gold.Protein.ActiveResidues>
 VAL166  LYS551  ARG553  GLY616  TRP617  ASP618  TYR619  PRO620  LYS621  CYS622 
 ASP623  PHE694  ASN695  SER759  ASP760  ASP761  ALA762  ILE779  LEU786  VAL792 
 PHE793  MET794  SER795  GLU796  ALA797  LYS798  CYS799  TRP800  GLU811  SER814 

> <Gold.Protein.RotatedAtoms>
  151.8513  135.0556  160.0459 H   0  0  0  0  0  0  0  0  0  0  0  0  # atno 6907 bound_to 6896
  152.2734  133.5398  159.5461 H   0  0  0  0  0  0  0  0  0  0  0  0  # atno 6908 bound_to 6896
  150.7160  134.0582  159.3864 H   0  0  0  0  0  0  0  0  0  0  0  0  # atno 6909 bound_to 6896
  145.1049  139.3493  143.4793 H   0  0  0  0  0  0  0  0  0  0  0  0  # atno 7974 bound_to 7965
  154.8252  140.0442  157.1439 H   0  0  0  0  0  0  0  0  0  0  0  0  # atno 8008 bound_to 7997
  154.9214  140.3027  155.5194 H   0  0  0  0  0  0  0  0  0  0  0  0  # atno 8009 bound_to 7997
  156.2983  140.2340  156.4265 H   0  0  0  0  0  0  0  0  0  0  0  0  # atno 8010 bound_to 7997
  140.5481  143.9558  150.6560 H   0  0  0  0  0  0  0  0  0  0  0  0  # atno 10167 bound_to 10162
  157.0552  130.6286  149.5775 H   0  0  0  0  0  0  0  0  0  0  0  0  # atno 10718 bound_to 10713
  153.2010  135.4422  155.0266 H   0  0  0  0  0  0  0  0  0  0  0  0  # atno 10763 bound_to 10752
  154.8147  135.3310  154.7212 H   0  0  0  0  0  0  0  0  0  0  0  0  # atno 10764 bound_to 10752
  153.7657  135.6988  153.4972 H   0  0  0  0  0  0  0  0  0  0  0  0  # atno 10765 bound_to 10752
  140.4749  134.6131  157.4896 H   0  0  0  0  0  0  0  0  0  0  0  0  # atno 11005 bound_to 11000
  146.3528  140.0942  142.8611 LP  0  0  0  0  0  0  0  0  0  0  0  0  # atno 17320 bound_to 7965
  145.0913  140.9286  143.4767 LP  0  0  0  0  0  0  0  0  0  0  0  0  # atno 17321 bound_to 7965
  140.2976  143.3282  152.1002 LP  0  0  0  0  0  0  0  0  0  0  0  0  # atno 17342 bound_to 10162
  139.5016  144.6716  151.6228 LP  0  0  0  0  0  0  0  0  0  0  0  0  # atno 17343 bound_to 10162
  155.9995  130.5071  150.7610 LP  0  0  0  0  0  0  0  0  0  0  0  0  # atno 17370 bound_to 10713
  157.4998  131.0917  151.0327 LP  0  0  0  0  0  0  0  0  0  0  0  0  # atno 17371 bound_to 10713
  139.9862  134.7057  155.9769 LP  0  0  0  0  0  0  0  0  0  0  0  0  # atno 17394 bound_to 11000
  141.1559  133.6543  156.4161 LP  0  0  0  0  0  0  0  0  0  0  0  0  # atno 17395 bound_to 11000

$$$$
