AV-unprocessed.smi:3226|AV-procd|sdf|12314|dock5
  -GOLD-   2272018163D 1   1.00000     0.00000
 Structure written by MMmdl.
 41 43  0  0  0  0  0  0  0  0  2 V2000
  145.6266  143.6657  153.5111 C   0  0  0  0  0  0  0  0  0  0  0  0
  146.3798  142.7358  154.4687 C   0  0  0  0  0  0  0  0  0  0  0  0
  145.9009  142.8551  155.8827 C   0  0  0  0  0  0  0  0  0  0  0  0
  144.8374  143.5856  156.2383 N   0  0  0  0  0  0  0  0  0  0  0  0
  144.7066  143.4159  157.6018 N   0  0  0  0  0  0  0  0  0  0  0  0
  145.6983  142.5913  157.9328 C   0  0  0  0  0  0  0  0  0  0  0  0
  146.4822  142.2059  156.9141 N   0  0  0  0  0  0  0  0  0  0  0  0
  147.6327  141.3189  156.9489 C   0  0  0  0  0  0  0  0  0  0  0  0
  148.8564  141.9688  157.6153 C   0  0  0  0  0  0  0  0  0  0  0  0
  149.8140  142.4859  156.6166 N   0  3  0  0  0  0  0  0  0  0  0  0
  151.1482  142.7936  157.1671 C   0  0  0  0  0  0  0  0  0  0  0  0
  151.1294  144.1059  157.9731 C   0  0  1  0  0  0  0  0  0  0  0  0
  150.2988  144.0483  159.2931 C   0  0  0  0  0  0  0  0  0  0  0  0
  151.3039  144.5430  160.3588 C   0  0  1  0  0  0  0  0  0  0  0  0
  152.3746  143.4834  160.5037 C   0  0  0  0  0  0  0  0  0  0  0  0
  153.1023  143.5002  159.3857 C   0  0  0  0  0  0  0  0  0  0  0  0
  152.5197  144.5704  158.4830 C   0  0  2  0  0  0  0  0  0  0  0  0
  152.0713  145.5865  159.5403 C   0  0  0  0  0  0  0  0  0  0  0  0
  146.0001  143.5602  152.4924 H   0  0  0  0  0  0  0  0  0  0  0  0
  145.7443  144.7098  153.8029 H   0  0  0  0  0  0  0  0  0  0  0  0
  144.5600  143.4396  153.4996 H   0  0  0  0  0  0  0  0  0  0  0  0
  146.2907  141.7025  154.1343 H   0  0  0  0  0  0  0  0  0  0  0  0
  147.4443  142.9718  154.4425 H   0  0  0  0  0  0  0  0  0  0  0  0
  145.8591  142.2613  158.9487 H   0  0  0  0  0  0  0  0  0  0  0  0
  147.3540  140.4043  157.4741 H   0  0  0  0  0  0  0  0  0  0  0  0
  147.8750  141.0241  155.9277 H   0  0  0  0  0  0  0  0  0  0  0  0
  148.5249  142.7951  158.2454 H   0  0  0  0  0  0  0  0  0  0  0  0
  149.3610  141.2549  158.2675 H   0  0  0  0  0  0  0  0  0  0  0  0
  149.9187  141.7977  155.8845 H   0  0  0  0  0  0  0  0  0  0  0  0
  151.4797  141.9608  157.7884 H   0  0  0  0  0  0  0  0  0  0  0  0
  151.8569  142.8808  156.3426 H   0  0  0  0  0  0  0  0  0  0  0  0
  150.7237  144.8941  157.3359 H   0  0  0  0  0  0  0  0  0  0  0  0
  149.4338  144.7102  159.2325 H   0  0  0  0  0  0  0  0  0  0  0  0
  149.9333  143.0464  159.5228 H   0  0  0  0  0  0  0  0  0  0  0  0
  150.8798  144.8991  161.2980 H   0  0  0  0  0  0  0  0  0  0  0  0
  152.4831  142.8278  161.3553 H   0  0  0  0  0  0  0  0  0  0  0  0
  153.9329  142.8601  159.1272 H   0  0  0  0  0  0  0  0  0  0  0  0
  153.2056  144.9583  157.7294 H   0  0  0  0  0  0  0  0  0  0  0  0
  151.4445  146.3899  159.1483 H   0  0  0  0  0  0  0  0  0  0  0  0
  152.9061  146.0281  160.0888 H   0  0  0  0  0  0  0  0  0  0  0  0
  149.4347  143.3311  156.2140 H   0  0  0  0  0  0  0  0  0  0  0  0
  1  2  1  0  0  0  0
  1 19  1  0  0  0  0
  1 20  1  0  0  0  0
  1 21  1  0  0  0  0
  2  3  1  0  0  0  0
  2 22  1  0  0  0  0
  2 23  1  0  0  0  0
  3  7  1  0  0  0  0
  3  4  2  0  0  0  0
  4  5  1  0  0  0  0
  5  6  2  0  0  0  0
  6  7  1  0  0  0  0
  6 24  1  0  0  0  0
  7  8  1  0  0  0  0
  8  9  1  0  0  0  0
  8 25  1  0  0  0  0
  8 26  1  0  0  0  0
  9 10  1  0  0  0  0
  9 27  1  0  0  0  0
  9 28  1  0  0  0  0
 10 11  1  0  0  0  0
 10 29  1  0  0  0  0
 10 41  1  0  0  0  0
 11 12  1  0  0  0  0
 11 30  1  0  0  0  0
 11 31  1  0  0  0  0
 12 17  1  0  0  0  0
 12 13  1  0  0  0  0
 12 32  1  0  0  0  0
 13 14  1  0  0  0  0
 13 33  1  0  0  0  0
 13 34  1  0  0  0  0
 14 18  1  0  0  0  0
 14 15  1  0  0  0  0
 14 35  1  0  0  0  0
 15 16  2  0  0  0  0
 15 36  1  0  0  0  0
 16 17  1  0  0  0  0
 16 37  1  0  0  0  0
 17 18  1  0  0  0  0
 17 38  1  0  0  0  0
 18 39  1  0  0  0  0
 18 40  1  0  0  0  0
M  CHG  1  10   1
M  END
> <s_m_source_file>
AV-unprocessed.smi

> <i_m_source_file_index>
3226

> <i_lp_mmshare_version>
43012

> <i_f3d_flags>
0

> <s_epik_input>
W0NIM11bQ0gyXWMxbm5bY0hdbjFbQ0gyXVtDSDJdW05IXVtDSDJdW0NASF0oW0NIMl1bQ0BASF0yMylbQ0BASF0oW0NIMl0zKVtDSF09W0NIXTI=

> <s_epik_cmdline>
J2VwaWtfcHl0aG9uJywgJy1waCcsICc3LjAnLCAnLXRuJywgJzgnLCAnLW1hJywgJzIwMCcsICctbWV0YWxfYmluZGluZycsICctaW1hZScsICc8aW5maWxlLm1hZT4nLCAnLW9tYWUnLCAnPG91dGZpbGUubWFlPic=

> <r_lp_tautomer_probability>
1

> <r_epik_Ionization_Penalty>
0.00175008

> <r_epik_Ionization_Penalty_Charging>
0.00173932

> <r_epik_Ionization_Penalty_Neutral>
1.07546e-05

> <r_epik_State_Penalty>
-0

> <r_epik_Charging_Adjusted_Penalty>
0.00173932

> <i_epik_Tot_Q>
1

> <i_epik_Tot_abs_Q>
1

> <r_epik_Metal_State_Penalty>
-0

> <b_epik_Metal_Only>
0

> <s_lp_Force_Field>
OPLS_2005

> <r_lp_Energy>
65.2823

> <b_lp_Chiralities_Consistent>
1

> <s_lp_Variant>
AV-unprocessed.smi:3226-2

> <Gold.Version>
5.8.1

> <Gold.Id.Protein>
6NUR|6NUR_protein|mol2

> <Gold.PLP.Fitness>
46.5932

> <Gold.PLP.PLP>
-41.7015

> <Gold.PLP.part.hbond>
-1.0000

> <Gold.PLP.part.metal>
0.0000

> <Gold.PLP.part.buried>
-5.9669

> <Gold.PLP.part.nonpolar>
-35.9743

> <Gold.PLP.part.repulsive>
0.2139

> <Gold.PLP.ligand.clash>
0.0000

> <Gold.PLP.ligand.torsion>
0.5753

> <Gold.PLP.Chemscore.Hbond>
2.0000

> <Gold.PLP.Chemscore.CHOScore>
0.0000

> <Gold.PLP.Chemscore.Metal>
0.0000

> <Gold.Chemscore.Hbonds>
donor molecule, donor type, donor heavy atom, donor atom, acceptor molecule, acceptor atom, score
      L1  H    10    41       P1  8028  2.00

> <Gold.PLP.Chemscore.Internal.Correction>
0.0423

> <Gold.Rescore>
     Score         DG    S(hbond)    S(metal)    S(lipo)     H(rot)  DE(clash)    DE(int)     intcor
     16.34     -16.93       1.00        0.00     114.55       2.06       0.04       0.55       ----

> <Gold.Chemscore.Fitness>
16.3418

> <Gold.Chemscore.DG>
-16.9349

> <Gold.Chemscore.ZeroCoef>
-5.4800

> <Gold.Chemscore.Hbond>
0.9975

> <Gold.Chemscore.Metal>
0.0000

> <Gold.Chemscore.Lipo>
114.5534

> <Gold.Chemscore.Internal_Hbond>
0.0000

> <Gold.Chemscore.DEClash>
0.0381

> <Gold.Chemscore.DEInternal>
0.5550

> <Gold.Chemscore.Rot>
2.0623

> <Gold.Chemscore.Internal.Correction>
   9.000000E+99

> <Gold.Chemscore.Hbonds>
donor molecule, donor type, donor heavy atom, donor atom, acceptor molecule, acceptor atom, score
      L1  H    10    41       P1  8028  0.98

> <Gold.Chemscore.Hbond.Weighted>
-3.3318

> <Gold.Chemscore.Metal.Weighted>
-0.0000

> <Gold.Chemscore.Lipo.Weighted>
-13.4027

> <Gold.Chemscore.Internal_Hbond.Weighted>
0.0000

> <Gold.Chemscore.DEClash.Weighted>
0.0381

> <Gold.Chemscore.DEInternal.Weighted>
0.5550

> <Gold.Chemscore.Rot.Weighted>
5.2796

> <Gold.Chemscore.Internal.Correction.Weighted>
   9.000000E+99

> <Gold.Protein.RotatedTorsions>
[ 6907 6896 6895 6894 ] final   28.94 input  -60.11 | X-H torsion
[ 7974 7965 7964 7962 ] final -175.51 input  175.53 | X-H torsion
[ 8008 7997 7996 7995 ] final   -4.93 input   59.86 | X-H torsion
[ 10167 10162 10161 10158 ] final  -80.52 input  -65.29 | X-H torsion
[ 10718 10713 10712 10709 ] final  -55.96 input   66.30 | X-H torsion
[ 10763 10752 10751 10750 ] final  145.65 input  -60.55 | X-H torsion
[ 11005 11000 10999 10996 ] final  104.09 input  -57.11 | X-H torsion

> <Gold.Protein.ActiveResidues>
 VAL166  LYS551  ARG553  GLY616  TRP617  ASP618  TYR619  PRO620  LYS621  CYS622 
 ASP623  PHE694  ASN695  SER759  ASP760  ASP761  ALA762  ILE779  LEU786  VAL792 
 PHE793  MET794  SER795  GLU796  ALA797  LYS798  CYS799  TRP800  GLU811  SER814 

> <Gold.Protein.RotatedAtoms>
  152.0243  134.9805  160.0571 H   0  0  0  0  0  0  0  0  0  0  0  0  # atno 6907 bound_to 6896
  152.1307  133.4401  159.4727 H   0  0  0  0  0  0  0  0  0  0  0  0  # atno 6908 bound_to 6896
  150.6856  134.2343  159.4490 H   0  0  0  0  0  0  0  0  0  0  0  0  # atno 6909 bound_to 6896
  144.7128  140.1310  143.6398 H   0  0  0  0  0  0  0  0  0  0  0  0  # atno 7974 bound_to 7965
  154.6091  140.2471  155.7691 H   0  0  0  0  0  0  0  0  0  0  0  0  # atno 8008 bound_to 7997
  156.2360  140.2950  156.0263 H   0  0  0  0  0  0  0  0  0  0  0  0  # atno 8009 bound_to 7997
  155.2081  140.0396  157.2919 H   0  0  0  0  0  0  0  0  0  0  0  0  # atno 8010 bound_to 7997
  140.4496  143.2487  151.8509 H   0  0  0  0  0  0  0  0  0  0  0  0  # atno 10167 bound_to 10162
  156.1327  130.4158  150.0241 H   0  0  0  0  0  0  0  0  0  0  0  0  # atno 10718 bound_to 10713
  154.0090  135.2916  155.3394 H   0  0  0  0  0  0  0  0  0  0  0  0  # atno 10763 bound_to 10752
  154.7115  135.5147  153.8676 H   0  0  0  0  0  0  0  0  0  0  0  0  # atno 10764 bound_to 10752
  153.0732  135.6654  154.0323 H   0  0  0  0  0  0  0  0  0  0  0  0  # atno 10765 bound_to 10752
  139.8789  134.9287  156.5309 H   0  0  0  0  0  0  0  0  0  0  0  0  # atno 11005 bound_to 11000
  145.9287  139.2592  143.1338 LP  0  0  0  0  0  0  0  0  0  0  0  0  # atno 17320 bound_to 7965
  145.9545  140.8883  143.0242 LP  0  0  0  0  0  0  0  0  0  0  0  0  # atno 17321 bound_to 7965
  139.4795  144.5136  151.8899 LP  0  0  0  0  0  0  0  0  0  0  0  0  # atno 17342 bound_to 10162
  140.4223  144.2226  150.5887 LP  0  0  0  0  0  0  0  0  0  0  0  0  # atno 17343 bound_to 10162
  156.8149  130.9338  151.3643 LP  0  0  0  0  0  0  0  0  0  0  0  0  # atno 17370 bound_to 10713
  157.6503  130.8878  149.9619 LP  0  0  0  0  0  0  0  0  0  0  0  0  # atno 17371 bound_to 10713
  140.8381  133.8226  155.9048 LP  0  0  0  0  0  0  0  0  0  0  0  0  # atno 17394 bound_to 11000
  140.9264  134.2077  157.4893 LP  0  0  0  0  0  0  0  0  0  0  0  0  # atno 17395 bound_to 11000

$$$$
