AV-unprocessed.smi:299|AV-procd|sdf|2268|dock4
  -GOLD-   2262022163D 1   1.00000     0.00000
 Structure written by MMmdl.
 42 43  0  0  0  0  0  0  0  0  2 V2000
  146.4800  131.4422  154.1367 C   0  0  0  0  0  0  0  0  0  0  0  0
  145.8934  132.1716  152.9098 C   0  0  1  0  0  0  0  0  0  0  0  0
  145.2491  131.1208  151.9779 C   0  0  0  0  0  0  0  0  0  0  0  0
  144.6472  131.7560  150.7228 C   0  0  0  0  0  0  0  0  0  0  0  0
  143.6467  132.8353  151.1340 C   0  0  0  0  0  0  0  0  0  0  0  0
  144.3134  133.8698  152.0514 C   0  0  0  0  0  0  0  0  0  0  0  0
  144.9053  133.2426  153.2696 N   0  3  2  0  0  0  0  0  0  0  0  0
  145.4377  134.2675  154.2146 C   0  0  0  0  0  0  0  0  0  0  0  0
  146.5631  135.1333  153.6104 C   0  0  0  0  0  0  0  0  0  0  0  0
  147.3993  135.8776  154.6695 C   0  0  0  0  0  0  0  0  0  0  0  0
  148.1426  137.0053  154.1155 N   0  0  0  0  0  0  0  0  0  0  0  0
  148.2802  138.2050  154.7026 C   0  0  0  0  0  0  0  0  0  0  0  0
  147.7595  138.4956  155.7788 O   0  0  0  0  0  0  0  0  0  0  0  0
  149.1278  139.2394  153.9604 C   0  0  0  0  0  0  0  0  0  0  0  0
  150.5192  139.1688  154.3655 N   0  0  0  0  0  0  0  0  0  0  0  0
  151.3750  138.1449  154.3892 C   0  0  0  0  0  0  0  0  0  0  0  0
  152.5634  138.5109  154.8445 N   0  0  0  0  0  0  0  0  0  0  0  0
  152.3963  139.8599  155.1102 N   0  0  0  0  0  0  0  0  0  0  0  0
  151.1858  140.2561  154.8275 N   0  0  0  0  0  0  0  0  0  0  0  0
  147.0481  130.5628  153.8314 H   0  0  0  0  0  0  0  0  0  0  0  0
  145.6945  131.1048  154.8138 H   0  0  0  0  0  0  0  0  0  0  0  0
  147.1755  132.0642  154.6987 H   0  0  0  0  0  0  0  0  0  0  0  0
  146.7177  132.6432  152.3719 H   0  0  0  0  0  0  0  0  0  0  0  0
  145.9905  130.3783  151.6804 H   0  0  0  0  0  0  0  0  0  0  0  0
  144.4713  130.5775  152.5173 H   0  0  0  0  0  0  0  0  0  0  0  0
  145.4366  132.1913  150.1089 H   0  0  0  0  0  0  0  0  0  0  0  0
  144.1561  130.9972  150.1127 H   0  0  0  0  0  0  0  0  0  0  0  0
  143.2463  133.3272  150.2469 H   0  0  0  0  0  0  0  0  0  0  0  0
  142.7978  132.3797  151.6460 H   0  0  0  0  0  0  0  0  0  0  0  0
  145.0907  134.4068  151.5053 H   0  0  0  0  0  0  0  0  0  0  0  0
  143.5565  134.6040  152.3200 H   0  0  0  0  0  0  0  0  0  0  0  0
  144.6536  134.9620  154.5048 H   0  0  0  0  0  0  0  0  0  0  0  0
  145.7715  133.7785  155.1309 H   0  0  0  0  0  0  0  0  0  0  0  0
  147.2357  134.5291  153.0036 H   0  0  0  0  0  0  0  0  0  0  0  0
  146.1257  135.8696  152.9351 H   0  0  0  0  0  0  0  0  0  0  0  0
  146.7554  136.2268  155.4782 H   0  0  0  0  0  0  0  0  0  0  0  0
  148.1150  135.1924  155.1243 H   0  0  0  0  0  0  0  0  0  0  0  0
  148.6088  136.8533  153.2326 H   0  0  0  0  0  0  0  0  0  0  0  0
  149.0623  139.0715  152.8846 H   0  0  0  0  0  0  0  0  0  0  0  0
  148.7505  140.2450  154.1531 H   0  0  0  0  0  0  0  0  0  0  0  0
  151.1286  137.1402  154.0788 H   0  0  0  0  0  0  0  0  0  0  0  0
  144.1506  132.7752  153.7516 H   0  0  0  0  0  0  0  0  0  0  0  0
  1  2  1  0  0  0  0
  1 20  1  0  0  0  0
  1 21  1  0  0  0  0
  1 22  1  0  0  0  0
  2  7  1  0  0  0  0
  2  3  1  0  0  0  0
  2 23  1  0  0  0  0
  3  4  1  0  0  0  0
  3 24  1  0  0  0  0
  3 25  1  0  0  0  0
  4  5  1  0  0  0  0
  4 26  1  0  0  0  0
  4 27  1  0  0  0  0
  5  6  1  0  0  0  0
  5 28  1  0  0  0  0
  5 29  1  0  0  0  0
  6  7  1  0  0  0  0
  6 30  1  0  0  0  0
  6 31  1  0  0  0  0
  7  8  1  0  0  0  0
  7 42  1  0  0  0  0
  8  9  1  0  0  0  0
  8 32  1  0  0  0  0
  8 33  1  0  0  0  0
  9 10  1  0  0  0  0
  9 34  1  0  0  0  0
  9 35  1  0  0  0  0
 10 11  1  0  0  0  0
 10 36  1  0  0  0  0
 10 37  1  0  0  0  0
 11 12  1  0  0  0  0
 11 38  1  0  0  0  0
 12 13  2  0  0  0  0
 12 14  1  0  0  0  0
 14 15  1  0  0  0  0
 14 39  1  0  0  0  0
 14 40  1  0  0  0  0
 15 19  1  0  0  0  0
 15 16  1  0  0  0  0
 16 17  2  0  0  0  0
 16 41  1  0  0  0  0
 17 18  1  0  0  0  0
 18 19  2  0  0  0  0
M  CHG  1   7   1
M  END
> <s_m_source_file>
AV-unprocessed.smi

> <i_m_source_file_index>
299

> <i_lp_mmshare_version>
43012

> <i_f3d_flags>
0

> <s_epik_input>
W0NIM11bQ0BASF0xW0NIMl1bQ0gyXVtDSDJdW0NIMl1OMVtDSDJdW0NIMl1bQ0gyXVtOSF1DKD1PKVtDSDJdbjJbY0hdbm5uMg==

> <s_epik_cmdline>
J2VwaWtfcHl0aG9uJywgJy1waCcsICc3LjAnLCAnLXRuJywgJzgnLCAnLW1hJywgJzIwMCcsICctbWV0YWxfYmluZGluZycsICctaW1hZScsICc8aW5maWxlLm1hZT4nLCAnLW9tYWUnLCAnPG91dGZpbGUubWFlPic=

> <r_lp_tautomer_probability>
1

> <r_epik_Ionization_Penalty>
0.000544863

> <r_epik_Ionization_Penalty_Charging>
0.000543475

> <r_epik_Ionization_Penalty_Neutral>
1.38784e-06

> <r_epik_State_Penalty>
0.000340025

> <r_epik_Charging_Adjusted_Penalty>
0.0008835

> <i_epik_Tot_Q>
1

> <i_epik_Tot_abs_Q>
1

> <r_epik_Metal_State_Penalty>
-0

> <b_epik_Metal_Only>
0

> <s_lp_Force_Field>
OPLS_2005

> <r_lp_Energy>
25.9803

> <b_lp_Chiralities_Consistent>
1

> <s_lp_Variant>
AV-unprocessed.smi:299-4

> <Gold.Version>
5.8.1

> <Gold.Id.Protein>
6NUR|6NUR_protein|mol2

> <Gold.PLP.Fitness>
46.9440

> <Gold.PLP.PLP>
-30.8074

> <Gold.PLP.part.hbond>
-5.2451

> <Gold.PLP.part.metal>
0.0000

> <Gold.PLP.part.buried>
-4.9718

> <Gold.PLP.part.nonpolar>
-20.7076

> <Gold.PLP.part.repulsive>
0.1097

> <Gold.PLP.ligand.clash>
0.0000

> <Gold.PLP.ligand.torsion>
0.7044

> <Gold.PLP.Chemscore.Hbond>
4.8363

> <Gold.PLP.Chemscore.CHOScore>
0.9949

> <Gold.PLP.Chemscore.Metal>
0.0000

> <Gold.Chemscore.Hbonds>
donor molecule, donor type, donor heavy atom, donor atom, acceptor molecule, acceptor atom, score
      L1  H     7    42       P1 10957  1.85
      L1  H    11    38       P1  7948  1.00
      P1  H  7989  7998       L1    19  0.59
      P1  H  7997  8010       L1    18  0.43
      L1  C    16    41       P1  7949  0.24

> <Gold.PLP.Chemscore.Internal.Correction>
0.0519

> <Gold.Rescore>
     Score         DG    S(hbond)    S(metal)    S(lipo)     H(rot)  DE(clash)    DE(int)     intcor
     13.59     -14.43       3.30        0.00      47.35       2.97       0.00       0.85       ----

> <Gold.Chemscore.Fitness>
13.5857

> <Gold.Chemscore.DG>
-14.4343

> <Gold.Chemscore.ZeroCoef>
-5.4800

> <Gold.Chemscore.Hbond>
3.2969

> <Gold.Chemscore.Metal>
0.0000

> <Gold.Chemscore.Lipo>
47.3545

> <Gold.Chemscore.Internal_Hbond>
0.0000

> <Gold.Chemscore.DEClash>
0.0015

> <Gold.Chemscore.DEInternal>
0.8471

> <Gold.Chemscore.Rot>
2.9680

> <Gold.Chemscore.Internal.Correction>
   9.000000E+99

> <Gold.Chemscore.Hbonds>
donor molecule, donor type, donor heavy atom, donor atom, acceptor molecule, acceptor atom, score
      L1  H     7    42       P1 10957  0.66
      L1  H    11    38       P1  7948  0.93
      P1  H  7989  7998       L1    19  0.01
      P1  H  7997  8010       L1    18  0.06

> <Gold.Chemscore.Hbond.Weighted>
-11.0118

> <Gold.Chemscore.Metal.Weighted>
-0.0000

> <Gold.Chemscore.Lipo.Weighted>
-5.5405

> <Gold.Chemscore.Internal_Hbond.Weighted>
0.0000

> <Gold.Chemscore.DEClash.Weighted>
0.0015

> <Gold.Chemscore.DEInternal.Weighted>
0.8471

> <Gold.Chemscore.Rot.Weighted>
7.5980

> <Gold.Chemscore.Internal.Correction.Weighted>
   9.000000E+99

> <Gold.Protein.RotatedTorsions>
[ 6907 6896 6895 6894 ] final -109.28 input  -60.11 | X-H torsion
[ 7974 7965 7964 7962 ] final   19.81 input  175.53 | X-H torsion
[ 8008 7997 7996 7995 ] final   97.26 input   59.86 | X-H torsion
[ 10167 10162 10161 10158 ] final   90.14 input  -65.29 | X-H torsion
[ 10718 10713 10712 10709 ] final  -68.51 input   66.30 | X-H torsion
[ 10763 10752 10751 10750 ] final   15.34 input  -60.55 | X-H torsion
[ 11005 11000 10999 10996 ] final  -93.47 input  -57.11 | X-H torsion

> <Gold.Protein.ActiveResidues>
 VAL166  LYS551  ARG553  GLY616  TRP617  ASP618  TYR619  PRO620  LYS621  CYS622 
 ASP623  PHE694  ASN695  SER759  ASP760  ASP761  ALA762  ILE779  LEU786  VAL792 
 PHE793  MET794  SER795  GLU796  ALA797  LYS798  CYS799  TRP800  GLU811  SER814 

> <Gold.Protein.RotatedAtoms>
  150.7552  133.9552  159.3498 H   0  0  0  0  0  0  0  0  0  0  0  0  # atno 6907 bound_to 6896
  151.7473  135.0838  160.0334 H   0  0  0  0  0  0  0  0  0  0  0  0  # atno 6908 bound_to 6896
  152.3489  133.6118  159.5966 H   0  0  0  0  0  0  0  0  0  0  0  0  # atno 6909 bound_to 6896
  146.2135  139.8260  142.8670 H   0  0  0  0  0  0  0  0  0  0  0  0  # atno 7974 bound_to 7965
  156.0883  140.3261  155.7782 H   0  0  0  0  0  0  0  0  0  0  0  0  # atno 8008 bound_to 7997
  155.5040  140.0571  157.2952 H   0  0  0  0  0  0  0  0  0  0  0  0  # atno 8009 bound_to 7997
  154.4622  140.1972  156.0230 H   0  0  0  0  0  0  0  0  0  0  0  0  # atno 8010 bound_to 7997
  139.8502  144.6597  150.9178 H   0  0  0  0  0  0  0  0  0  0  0  0  # atno 10167 bound_to 10162
  156.0502  130.4296  150.2011 H   0  0  0  0  0  0  0  0  0  0  0  0  # atno 10718 bound_to 10713
  153.1535  135.6783  153.8847 H   0  0  0  0  0  0  0  0  0  0  0  0  # atno 10763 bound_to 10752
  153.8266  135.3123  155.3416 H   0  0  0  0  0  0  0  0  0  0  0  0  # atno 10764 bound_to 10752
  154.7880  135.4851  154.0076 H   0  0  0  0  0  0  0  0  0  0  0  0  # atno 10765 bound_to 10752
  141.1496  133.7890  157.0164 H   0  0  0  0  0  0  0  0  0  0  0  0  # atno 11005 bound_to 11000
  145.3047  141.0204  143.3589 LP  0  0  0  0  0  0  0  0  0  0  0  0  # atno 17320 bound_to 7965
  144.8980  139.4687  143.6646 LP  0  0  0  0  0  0  0  0  0  0  0  0  # atno 17321 bound_to 7965
  140.7788  143.3834  151.1437 LP  0  0  0  0  0  0  0  0  0  0  0  0  # atno 17342 bound_to 10162
  139.7472  143.8833  152.3067 LP  0  0  0  0  0  0  0  0  0  0  0  0  # atno 17343 bound_to 10162
  157.0095  130.9946  151.3369 LP  0  0  0  0  0  0  0  0  0  0  0  0  # atno 17370 bound_to 10713
  157.5420  130.8126  149.8040 LP  0  0  0  0  0  0  0  0  0  0  0  0  # atno 17371 bound_to 10713
  140.0844  134.9629  157.1676 LP  0  0  0  0  0  0  0  0  0  0  0  0  # atno 17394 bound_to 11000
  140.3532  134.2575  155.7196 LP  0  0  0  0  0  0  0  0  0  0  0  0  # atno 17395 bound_to 11000

$$$$
