#       Name:                AV-unprocessed.smi:2557
#       Creating user name   scv26
#       Creation time:       Fri Mar 27 14:07:19 2020


#       File generated by GOLD software.
#

@<TRIPOS>MOLECULE
AV-unprocessed.smi:2557
    42    44     1
SMALL
NO_CHARGES


@<TRIPOS>ATOM
      1 ****        -0.5776  -4.5818  -0.1831 O.co2          1 S1                -1.0000
      2 ****         0.1049  -3.5448  -0.0073 C.2            1 S1                 0.0000
      3 ****        -0.2408  -2.1921   0.0420 C.2            1 S1                 0.0000
      4 ****        -1.6377  -1.7512  -0.1015 C.2            1 S1                 0.0000
      5 ****        -2.6077  -2.4855  -0.2850 O.2            1 S1                 0.0000
      6 ****        -1.8094  -0.4177  -0.0175 N.am           1 S1                 0.0000
      7 ****        -0.7657   0.4862   0.1916 C.2            1 S1                 0.0000
      8 ****        -1.2728   1.9287   0.2302 C.3            1 S1                 0.0000
      9 ****        -1.6896   2.4264  -1.1727 C.3            1 S1                 0.0000
     10 ****        -2.2415   3.8611  -1.1250 C.3            1 S1                 0.0000
     11 ****        -1.2366   4.8267  -0.4785 C.3            1 S1                 0.0000
     12 ****        -0.8292   4.3430   0.9213 C.3            1 S1                 0.0000
     13 ****        -0.2660   2.9135   0.8709 C.3            1 S1                 0.0000
     14 ****         0.4842   0.1577   0.3197 N.2            1 S1                 0.0000
     15 ****         0.7366  -1.1923   0.2474 N.pl3          1 S1                 0.0000
     16 ****         1.5271  -3.9237   0.1016 C.ar           1 S1                 0.0000
     17 ****         2.4392  -3.6286  -0.9355 C.ar           1 S1                 0.0000
     18 ****         3.7844  -4.0195  -0.7874 C.ar           1 S1                 0.0000
     19 ****         4.2535  -4.6692   0.2992 N.ar           1 S1                 0.0000
     20 ****         3.3775  -4.9567   1.2858 C.ar           1 S1                 0.0000
     21 ****         2.0130  -4.6109   1.2356 C.ar           1 S1                 0.0000
     22 ****        -2.1666   1.9355   0.8571 H              1 S1                 0.0000
     23 ****        -0.8322   2.3908  -1.8468 H              1 S1                 0.0000
     24 ****        -2.4459   1.7693  -1.6039 H              1 S1                 0.0000
     25 ****        -2.4859   4.1989  -2.1325 H              1 S1                 0.0000
     26 ****        -3.1746   3.8740  -0.5604 H              1 S1                 0.0000
     27 ****        -0.3501   4.9089  -1.1087 H              1 S1                 0.0000
     28 ****        -1.6667   5.8267  -0.4173 H              1 S1                 0.0000
     29 ****        -0.0878   5.0196   1.3474 H              1 S1                 0.0000
     30 ****        -1.6937   4.3732   1.5857 H              1 S1                 0.0000
     31 ****        -0.0131   2.5895   1.8815 H              1 S1                 0.0000
     32 ****         0.6663   2.9204   0.3039 H              1 S1                 0.0000
     33 ****         1.7105  -1.4555   0.3511 H              1 S1                 0.0000
     34 ****         2.1116  -3.1119  -1.8255 H              1 S1                 0.0000
     35 ****         4.5036  -3.8047  -1.5639 H              1 S1                 0.0000
     36 ****         3.7765  -5.4793   2.1424 H              1 S1                 0.0000
     37 ****         1.3514  -4.8645   2.0509 H              1 S1                 0.0000
     38 ****        -2.7483  -0.0599  -0.1110 H              1 S1                 0.0000
     39 ****        -2.4806  -3.4754  -0.3485 LP             1 S1                 0.0000
     40 ****        -3.5232  -2.0925  -0.3707 LP             1 S1                 0.0000
     41 ****         1.2072   0.8341   0.4600 LP             1 S1                 0.0000
     42 ****         5.2166  -4.9286   0.3709 LP             1 S1                 0.0000
@<TRIPOS>BOND
    1    1    2 ar    
    2    2    3 2     
    3    2   16 1     
    4    3   15 1     
    5    3    4 1     
    6    4    5 2     
    7    4    6 am    
    8    6    7 1     
    9    6   38 1     
   10    7    8 1     
   11    7   14 2     
   12    8   13 1     
   13    8    9 1     
   14    8   22 1     
   15    9   10 1     
   16    9   23 1     
   17    9   24 1     
   18   10   11 1     
   19   10   25 1     
   20   10   26 1     
   21   11   12 1     
   22   11   27 1     
   23   11   28 1     
   24   12   13 1     
   25   12   29 1     
   26   12   30 1     
   27   13   31 1     
   28   13   32 1     
   29   14   15 1     
   30   15   33 1     
   31   16   21 ar    
   32   16   17 ar    
   33   17   18 ar    
   34   17   34 1     
   35   18   19 ar    
   36   18   35 1     
   37   19   20 ar    
   38   20   21 ar    
   39   20   36 1     
   40   21   37 1     
   41    5   39 1     
   42    5   40 1     
   43   14   41 1     
   44   19   42 1     
@<TRIPOS>SUBSTRUCTURE
      1 S1             1
@<TRIPOS>SET
LONE_PAIRS      STATIC     ATOMS    <user>   **** ""
5 1 39 40 41 42
DONOR_HYDROGENS      STATIC     ATOMS    <user>   **** ""
2 38 33
ATOM$BLUE        STATIC     ATOMS    COLORGROUP SYSTEM
5 1 39 40 41 42
ATOM$RED        STATIC     ATOMS    COLORGROUP SYSTEM
2 38 33
