AV-unprocessed.smi:738|AV-procd|sdf|3541|dock7
  -GOLD-   22720 0533D 1   1.00000     0.00000
 Structure written by MMmdl.
 35 37  0  0  0  0  0  0  0  0  1 V2000
  144.3619  134.0385  154.7188 N   0  0  0  0  0  0  0  0  0  0  0  0
  144.5322  134.7801  153.6201 C   0  0  0  0  0  0  0  0  0  0  0  0
  144.0935  134.4422  152.5225 O   0  0  0  0  0  0  0  0  0  0  0  0
  145.3522  136.0274  153.7816 C   0  0  0  0  0  0  0  0  0  0  0  0
  145.8931  136.3735  155.0387 C   0  0  0  0  0  0  0  0  0  0  0  0
  146.6545  137.4683  155.2468 N   0  0  0  0  0  0  0  0  0  0  0  0
  146.9258  138.2815  154.1977 C   0  0  0  0  0  0  0  0  0  0  0  0
  147.7341  139.4098  154.4298 N   0  0  0  0  0  0  0  0  0  0  0  0
  147.0318  140.6477  154.1253 C   0  0  0  0  0  0  0  0  0  0  0  0
  147.8182  141.8361  154.6927 C   0  0  0  0  0  0  0  0  0  0  0  0
  149.1307  141.8564  154.1393 O   0  0  0  0  0  0  0  0  0  0  0  0
  149.8721  140.6465  154.3094 C   0  0  1  0  0  0  0  0  0  0  0  0
  150.3960  140.3840  155.7305 C   0  0  0  0  0  0  0  0  0  0  0  0
  150.4783  138.8545  155.8635 C   0  0  0  0  0  0  0  0  0  0  0  0
  149.9542  138.2692  154.5434 C   0  0  0  0  0  0  0  0  0  0  0  0
  149.1023  139.3776  153.9047 C   0  0  1  0  0  0  0  0  0  0  0  0
  146.4426  138.0144  152.8939 C   0  0  0  0  0  0  0  0  0  0  0  0
  146.7891  139.0633  151.5629 Cl  0  0  0  0  0  0  0  0  0  0  0  0
  145.6484  136.8697  152.6870 C   0  0  0  0  0  0  0  0  0  0  0  0
  143.8226  133.1862  154.6674 H   0  0  0  0  0  0  0  0  0  0  0  0
  144.7743  134.3272  155.5940 H   0  0  0  0  0  0  0  0  0  0  0  0
  145.7100  135.7609  155.9095 H   0  0  0  0  0  0  0  0  0  0  0  0
  146.9235  140.7481  153.0443 H   0  0  0  0  0  0  0  0  0  0  0  0
  146.0269  140.6335  154.5492 H   0  0  0  0  0  0  0  0  0  0  0  0
  147.3186  142.7707  154.4378 H   0  0  0  0  0  0  0  0  0  0  0  0
  147.8565  141.7904  155.7811 H   0  0  0  0  0  0  0  0  0  0  0  0
  150.7434  140.7247  153.6575 H   0  0  0  0  0  0  0  0  0  0  0  0
  151.3625  140.8625  155.8919 H   0  0  0  0  0  0  0  0  0  0  0  0
  149.7163  140.7723  156.4880 H   0  0  0  0  0  0  0  0  0  0  0  0
  151.4949  138.5182  156.0693 H   0  0  0  0  0  0  0  0  0  0  0  0
  149.8523  138.5246  156.6936 H   0  0  0  0  0  0  0  0  0  0  0  0
  150.8023  138.0613  153.8897 H   0  0  0  0  0  0  0  0  0  0  0  0
  149.4267  137.3253  154.6835 H   0  0  0  0  0  0  0  0  0  0  0  0
  149.0718  139.2808  152.8186 H   0  0  0  0  0  0  0  0  0  0  0  0
  145.2769  136.6499  151.6965 H   0  0  0  0  0  0  0  0  0  0  0  0
  1  2  1  0  0  0  0
  1 20  1  0  0  0  0
  1 21  1  0  0  0  0
  2  3  2  0  0  0  0
  2  4  1  0  0  0  0
  4 19  1  0  0  0  0
  4  5  2  0  0  0  0
  5  6  1  0  0  0  0
  5 22  1  0  0  0  0
  6  7  2  0  0  0  0
  7  8  1  0  0  0  0
  7 17  1  0  0  0  0
  8 16  1  0  0  0  0
  8  9  1  0  0  0  0
  9 10  1  0  0  0  0
  9 23  1  0  0  0  0
  9 24  1  0  0  0  0
 10 11  1  0  0  0  0
 10 25  1  0  0  0  0
 10 26  1  0  0  0  0
 11 12  1  0  0  0  0
 12 16  1  0  0  0  0
 12 13  1  0  0  0  0
 12 27  1  0  0  0  0
 13 14  1  0  0  0  0
 13 28  1  0  0  0  0
 13 29  1  0  0  0  0
 14 15  1  0  0  0  0
 14 30  1  0  0  0  0
 14 31  1  0  0  0  0
 15 16  1  0  0  0  0
 15 32  1  0  0  0  0
 15 33  1  0  0  0  0
 16 34  1  0  0  0  0
 17 18  1  0  0  0  0
 17 19  2  0  0  0  0
 19 35  1  0  0  0  0
M  END
> <s_m_source_file>
AV-unprocessed.smi

> <i_m_source_file_index>
738

> <i_lp_mmshare_version>
43012

> <i_f3d_flags>
0

> <s_epik_input>
W05IMl1DKD1PKWMxW2NIXW5jKGMoQ2wpW2NIXTEpTihbQ0gyXVtDSDJdTzIpW0NASF0oW0NASF0yMylbQ0gyXVtDSDJdW0NIMl0z

> <s_epik_cmdline>
J2VwaWtfcHl0aG9uJywgJy1waCcsICc3LjAnLCAnLXRuJywgJzgnLCAnLW1hJywgJzIwMCcsICctbWV0YWxfYmluZGluZycsICctaW1hZScsICc8aW5maWxlLm1hZT4nLCAnLW9tYWUnLCAnPG91dGZpbGUubWFlPic=

> <r_lp_tautomer_probability>
1

> <r_epik_Ionization_Penalty>
6.75978e-06

> <r_epik_Ionization_Penalty_Charging>
0

> <r_epik_Ionization_Penalty_Neutral>
6.75978e-06

> <r_epik_State_Penalty>
-0

> <r_epik_Charging_Adjusted_Penalty>
0

> <i_epik_Tot_Q>
0

> <i_epik_Tot_abs_Q>
0

> <r_epik_Metal_State_Penalty>
-0

> <b_epik_Metal_Only>
0

> <s_lp_Force_Field>
OPLS_2005

> <r_lp_Energy>
43.0455

> <b_lp_Chiralities_Consistent>
1

> <s_lp_Variant>
AV-unprocessed.smi:738-4

> <Gold.Version>
5.8.1

> <Gold.Id.Protein>
6NUR|6NUR_protein|mol2

> <Gold.PLP.Fitness>
25.5968

> <Gold.PLP.PLP>
-21.2449

> <Gold.PLP.part.hbond>
-2.4496

> <Gold.PLP.part.metal>
0.0000

> <Gold.PLP.part.buried>
4.8296

> <Gold.PLP.part.nonpolar>
-23.6806

> <Gold.PLP.part.repulsive>
0.4567

> <Gold.PLP.ligand.clash>
0.0000

> <Gold.PLP.ligand.torsion>
0.1313

> <Gold.PLP.Chemscore.Hbond>
1.4800

> <Gold.PLP.Chemscore.CHOScore>
0.0000

> <Gold.PLP.Chemscore.Metal>
0.0000

> <Gold.Chemscore.Hbonds>
donor molecule, donor type, donor heavy atom, donor atom, acceptor molecule, acceptor atom, score
      L1  H     1    20       P1 10957  1.00
      P1  H  8011  8017       L1    11  0.48

> <Gold.PLP.Chemscore.Internal.Correction>
0.1746

> <Gold.Rescore>
     Score         DG    S(hbond)    S(metal)    S(lipo)     H(rot)  DE(clash)    DE(int)     intcor
     13.25     -15.45       1.48        0.00      64.99       1.00       0.76       1.44       ----

> <Gold.Chemscore.Fitness>
13.2530

> <Gold.Chemscore.DG>
-15.4542

> <Gold.Chemscore.ZeroCoef>
-5.4800

> <Gold.Chemscore.Hbond>
1.4761

> <Gold.Chemscore.Metal>
0.0000

> <Gold.Chemscore.Lipo>
64.9901

> <Gold.Chemscore.Internal_Hbond>
0.0000

> <Gold.Chemscore.DEClash>
0.7605

> <Gold.Chemscore.DEInternal>
1.4407

> <Gold.Chemscore.Rot>
1.0000

> <Gold.Chemscore.Internal.Correction>
   9.000000E+99

> <Gold.Chemscore.Hbonds>
donor molecule, donor type, donor heavy atom, donor atom, acceptor molecule, acceptor atom, score
      L1  H     1    20       P1 10957  1.00
      P1  H  8011  8017       L1    11  0.12

> <Gold.Chemscore.Hbond.Weighted>
-4.9303

> <Gold.Chemscore.Metal.Weighted>
-0.0000

> <Gold.Chemscore.Lipo.Weighted>
-7.6038

> <Gold.Chemscore.Internal_Hbond.Weighted>
0.0000

> <Gold.Chemscore.DEClash.Weighted>
0.7605

> <Gold.Chemscore.DEInternal.Weighted>
1.4407

> <Gold.Chemscore.Rot.Weighted>
2.5600

> <Gold.Chemscore.Internal.Correction.Weighted>
   9.000000E+99

> <Gold.Protein.RotatedTorsions>
[ 6907 6896 6895 6894 ] final  147.92 input  -60.11 | X-H torsion
[ 7974 7965 7964 7962 ] final -175.63 input  175.53 | X-H torsion
[ 8008 7997 7996 7995 ] final  159.26 input   59.86 | X-H torsion
[ 10167 10162 10161 10158 ] final  110.02 input  -65.29 | X-H torsion
[ 10718 10713 10712 10709 ] final  -52.59 input   66.30 | X-H torsion
[ 10763 10752 10751 10750 ] final  159.01 input  -60.55 | X-H torsion
[ 11005 11000 10999 10996 ] final -150.29 input  -57.11 | X-H torsion

> <Gold.Protein.ActiveResidues>
 VAL166  LYS551  ARG553  GLY616  TRP617  ASP618  TYR619  PRO620  LYS621  CYS622 
 ASP623  PHE694  ASN695  SER759  ASP760  ASP761  ALA762  ILE779  LEU786  VAL792 
 PHE793  MET794  SER795  GLU796  ALA797  LYS798  CYS799  TRP800  GLU811  SER814 

> <Gold.Protein.RotatedAtoms>
  152.1484  133.4506  159.4800 H   0  0  0  0  0  0  0  0  0  0  0  0  # atno 6907 bound_to 6896
  150.6893  134.2219  159.4409 H   0  0  0  0  0  0  0  0  0  0  0  0  # atno 6908 bound_to 6896
  152.0114  134.9873  160.0619 H   0  0  0  0  0  0  0  0  0  0  0  0  # atno 6909 bound_to 6896
  144.7128  140.1291  143.6400 H   0  0  0  0  0  0  0  0  0  0  0  0  # atno 7974 bound_to 7965
  156.2250  140.1836  156.7384 H   0  0  0  0  0  0  0  0  0  0  0  0  # atno 8008 bound_to 7997
  154.5927  140.0648  156.9289 H   0  0  0  0  0  0  0  0  0  0  0  0  # atno 8009 bound_to 7997
  155.2309  140.3314  155.4306 H   0  0  0  0  0  0  0  0  0  0  0  0  # atno 8010 bound_to 7997
  139.6721  144.7124  151.1669 H   0  0  0  0  0  0  0  0  0  0  0  0  # atno 10167 bound_to 10162
  156.1608  130.4150  149.9796 H   0  0  0  0  0  0  0  0  0  0  0  0  # atno 10718 bound_to 10713
  154.2250  135.2780  155.2911 H   0  0  0  0  0  0  0  0  0  0  0  0  # atno 10763 bound_to 10752
  154.5671  135.5630  153.7064 H   0  0  0  0  0  0  0  0  0  0  0  0  # atno 10764 bound_to 10752
  153.0033  135.6312  154.2391 H   0  0  0  0  0  0  0  0  0  0  0  0  # atno 10765 bound_to 10752
  140.7418  134.3506  157.5146 H   0  0  0  0  0  0  0  0  0  0  0  0  # atno 11005 bound_to 11000
  145.9303  139.2602  143.1329 LP  0  0  0  0  0  0  0  0  0  0  0  0  # atno 17320 bound_to 7965
  145.9530  140.8894  143.0249 LP  0  0  0  0  0  0  0  0  0  0  0  0  # atno 17321 bound_to 7965
  140.7622  143.5828  150.8877 LP  0  0  0  0  0  0  0  0  0  0  0  0  # atno 17342 bound_to 10162
  139.9494  143.6289  152.3033 LP  0  0  0  0  0  0  0  0  0  0  0  0  # atno 17343 bound_to 10162
  156.7625  130.9156  151.3642 LP  0  0  0  0  0  0  0  0  0  0  0  0  # atno 17370 bound_to 10713
  157.6731  130.9069  150.0087 LP  0  0  0  0  0  0  0  0  0  0  0  0  # atno 17371 bound_to 10713
  139.8804  134.9085  156.2970 LP  0  0  0  0  0  0  0  0  0  0  0  0  # atno 17394 bound_to 11000
  140.9830  133.7255  156.0700 LP  0  0  0  0  0  0  0  0  0  0  0  0  # atno 17395 bound_to 11000

$$$$
