AV-unprocessed.smi:657|AV-procd|sdf|3225|dock10
  -GOLD-   22720 0163D 1   1.00000     0.00000
 Structure written by MMmdl.
 46 47  0  0  0  0  0  0  0  0  1 V2000
  150.7072  141.3807  155.9595 C   0  0  0  0  0  0  0  0  0  0  0  0
  151.0612  140.8612  157.3655 C   0  0  0  0  0  0  0  0  0  0  0  0
  149.8194  140.3176  158.1015 C   0  0  0  0  0  0  0  0  0  0  0  0
  151.8142  141.8715  158.1431 N   0  0  0  0  0  0  0  0  0  0  0  0
  151.0298  143.0811  158.4457 C   0  0  0  0  0  0  0  0  0  0  0  0
  151.9317  144.2041  158.9847 C   0  0  0  0  0  0  0  0  0  0  0  0
  152.6574  143.7602  160.2557 C   0  0  0  0  0  0  0  0  0  0  0  0
  153.4234  142.4669  159.9691 C   0  0  0  0  0  0  0  0  0  0  0  0
  152.4898  141.3786  159.3884 C   0  0  2  0  0  0  0  0  0  0  0  0
  153.2845  140.0691  159.2188 C   0  0  0  0  0  0  0  0  0  0  0  0
  153.4538  139.5834  158.0997 O   0  0  0  0  0  0  0  0  0  0  0  0
  153.7430  139.4979  160.3436 N   0  0  0  0  0  0  0  0  0  0  0  0
  154.4960  138.2515  160.4060 C   0  0  0  0  0  0  0  0  0  0  0  0
  153.7911  137.2108  161.2896 C   0  0  0  0  0  0  0  0  0  0  0  0
  154.1837  137.3602  162.7325 C   0  0  0  0  0  0  0  0  0  0  0  0
  153.6947  136.6272  163.8513 C   0  0  0  0  0  0  0  0  0  0  0  0
  154.2429  137.0065  164.9942 N   0  0  0  0  0  0  0  0  0  0  0  0
  155.0980  137.9900  164.6464 N   0  0  0  0  0  0  0  0  0  0  0  0
  155.8838  138.6467  165.6689 C   0  0  0  0  0  0  0  0  0  0  0  0
  155.0836  138.2251  163.2885 C   0  0  0  0  0  0  0  0  0  0  0  0
  150.3607  140.5624  155.3278 H   0  0  0  0  0  0  0  0  0  0  0  0
  151.5760  141.8228  155.4706 H   0  0  0  0  0  0  0  0  0  0  0  0
  149.9102  142.1234  155.9736 H   0  0  0  0  0  0  0  0  0  0  0  0
  151.7166  140.0148  157.1675 H   0  0  0  0  0  0  0  0  0  0  0  0
  149.3581  139.5140  157.5271 H   0  0  0  0  0  0  0  0  0  0  0  0
  149.0587  141.0852  158.2434 H   0  0  0  0  0  0  0  0  0  0  0  0
  150.0700  139.9074  159.0792 H   0  0  0  0  0  0  0  0  0  0  0  0
  150.5305  143.4621  157.5573 H   0  0  0  0  0  0  0  0  0  0  0  0
  150.2482  142.8577  159.1731 H   0  0  0  0  0  0  0  0  0  0  0  0
  152.6582  144.4910  158.2231 H   0  0  0  0  0  0  0  0  0  0  0  0
  151.3346  145.0925  159.1921 H   0  0  0  0  0  0  0  0  0  0  0  0
  153.3398  144.5391  160.5964 H   0  0  0  0  0  0  0  0  0  0  0  0
  151.9371  143.5969  161.0582 H   0  0  0  0  0  0  0  0  0  0  0  0
  154.2336  142.6803  159.2697 H   0  0  0  0  0  0  0  0  0  0  0  0
  153.8938  142.1154  160.8887 H   0  0  0  0  0  0  0  0  0  0  0  0
  151.7172  141.1863  160.1356 H   0  0  0  0  0  0  0  0  0  0  0  0
  153.5490  139.9583  161.2210 H   0  0  0  0  0  0  0  0  0  0  0  0
  154.5970  137.8693  159.3897 H   0  0  0  0  0  0  0  0  0  0  0  0
  155.5081  138.4407  160.7680 H   0  0  0  0  0  0  0  0  0  0  0  0
  152.7106  137.3109  161.1794 H   0  0  0  0  0  0  0  0  0  0  0  0
  154.0336  136.2100  160.9304 H   0  0  0  0  0  0  0  0  0  0  0  0
  152.9600  135.8356  163.8657 H   0  0  0  0  0  0  0  0  0  0  0  0
  156.5159  139.4134  165.2202 H   0  0  0  0  0  0  0  0  0  0  0  0
  156.5168  137.9165  166.1740 H   0  0  0  0  0  0  0  0  0  0  0  0
  155.2228  139.1150  166.3989 H   0  0  0  0  0  0  0  0  0  0  0  0
  155.7068  138.9811  162.8339 H   0  0  0  0  0  0  0  0  0  0  0  0
  1  2  1  0  0  0  0
  1 21  1  0  0  0  0
  1 22  1  0  0  0  0
  1 23  1  0  0  0  0
  2  3  1  0  0  0  0
  2  4  1  0  0  0  0
  2 24  1  0  0  0  0
  3 25  1  0  0  0  0
  3 26  1  0  0  0  0
  3 27  1  0  0  0  0
  4  9  1  0  0  0  0
  4  5  1  0  0  0  0
  5  6  1  0  0  0  0
  5 28  1  0  0  0  0
  5 29  1  0  0  0  0
  6  7  1  0  0  0  0
  6 30  1  0  0  0  0
  6 31  1  0  0  0  0
  7  8  1  0  0  0  0
  7 32  1  0  0  0  0
  7 33  1  0  0  0  0
  8  9  1  0  0  0  0
  8 34  1  0  0  0  0
  8 35  1  0  0  0  0
  9 10  1  0  0  0  0
  9 36  1  0  0  0  0
 10 11  2  0  0  0  0
 10 12  1  0  0  0  0
 12 13  1  0  0  0  0
 12 37  1  0  0  0  0
 13 14  1  0  0  0  0
 13 38  1  0  0  0  0
 13 39  1  0  0  0  0
 14 15  1  0  0  0  0
 14 40  1  0  0  0  0
 14 41  1  0  0  0  0
 15 20  2  0  0  0  0
 15 16  1  0  0  0  0
 16 17  2  0  0  0  0
 16 42  1  0  0  0  0
 17 18  1  0  0  0  0
 18 19  1  0  0  0  0
 18 20  1  0  0  0  0
 19 43  1  0  0  0  0
 19 44  1  0  0  0  0
 19 45  1  0  0  0  0
 20 46  1  0  0  0  0
M  END
> <s_m_source_file>
AV-unprocessed.smi

> <i_m_source_file_index>
657

> <i_lp_mmshare_version>
43012

> <i_f3d_flags>
0

> <s_epik_input>
W0NIM11bQ0hdKFtDSDNdKU4xW0NIMl1bQ0gyXVtDSDJdW0NIMl1bQ0BIXTFDKD1PKVtOSF1bQ0gyXVtDSDJdYzJbY0hdbm4oW0NIM10pW2NIXTI=

> <s_epik_cmdline>
J2VwaWtfcHl0aG9uJywgJy1waCcsICc3LjAnLCAnLXRuJywgJzgnLCAnLW1hJywgJzIwMCcsICctbWV0YWxfYmluZGluZycsICctaW1hZScsICc8aW5maWxlLm1hZT4nLCAnLW9tYWUnLCAnPG91dGZpbGUubWFlPic=

> <r_lp_tautomer_probability>
1

> <r_epik_Ionization_Penalty>
1.91154

> <r_epik_Ionization_Penalty_Charging>
0

> <r_epik_Ionization_Penalty_Neutral>
1.91154

> <r_epik_State_Penalty>
2.0331

> <r_epik_Charging_Adjusted_Penalty>
2.0331

> <i_epik_Tot_Q>
0

> <i_epik_Tot_abs_Q>
0

> <r_epik_Metal_State_Penalty>
2.04973

> <b_epik_Metal_Only>
0

> <s_lp_Force_Field>
OPLS_2005

> <r_lp_Energy>
15.3254

> <b_lp_Chiralities_Consistent>
1

> <s_lp_Variant>
AV-unprocessed.smi:657-6

> <Gold.Version>
5.8.1

> <Gold.Id.Protein>
6NUR|6NUR_protein|mol2

> <Gold.PLP.Fitness>
44.2878

> <Gold.PLP.PLP>
-41.8101

> <Gold.PLP.part.hbond>
-1.0000

> <Gold.PLP.part.metal>
0.0000

> <Gold.PLP.part.buried>
-6.1040

> <Gold.PLP.part.nonpolar>
-35.5637

> <Gold.PLP.part.repulsive>
0.9328

> <Gold.PLP.ligand.clash>
0.0000

> <Gold.PLP.ligand.torsion>
0.3229

> <Gold.PLP.Chemscore.Hbond>
1.0000

> <Gold.PLP.Chemscore.CHOScore>
0.0000

> <Gold.PLP.Chemscore.Metal>
0.0000

> <Gold.Chemscore.Hbonds>
donor molecule, donor type, donor heavy atom, donor atom, acceptor molecule, acceptor atom, score
      P1  H  7997  8008       L1    11  1.00

> <Gold.PLP.Chemscore.Internal.Correction>
0.1234

> <Gold.Rescore>
     Score         DG    S(hbond)    S(metal)    S(lipo)     H(rot)  DE(clash)    DE(int)     intcor
     16.08     -17.97       0.99        0.00     112.83       1.57       0.27       1.61       ----

> <Gold.Chemscore.Fitness>
16.0791

> <Gold.Chemscore.DG>
-17.9659

> <Gold.Chemscore.ZeroCoef>
-5.4800

> <Gold.Chemscore.Hbond>
0.9920

> <Gold.Chemscore.Metal>
0.0000

> <Gold.Chemscore.Lipo>
112.8290

> <Gold.Chemscore.Internal_Hbond>
0.0000

> <Gold.Chemscore.DEClash>
0.2746

> <Gold.Chemscore.DEInternal>
1.6122

> <Gold.Chemscore.Rot>
1.5736

> <Gold.Chemscore.Internal.Correction>
   9.000000E+99

> <Gold.Chemscore.Hbonds>
donor molecule, donor type, donor heavy atom, donor atom, acceptor molecule, acceptor atom, score
      P1  H  7997  8008       L1    11  0.99

> <Gold.Chemscore.Hbond.Weighted>
-3.3133

> <Gold.Chemscore.Metal.Weighted>
-0.0000

> <Gold.Chemscore.Lipo.Weighted>
-13.2010

> <Gold.Chemscore.Internal_Hbond.Weighted>
0.0000

> <Gold.Chemscore.DEClash.Weighted>
0.2746

> <Gold.Chemscore.DEInternal.Weighted>
1.6122

> <Gold.Chemscore.Rot.Weighted>
4.0284

> <Gold.Chemscore.Internal.Correction.Weighted>
   9.000000E+99

> <Gold.Protein.RotatedTorsions>
[ 6907 6896 6895 6894 ] final  163.50 input  -60.11 | X-H torsion
[ 7974 7965 7964 7962 ] final  179.45 input  175.53 | X-H torsion
[ 8008 7997 7996 7995 ] final  -78.87 input   59.86 | X-H torsion
[ 10167 10162 10161 10158 ] final   95.47 input  -65.29 | X-H torsion
[ 10718 10713 10712 10709 ] final  135.24 input   66.30 | X-H torsion
[ 10763 10752 10751 10750 ] final  157.39 input  -60.55 | X-H torsion
[ 11005 11000 10999 10996 ] final   47.35 input  -57.11 | X-H torsion

> <Gold.Protein.ActiveResidues>
 VAL166  LYS551  ARG553  GLY616  TRP617  ASP618  TYR619  PRO620  LYS621  CYS622 
 ASP623  PHE694  ASN695  SER759  ASP760  ASP761  ALA762  ILE779  LEU786  VAL792 
 PHE793  MET794  SER795  GLU796  ALA797  LYS798  CYS799  TRP800  GLU811  SER814 

> <Gold.Protein.RotatedAtoms>
  151.9242  133.3593  159.3907 H   0  0  0  0  0  0  0  0  0  0  0  0  # atno 6907 bound_to 6896
  150.7030  134.4604  159.5387 H   0  0  0  0  0  0  0  0  0  0  0  0  # atno 6908 bound_to 6896
  152.2233  134.8392  160.0534 H   0  0  0  0  0  0  0  0  0  0  0  0  # atno 6909 bound_to 6896
  144.7145  140.0550  143.6434 H   0  0  0  0  0  0  0  0  0  0  0  0  # atno 7974 bound_to 7965
  154.5730  140.0687  156.8993 H   0  0  0  0  0  0  0  0  0  0  0  0  # atno 8008 bound_to 7997
  155.2599  140.3358  155.4256 H   0  0  0  0  0  0  0  0  0  0  0  0  # atno 8009 bound_to 7997
  156.2133  140.1768  156.7632 H   0  0  0  0  0  0  0  0  0  0  0  0  # atno 8010 bound_to 7997
  139.7986  144.6823  150.9795 H   0  0  0  0  0  0  0  0  0  0  0  0  # atno 10167 bound_to 10162
  157.4590  131.1072  150.9942 H   0  0  0  0  0  0  0  0  0  0  0  0  # atno 10718 bound_to 10713
  154.1995  135.2791  155.2995 H   0  0  0  0  0  0  0  0  0  0  0  0  # atno 10763 bound_to 10752
  154.5865  135.5573  153.7239 H   0  0  0  0  0  0  0  0  0  0  0  0  # atno 10764 bound_to 10752
  153.0091  135.6357  154.2134 H   0  0  0  0  0  0  0  0  0  0  0  0  # atno 10765 bound_to 10752
  140.1287  134.4734  155.8538 H   0  0  0  0  0  0  0  0  0  0  0  0  # atno 11005 bound_to 11000
  145.9912  139.3016  143.0983 LP  0  0  0  0  0  0  0  0  0  0  0  0  # atno 17320 bound_to 7965
  145.8900  140.9309  143.0557 LP  0  0  0  0  0  0  0  0  0  0  0  0  # atno 17321 bound_to 7965
  140.7820  143.4305  151.0701 LP  0  0  0  0  0  0  0  0  0  0  0  0  # atno 17342 bound_to 10162
  139.7978  143.8126  152.3159 LP  0  0  0  0  0  0  0  0  0  0  0  0  # atno 17343 bound_to 10162
  157.0746  130.5878  149.5409 LP  0  0  0  0  0  0  0  0  0  0  0  0  # atno 17370 bound_to 10713
  156.0020  130.5101  150.7697 LP  0  0  0  0  0  0  0  0  0  0  0  0  # atno 17371 bound_to 10713
  141.2166  133.6787  156.7028 LP  0  0  0  0  0  0  0  0  0  0  0  0  # atno 17394 bound_to 11000
  140.2870  134.8271  157.3983 LP  0  0  0  0  0  0  0  0  0  0  0  0  # atno 17395 bound_to 11000

$$$$
