#       Name:                AV-unprocessed.smi:1645
#       Creating user name   scv26
#       Creation time:       Fri Mar 27 07:31:29 2020


#       File generated by GOLD software.
#

@<TRIPOS>MOLECULE
AV-unprocessed.smi:1645
    59    62     1
SMALL
NO_CHARGES


@<TRIPOS>ATOM
      1 ****        -0.9997   1.6339   0.2617 O.2            1 S1                 0.0000
      2 ****        -1.3031   0.5043   0.6441 C.2            1 S1                 0.0000
      3 ****        -0.4416  -0.5094   0.8368 N.am           1 S1                 0.0000
      4 ****         0.9752  -0.5026   0.7180 C.ar           1 S1                 0.0000
      5 ****         1.6346  -1.7460   0.6272 C.ar           1 S1                 0.0000
      6 ****         3.0402  -1.7912   0.5264 C.ar           1 S1                 0.0000
      7 ****         3.7877  -0.5863   0.5277 C.ar           1 S1                 0.0000
      8 ****         5.1965  -0.5309   0.4278 N.3            1 S1                 0.0000
      9 ****         5.8749   0.4098   1.3256 C.3            1 S1                 0.0000
     10 ****         7.3088   0.7044   0.8532 C.3            1 S1                 0.0000
     11 ****         8.1003  -0.5937   0.6434 C.3            1 S1                 0.0000
     12 ****         7.3478  -1.5094  -0.3315 C.3            1 S1                 0.0000
     13 ****         5.9126  -1.7782   0.1524 C.3            1 S1                 0.0000
     14 ****         3.1084   0.5821   0.6271 N.pl3          1 S1                 1.0000
     15 ****         1.7646   0.6718   0.7229 C.ar           1 S1                 0.0000
     16 ****        -2.5647   0.1267   0.8980 N.am           1 S1                 0.0000
     17 ****        -3.7386   0.9939   0.8031 C.3            1 S1                 0.0000
     18 ****        -4.8695   0.5863   1.7667 C.3            1 S1                 0.0000
     19 ****        -6.1559   0.7881   0.9590 C.3            1 S1                 0.0000
     20 ****        -5.7387   0.4543  -0.4076 N.4            1 S1                 1.0000
     21 ****        -6.6550   0.7635  -1.5238 C.3            1 S1                 0.0000
     22 ****        -6.0746   0.1464  -2.8147 C.3            1 S1                 0.0000
     23 ****        -4.6053   0.5631  -3.0555 C.3            1 S1                 0.0000
     24 ****        -3.7292   0.3362  -1.8040 C.3            1 S1                 0.0000
     25 ****        -4.3938   1.0248  -0.5986 C.3            1 S1                 0.0000
     26 ****        -0.8511  -1.4016   1.0723 H              1 S1                 0.0000
     27 ****         1.0687  -2.6664   0.6324 H              1 S1                 0.0000
     28 ****         3.5192  -2.7565   0.4629 H              1 S1                 0.0000
     29 ****         5.3375   1.3548   1.4024 H              1 S1                 0.0000
     30 ****         5.8953  -0.0216   2.3273 H              1 S1                 0.0000
     31 ****         7.2771   1.2673  -0.0807 H              1 S1                 0.0000
     32 ****         7.8167   1.3393   1.5796 H              1 S1                 0.0000
     33 ****         9.0963  -0.3710   0.2596 H              1 S1                 0.0000
     34 ****         8.2381  -1.1022   1.5985 H              1 S1                 0.0000
     35 ****         7.3186  -1.0438  -1.3177 H              1 S1                 0.0000
     36 ****         7.8834  -2.4515  -0.4504 H              1 S1                 0.0000
     37 ****         5.9301  -2.3868   1.0575 H              1 S1                 0.0000
     38 ****         5.3942  -2.3506  -0.6172 H              1 S1                 0.0000
     39 ****         1.3861   1.6788   0.8116 H              1 S1                 0.0000
     40 ****        -2.7240  -0.8235   1.2002 H              1 S1                 0.0000
     41 ****        -3.4417   2.0130   1.0599 H              1 S1                 0.0000
     42 ****        -4.7766  -0.4671   2.0360 H              1 S1                 0.0000
     43 ****        -4.8629   1.1639   2.6917 H              1 S1                 0.0000
     44 ****        -6.9741   0.1548   1.3033 H              1 S1                 0.0000
     45 ****        -6.4790   1.8295   1.0030 H              1 S1                 0.0000
     46 ****        -7.6414   0.3464  -1.3180 H              1 S1                 0.0000
     47 ****        -6.7736   1.8432  -1.6260 H              1 S1                 0.0000
     48 ****        -6.1272  -0.9410  -2.7446 H              1 S1                 0.0000
     49 ****        -6.6879   0.4270  -3.6716 H              1 S1                 0.0000
     50 ****        -4.1949   0.0157  -3.9046 H              1 S1                 0.0000
     51 ****        -4.5737   1.6188  -3.3282 H              1 S1                 0.0000
     52 ****        -3.6125  -0.7322  -1.6164 H              1 S1                 0.0000
     53 ****        -2.7318   0.7414  -1.9765 H              1 S1                 0.0000
     54 ****        -4.5195   2.0804  -0.8494 H              1 S1                 0.0000
     55 ****        -5.6161  -0.5482  -0.4101 H              1 S1                 0.0000
     56 ****         3.6450   1.4498   0.6303 H              1 S1                 0.0000
     57 ****        -0.0443   1.8562   0.0675 LP             1 S1                 0.0000
     58 ****        -1.7086   2.3295   0.1450 LP             1 S1                 0.0000
     59 ****         5.2778  -0.0820  -0.4621 LP             1 S1                 0.0000
@<TRIPOS>BOND
    1    1    2 2     
    2    2    3 am    
    3    2   16 am    
    4    3    4 1     
    5    3   26 1     
    6    4   15 ar    
    7    4    5 ar    
    8    5    6 ar    
    9    5   27 1     
   10    6    7 ar    
   11    6   28 1     
   12    7    8 1     
   13    7   14 ar    
   14    8   13 1     
   15    8    9 1     
   16    9   10 1     
   17    9   29 1     
   18    9   30 1     
   19   10   11 1     
   20   10   31 1     
   21   10   32 1     
   22   11   12 1     
   23   11   33 1     
   24   11   34 1     
   25   12   13 1     
   26   12   35 1     
   27   12   36 1     
   28   13   37 1     
   29   13   38 1     
   30   14   15 ar    
   31   14   56 1     
   32   15   39 1     
   33   16   17 1     
   34   16   40 1     
   35   17   25 1     
   36   17   18 1     
   37   17   41 1     
   38   18   19 1     
   39   18   42 1     
   40   18   43 1     
   41   19   20 1     
   42   19   44 1     
   43   19   45 1     
   44   20   25 1     
   45   20   21 1     
   46   20   55 1     
   47   21   22 1     
   48   21   46 1     
   49   21   47 1     
   50   22   23 1     
   51   22   48 1     
   52   22   49 1     
   53   23   24 1     
   54   23   50 1     
   55   23   51 1     
   56   24   25 1     
   57   24   52 1     
   58   24   53 1     
   59   25   54 1     
   60    1   57 1     
   61    1   58 1     
   62    8   59 1     
@<TRIPOS>SUBSTRUCTURE
      1 S1             1
@<TRIPOS>SET
LONE_PAIRS      STATIC     ATOMS    <user>   **** ""
3 57 58 59
DONOR_HYDROGENS      STATIC     ATOMS    <user>   **** ""
4 26 56 40 55
ATOM$BLUE        STATIC     ATOMS    COLORGROUP SYSTEM
3 57 58 59
ATOM$RED        STATIC     ATOMS    COLORGROUP SYSTEM
4 26 56 40 55
