AV-unprocessed.smi:2482|AV-procd|sdf|9776|dock2
  -GOLD-   2272013413D 1   1.00000     0.00000
 Structure written by MMmdl.
 35 36  0  0  0  0  0  0  0  0  2 V2000
  152.5877  143.8293  162.0489 C   0  0  0  0  0  0  0  0  0  0  0  0
  151.9080  143.6160  160.7066 C   0  0  0  0  0  0  0  0  0  0  0  0
  150.9516  144.5252  160.4164 N   0  0  0  0  0  0  0  0  0  0  0  0
  150.2927  144.4110  159.2455 C   0  0  0  0  0  0  0  0  0  0  0  0
  150.5566  143.3969  158.3065 C   0  0  0  0  0  0  0  0  0  0  0  0
  151.5667  142.4513  158.5984 C   0  0  0  0  0  0  0  0  0  0  0  0
  151.8854  141.3766  157.7258 N   0  0  0  0  0  0  0  0  0  0  0  0
  151.2742  141.0329  156.5775 C   0  0  0  0  0  0  0  0  0  0  0  0
  150.2965  141.6191  156.1121 O   0  0  0  0  0  0  0  0  0  0  0  0
  151.8885  139.8327  155.8291 C   0  0  1  0  0  0  0  0  0  0  0  0
  151.8913  138.5081  156.6291 C   0  0  0  0  0  0  0  0  0  0  0  0
  150.5193  137.9652  156.7690 N   0  3  2  0  0  0  0  0  0  0  0  0
  150.4733  136.7344  157.5865 C   0  0  0  0  0  0  0  0  0  0  0  0
  149.8856  137.7956  155.4420 C   0  0  0  0  0  0  0  0  0  0  0  0
  149.8973  139.1246  154.6695 C   0  0  0  0  0  0  0  0  0  0  0  0
  151.2342  139.6181  154.5732 O   0  0  0  0  0  0  0  0  0  0  0  0
  152.2498  142.5524  159.8331 C   0  0  0  0  0  0  0  0  0  0  0  0
  153.4802  141.4020  160.2408 Cl  0  0  0  0  0  0  0  0  0  0  0  0
  153.3729  143.1045  162.2554 H   0  0  0  0  0  0  0  0  0  0  0  0
  151.8548  143.7624  162.8533 H   0  0  0  0  0  0  0  0  0  0  0  0
  153.0381  144.8216  162.0846 H   0  0  0  0  0  0  0  0  0  0  0  0
  149.5262  145.1474  159.0539 H   0  0  0  0  0  0  0  0  0  0  0  0
  149.9782  143.3523  157.3960 H   0  0  0  0  0  0  0  0  0  0  0  0
  152.7380  140.8803  157.9422 H   0  0  0  0  0  0  0  0  0  0  0  0
  152.9223  140.1031  155.6122 H   0  0  0  0  0  0  0  0  0  0  0  0
  152.5169  137.7748  156.1176 H   0  0  0  0  0  0  0  0  0  0  0  0
  152.3352  138.6549  157.6149 H   0  0  0  0  0  0  0  0  0  0  0  0
  151.0449  135.9313  157.1196 H   0  0  0  0  0  0  0  0  0  0  0  0
  149.4447  136.3947  157.7130 H   0  0  0  0  0  0  0  0  0  0  0  0
  150.8872  136.9175  158.5787 H   0  0  0  0  0  0  0  0  0  0  0  0
  150.4193  137.0303  154.8764 H   0  0  0  0  0  0  0  0  0  0  0  0
  148.8590  137.4481  155.5635 H   0  0  0  0  0  0  0  0  0  0  0  0
  149.5097  138.9733  153.6619 H   0  0  0  0  0  0  0  0  0  0  0  0
  149.2420  139.8554  155.1451 H   0  0  0  0  0  0  0  0  0  0  0  0
  149.9803  138.6617  157.2647 H   0  0  0  0  0  0  0  0  0  0  0  0
  1  2  1  0  0  0  0
  1 19  1  0  0  0  0
  1 20  1  0  0  0  0
  1 21  1  0  0  0  0
  2 17  1  0  0  0  0
  2  3  2  0  0  0  0
  3  4  1  0  0  0  0
  4  5  2  0  0  0  0
  4 22  1  0  0  0  0
  5  6  1  0  0  0  0
  5 23  1  0  0  0  0
  6  7  1  0  0  0  0
  6 17  2  0  0  0  0
  7  8  1  0  0  0  0
  7 24  1  0  0  0  0
  8  9  2  0  0  0  0
  8 10  1  0  0  0  0
 10 16  1  0  0  0  0
 10 11  1  0  0  0  0
 10 25  1  0  0  0  0
 11 12  1  0  0  0  0
 11 26  1  0  0  0  0
 11 27  1  0  0  0  0
 12 13  1  0  0  0  0
 12 14  1  0  0  0  0
 12 35  1  0  0  0  0
 13 28  1  0  0  0  0
 13 29  1  0  0  0  0
 13 30  1  0  0  0  0
 14 15  1  0  0  0  0
 14 31  1  0  0  0  0
 14 32  1  0  0  0  0
 15 16  1  0  0  0  0
 15 33  1  0  0  0  0
 15 34  1  0  0  0  0
 17 18  1  0  0  0  0
M  CHG  1  12   1
M  END
> <s_m_source_file>
AV-unprocessed.smi

> <i_m_source_file_index>
2482

> <i_lp_mmshare_version>
43012

> <i_f3d_flags>
0

> <s_epik_input>
W0NIM11jMW5bY0hdW2NIXWMoYzFDbClbTkhdQyg9TylbQ0BASF0yW0NIMl1OKFtDSDNdKVtDSDJdW0NIMl1PMg==

> <s_epik_cmdline>
J2VwaWtfcHl0aG9uJywgJy1waCcsICc3LjAnLCAnLXRuJywgJzgnLCAnLW1hJywgJzIwMCcsICctbWV0YWxfYmluZGluZycsICctaW1hZScsICc8aW5maWxlLm1hZT4nLCAnLW9tYWUnLCAnPG91dGZpbGUubWFlPic=

> <r_epik_Ionization_Penalty>
0.314226

> <r_epik_Ionization_Penalty_Charging>
0.314023

> <r_epik_Ionization_Penalty_Neutral>
0.00020299

> <r_epik_State_Penalty>
0.308208

> <r_epik_Charging_Adjusted_Penalty>
0.62223

> <i_epik_Tot_Q>
1

> <i_epik_Tot_abs_Q>
1

> <r_epik_Metal_State_Penalty>
0.314444

> <b_epik_Metal_Only>
0

> <s_lp_Force_Field>
OPLS_2005

> <r_lp_Energy>
21.5381

> <b_lp_Chiralities_Consistent>
1

> <s_lp_Variant>
AV-unprocessed.smi:2482-2

> <Gold.Version>
5.8.1

> <Gold.Id.Protein>
6NUR|6NUR_protein|mol2

> <Gold.PLP.Fitness>
38.5597

> <Gold.PLP.PLP>
-32.6173

> <Gold.PLP.part.hbond>
-1.0000

> <Gold.PLP.part.metal>
0.0000

> <Gold.PLP.part.buried>
-5.0976

> <Gold.PLP.part.nonpolar>
-26.5210

> <Gold.PLP.part.repulsive>
0.4081

> <Gold.PLP.ligand.clash>
0.0000

> <Gold.PLP.ligand.torsion>
0.0252

> <Gold.PLP.Chemscore.Hbond>
1.0000

> <Gold.PLP.Chemscore.CHOScore>
0.9912

> <Gold.PLP.Chemscore.Metal>
0.0000

> <Gold.Chemscore.Hbonds>
donor molecule, donor type, donor heavy atom, donor atom, acceptor molecule, acceptor atom, score
      P1  H  7989  7998       L1    16  1.00
      L1  C     4    22       P1  8029  0.99

> <Gold.PLP.Chemscore.Internal.Correction>
0.0191

> <Gold.Rescore>
     Score         DG    S(hbond)    S(metal)    S(lipo)     H(rot)  DE(clash)    DE(int)     intcor
     14.60     -17.23       0.91        0.00      96.24       1.00       0.06       2.57       ----

> <Gold.Chemscore.Fitness>
14.6004

> <Gold.Chemscore.DG>
-17.2274

> <Gold.Chemscore.ZeroCoef>
-5.4800

> <Gold.Chemscore.Hbond>
0.9125

> <Gold.Chemscore.Metal>
0.0000

> <Gold.Chemscore.Lipo>
96.2362

> <Gold.Chemscore.Internal_Hbond>
0.0000

> <Gold.Chemscore.DEClash>
0.0609

> <Gold.Chemscore.DEInternal>
2.5661

> <Gold.Chemscore.Rot>
1.0000

> <Gold.Chemscore.Internal.Correction>
   9.000000E+99

> <Gold.Chemscore.Hbonds>
donor molecule, donor type, donor heavy atom, donor atom, acceptor molecule, acceptor atom, score
      P1  H  7989  7998       L1    16  0.74

> <Gold.Chemscore.Hbond.Weighted>
-3.0478

> <Gold.Chemscore.Metal.Weighted>
-0.0000

> <Gold.Chemscore.Lipo.Weighted>
-11.2596

> <Gold.Chemscore.Internal_Hbond.Weighted>
0.0000

> <Gold.Chemscore.DEClash.Weighted>
0.0609

> <Gold.Chemscore.DEInternal.Weighted>
2.5661

> <Gold.Chemscore.Rot.Weighted>
2.5600

> <Gold.Chemscore.Internal.Correction.Weighted>
   9.000000E+99

> <Gold.Protein.RotatedTorsions>
[ 6907 6896 6895 6894 ] final  123.87 input  -60.11 | X-H torsion
[ 7974 7965 7964 7962 ] final -104.30 input  175.53 | X-H torsion
[ 8008 7997 7996 7995 ] final  170.08 input   59.86 | X-H torsion
[ 10167 10162 10161 10158 ] final   85.11 input  -65.29 | X-H torsion
[ 10718 10713 10712 10709 ] final  111.29 input   66.30 | X-H torsion
[ 10763 10752 10751 10750 ] final   55.82 input  -60.55 | X-H torsion
[ 11005 11000 10999 10996 ] final  -24.04 input  -57.11 | X-H torsion

> <Gold.Protein.ActiveResidues>
 VAL166  LYS551  ARG553  GLY616  TRP617  ASP618  TYR619  PRO620  LYS621  CYS622 
 ASP623  PHE694  ASN695  SER759  ASP760  ASP761  ALA762  ILE779  LEU786  VAL792 
 PHE793  MET794  SER795  GLU796  ALA797  LYS798  CYS799  TRP800  GLU811  SER814 

> <Gold.Protein.RotatedAtoms>
  152.4126  133.6987  159.6410 H   0  0  0  0  0  0  0  0  0  0  0  0  # atno 6907 bound_to 6896
  150.8005  133.8598  159.3237 H   0  0  0  0  0  0  0  0  0  0  0  0  # atno 6908 bound_to 6896
  151.6336  135.1022  160.0178 H   0  0  0  0  0  0  0  0  0  0  0  0  # atno 6909 bound_to 6896
  145.2449  140.9218  143.3129 H   0  0  0  0  0  0  0  0  0  0  0  0  # atno 7974 bound_to 7965
  156.1398  140.1547  156.8938 H   0  0  0  0  0  0  0  0  0  0  0  0  # atno 8008 bound_to 7997
  154.4978  140.0833  156.7772 H   0  0  0  0  0  0  0  0  0  0  0  0  # atno 8009 bound_to 7997
  155.4100  140.3418  155.4265 H   0  0  0  0  0  0  0  0  0  0  0  0  # atno 8010 bound_to 7997
  139.9011  144.6329  150.8636 H   0  0  0  0  0  0  0  0  0  0  0  0  # atno 10167 bound_to 10162
  157.6452  131.0948  150.6726 H   0  0  0  0  0  0  0  0  0  0  0  0  # atno 10718 bound_to 10713
  152.9822  135.5697  154.5129 H   0  0  0  0  0  0  0  0  0  0  0  0  # atno 10763 bound_to 10752
  154.4630  135.2782  155.1701 H   0  0  0  0  0  0  0  0  0  0  0  0  # atno 10764 bound_to 10752
  154.3281  135.6255  153.5592 H   0  0  0  0  0  0  0  0  0  0  0  0  # atno 10765 bound_to 10752
  140.8808  133.7655  156.0299 H   0  0  0  0  0  0  0  0  0  0  0  0  # atno 11005 bound_to 11000
  144.9556  139.4036  143.6381 LP  0  0  0  0  0  0  0  0  0  0  0  0  # atno 17320 bound_to 7965
  146.3318  139.8584  142.8860 LP  0  0  0  0  0  0  0  0  0  0  0  0  # atno 17321 bound_to 7965
  140.7706  143.3436  151.2156 LP  0  0  0  0  0  0  0  0  0  0  0  0  # atno 17342 bound_to 10162
  139.7025  143.9510  152.2912 LP  0  0  0  0  0  0  0  0  0  0  0  0  # atno 17343 bound_to 10162
  156.7044  130.4633  149.5564 LP  0  0  0  0  0  0  0  0  0  0  0  0  # atno 17370 bound_to 10713
  156.1773  130.6476  151.0909 LP  0  0  0  0  0  0  0  0  0  0  0  0  # atno 17371 bound_to 10713
  140.8463  134.3006  157.5293 LP  0  0  0  0  0  0  0  0  0  0  0  0  # atno 17394 bound_to 11000
  139.8719  134.9444  156.3879 LP  0  0  0  0  0  0  0  0  0  0  0  0  # atno 17395 bound_to 11000

$$$$
