AV-unprocessed.smi:290|AV-procd|sdf|2233|dock10
  -GOLD-   2262022103D 1   1.00000     0.00000
 Structure written by MMmdl.
 59 62  0  0  0  0  0  0  0  0  2 V2000
  150.6933  138.0657  154.1661 C   0  0  0  0  0  0  0  0  0  0  0  0
  150.1975  139.4642  154.5690 C   0  0  2  0  0  0  0  0  0  0  0  0
  151.3227  140.2630  154.9217 O   0  0  0  0  0  0  0  0  0  0  0  0
  150.9076  141.2400  155.8585 C   0  0  0  0  0  0  0  0  0  0  0  0
  149.9673  140.4482  156.7549 C   0  0  0  0  0  0  0  0  0  0  0  0
  149.2202  139.5384  155.7777 C   0  0  2  0  0  0  0  0  0  0  0  0
  149.0461  138.2783  156.4029 O   0  0  0  0  0  0  0  0  0  0  0  0
  147.7917  140.0283  155.4040 C   0  0  0  0  0  0  0  0  0  0  0  0
  147.0769  139.2018  154.4392 N   0  0  0  0  0  0  0  0  0  0  0  0
  147.4059  138.9978  153.1165 C   0  0  0  0  0  0  0  0  0  0  0  0
  146.6052  138.2067  152.4557 N   0  0  0  0  0  0  0  0  0  0  0  0
  145.6652  137.8152  153.4005 C   0  0  0  0  0  0  0  0  0  0  0  0
  144.5241  136.9648  153.3734 C   0  0  0  0  0  0  0  0  0  0  0  0
  144.0848  136.3012  152.2819 N   0  0  0  0  0  0  0  0  0  0  0  0
  144.9062  136.4619  151.0911 C   0  0  0  0  0  0  0  0  0  0  0  0
  145.2155  135.0551  150.5932 C   0  0  0  0  0  0  0  0  0  0  0  0
  144.0707  134.1919  151.1420 C   0  0  1  0  0  0  0  0  0  0  0  0
  144.4757  132.7541  151.2120 N   0  3  1  0  0  0  0  0  0  0  0  0
  144.5976  132.0670  149.9038 C   0  0  0  0  0  0  0  0  0  0  0  0
  145.6857  132.5395  152.0519 C   0  0  0  0  0  0  0  0  0  0  0  0
  146.0900  131.0573  152.1087 C   0  0  0  0  0  0  0  0  0  0  0  0
  147.4294  130.9374  152.5405 O   0  0  0  0  0  0  0  0  0  0  0  0
  143.7853  134.8864  152.4965 C   0  0  2  0  0  0  0  0  0  0  0  0
  142.3376  134.7493  153.0122 C   0  0  0  0  0  0  0  0  0  0  0  0
  143.8271  136.7951  154.5225 N   0  0  0  0  0  0  0  0  0  0  0  0
  144.2192  137.4183  155.6375 C   0  0  0  0  0  0  0  0  0  0  0  0
  145.2567  138.2395  155.8139 N   0  0  0  0  0  0  0  0  0  0  0  0
  145.9559  138.4174  154.6562 C   0  0  0  0  0  0  0  0  0  0  0  0
  143.1954  134.2970  150.4979 H   0  0  0  0  0  0  0  0  0  0  0  0
  144.4706  134.4908  153.2477 H   0  0  0  0  0  0  0  0  0  0  0  0
  149.8624  137.4196  153.8819 H   0  0  0  0  0  0  0  0  0  0  0  0
  151.2357  137.5839  154.9801 H   0  0  0  0  0  0  0  0  0  0  0  0
  151.3692  138.1271  153.3132 H   0  0  0  0  0  0  0  0  0  0  0  0
  149.7475  139.9226  153.6912 H   0  0  0  0  0  0  0  0  0  0  0  0
  151.7533  141.6608  156.4023 H   0  0  0  0  0  0  0  0  0  0  0  0
  150.3892  142.0513  155.3464 H   0  0  0  0  0  0  0  0  0  0  0  0
  150.5750  139.8550  157.4407 H   0  0  0  0  0  0  0  0  0  0  0  0
  149.3209  141.0744  157.3669 H   0  0  0  0  0  0  0  0  0  0  0  0
  148.3104  138.3350  156.9934 H   0  0  0  0  0  0  0  0  0  0  0  0
  147.1793  140.1036  156.3038 H   0  0  0  0  0  0  0  0  0  0  0  0
  147.8436  141.0380  154.9936 H   0  0  0  0  0  0  0  0  0  0  0  0
  148.2650  139.4575  152.6496 H   0  0  0  0  0  0  0  0  0  0  0  0
  144.3177  137.0028  150.3493 H   0  0  0  0  0  0  0  0  0  0  0  0
  145.8186  137.0348  151.2646 H   0  0  0  0  0  0  0  0  0  0  0  0
  145.3078  135.0234  149.5076 H   0  0  0  0  0  0  0  0  0  0  0  0
  146.1663  134.7280  151.0176 H   0  0  0  0  0  0  0  0  0  0  0  0
  145.3216  132.5716  149.2630 H   0  0  0  0  0  0  0  0  0  0  0  0
  143.6373  132.0192  149.3916 H   0  0  0  0  0  0  0  0  0  0  0  0
  144.9292  131.0366  150.0276 H   0  0  0  0  0  0  0  0  0  0  0  0
  146.5085  133.1395  151.6602 H   0  0  0  0  0  0  0  0  0  0  0  0
  145.5329  132.8914  153.0719 H   0  0  0  0  0  0  0  0  0  0  0  0
  145.4410  130.4826  152.7691 H   0  0  0  0  0  0  0  0  0  0  0  0
  146.0088  130.6104  151.1175 H   0  0  0  0  0  0  0  0  0  0  0  0
  147.9794  130.7820  151.7871 H   0  0  0  0  0  0  0  0  0  0  0  0
  142.0519  133.7213  153.2195 H   0  0  0  0  0  0  0  0  0  0  0  0
  141.6249  135.1480  152.2896 H   0  0  0  0  0  0  0  0  0  0  0  0
  142.2021  135.3026  153.9420 H   0  0  0  0  0  0  0  0  0  0  0  0
  143.6147  137.2338  156.5135 H   0  0  0  0  0  0  0  0  0  0  0  0
  143.7202  132.2905  151.6972 H   0  0  0  0  0  0  0  0  0  0  0  0
  1  2  1  0  0  0  0
  1 31  1  0  0  0  0
  1 32  1  0  0  0  0
  1 33  1  0  0  0  0
  2  6  1  0  0  0  0
  2  3  1  0  0  0  0
  2 34  1  0  0  0  0
  3  4  1  0  0  0  0
  4  5  1  0  0  0  0
  4 35  1  0  0  0  0
  4 36  1  0  0  0  0
  5  6  1  0  0  0  0
  5 37  1  0  0  0  0
  5 38  1  0  0  0  0
  6  7  1  0  0  0  0
  6  8  1  0  0  0  0
  7 39  1  0  0  0  0
  8  9  1  0  0  0  0
  8 40  1  0  0  0  0
  8 41  1  0  0  0  0
  9 28  1  0  0  0  0
  9 10  1  0  0  0  0
 10 11  2  0  0  0  0
 10 42  1  0  0  0  0
 11 12  1  0  0  0  0
 12 28  2  0  0  0  0
 12 13  1  0  0  0  0
 13 14  1  0  0  0  0
 13 25  2  0  0  0  0
 14 23  1  0  0  0  0
 14 15  1  0  0  0  0
 15 16  1  0  0  0  0
 15 43  1  0  0  0  0
 15 44  1  0  0  0  0
 16 17  1  0  0  0  0
 16 45  1  0  0  0  0
 16 46  1  0  0  0  0
 17 29  1  0  0  0  0
 17 18  1  0  0  0  0
 17 23  1  0  0  0  0
 18 19  1  0  0  0  0
 18 20  1  0  0  0  0
 18 59  1  0  0  0  0
 19 47  1  0  0  0  0
 19 48  1  0  0  0  0
 19 49  1  0  0  0  0
 20 21  1  0  0  0  0
 20 50  1  0  0  0  0
 20 51  1  0  0  0  0
 21 22  1  0  0  0  0
 21 52  1  0  0  0  0
 21 53  1  0  0  0  0
 22 54  1  0  0  0  0
 23 30  1  0  0  0  0
 23 24  1  0  0  0  0
 24 55  1  0  0  0  0
 24 56  1  0  0  0  0
 24 57  1  0  0  0  0
 25 26  1  0  0  0  0
 26 27  2  0  0  0  0
 26 58  1  0  0  0  0
 27 28  1  0  0  0  0
M  CHG  1  18   1
M  END
> <s_m_source_file>
AV-unprocessed.smi

> <i_m_source_file_index>
290

> <i_lp_mmshare_version>
43012

> <i_f3d_flags>
0

> <s_epik_input>
W0NIMl0xW0NIMl1PW0NAQEhdKFtDSDNdKVtDQEBdMShbT0hdKVtDSDJdbihbY0hdbjIpYyhjMjMpbltjSF1uYzNONFtDSDJdW0NIMl1bQ0BIXShbQ0BIXTRbQ0gzXSlOKFtDSDNdKVtDSDJdW0NIMl1bT0hd

> <s_epik_cmdline>
J2VwaWtfcHl0aG9uJywgJy1waCcsICc3LjAnLCAnLXRuJywgJzgnLCAnLW1hJywgJzIwMCcsICctbWV0YWxfYmluZGluZycsICctaW1hZScsICc8aW5maWxlLm1hZT4nLCAnLW9tYWUnLCAnPG91dGZpbGUubWFlPic=

> <r_lp_tautomer_probability>
1

> <r_epik_Ionization_Penalty>
0.0036983

> <r_epik_Ionization_Penalty_Charging>
0.0032725

> <r_epik_Ionization_Penalty_Neutral>
0.000425798

> <r_epik_State_Penalty>
-0

> <r_epik_Charging_Adjusted_Penalty>
0.0032725

> <i_epik_Tot_Q>
1

> <i_epik_Tot_abs_Q>
1

> <r_epik_Metal_State_Penalty>
-0

> <b_epik_Metal_Only>
0

> <s_lp_Force_Field>
OPLS_2005

> <r_lp_Energy>
66.0364

> <b_lp_Chiralities_Consistent>
1

> <s_lp_Variant>
AV-unprocessed.smi:290-19

> <Gold.Version>
5.8.1

> <Gold.Id.Protein>
6NUR|6NUR_protein|mol2

> <Gold.PLP.Fitness>
43.2376

> <Gold.PLP.PLP>
-34.6481

> <Gold.PLP.part.hbond>
-2.0000

> <Gold.PLP.part.metal>
0.0000

> <Gold.PLP.part.buried>
-2.5766

> <Gold.PLP.part.nonpolar>
-30.2669

> <Gold.PLP.part.repulsive>
0.5985

> <Gold.PLP.ligand.clash>
0.0000

> <Gold.PLP.ligand.torsion>
0.3557

> <Gold.PLP.Chemscore.Hbond>
2.0000

> <Gold.PLP.Chemscore.CHOScore>
1.0000

> <Gold.PLP.Chemscore.Metal>
0.0000

> <Gold.Chemscore.Hbonds>
donor molecule, donor type, donor heavy atom, donor atom, acceptor molecule, acceptor atom, score
      L1  H    22    54       P1 10747  1.00
      P1  H  7989  7998       L1     3  0.95
      L1  C    10    42       P1  7957  1.00

> <Gold.PLP.Chemscore.Internal.Correction>
0.3009

> <Gold.Rescore>
     Score         DG    S(hbond)    S(metal)    S(lipo)     H(rot)  DE(clash)    DE(int)     intcor
      6.77     -11.15       1.39        0.00      88.90       3.67       1.54       2.84       ----

> <Gold.Chemscore.Fitness>
6.7707

> <Gold.Chemscore.DG>
-11.1486

> <Gold.Chemscore.ZeroCoef>
-5.4800

> <Gold.Chemscore.Hbond>
1.3928

> <Gold.Chemscore.Metal>
0.0000

> <Gold.Chemscore.Lipo>
88.8962

> <Gold.Chemscore.Internal_Hbond>
0.0000

> <Gold.Chemscore.DEClash>
1.5400

> <Gold.Chemscore.DEInternal>
2.8379

> <Gold.Chemscore.Rot>
3.6658

> <Gold.Chemscore.Internal.Correction>
   9.000000E+99

> <Gold.Chemscore.Hbonds>
donor molecule, donor type, donor heavy atom, donor atom, acceptor molecule, acceptor atom, score
      L1  H    22    54       P1 10747  1.00
      P1  H  7989  7998       L1     3  0.18

> <Gold.Chemscore.Hbond.Weighted>
-4.6521

> <Gold.Chemscore.Metal.Weighted>
-0.0000

> <Gold.Chemscore.Lipo.Weighted>
-10.4009

> <Gold.Chemscore.Internal_Hbond.Weighted>
0.0000

> <Gold.Chemscore.DEClash.Weighted>
1.5400

> <Gold.Chemscore.DEInternal.Weighted>
2.8379

> <Gold.Chemscore.Rot.Weighted>
9.3844

> <Gold.Chemscore.Internal.Correction.Weighted>
   9.000000E+99

> <Gold.Protein.RotatedTorsions>
[ 6907 6896 6895 6894 ] final   16.28 input  -60.11 | X-H torsion
[ 7974 7965 7964 7962 ] final  107.30 input  175.53 | X-H torsion
[ 8008 7997 7996 7995 ] final -173.85 input   59.86 | X-H torsion
[ 10167 10162 10161 10158 ] final   -2.13 input  -65.29 | X-H torsion
[ 10718 10713 10712 10709 ] final  -24.02 input   66.30 | X-H torsion
[ 10763 10752 10751 10750 ] final   94.50 input  -60.55 | X-H torsion
[ 11005 11000 10999 10996 ] final -124.75 input  -57.11 | X-H torsion

> <Gold.Protein.ActiveResidues>
 VAL166  LYS551  ARG553  GLY616  TRP617  ASP618  TYR619  PRO620  LYS621  CYS622 
 ASP623  PHE694  ASN695  SER759  ASP760  ASP761  ALA762  ILE779  LEU786  VAL792 
 PHE793  MET794  SER795  GLU796  ALA797  LYS798  CYS799  TRP800  GLU811  SER814 

> <Gold.Protein.RotatedAtoms>
  151.8314  135.0620  160.0437 H   0  0  0  0  0  0  0  0  0  0  0  0  # atno 6907 bound_to 6896
  152.2877  133.5527  159.5546 H   0  0  0  0  0  0  0  0  0  0  0  0  # atno 6908 bound_to 6896
  150.7216  134.0389  159.3801 H   0  0  0  0  0  0  0  0  0  0  0  0  # atno 6909 bound_to 6896
  145.2954  139.2586  143.3842 H   0  0  0  0  0  0  0  0  0  0  0  0  # atno 7974 bound_to 7965
  155.9627  140.1147  157.0881 H   0  0  0  0  0  0  0  0  0  0  0  0  # atno 8008 bound_to 7997
  154.4136  140.1178  156.5268 H   0  0  0  0  0  0  0  0  0  0  0  0  # atno 8009 bound_to 7997
  155.6699  140.3473  155.4816 H   0  0  0  0  0  0  0  0  0  0  0  0  # atno 8010 bound_to 7997
  140.6838  143.6694  150.8198 H   0  0  0  0  0  0  0  0  0  0  0  0  # atno 10167 bound_to 10162
  156.4832  130.4550  149.6799 H   0  0  0  0  0  0  0  0  0  0  0  0  # atno 10718 bound_to 10713
  153.2424  135.4287  155.0712 H   0  0  0  0  0  0  0  0  0  0  0  0  # atno 10763 bound_to 10752
  154.8346  135.3406  154.6630 H   0  0  0  0  0  0  0  0  0  0  0  0  # atno 10764 bound_to 10752
  153.7053  135.7026  153.5108 H   0  0  0  0  0  0  0  0  0  0  0  0  # atno 10765 bound_to 10752
  140.9816  134.0665  157.3758 H   0  0  0  0  0  0  0  0  0  0  0  0  # atno 11005 bound_to 11000
  146.3170  140.3456  142.8651 LP  0  0  0  0  0  0  0  0  0  0  0  0  # atno 17320 bound_to 7965
  144.9137  140.7788  143.5791 LP  0  0  0  0  0  0  0  0  0  0  0  0  # atno 17321 bound_to 7965
  140.0398  143.5358  152.2723 LP  0  0  0  0  0  0  0  0  0  0  0  0  # atno 17342 bound_to 10162
  139.6181  144.7623  151.2802 LP  0  0  0  0  0  0  0  0  0  0  0  0  # atno 17343 bound_to 10162
  156.3501  130.7427  151.2385 LP  0  0  0  0  0  0  0  0  0  0  0  0  # atno 17370 bound_to 10713
  157.7481  131.0379  150.4480 LP  0  0  0  0  0  0  0  0  0  0  0  0  # atno 17371 bound_to 10713
  139.8953  135.0140  156.6993 LP  0  0  0  0  0  0  0  0  0  0  0  0  # atno 17394 bound_to 11000
  140.7177  133.9168  155.8126 LP  0  0  0  0  0  0  0  0  0  0  0  0  # atno 17395 bound_to 11000

$$$$
