AV-unprocessed.smi:1563|AV-procd|sdf|6291|dock9
  -GOLD-   22720 6493D 1   1.00000     0.00000
 Structure written by MMmdl.
 44 45  0  0  0  0  0  0  0  0  2 V2000
  145.4916  134.6423  153.6384 C   0  0  0  0  0  0  0  0  0  0  0  0
  145.6953  135.9524  154.3913 C   0  0  0  0  0  0  0  0  0  0  0  0
  145.0429  136.1891  155.4082 O   0  0  0  0  0  0  0  0  0  0  0  0
  146.6053  136.7948  153.8783 N   0  0  0  0  0  0  0  0  0  0  0  0
  146.9575  138.0919  154.4451 C   0  0  2  0  0  0  0  0  0  0  0  0
  145.6881  138.8483  154.8904 C   0  0  0  0  0  0  0  0  0  0  0  0
  146.0121  140.2827  155.3549 C   0  0  0  0  0  0  0  0  0  0  0  0
  146.8850  141.0160  154.3192 C   0  0  0  0  0  0  0  0  0  0  0  0
  148.0921  140.2115  154.0700 N   0  0  0  0  0  0  0  0  0  0  0  0
  149.3370  140.4600  154.5457 C   0  0  0  0  0  0  0  0  0  0  0  0
  150.2983  139.7186  154.3368 O   0  0  0  0  0  0  0  0  0  0  0  0
  149.4253  141.5337  155.3513 N   0  0  0  0  0  0  0  0  0  0  0  0
  150.5902  141.8944  156.1571 C   0  0  0  0  0  0  0  0  0  0  0  0
  150.2921  141.8510  157.6713 C   0  0  0  0  0  0  0  0  0  0  0  0
  150.8873  143.0122  158.4516 C   0  0  0  0  0  0  0  0  0  0  0  0
  151.7661  142.8147  159.5399 C   0  0  0  0  0  0  0  0  0  0  0  0
  152.3197  143.9364  160.1913 C   0  0  0  0  0  0  0  0  0  0  0  0
  151.9849  145.2303  159.7421 C   0  0  0  0  0  0  0  0  0  0  0  0
  151.0973  145.3702  158.6560 C   0  0  0  0  0  0  0  0  0  0  0  0
  150.5842  144.2713  158.0601 N   0  3  0  0  0  0  0  0  0  0  0  0
  147.7566  138.9354  153.4288 C   0  0  0  0  0  0  0  0  0  0  0  0
  146.4320  134.0953  153.5640 H   0  0  0  0  0  0  0  0  0  0  0  0
  145.1227  134.8359  152.6309 H   0  0  0  0  0  0  0  0  0  0  0  0
  144.7679  134.0079  154.1515 H   0  0  0  0  0  0  0  0  0  0  0  0
  147.0923  136.5146  153.0392 H   0  0  0  0  0  0  0  0  0  0  0  0
  147.5765  137.9367  155.3303 H   0  0  0  0  0  0  0  0  0  0  0  0
  144.9862  138.8990  154.0567 H   0  0  0  0  0  0  0  0  0  0  0  0
  145.1813  138.3031  155.6875 H   0  0  0  0  0  0  0  0  0  0  0  0
  145.0890  140.8362  155.5292 H   0  0  0  0  0  0  0  0  0  0  0  0
  146.5364  140.2468  156.3106 H   0  0  0  0  0  0  0  0  0  0  0  0
  146.3331  141.1319  153.3853 H   0  0  0  0  0  0  0  0  0  0  0  0
  147.1003  142.0317  154.6519 H   0  0  0  0  0  0  0  0  0  0  0  0
  148.5949  142.0946  155.4769 H   0  0  0  0  0  0  0  0  0  0  0  0
  151.4305  141.2384  155.9240 H   0  0  0  0  0  0  0  0  0  0  0  0
  150.9065  142.8986  155.8750 H   0  0  0  0  0  0  0  0  0  0  0  0
  149.2137  141.8314  157.8333 H   0  0  0  0  0  0  0  0  0  0  0  0
  150.6757  140.9186  158.0874 H   0  0  0  0  0  0  0  0  0  0  0  0
  152.0261  141.8172  159.8629 H   0  0  0  0  0  0  0  0  0  0  0  0
  153.0017  143.8058  161.0187 H   0  0  0  0  0  0  0  0  0  0  0  0
  152.4071  146.1024  160.2200 H   0  0  0  0  0  0  0  0  0  0  0  0
  150.7906  146.3205  158.2438 H   0  0  0  0  0  0  0  0  0  0  0  0
  148.6397  138.3896  153.0929 H   0  0  0  0  0  0  0  0  0  0  0  0
  147.1634  139.1188  152.5315 H   0  0  0  0  0  0  0  0  0  0  0  0
  149.9551  144.3972  157.2669 H   0  0  0  0  0  0  0  0  0  0  0  0
  1  2  1  0  0  0  0
  1 22  1  0  0  0  0
  1 23  1  0  0  0  0
  1 24  1  0  0  0  0
  2  3  2  0  0  0  0
  2  4  1  0  0  0  0
  4  5  1  0  0  0  0
  4 25  1  0  0  0  0
  5 21  1  0  0  0  0
  5  6  1  0  0  0  0
  5 26  1  0  0  0  0
  6  7  1  0  0  0  0
  6 27  1  0  0  0  0
  6 28  1  0  0  0  0
  7  8  1  0  0  0  0
  7 29  1  0  0  0  0
  7 30  1  0  0  0  0
  8  9  1  0  0  0  0
  8 31  1  0  0  0  0
  8 32  1  0  0  0  0
  9 10  1  0  0  0  0
  9 21  1  0  0  0  0
 10 11  2  0  0  0  0
 10 12  1  0  0  0  0
 12 13  1  0  0  0  0
 12 33  1  0  0  0  0
 13 14  1  0  0  0  0
 13 34  1  0  0  0  0
 13 35  1  0  0  0  0
 14 15  1  0  0  0  0
 14 36  1  0  0  0  0
 14 37  1  0  0  0  0
 15 20  1  0  0  0  0
 15 16  2  0  0  0  0
 16 17  1  0  0  0  0
 16 38  1  0  0  0  0
 17 18  2  0  0  0  0
 17 39  1  0  0  0  0
 18 19  1  0  0  0  0
 18 40  1  0  0  0  0
 19 20  2  0  0  0  0
 19 41  1  0  0  0  0
 20 44  1  0  0  0  0
 21 42  1  0  0  0  0
 21 43  1  0  0  0  0
M  CHG  1  20   1
M  END
> <s_m_source_file>
AV-unprocessed.smi

> <i_m_source_file_index>
1563

> <i_lp_mmshare_version>
43012

> <i_f3d_flags>
0

> <s_epik_input>
W0NIM11DKD1PKVtOSF1bQ0BASF0xW0NIMl1bQ0gyXVtDSDJdTihbQ0gyXTEpQyg9TylbTkhdW0NIMl1bQ0gyXWMyW2NIXVtjSF1bY0hdW2NIXW4y

> <s_epik_cmdline>
J2VwaWtfcHl0aG9uJywgJy1waCcsICc3LjAnLCAnLXRuJywgJzgnLCAnLW1hJywgJzIwMCcsICctbWV0YWxfYmluZGluZycsICctaW1hZScsICc8aW5maWxlLm1hZT4nLCAnLW9tYWUnLCAnPG91dGZpbGUubWFlPic=

> <r_epik_Ionization_Penalty>
1.56048

> <r_epik_Ionization_Penalty_Charging>
1.56043

> <r_epik_Ionization_Penalty_Neutral>
4.90601e-05

> <r_epik_State_Penalty>
1.65539

> <r_epik_Charging_Adjusted_Penalty>
3.21583

> <i_epik_Tot_Q>
1

> <i_epik_Tot_abs_Q>
1

> <r_epik_Metal_State_Penalty>
1.6969

> <b_epik_Metal_Only>
0

> <s_lp_Force_Field>
OPLS_2005

> <r_lp_Energy>
29.9669

> <b_lp_Chiralities_Consistent>
1

> <s_lp_Variant>
AV-unprocessed.smi:1563-3

> <Gold.Version>
5.8.1

> <Gold.Id.Protein>
6NUR|6NUR_protein|mol2

> <Gold.PLP.Fitness>
45.9057

> <Gold.PLP.PLP>
-35.0446

> <Gold.PLP.part.hbond>
-3.6617

> <Gold.PLP.part.metal>
0.0000

> <Gold.PLP.part.buried>
-4.0067

> <Gold.PLP.part.nonpolar>
-28.1981

> <Gold.PLP.part.repulsive>
0.8050

> <Gold.PLP.ligand.clash>
0.0000

> <Gold.PLP.ligand.torsion>
0.5521

> <Gold.PLP.Chemscore.Hbond>
3.9600

> <Gold.PLP.Chemscore.CHOScore>
0.0000

> <Gold.PLP.Chemscore.Metal>
0.0000

> <Gold.Chemscore.Hbonds>
donor molecule, donor type, donor heavy atom, donor atom, acceptor molecule, acceptor atom, score
      L1  H     4    25       P1  7948  0.54
      L1  H    20    44       P1  8028  2.00
      P1  H  7989  7998       L1    11  1.00

> <Gold.PLP.Chemscore.Internal.Correction>
0.0854

> <Gold.Rescore>
     Score         DG    S(hbond)    S(metal)    S(lipo)     H(rot)  DE(clash)    DE(int)     intcor
     16.11     -16.65       1.67        0.00      86.32       1.77       0.17       0.36       ----

> <Gold.Chemscore.Fitness>
16.1104

> <Gold.Chemscore.DG>
-16.6455

> <Gold.Chemscore.ZeroCoef>
-5.4800

> <Gold.Chemscore.Hbond>
1.6729

> <Gold.Chemscore.Metal>
0.0000

> <Gold.Chemscore.Lipo>
86.3182

> <Gold.Chemscore.Internal_Hbond>
0.0000

> <Gold.Chemscore.DEClash>
0.1707

> <Gold.Chemscore.DEInternal>
0.3644

> <Gold.Chemscore.Rot>
1.7661

> <Gold.Chemscore.Internal.Correction>
   9.000000E+99

> <Gold.Chemscore.Hbonds>
donor molecule, donor type, donor heavy atom, donor atom, acceptor molecule, acceptor atom, score
      L1  H     4    25       P1  7948  0.52
      L1  H    20    44       P1  8028  0.45
      P1  H  7989  7998       L1    11  0.44

> <Gold.Chemscore.Hbond.Weighted>
-5.5874

> <Gold.Chemscore.Metal.Weighted>
-0.0000

> <Gold.Chemscore.Lipo.Weighted>
-10.0992

> <Gold.Chemscore.Internal_Hbond.Weighted>
0.0000

> <Gold.Chemscore.DEClash.Weighted>
0.1707

> <Gold.Chemscore.DEInternal.Weighted>
0.3644

> <Gold.Chemscore.Rot.Weighted>
4.5211

> <Gold.Chemscore.Internal.Correction.Weighted>
   9.000000E+99

> <Gold.Protein.RotatedTorsions>
[ 6907 6896 6895 6894 ] final  -82.57 input  -60.11 | X-H torsion
[ 7974 7965 7964 7962 ] final -138.01 input  175.53 | X-H torsion
[ 8008 7997 7996 7995 ] final -114.78 input   59.86 | X-H torsion
[ 10167 10162 10161 10158 ] final   77.87 input  -65.29 | X-H torsion
[ 10718 10713 10712 10709 ] final  -81.59 input   66.30 | X-H torsion
[ 10763 10752 10751 10750 ] final -101.75 input  -60.55 | X-H torsion
[ 11005 11000 10999 10996 ] final -104.82 input  -57.11 | X-H torsion

> <Gold.Protein.ActiveResidues>
 VAL166  LYS551  ARG553  GLY616  TRP617  ASP618  TYR619  PRO620  LYS621  CYS622 
 ASP623  PHE694  ASN695  SER759  ASP760  ASP761  ALA762  ILE779  LEU786  VAL792 
 PHE793  MET794  SER795  GLU796  ALA797  LYS798  CYS799  TRP800  GLU811  SER814 

> <Gold.Protein.RotatedAtoms>
  150.6896  134.3645  159.4964 H   0  0  0  0  0  0  0  0  0  0  0  0  # atno 6907 bound_to 6896
  152.1469  134.9016  160.0559 H   0  0  0  0  0  0  0  0  0  0  0  0  # atno 6908 bound_to 6896
  152.0128  133.3833  159.4263 H   0  0  0  0  0  0  0  0  0  0  0  0  # atno 6909 bound_to 6896
  144.8794  140.6485  143.5216 H   0  0  0  0  0  0  0  0  0  0  0  0  # atno 7974 bound_to 7965
  155.0417  140.0392  157.2512 H   0  0  0  0  0  0  0  0  0  0  0  0  # atno 8008 bound_to 7997
  154.7211  140.2712  155.6517 H   0  0  0  0  0  0  0  0  0  0  0  0  # atno 8009 bound_to 7997
  156.2816  140.2703  156.1882 H   0  0  0  0  0  0  0  0  0  0  0  0  # atno 8010 bound_to 7997
  139.9770  144.5854  150.7935 H   0  0  0  0  0  0  0  0  0  0  0  0  # atno 10167 bound_to 10162
  156.0047  130.4608  150.3976 H   0  0  0  0  0  0  0  0  0  0  0  0  # atno 10718 bound_to 10713
  154.7682  135.4886  153.9595 H   0  0  0  0  0  0  0  0  0  0  0  0  # atno 10763 bound_to 10752
  153.1334  135.6757  153.9150 H   0  0  0  0  0  0  0  0  0  0  0  0  # atno 10764 bound_to 10752
  153.8846  135.3128  155.3424 H   0  0  0  0  0  0  0  0  0  0  0  0  # atno 10765 bound_to 10752
  141.1082  133.8756  157.1658 H   0  0  0  0  0  0  0  0  0  0  0  0  # atno 11005 bound_to 11000
  145.3983  139.1603  143.4191 LP  0  0  0  0  0  0  0  0  0  0  0  0  # atno 17320 bound_to 7965
  146.2984  140.4077  142.8713 LP  0  0  0  0  0  0  0  0  0  0  0  0  # atno 17321 bound_to 7965
  140.7502  143.2952  151.3224 LP  0  0  0  0  0  0  0  0  0  0  0  0  # atno 17342 bound_to 10162
  139.6438  144.0489  152.2575 LP  0  0  0  0  0  0  0  0  0  0  0  0  # atno 17343 bound_to 10162
  157.2047  131.0446  151.2631 LP  0  0  0  0  0  0  0  0  0  0  0  0  # atno 17370 bound_to 10713
  157.3943  130.7299  149.6720 LP  0  0  0  0  0  0  0  0  0  0  0  0  # atno 17371 bound_to 10713
  139.9963  135.0045  157.0090 LP  0  0  0  0  0  0  0  0  0  0  0  0  # atno 17394 bound_to 11000
  140.4845  134.1256  155.7222 LP  0  0  0  0  0  0  0  0  0  0  0  0  # atno 17395 bound_to 11000

$$$$
