AV-unprocessed.smi:643|AV-procd|sdf|3154|dock3
  -GOLD-   22720 0 73D 1   1.00000     0.00000
 Structure written by MMmdl.
 40 41  0  0  0  0  0  0  0  0  1 V2000
  143.0768  135.1300  152.4113 C   0  0  0  0  0  0  0  0  0  0  0  0
  144.5651  135.3548  152.7564 C   0  0  0  0  0  0  0  0  0  0  0  0
  144.6439  136.0127  154.1515 C   0  0  0  0  0  0  0  0  0  0  0  0
  145.3176  134.0147  152.7220 C   0  0  0  0  0  0  0  0  0  0  0  0
  145.6300  133.7467  151.2470 C   0  0  0  0  0  0  0  0  0  0  0  0
  145.6468  135.1180  150.5576 C   0  0  0  0  0  0  0  0  0  0  0  0
  145.2531  136.1594  151.6220 C   0  0  2  0  0  0  0  0  0  0  0  0
  146.4570  136.8610  152.0738 N   0  0  0  0  0  0  0  0  0  0  0  0
  146.4842  138.0162  152.7549 C   0  0  0  0  0  0  0  0  0  0  0  0
  145.4748  138.6379  153.0878 O   0  0  0  0  0  0  0  0  0  0  0  0
  147.7467  138.3888  153.0263 N   0  0  0  0  0  0  0  0  0  0  0  0
  148.1768  139.5531  153.7123 C   0  0  0  0  0  0  0  0  0  0  0  0
  147.4810  140.7839  153.5587 C   0  0  0  0  0  0  0  0  0  0  0  0
  148.1787  141.6414  154.3614 C   0  0  0  0  0  0  0  0  0  0  0  0
  149.2091  140.9253  154.9366 N   0  0  0  0  0  0  0  0  0  0  0  0
  150.2243  141.3898  155.8620 C   0  0  0  0  0  0  0  0  0  0  0  0
  150.9939  140.2254  156.5016 C   0  0  0  0  0  0  0  0  0  0  0  0
  150.1714  139.4976  157.2559 F   0  0  0  0  0  0  0  0  0  0  0  0
  151.5305  139.4449  155.5634 F   0  0  0  0  0  0  0  0  0  0  0  0
  149.2144  139.6366  154.5334 N   0  0  0  0  0  0  0  0  0  0  0  0
  142.5898  134.4941  153.1514 H   0  0  0  0  0  0  0  0  0  0  0  0
  142.9468  134.6543  151.4390 H   0  0  0  0  0  0  0  0  0  0  0  0
  142.5332  136.0750  152.3853 H   0  0  0  0  0  0  0  0  0  0  0  0
  145.6712  136.1253  154.4991 H   0  0  0  0  0  0  0  0  0  0  0  0
  144.1220  135.4124  154.8972 H   0  0  0  0  0  0  0  0  0  0  0  0
  144.1858  137.0024  154.1459 H   0  0  0  0  0  0  0  0  0  0  0  0
  146.2575  134.1054  153.2683 H   0  0  0  0  0  0  0  0  0  0  0  0
  144.7580  133.1998  153.1825 H   0  0  0  0  0  0  0  0  0  0  0  0
  146.5763  133.2181  151.1286 H   0  0  0  0  0  0  0  0  0  0  0  0
  144.8518  133.1222  150.8067 H   0  0  0  0  0  0  0  0  0  0  0  0
  146.6180  135.3303  150.1082 H   0  0  0  0  0  0  0  0  0  0  0  0
  144.9196  135.1236  149.7447 H   0  0  0  0  0  0  0  0  0  0  0  0
  144.5573  136.8780  151.1848 H   0  0  0  0  0  0  0  0  0  0  0  0
  147.3394  136.4244  151.8515 H   0  0  0  0  0  0  0  0  0  0  0  0
  148.4800  137.7756  152.7029 H   0  0  0  0  0  0  0  0  0  0  0  0
  146.6106  141.0039  152.9584 H   0  0  0  0  0  0  0  0  0  0  0  0
  148.0275  142.6901  154.5715 H   0  0  0  0  0  0  0  0  0  0  0  0
  150.9094  142.0427  155.3197 H   0  0  0  0  0  0  0  0  0  0  0  0
  149.7484  141.9989  156.6316 H   0  0  0  0  0  0  0  0  0  0  0  0
  151.8015  140.5747  157.1459 H   0  0  0  0  0  0  0  0  0  0  0  0
  1  2  1  0  0  0  0
  1 21  1  0  0  0  0
  1 22  1  0  0  0  0
  1 23  1  0  0  0  0
  2  7  1  0  0  0  0
  2  3  1  0  0  0  0
  2  4  1  0  0  0  0
  3 24  1  0  0  0  0
  3 25  1  0  0  0  0
  3 26  1  0  0  0  0
  4  5  1  0  0  0  0
  4 27  1  0  0  0  0
  4 28  1  0  0  0  0
  5  6  1  0  0  0  0
  5 29  1  0  0  0  0
  5 30  1  0  0  0  0
  6  7  1  0  0  0  0
  6 31  1  0  0  0  0
  6 32  1  0  0  0  0
  7  8  1  0  0  0  0
  7 33  1  0  0  0  0
  8  9  1  0  0  0  0
  8 34  1  0  0  0  0
  9 10  2  0  0  0  0
  9 11  1  0  0  0  0
 11 12  1  0  0  0  0
 11 35  1  0  0  0  0
 12 20  2  0  0  0  0
 12 13  1  0  0  0  0
 13 14  2  0  0  0  0
 13 36  1  0  0  0  0
 14 15  1  0  0  0  0
 14 37  1  0  0  0  0
 15 16  1  0  0  0  0
 15 20  1  0  0  0  0
 16 17  1  0  0  0  0
 16 38  1  0  0  0  0
 16 39  1  0  0  0  0
 17 18  1  0  0  0  0
 17 19  1  0  0  0  0
 17 40  1  0  0  0  0
M  END
> <s_m_source_file>
AV-unprocessed.smi

> <i_m_source_file_index>
643

> <i_lp_mmshare_version>
43012

> <i_f3d_flags>
0

> <s_epik_input>
W0NIM11DMShbQ0gzXSlbQ0gyXVtDSDJdW0NIMl1bQ0BIXTFbTkhdQyg9TylbTkhdYzJbY0hdW2NIXW4objIpW0NIMl1bQ0hdKEYpRg==

> <s_epik_cmdline>
J2VwaWtfcHl0aG9uJywgJy1waCcsICc3LjAnLCAnLXRuJywgJzgnLCAnLW1hJywgJzIwMCcsICctbWV0YWxfYmluZGluZycsICctaW1hZScsICc8aW5maWxlLm1hZT4nLCAnLW9tYWUnLCAnPG91dGZpbGUubWFlPic=

> <r_lp_tautomer_probability>
1

> <r_epik_Ionization_Penalty>
3.99908e-05

> <r_epik_Ionization_Penalty_Charging>
0

> <r_epik_Ionization_Penalty_Neutral>
3.99908e-05

> <r_epik_State_Penalty>
-0

> <r_epik_Charging_Adjusted_Penalty>
0

> <i_epik_Tot_Q>
0

> <i_epik_Tot_abs_Q>
0

> <r_epik_Metal_State_Penalty>
-0

> <b_epik_Metal_Only>
0

> <s_lp_Force_Field>
OPLS_2005

> <r_lp_Energy>
23.9752

> <b_lp_Chiralities_Consistent>
1

> <s_lp_Variant>
AV-unprocessed.smi:643-2

> <Gold.Version>
5.8.1

> <Gold.Id.Protein>
6NUR|6NUR_protein|mol2

> <Gold.PLP.Fitness>
39.3855

> <Gold.PLP.PLP>
-31.6661

> <Gold.PLP.part.hbond>
-2.8847

> <Gold.PLP.part.metal>
0.0000

> <Gold.PLP.part.buried>
-0.5836

> <Gold.PLP.part.nonpolar>
-29.9114

> <Gold.PLP.part.repulsive>
3.0936

> <Gold.PLP.ligand.clash>
0.0000

> <Gold.PLP.ligand.torsion>
0.6486

> <Gold.PLP.Chemscore.Hbond>
2.0000

> <Gold.PLP.Chemscore.CHOScore>
1.0000

> <Gold.PLP.Chemscore.Metal>
0.0000

> <Gold.Chemscore.Hbonds>
donor molecule, donor type, donor heavy atom, donor atom, acceptor molecule, acceptor atom, score
      L1  H     8    34       P1  7948  1.00
      L1  H    11    35       P1  7948  0.99
      L1  C    14    37       P1  8028  1.00

> <Gold.PLP.Chemscore.Internal.Correction>
0.0166

> <Gold.Rescore>
     Score         DG    S(hbond)    S(metal)    S(lipo)     H(rot)  DE(clash)    DE(int)     intcor
      9.24     -15.75       1.97        0.00      59.59       1.28       1.59       4.92       ----

> <Gold.Chemscore.Fitness>
9.2431

> <Gold.Chemscore.DG>
-15.7524

> <Gold.Chemscore.ZeroCoef>
-5.4800

> <Gold.Chemscore.Hbond>
1.9669

> <Gold.Chemscore.Metal>
0.0000

> <Gold.Chemscore.Lipo>
59.5931

> <Gold.Chemscore.Internal_Hbond>
0.0000

> <Gold.Chemscore.DEClash>
1.5886

> <Gold.Chemscore.DEInternal>
4.9206

> <Gold.Chemscore.Rot>
1.2771

> <Gold.Chemscore.Internal.Correction>
   9.000000E+99

> <Gold.Chemscore.Hbonds>
donor molecule, donor type, donor heavy atom, donor atom, acceptor molecule, acceptor atom, score
      L1  H     8    34       P1  7948  0.98
      L1  H    11    35       P1  7948  0.93

> <Gold.Chemscore.Hbond.Weighted>
-6.5694

> <Gold.Chemscore.Metal.Weighted>
-0.0000

> <Gold.Chemscore.Lipo.Weighted>
-6.9724

> <Gold.Chemscore.Internal_Hbond.Weighted>
0.0000

> <Gold.Chemscore.DEClash.Weighted>
1.5886

> <Gold.Chemscore.DEInternal.Weighted>
4.9206

> <Gold.Chemscore.Rot.Weighted>
3.2694

> <Gold.Chemscore.Internal.Correction.Weighted>
   9.000000E+99

> <Gold.Protein.RotatedTorsions>
[ 6907 6896 6895 6894 ] final -112.33 input  -60.11 | X-H torsion
[ 7974 7965 7964 7962 ] final  -87.26 input  175.53 | X-H torsion
[ 8008 7997 7996 7995 ] final   36.13 input   59.86 | X-H torsion
[ 10167 10162 10161 10158 ] final  -69.53 input  -65.29 | X-H torsion
[ 10718 10713 10712 10709 ] final  -23.87 input   66.30 | X-H torsion
[ 10763 10752 10751 10750 ] final   90.98 input  -60.55 | X-H torsion
[ 11005 11000 10999 10996 ] final   28.03 input  -57.11 | X-H torsion

> <Gold.Protein.ActiveResidues>
 VAL166  LYS551  ARG553  GLY616  TRP617  ASP618  TYR619  PRO620  LYS621  CYS622 
 ASP623  PHE694  ASN695  SER759  ASP760  ASP761  ALA762  ILE779  LEU786  VAL792 
 PHE793  MET794  SER795  GLU796  ALA797  LYS798  CYS799  TRP800  GLU811  SER814 

> <Gold.Protein.RotatedAtoms>
  150.7751  133.9106  159.3368 H   0  0  0  0  0  0  0  0  0  0  0  0  # atno 6907 bound_to 6896
  151.6983  135.0933  160.0255 H   0  0  0  0  0  0  0  0  0  0  0  0  # atno 6908 bound_to 6896
  152.3783  133.6473  159.6177 H   0  0  0  0  0  0  0  0  0  0  0  0  # atno 6909 bound_to 6896
  145.4690  140.9560  143.1928 H   0  0  0  0  0  0  0  0  0  0  0  0  # atno 7974 bound_to 7965
  155.1824  140.3301  155.4373 H   0  0  0  0  0  0  0  0  0  0  0  0  # atno 8008 bound_to 7997
  156.2472  140.1924  156.6871 H   0  0  0  0  0  0  0  0  0  0  0  0  # atno 8009 bound_to 7997
  154.6262  140.0588  156.9662 H   0  0  0  0  0  0  0  0  0  0  0  0  # atno 8010 bound_to 7997
  140.5423  143.2314  151.7066 H   0  0  0  0  0  0  0  0  0  0  0  0  # atno 10167 bound_to 10162
  156.4853  130.4554  149.6787 H   0  0  0  0  0  0  0  0  0  0  0  0  # atno 10718 bound_to 10713
  153.2033  135.4414  155.0293 H   0  0  0  0  0  0  0  0  0  0  0  0  # atno 10763 bound_to 10752
  154.8159  135.3315  154.7178 H   0  0  0  0  0  0  0  0  0  0  0  0  # atno 10764 bound_to 10752
  153.7622  135.6991  153.4979 H   0  0  0  0  0  0  0  0  0  0  0  0  # atno 10765 bound_to 10752
  140.3199  134.2555  155.7719 H   0  0  0  0  0  0  0  0  0  0  0  0  # atno 11005 bound_to 11000
  144.7957  139.6239  143.7094 LP  0  0  0  0  0  0  0  0  0  0  0  0  # atno 17320 bound_to 7965
  146.2408  139.5997  142.9493 LP  0  0  0  0  0  0  0  0  0  0  0  0  # atno 17321 bound_to 7965
  139.4993  144.3949  152.0241 LP  0  0  0  0  0  0  0  0  0  0  0  0  # atno 17342 bound_to 10162
  140.3059  144.3593  150.6047 LP  0  0  0  0  0  0  0  0  0  0  0  0  # atno 17343 bound_to 10162
  156.3481  130.7417  151.2373 LP  0  0  0  0  0  0  0  0  0  0  0  0  # atno 17370 bound_to 10713
  157.7479  131.0385  150.4505 LP  0  0  0  0  0  0  0  0  0  0  0  0  # atno 17371 bound_to 10713
  141.2089  133.7765  157.0031 LP  0  0  0  0  0  0  0  0  0  0  0  0  # atno 17394 bound_to 11000
  140.0951  134.9569  157.1836 LP  0  0  0  0  0  0  0  0  0  0  0  0  # atno 17395 bound_to 11000

$$$$
