#       Name:                AV-unprocessed.smi:72
#       Creating user name   scv26
#       Creation time:       Thu Mar 26 17:01:18 2020


#       File generated by GOLD software.
#

@<TRIPOS>MOLECULE
AV-unprocessed.smi:72
    41    42     1
SMALL
NO_CHARGES


@<TRIPOS>ATOM
      1 ****        -5.0598  -0.1860  -0.5217 N.pl3          1 S1                 0.0000
      2 ****        -3.7097  -0.4621  -0.5801 C.2            1 S1                 0.0000
      3 ****        -2.8293   0.5870  -0.3842 N.pl3          1 S1                 1.0000
      4 ****        -1.4933   0.4874  -0.4127 C.2            1 S1                 0.0000
      5 ****        -0.9442  -0.6875  -0.6447 N.am           1 S1                 0.0000
      6 ****         0.5537  -0.8685  -0.6728 C.3            1 S1                 0.0000
      7 ****         1.1399   0.3566  -0.9999 O.3            1 S1                 0.0000
      8 ****         1.8106   0.9037   0.1331 C.3            1 S1                 0.0000
      9 ****         2.9312   1.8450  -0.3333 C.3            1 S1                 0.0000
     10 ****         2.3949   3.1153  -0.6354 O.3            1 S1                 0.0000
     11 ****         2.3149  -0.3566   0.8342 C.3            1 S1                 0.0000
     12 ****         2.6974  -0.1355   2.1789 O.3            1 S1                 0.0000
     13 ****         1.1303  -1.3057   0.6925 C.3            1 S1                 0.0000
     14 ****         0.2076  -1.1660   1.7639 O.3            1 S1                 0.0000
     15 ****        -1.7660  -1.8262  -0.8437 C.2            1 S1                 0.0000
     16 ****        -1.2620  -2.9323  -1.0360 O.2            1 S1                 0.0000
     17 ****        -3.1527  -1.6206  -0.8019 N.2            1 S1                 0.0000
     18 ****         0.7654  -1.5669  -1.4841 H              1 S1                 0.0000
     19 ****         1.1023   1.4232   0.7811 H              1 S1                 0.0000
     20 ****         3.1676  -0.7608   0.2859 H              1 S1                 0.0000
     21 ****         1.4514  -2.3467   0.6416 H              1 S1                 0.0000
     22 ****        -5.7734  -0.8894  -0.6515 H              1 S1                 0.0000
     23 ****        -5.4412   0.7312  -0.3397 H              1 S1                 0.0000
     24 ****        -0.8933   1.3711  -0.2437 H              1 S1                 0.0000
     25 ****         3.6649   1.9797   0.4619 H              1 S1                 0.0000
     26 ****         3.4591   1.4390  -1.1966 H              1 S1                 0.0000
     27 ****         3.1010   3.6831  -0.9047 H              1 S1                 0.0000
     28 ****         3.0024  -0.9523   2.5437 H              1 S1                 0.0000
     29 ****         0.6577  -1.3572   2.5732 H              1 S1                 0.0000
     30 ****        -3.2273   1.4977  -0.2046 H              1 S1                 0.0000
     31 ****         0.4291   0.9923  -1.3009 LP             1 S1                 0.0000
     32 ****         1.7994   0.2196  -1.7390 LP             1 S1                 0.0000
     33 ****         1.9480   3.4941   0.1751 LP             1 S1                 0.0000
     34 ****         1.7278   3.0323  -1.3757 LP             1 S1                 0.0000
     35 ****         1.9122   0.1950   2.7026 LP             1 S1                 0.0000
     36 ****         3.4307   0.5436   2.2134 LP             1 S1                 0.0000
     37 ****        -0.5518  -1.8049   1.6409 LP             1 S1                 0.0000
     38 ****        -0.1444  -0.2303   1.7864 LP             1 S1                 0.0000
     39 ****        -0.2672  -3.0324  -1.0526 LP             1 S1                 0.0000
     40 ****        -1.8473  -3.7310  -1.1755 LP             1 S1                 0.0000
     41 ****        -3.7498  -2.4088  -0.9509 LP             1 S1                 0.0000
@<TRIPOS>BOND
    1    1    2 1     
    2    1   22 1     
    3    1   23 1     
    4    2   17 2     
    5    2    3 1     
    6    3    4 2     
    7    3   30 1     
    8    4    5 1     
    9    4   24 1     
   10    5    6 1     
   11    5   15 am    
   12    6   18 1     
   13    6   13 1     
   14    6    7 1     
   15    7    8 1     
   16    8   19 1     
   17    8    9 1     
   18    8   11 1     
   19    9   10 1     
   20    9   25 1     
   21    9   26 1     
   22   10   27 1     
   23   11   20 1     
   24   11   12 1     
   25   11   13 1     
   26   12   28 1     
   27   13   21 1     
   28   13   14 1     
   29   14   29 1     
   30   15   16 2     
   31   15   17 1     
   32    7   31 1     
   33    7   32 1     
   34   10   33 1     
   35   10   34 1     
   36   12   35 1     
   37   12   36 1     
   38   14   37 1     
   39   14   38 1     
   40   16   39 1     
   41   16   40 1     
   42   17   41 1     
@<TRIPOS>SUBSTRUCTURE
      1 S1             1
@<TRIPOS>SET
LONE_PAIRS      STATIC     ATOMS    <user>   **** ""
11 31 32 33 34 35 36 37 38 39 40 41
DONOR_HYDROGENS      STATIC     ATOMS    <user>   **** ""
6 22 23 30 27 28 29
ATOM$BLUE        STATIC     ATOMS    COLORGROUP SYSTEM
11 31 32 33 34 35 36 37 38 39 40 41
ATOM$RED        STATIC     ATOMS    COLORGROUP SYSTEM
6 22 23 30 27 28 29
