#       Name:                AV-unprocessed.smi:2999
#       Creating user name   scv26
#       Creation time:       Fri Mar 27 16:35:26 2020


#       File generated by GOLD software.
#

@<TRIPOS>MOLECULE
AV-unprocessed.smi:2999
    43    45     1
SMALL
NO_CHARGES


@<TRIPOS>ATOM
      1 ****        -0.7276   3.5667  -0.9670 O.2            1 S1                 0.0000
      2 ****        -1.1959   2.7016  -0.2237 C.2            1 S1                 0.0000
      3 ****        -0.4063   1.7290   0.2472 N.am           1 S1                 0.0000
      4 ****         1.0122   1.5783  -0.0508 C.3            1 S1                 0.0000
      5 ****         1.5376   0.2189   0.4339 C.3            1 S1                 0.0000
      6 ****         0.8681  -0.9749  -0.2803 C.3            1 S1                 0.0000
      7 ****         1.4678  -2.2495   0.1740 N.4            1 S1                 1.0000
      8 ****         0.8293  -3.4283  -0.4499 C.3            1 S1                 0.0000
      9 ****        -0.4181  -3.8914   0.2658 C.3            1 S1                 0.0000
     10 ****         0.8714  -4.6689   0.4114 C.3            1 S1                 0.0000
     11 ****         2.9353  -2.2327  -0.0171 C.3            1 S1                 0.0000
     12 ****         3.5472  -1.0082   0.6815 C.3            1 S1                 0.0000
     13 ****         2.9392   0.1772   0.1827 O.3            1 S1                 0.0000
     14 ****        -2.4777   2.6086   0.1954 N.pl3          1 S1                -1.0000
     15 ****        -3.3792   3.5249  -0.1942 C.2            1 S1                 0.0000
     16 ****        -3.7625   4.5461   0.5808 N.2            1 S1                 0.0000
     17 ****        -4.7105   5.3751  -0.0220 C.2            1 S1                 0.0000
     18 ****        -5.0646   4.9699  -1.2815 C.2            1 S1                 0.0000
     19 ****        -4.2130   3.5264  -1.7511 S.3            1 S1                 0.0000
     20 ****        -0.8274   1.0453   0.8589 H              1 S1                 0.0000
     21 ****         1.1813   1.6810  -1.1241 H              1 S1                 0.0000
     22 ****         1.5595   2.3853   0.4384 H              1 S1                 0.0000
     23 ****         1.3700   0.1433   1.5102 H              1 S1                 0.0000
     24 ****        -0.2027  -0.9889  -0.0739 H              1 S1                 0.0000
     25 ****         0.9835  -0.8812  -1.3616 H              1 S1                 0.0000
     26 ****         0.9062  -3.5049  -1.5332 H              1 S1                 0.0000
     27 ****        -0.7607  -3.3212   1.1277 H              1 S1                 0.0000
     28 ****        -1.2050  -4.3407  -0.3368 H              1 S1                 0.0000
     29 ****         0.9327  -5.6300  -0.0951 H              1 S1                 0.0000
     30 ****         1.3850  -4.6146   1.3696 H              1 S1                 0.0000
     31 ****         3.3716  -3.1471   0.3861 H              1 S1                 0.0000
     32 ****         3.1661  -2.2093  -1.0834 H              1 S1                 0.0000
     33 ****         3.4190  -1.0708   1.7635 H              1 S1                 0.0000
     34 ****         4.6194  -0.9632   0.4900 H              1 S1                 0.0000
     35 ****        -5.0799   6.2331   0.5197 H              1 S1                 0.0000
     36 ****        -5.7699   5.4283  -1.9576 H              1 S1                 0.0000
     37 ****         1.2998  -2.3144   1.1679 H              1 S1                 0.0000
     38 ****         0.2403   3.5407  -1.2169 LP             1 S1                 0.0000
     39 ****        -1.3158   4.2944  -1.3201 LP             1 S1                 0.0000
     40 ****         3.3674   0.9667   0.6224 LP             1 S1                 0.0000
     41 ****         3.0895   0.2236  -0.8049 LP             1 S1                 0.0000
     42 ****        -2.7547   1.8580   0.7952 LP             1 S1                 0.0000
     43 ****        -3.4049   4.7005   1.5018 LP             1 S1                 0.0000
@<TRIPOS>BOND
    1    1    2 2     
    2    2    3 am    
    3    2   14 1     
    4    3    4 1     
    5    3   20 1     
    6    4    5 1     
    7    4   21 1     
    8    4   22 1     
    9    5   13 1     
   10    5    6 1     
   11    5   23 1     
   12    6    7 1     
   13    6   24 1     
   14    6   25 1     
   15    7    8 1     
   16    7   11 1     
   17    7   37 1     
   18    8   10 1     
   19    8    9 1     
   20    8   26 1     
   21    9   10 1     
   22    9   27 1     
   23    9   28 1     
   24   10   29 1     
   25   10   30 1     
   26   11   12 1     
   27   11   31 1     
   28   11   32 1     
   29   12   13 1     
   30   12   33 1     
   31   12   34 1     
   32   14   15 1     
   33   15   19 1     
   34   15   16 2     
   35   16   17 1     
   36   17   18 2     
   37   17   35 1     
   38   18   19 1     
   39   18   36 1     
   40    1   38 1     
   41    1   39 1     
   42   13   40 1     
   43   13   41 1     
   44   14   42 1     
   45   16   43 1     
@<TRIPOS>SUBSTRUCTURE
      1 S1             1
@<TRIPOS>SET
LONE_PAIRS      STATIC     ATOMS    <user>   **** ""
6 38 39 40 41 42 43
DONOR_HYDROGENS      STATIC     ATOMS    <user>   **** ""
2 20 37
ATOM$BLUE        STATIC     ATOMS    COLORGROUP SYSTEM
6 38 39 40 41 42 43
ATOM$RED        STATIC     ATOMS    COLORGROUP SYSTEM
2 20 37
