#       Name:                AV-unprocessed.smi:257
#       Creating user name   scv26
#       Creation time:       Thu Mar 26 21:11:29 2020


#       File generated by GOLD software.
#

@<TRIPOS>MOLECULE
AV-unprocessed.smi:257
    60    63     1
SMALL
NO_CHARGES


@<TRIPOS>ATOM
      1 ****        -3.4142  -4.2383   0.3639 C.3            1 S1                 0.0000
      2 ****        -3.3362  -2.7961   0.1908 N.am           1 S1                 0.0000
      3 ****        -3.4735  -1.9090   1.1864 C.2            1 S1                 0.0000
      4 ****        -3.6918  -2.2358   2.3539 O.2            1 S1                 0.0000
      5 ****        -3.3609  -0.4285   0.7953 C.3            1 S1                 0.0000
      6 ****        -4.7361   0.2159   0.5756 C.3            1 S1                 0.0000
      7 ****        -4.4645   1.6940   0.8237 C.3            1 S1                 0.0000
      8 ****        -3.4365   1.6664   1.9542 C.3            1 S1                 0.0000
      9 ****        -2.7522   0.3801   1.8546 N.3            1 S1                 0.0000
     10 ****        -1.4017   0.4274   1.8363 C.ar           1 S1                 0.0000
     11 ****        -0.7435  -0.2352   2.8180 N.ar           1 S1                 0.0000
     12 ****         0.5928  -0.2355   2.8423 C.ar           1 S1                 0.0000
     13 ****         1.4440   0.3483   1.9954 N.ar           1 S1                 0.0000
     14 ****         0.7818   1.0122   1.0047 C.ar           1 S1                 0.0000
     15 ****        -0.6294   1.1048   0.8515 C.ar           1 S1                 0.0000
     16 ****        -0.9376   1.8603  -0.2734 N.2            1 S1                 0.0000
     17 ****         0.2268   2.1969  -0.7574 C.2            1 S1                 0.0000
     18 ****         1.3135   1.7198  -0.0592 N.pl3          1 S1                 0.0000
     19 ****         2.7165   1.9319  -0.3804 C.3            1 S1                 0.0000
     20 ****         3.2946   0.8968  -1.3771 C.3            1 S1                 0.0000
     21 ****         2.5904   1.0347  -2.5997 O.3            1 S1                 0.0000
     22 ****         4.7868   1.1804  -1.6417 C.3            1 S1                 0.0000
     23 ****         5.4444   0.0802  -2.4936 C.3            1 S1                 0.0000
     24 ****         5.2629  -1.1878  -1.8749 O.3            1 S1                 0.0000
     25 ****         3.8933  -1.5588  -1.7769 C.3            1 S1                 0.0000
     26 ****         3.1367  -0.5588  -0.8846 C.3            1 S1                 0.0000
     27 ****        -3.2520  -4.7369  -0.5915 H              1 S1                 0.0000
     28 ****        -4.3952  -4.5317   0.7397 H              1 S1                 0.0000
     29 ****        -2.6542  -4.5875   1.0642 H              1 S1                 0.0000
     30 ****        -3.1644  -2.4502  -0.7422 H              1 S1                 0.0000
     31 ****        -2.7774  -0.3398  -0.1237 H              1 S1                 0.0000
     32 ****        -5.1335   0.0272  -0.4222 H              1 S1                 0.0000
     33 ****        -5.4640  -0.1497   1.3026 H              1 S1                 0.0000
     34 ****        -4.0231   2.1410  -0.0681 H              1 S1                 0.0000
     35 ****        -5.3619   2.2587   1.0773 H              1 S1                 0.0000
     36 ****        -2.7688   2.5285   1.9097 H              1 S1                 0.0000
     37 ****        -3.9410   1.6993   2.9203 H              1 S1                 0.0000
     38 ****         1.0444  -0.7845   3.6553 H              1 S1                 0.0000
     39 ****         0.3262   2.8003  -1.6482 H              1 S1                 0.0000
     40 ****         2.8256   2.9422  -0.7778 H              1 S1                 0.0000
     41 ****         3.2837   1.9111   0.5511 H              1 S1                 0.0000
     42 ****         1.6817   0.8252  -2.4467 H              1 S1                 0.0000
     43 ****         4.9131   2.1513  -2.1227 H              1 S1                 0.0000
     44 ****         5.3166   1.2408  -0.6900 H              1 S1                 0.0000
     45 ****         5.0352   0.0667  -3.5049 H              1 S1                 0.0000
     46 ****         6.5130   0.2728  -2.5895 H              1 S1                 0.0000
     47 ****         3.4474  -1.6146  -2.7711 H              1 S1                 0.0000
     48 ****         3.8318  -2.5593  -1.3484 H              1 S1                 0.0000
     49 ****         3.5276  -0.6380   0.1307 H              1 S1                 0.0000
     50 ****         2.0847  -0.8414  -0.8309 H              1 S1                 0.0000
     51 ****        -3.7747  -3.2026   2.5953 LP             1 S1                 0.0000
     52 ****        -3.7862  -1.5342   3.0602 LP             1 S1                 0.0000
     53 ****        -2.9020  -0.0926   2.7230 LP             1 S1                 0.0000
     54 ****        -1.2571  -0.7234   3.5236 LP             1 S1                 0.0000
     55 ****         2.4397   0.3045   2.0769 LP             1 S1                 0.0000
     56 ****        -1.8427   2.0925  -0.6298 LP             1 S1                 0.0000
     57 ****         2.9709   0.4092  -3.2808 LP             1 S1                 0.0000
     58 ****         2.6689   1.9753  -2.9302 LP             1 S1                 0.0000
     59 ****         5.6518  -1.1533  -0.9543 LP             1 S1                 0.0000
     60 ****         5.7439  -1.8789  -2.4143 LP             1 S1                 0.0000
@<TRIPOS>BOND
    1    1    2 1     
    2    1   27 1     
    3    1   28 1     
    4    1   29 1     
    5    2    3 am    
    6    2   30 1     
    7    3    4 2     
    8    3    5 1     
    9    5    9 1     
   10    5    6 1     
   11    5   31 1     
   12    6    7 1     
   13    6   32 1     
   14    6   33 1     
   15    7    8 1     
   16    7   34 1     
   17    7   35 1     
   18    8    9 1     
   19    8   36 1     
   20    8   37 1     
   21    9   10 1     
   22   10   15 ar    
   23   10   11 ar    
   24   11   12 ar    
   25   12   13 ar    
   26   12   38 1     
   27   13   14 ar    
   28   14   18 1     
   29   14   15 ar    
   30   15   16 1     
   31   16   17 2     
   32   17   18 1     
   33   17   39 1     
   34   18   19 1     
   35   19   20 1     
   36   19   40 1     
   37   19   41 1     
   38   20   26 1     
   39   20   21 1     
   40   20   22 1     
   41   21   42 1     
   42   22   23 1     
   43   22   43 1     
   44   22   44 1     
   45   23   24 1     
   46   23   45 1     
   47   23   46 1     
   48   24   25 1     
   49   25   26 1     
   50   25   47 1     
   51   25   48 1     
   52   26   49 1     
   53   26   50 1     
   54    4   51 1     
   55    4   52 1     
   56    9   53 1     
   57   11   54 1     
   58   13   55 1     
   59   16   56 1     
   60   21   57 1     
   61   21   58 1     
   62   24   59 1     
   63   24   60 1     
@<TRIPOS>SUBSTRUCTURE
      1 S1             1
@<TRIPOS>SET
LONE_PAIRS      STATIC     ATOMS    <user>   **** ""
10 51 52 53 54 55 56 57 58 59 60
DONOR_HYDROGENS      STATIC     ATOMS    <user>   **** ""
2 30 42
ATOM$BLUE        STATIC     ATOMS    COLORGROUP SYSTEM
10 51 52 53 54 55 56 57 58 59 60
ATOM$RED        STATIC     ATOMS    COLORGROUP SYSTEM
2 30 42
