#       Name:                AV-unprocessed.smi:702
#       Creating user name   scv26
#       Creation time:       Fri Mar 27 00:40:10 2020


#       File generated by GOLD software.
#

@<TRIPOS>MOLECULE
AV-unprocessed.smi:702
    55    57     1
SMALL
NO_CHARGES


@<TRIPOS>ATOM
      1 ****        -1.0426  -0.6606   2.3040 C.3            1 S1                 0.0000
      2 ****        -0.5249  -0.0030   1.0100 C.3            1 S1                 0.0000
      3 ****         0.9408   0.0517   1.0736 N.am           1 S1                 0.0000
      4 ****         1.7061   1.1527   1.0194 C.2            1 S1                 0.0000
      5 ****         1.2530   2.2923   0.9207 O.2            1 S1                 0.0000
      6 ****         3.0103   0.8343   1.0940 N.am           1 S1                 0.0000
      7 ****         4.1458   1.6891   1.0519 C.ar           1 S1                 0.0000
      8 ****         5.3768   1.1592   1.4913 C.ar           1 S1                 0.0000
      9 ****         6.5235   1.9770   1.4489 C.ar           1 S1                 0.0000
     10 ****         6.5106   3.2493   0.9997 N.ar           1 S1                 0.0000
     11 ****         5.3349   3.7513   0.5669 C.ar           1 S1                 0.0000
     12 ****         4.1304   3.0193   0.5662 C.ar           1 S1                 0.0000
     13 ****        -1.0401  -0.7047  -0.3007 C.3            1 S1                 0.0000
     14 ****        -2.5532  -0.7445  -0.3202 N.4            1 S1                 1.0000
     15 ****        -3.2313   0.5847  -0.2774 C.3            1 S1                 0.0000
     16 ****        -4.7544   0.4217  -0.1375 C.3            1 S1                 0.0000
     17 ****        -5.2574  -0.3656  -1.2060 O.3            1 S1                 0.0000
     18 ****        -4.6998  -1.6706  -1.1962 C.3            1 S1                 0.0000
     19 ****        -3.1778  -1.5805  -1.3907 C.3            1 S1                 0.0000
     20 ****        -0.4842   0.0208  -1.5646 C.3            1 S1                 0.0000
     21 ****         0.6089  -0.8749  -2.1500 C.3            1 S1                 0.0000
     22 ****         0.1556  -2.2860  -1.7985 C.3            1 S1                 0.0000
     23 ****        -0.4291  -2.1411  -0.3927 C.3            1 S1                 0.0000
     24 ****        -2.1313  -0.6551   2.3523 H              1 S1                 0.0000
     25 ****        -0.6823  -0.1239   3.1825 H              1 S1                 0.0000
     26 ****        -0.7116  -1.6952   2.3952 H              1 S1                 0.0000
     27 ****        -0.8760   1.0267   1.0213 H              1 S1                 0.0000
     28 ****         1.4143  -0.8360   1.1584 H              1 S1                 0.0000
     29 ****         3.2176  -0.1427   1.2401 H              1 S1                 0.0000
     30 ****         5.4464   0.1460   1.8596 H              1 S1                 0.0000
     31 ****         7.4776   1.5971   1.7835 H              1 S1                 0.0000
     32 ****         5.3550   4.7681   0.2037 H              1 S1                 0.0000
     33 ****         3.2363   3.4879   0.1863 H              1 S1                 0.0000
     34 ****        -2.9005   1.1838   0.5669 H              1 S1                 0.0000
     35 ****        -3.0053   1.1535  -1.1799 H              1 S1                 0.0000
     36 ****        -5.0107  -0.0351   0.8200 H              1 S1                 0.0000
     37 ****        -5.2397   1.3975  -0.1623 H              1 S1                 0.0000
     38 ****        -4.9465  -2.1828  -0.2646 H              1 S1                 0.0000
     39 ****        -5.1470  -2.2489  -2.0049 H              1 S1                 0.0000
     40 ****        -2.9727  -1.1629  -2.3757 H              1 S1                 0.0000
     41 ****        -2.7936  -2.5974  -1.4002 H              1 S1                 0.0000
     42 ****        -1.2471   0.1546  -2.3290 H              1 S1                 0.0000
     43 ****        -0.1110   1.0227  -1.3517 H              1 S1                 0.0000
     44 ****         0.7381  -0.7313  -3.2231 H              1 S1                 0.0000
     45 ****         1.5644  -0.6614  -1.6691 H              1 S1                 0.0000
     46 ****        -0.6150  -2.6121  -2.4976 H              1 S1                 0.0000
     47 ****         0.9705  -3.0093  -1.8406 H              1 S1                 0.0000
     48 ****         0.3965  -2.2731   0.3052 H              1 S1                 0.0000
     49 ****        -1.1209  -2.9412  -0.1329 H              1 S1                 0.0000
     50 ****        -2.8052  -1.1994   0.5457 H              1 S1                 0.0000
     51 ****         0.2642   2.4351   0.8764 LP             1 S1                 0.0000
     52 ****         1.8734   3.0757   0.8847 LP             1 S1                 0.0000
     53 ****         7.3441   3.8016   0.9878 LP             1 S1                 0.0000
     54 ****        -5.0299   0.0787  -2.0725 LP             1 S1                 0.0000
     55 ****        -6.2511  -0.4359  -1.1184 LP             1 S1                 0.0000
@<TRIPOS>BOND
    1    1    2 1     
    2    1   24 1     
    3    1   25 1     
    4    1   26 1     
    5    2    3 1     
    6    2   13 1     
    7    2   27 1     
    8    3    4 am    
    9    3   28 1     
   10    4    5 2     
   11    4    6 am    
   12    6    7 1     
   13    6   29 1     
   14    7   12 ar    
   15    7    8 ar    
   16    8    9 ar    
   17    8   30 1     
   18    9   10 ar    
   19    9   31 1     
   20   10   11 ar    
   21   11   12 ar    
   22   11   32 1     
   23   12   33 1     
   24   13   23 1     
   25   13   14 1     
   26   13   20 1     
   27   14   19 1     
   28   14   15 1     
   29   14   50 1     
   30   15   16 1     
   31   15   34 1     
   32   15   35 1     
   33   16   17 1     
   34   16   36 1     
   35   16   37 1     
   36   17   18 1     
   37   18   19 1     
   38   18   38 1     
   39   18   39 1     
   40   19   40 1     
   41   19   41 1     
   42   20   21 1     
   43   20   42 1     
   44   20   43 1     
   45   21   22 1     
   46   21   44 1     
   47   21   45 1     
   48   22   23 1     
   49   22   46 1     
   50   22   47 1     
   51   23   48 1     
   52   23   49 1     
   53    5   51 1     
   54    5   52 1     
   55   10   53 1     
   56   17   54 1     
   57   17   55 1     
@<TRIPOS>SUBSTRUCTURE
      1 S1             1
@<TRIPOS>SET
LONE_PAIRS      STATIC     ATOMS    <user>   **** ""
5 51 52 53 54 55
DONOR_HYDROGENS      STATIC     ATOMS    <user>   **** ""
3 28 29 50
ATOM$BLUE        STATIC     ATOMS    COLORGROUP SYSTEM
5 51 52 53 54 55
ATOM$RED        STATIC     ATOMS    COLORGROUP SYSTEM
3 28 29 50
