AV-unprocessed.smi:1424|AV-procd|sdf|5801|dock9
  -GOLD-   22720 5453D 1   1.00000     0.00000
 Structure written by MMmdl.
 46 48  0  0  0  0  0  0  0  0  2 V2000
  148.5693  134.3082  156.0667 O   0  0  0  0  0  0  0  0  0  0  0  0
  148.4915  134.8406  154.9598 C   0  0  0  0  0  0  0  0  0  0  0  0
  148.5655  136.1649  154.7675 N   0  0  0  0  0  0  0  0  0  0  0  0
  148.7522  137.1562  155.8225 C   0  0  0  0  0  0  0  0  0  0  0  0
  150.0913  136.9816  156.5762 C   0  0  2  0  0  0  0  0  0  0  0  0
  150.1974  137.8877  157.8242 C   0  0  0  0  0  0  0  0  0  0  0  0
  150.5504  139.3153  157.3856 C   0  0  0  0  0  0  0  0  0  0  0  0
  151.5515  139.1373  155.8604 S   0  0  0  0  0  0  0  0  0  0  0  0
  150.8744  139.8447  154.7630 O   0  0  0  0  0  0  0  0  0  0  0  0
  152.9683  139.3886  156.1642 O   0  0  0  0  0  0  0  0  0  0  0  0
  151.2875  137.3323  155.6768 C   0  0  0  0  0  0  0  0  0  0  0  0
  148.3011  134.1895  153.7999 N   0  0  0  0  0  0  0  0  0  0  0  0
  148.1466  132.7890  153.5912 C   0  0  0  0  0  0  0  0  0  0  0  0
  148.8170  131.8431  154.4095 C   0  0  0  0  0  0  0  0  0  0  0  0
  148.6279  130.4653  154.1927 C   0  0  0  0  0  0  0  0  0  0  0  0
  147.7735  130.0513  153.1570 C   0  0  0  0  0  0  0  0  0  0  0  0
  147.1662  130.9738  152.3829 N   0  3  0  0  0  0  0  0  0  0  0  0
  147.3198  132.3136  152.5313 C   0  0  0  0  0  0  0  0  0  0  0  0
  146.6291  133.1592  151.6331 N   0  0  0  0  0  0  0  0  0  0  0  0
  145.8068  134.2548  152.1337 C   0  0  0  0  0  0  0  0  0  0  0  0
  144.9621  134.6933  150.9406 C   0  0  0  0  0  0  0  0  0  0  0  0
  144.7091  133.3748  150.2162 C   0  0  0  0  0  0  0  0  0  0  0  0
  145.9949  132.5765  150.4548 C   0  0  0  0  0  0  0  0  0  0  0  0
  148.4900  136.5167  153.8243 H   0  0  0  0  0  0  0  0  0  0  0  0
  148.6898  138.1573  155.3923 H   0  0  0  0  0  0  0  0  0  0  0  0
  147.9127  137.0719  156.5128 H   0  0  0  0  0  0  0  0  0  0  0  0
  150.1752  135.9373  156.8794 H   0  0  0  0  0  0  0  0  0  0  0  0
  149.2995  137.8674  158.4418 H   0  0  0  0  0  0  0  0  0  0  0  0
  151.0068  137.5119  158.4510 H   0  0  0  0  0  0  0  0  0  0  0  0
  149.6526  139.8813  157.1367 H   0  0  0  0  0  0  0  0  0  0  0  0
  151.1107  139.8654  158.1418 H   0  0  0  0  0  0  0  0  0  0  0  0
  152.1884  136.8289  156.0284 H   0  0  0  0  0  0  0  0  0  0  0  0
  151.1404  137.0751  154.6277 H   0  0  0  0  0  0  0  0  0  0  0  0
  148.1554  134.7689  152.9865 H   0  0  0  0  0  0  0  0  0  0  0  0
  149.4820  132.1529  155.2014 H   0  0  0  0  0  0  0  0  0  0  0  0
  149.1301  129.7381  154.8140 H   0  0  0  0  0  0  0  0  0  0  0  0
  147.5649  129.0181  152.9197 H   0  0  0  0  0  0  0  0  0  0  0  0
  145.1538  133.9076  152.9355 H   0  0  0  0  0  0  0  0  0  0  0  0
  146.4199  135.0708  152.5175 H   0  0  0  0  0  0  0  0  0  0  0  0
  144.0445  135.2044  151.2334 H   0  0  0  0  0  0  0  0  0  0  0  0
  145.5367  135.3653  150.3014 H   0  0  0  0  0  0  0  0  0  0  0  0
  143.8659  132.8602  150.6789 H   0  0  0  0  0  0  0  0  0  0  0  0
  144.4819  133.5062  149.1578 H   0  0  0  0  0  0  0  0  0  0  0  0
  146.6662  132.6907  149.6034 H   0  0  0  0  0  0  0  0  0  0  0  0
  145.7836  131.5141  150.5840 H   0  0  0  0  0  0  0  0  0  0  0  0
  146.5601  130.6415  151.6327 H   0  0  0  0  0  0  0  0  0  0  0  0
  1  2  2  0  0  0  0
  2  3  1  0  0  0  0
  2 12  1  0  0  0  0
  3  4  1  0  0  0  0
  3 24  1  0  0  0  0
  4  5  1  0  0  0  0
  4 25  1  0  0  0  0
  4 26  1  0  0  0  0
  5 11  1  0  0  0  0
  5  6  1  0  0  0  0
  5 27  1  0  0  0  0
  6  7  1  0  0  0  0
  6 28  1  0  0  0  0
  6 29  1  0  0  0  0
  7  8  1  0  0  0  0
  7 30  1  0  0  0  0
  7 31  1  0  0  0  0
  8  9  2  0  0  0  0
  8 10  2  0  0  0  0
  8 11  1  0  0  0  0
 11 32  1  0  0  0  0
 11 33  1  0  0  0  0
 12 13  1  0  0  0  0
 12 34  1  0  0  0  0
 13 18  1  0  0  0  0
 13 14  2  0  0  0  0
 14 15  1  0  0  0  0
 14 35  1  0  0  0  0
 15 16  2  0  0  0  0
 15 36  1  0  0  0  0
 16 17  1  0  0  0  0
 16 37  1  0  0  0  0
 17 18  2  0  0  0  0
 17 46  1  0  0  0  0
 18 19  1  0  0  0  0
 19 23  1  0  0  0  0
 19 20  1  0  0  0  0
 20 21  1  0  0  0  0
 20 38  1  0  0  0  0
 20 39  1  0  0  0  0
 21 22  1  0  0  0  0
 21 40  1  0  0  0  0
 21 41  1  0  0  0  0
 22 23  1  0  0  0  0
 22 42  1  0  0  0  0
 22 43  1  0  0  0  0
 23 44  1  0  0  0  0
 23 45  1  0  0  0  0
M  CHG  1  17   1
M  END
> <s_m_source_file>
AV-unprocessed.smi

> <i_m_source_file_index>
1424

> <i_lp_mmshare_version>
43012

> <i_f3d_flags>
0

> <s_epik_input>
Tz1TMSg9TylbQ0gyXVtDSDJdW0NASF0oW0NIMl0xKVtDSDJdW05IXUMoPU8pW05IXWMyW2NIXVtjSF1bY0hdbmMyTjNbQ0gyXVtDSDJdW0NIMl1bQ0gyXTM=

> <s_epik_cmdline>
J2VwaWtfcHl0aG9uJywgJy1waCcsICc3LjAnLCAnLXRuJywgJzgnLCAnLW1hJywgJzIwMCcsICctbWV0YWxfYmluZGluZycsICctaW1hZScsICc8aW5maWxlLm1hZT4nLCAnLW9tYWUnLCAnPG91dGZpbGUubWFlPic=

> <r_lp_tautomer_probability>
0.999994

> <r_epik_Ionization_Penalty>
1.12573

> <r_epik_Ionization_Penalty_Charging>
1.12571

> <r_epik_Ionization_Penalty_Neutral>
1.92863e-05

> <r_epik_State_Penalty>
1.18495

> <r_epik_Charging_Adjusted_Penalty>
2.31065

> <i_epik_Tot_Q>
1

> <i_epik_Tot_abs_Q>
1

> <r_epik_Metal_State_Penalty>
1.26881

> <b_epik_Metal_Only>
0

> <s_lp_Force_Field>
OPLS_2005

> <r_lp_Energy>
41.4787

> <b_lp_Chiralities_Consistent>
1

> <s_lp_Variant>
AV-unprocessed.smi:1424-3

> <Gold.Version>
5.8.1

> <Gold.Id.Protein>
6NUR|6NUR_protein|mol2

> <Gold.PLP.Fitness>
43.7570

> <Gold.PLP.PLP>
-33.2566

> <Gold.PLP.part.hbond>
-4.9994

> <Gold.PLP.part.metal>
0.0000

> <Gold.PLP.part.buried>
-4.6787

> <Gold.PLP.part.nonpolar>
-24.4217

> <Gold.PLP.part.repulsive>
0.3023

> <Gold.PLP.ligand.clash>
0.0000

> <Gold.PLP.ligand.torsion>
0.4497

> <Gold.PLP.Chemscore.Hbond>
3.6713

> <Gold.PLP.Chemscore.CHOScore>
0.0000

> <Gold.PLP.Chemscore.Metal>
0.0000

> <Gold.Chemscore.Hbonds>
donor molecule, donor type, donor heavy atom, donor atom, acceptor molecule, acceptor atom, score
      L1  H     3    24       P1  7948  0.91
      L1  H    12    34       P1  7948  0.88
      P1  H  7989  7998       L1     9  1.00
      P1  H  7997  8010       L1    10  1.00

> <Gold.PLP.Chemscore.Internal.Correction>
0.3860

> <Gold.Rescore>
     Score         DG    S(hbond)    S(metal)    S(lipo)     H(rot)  DE(clash)    DE(int)     intcor
     19.22     -20.91       3.52        0.00      64.13       1.50       0.00       1.69       ----

> <Gold.Chemscore.Fitness>
19.2243

> <Gold.Chemscore.DG>
-20.9096

> <Gold.Chemscore.ZeroCoef>
-5.4800

> <Gold.Chemscore.Hbond>
3.5200

> <Gold.Chemscore.Metal>
0.0000

> <Gold.Chemscore.Lipo>
64.1293

> <Gold.Chemscore.Internal_Hbond>
0.0000

> <Gold.Chemscore.DEClash>
0.0000

> <Gold.Chemscore.DEInternal>
1.6853

> <Gold.Chemscore.Rot>
1.4962

> <Gold.Chemscore.Internal.Correction>
   9.000000E+99

> <Gold.Chemscore.Hbonds>
donor molecule, donor type, donor heavy atom, donor atom, acceptor molecule, acceptor atom, score
      L1  H     3    24       P1  7948  0.84
      L1  H    12    34       P1  7948  0.66
      P1  H  7989  7998       L1     9  1.00
      P1  H  7997  8010       L1    10  0.96

> <Gold.Chemscore.Hbond.Weighted>
-11.7568

> <Gold.Chemscore.Metal.Weighted>
-0.0000

> <Gold.Chemscore.Lipo.Weighted>
-7.5031

> <Gold.Chemscore.Internal_Hbond.Weighted>
0.0000

> <Gold.Chemscore.DEClash.Weighted>
0.0000

> <Gold.Chemscore.DEInternal.Weighted>
1.6853

> <Gold.Chemscore.Rot.Weighted>
3.8303

> <Gold.Chemscore.Internal.Correction.Weighted>
   9.000000E+99

> <Gold.Protein.RotatedTorsions>
[ 6907 6896 6895 6894 ] final  171.99 input  -60.11 | X-H torsion
[ 7974 7965 7964 7962 ] final  159.12 input  175.53 | X-H torsion
[ 8008 7997 7996 7995 ] final   80.65 input   59.86 | X-H torsion
[ 10167 10162 10161 10158 ] final   57.67 input  -65.29 | X-H torsion
[ 10718 10713 10712 10709 ] final  154.05 input   66.30 | X-H torsion
[ 10763 10752 10751 10750 ] final -134.12 input  -60.55 | X-H torsion
[ 11005 11000 10999 10996 ] final    3.01 input  -57.11 | X-H torsion

> <Gold.Protein.ActiveResidues>
 VAL166  LYS551  ARG553  GLY616  TRP617  ASP618  TYR619  PRO620  LYS621  CYS622 
 ASP623  PHE694  ASN695  SER759  ASP760  ASP761  ALA762  ILE779  LEU786  VAL792 
 PHE793  MET794  SER795  GLU796  ALA797  LYS798  CYS799  TRP800  GLU811  SER814 

> <Gold.Protein.RotatedAtoms>
  151.7914  133.3360  159.3499 H   0  0  0  0  0  0  0  0  0  0  0  0  # atno 6907 bound_to 6896
  150.7390  134.5839  159.5962 H   0  0  0  0  0  0  0  0  0  0  0  0  # atno 6908 bound_to 6896
  152.3207  134.7385  160.0365 H   0  0  0  0  0  0  0  0  0  0  0  0  # atno 6909 bound_to 6896
  144.7808  139.7572  143.6260 H   0  0  0  0  0  0  0  0  0  0  0  0  # atno 7974 bound_to 7965
  155.8864  140.3441  155.5924 H   0  0  0  0  0  0  0  0  0  0  0  0  # atno 8008 bound_to 7997
  155.7661  140.0839  157.2150 H   0  0  0  0  0  0  0  0  0  0  0  0  # atno 8009 bound_to 7997
  154.4029  140.1527  156.2876 H   0  0  0  0  0  0  0  0  0  0  0  0  # atno 8010 bound_to 7997
  140.1955  144.4042  150.6552 H   0  0  0  0  0  0  0  0  0  0  0  0  # atno 10167 bound_to 10162
  157.2367  131.0750  151.1818 H   0  0  0  0  0  0  0  0  0  0  0  0  # atno 10718 bound_to 10713
  154.8723  135.3744  154.4684 H   0  0  0  0  0  0  0  0  0  0  0  0  # atno 10763 bound_to 10752
  153.5347  135.7027  153.5671 H   0  0  0  0  0  0  0  0  0  0  0  0  # atno 10764 bound_to 10752
  153.3860  135.3984  155.1855 H   0  0  0  0  0  0  0  0  0  0  0  0  # atno 10765 bound_to 10752
  140.5979  133.9863  155.8118 H   0  0  0  0  0  0  0  0  0  0  0  0  # atno 11005 bound_to 11000
  146.2015  139.5312  142.9740 LP  0  0  0  0  0  0  0  0  0  0  0  0  # atno 17320 bound_to 7965
  145.6056  141.0348  143.1994 LP  0  0  0  0  0  0  0  0  0  0  0  0  # atno 17321 bound_to 7965
  140.6427  143.2207  151.6255 LP  0  0  0  0  0  0  0  0  0  0  0  0  # atno 17342 bound_to 10162
  139.5238  144.3121  152.0984 LP  0  0  0  0  0  0  0  0  0  0  0  0  # atno 17343 bound_to 10162
  157.3421  130.7039  149.6388 LP  0  0  0  0  0  0  0  0  0  0  0  0  # atno 17370 bound_to 10713
  155.9672  130.4277  150.4754 LP  0  0  0  0  0  0  0  0  0  0  0  0  # atno 17371 bound_to 10713
  141.0891  133.9944  157.3265 LP  0  0  0  0  0  0  0  0  0  0  0  0  # atno 17394 bound_to 11000
  139.9245  135.0201  156.8185 LP  0  0  0  0  0  0  0  0  0  0  0  0  # atno 17395 bound_to 11000

$$$$
