AV-unprocessed.smi:221|AV-procd|sdf|1695|dock7
  -GOLD-   2262020143D 1   1.00000     0.00000
 Structure written by MMmdl.
 50 53  0  0  0  0  0  0  0  0  1 V2000
  147.9717  136.9389  163.2772 N   0  0  0  0  0  0  0  0  0  0  0  0
  147.4438  136.6389  162.0882 C   0  0  0  0  0  0  0  0  0  0  0  0
  146.7272  137.4297  161.4764 O   0  0  0  0  0  0  0  0  0  0  0  0
  147.7753  135.2474  161.5169 C   0  0  1  0  0  0  0  0  0  0  0  0
  147.4013  134.1181  162.4943 C   0  0  0  0  0  0  0  0  0  0  0  0
  145.9782  133.7153  162.1061 C   0  0  1  0  0  0  0  0  0  0  0  0
  145.0970  134.5177  162.7053 F   0  0  0  0  0  0  0  0  0  0  0  0
  145.9456  133.9464  160.5945 C   0  0  0  0  0  0  0  0  0  0  0  0
  146.9897  134.9309  160.3236 N   0  0  0  0  0  0  0  0  0  0  0  0
  147.2373  135.4030  159.0697 C   0  0  0  0  0  0  0  0  0  0  0  0
  146.3232  135.1310  158.1002 N   0  0  0  0  0  0  0  0  0  0  0  0
  146.5001  135.5636  156.8495 C   0  0  0  0  0  0  0  0  0  0  0  0
  147.5100  136.2752  156.3503 N   0  0  0  0  0  0  0  0  0  0  0  0
  148.4370  136.5526  157.3097 C   0  0  0  0  0  0  0  0  0  0  0  0
  148.3840  136.1625  158.6805 C   0  0  0  0  0  0  0  0  0  0  0  0
  149.5171  136.6382  159.3343 N   0  0  0  0  0  0  0  0  0  0  0  0
  150.1904  137.2700  158.4135 C   0  0  0  0  0  0  0  0  0  0  0  0
  149.6178  137.2585  157.1639 N   0  0  0  0  0  0  0  0  0  0  0  0
  150.1424  137.8718  155.9562 C   0  0  0  0  0  0  0  0  0  0  0  0
  149.6819  139.3418  155.7801 C   0  0  2  0  0  0  0  0  0  0  0  0
  149.2817  139.6336  154.3147 C   0  0  0  0  0  0  0  0  0  0  0  0
  148.2191  138.8011  153.8990 O   0  0  0  0  0  0  0  0  0  0  0  0
  150.7080  140.3806  156.3119 C   0  0  1  0  0  0  0  0  0  0  0  0
  150.3145  141.8434  156.1689 C   0  0  0  0  0  0  0  0  0  0  0  0
  151.1710  142.5461  157.2277 C   0  0  0  0  0  0  0  0  0  0  0  0
  151.7600  141.5185  158.0210 O   0  0  0  0  0  0  0  0  0  0  0  0
  151.0652  140.3019  157.7952 C   0  0  0  0  0  0  0  0  0  0  0  0
  148.8426  135.1834  161.3037 H   0  0  0  0  0  0  0  0  0  0  0  0
  145.7280  132.6922  162.3880 H   0  0  0  0  0  0  0  0  0  0  0  0
  147.7860  137.8400  163.6928 H   0  0  0  0  0  0  0  0  0  0  0  0
  148.5552  136.2676  163.7547 H   0  0  0  0  0  0  0  0  0  0  0  0
  148.0695  133.2709  162.3343 H   0  0  0  0  0  0  0  0  0  0  0  0
  147.4865  134.3990  163.5451 H   0  0  0  0  0  0  0  0  0  0  0  0
  146.1839  133.0226  160.0655 H   0  0  0  0  0  0  0  0  0  0  0  0
  144.9633  134.2863  160.2629 H   0  0  0  0  0  0  0  0  0  0  0  0
  145.7213  135.3007  156.1489 H   0  0  0  0  0  0  0  0  0  0  0  0
  151.1326  137.7565  158.6207 H   0  0  0  0  0  0  0  0  0  0  0  0
  151.2275  137.7968  156.0028 H   0  0  0  0  0  0  0  0  0  0  0  0
  149.8275  137.2684  155.1044 H   0  0  0  0  0  0  0  0  0  0  0  0
  148.7804  139.4663  156.3819 H   0  0  0  0  0  0  0  0  0  0  0  0
  148.9943  140.6776  154.1900 H   0  0  0  0  0  0  0  0  0  0  0  0
  150.1124  139.4505  153.6340 H   0  0  0  0  0  0  0  0  0  0  0  0
  148.5009  138.3059  153.1449 H   0  0  0  0  0  0  0  0  0  0  0  0
  151.6375  140.2652  155.7526 H   0  0  0  0  0  0  0  0  0  0  0  0
  150.4994  142.2242  155.1640 H   0  0  0  0  0  0  0  0  0  0  0  0
  149.2610  142.0047  156.3922 H   0  0  0  0  0  0  0  0  0  0  0  0
  151.9585  143.1483  156.7740 H   0  0  0  0  0  0  0  0  0  0  0  0
  150.5620  143.2011  157.8517 H   0  0  0  0  0  0  0  0  0  0  0  0
  150.1793  140.2842  158.4306 H   0  0  0  0  0  0  0  0  0  0  0  0
  151.6849  139.4391  158.0392 H   0  0  0  0  0  0  0  0  0  0  0  0
  1  2  1  0  0  0  0
  1 30  1  0  0  0  0
  1 31  1  0  0  0  0
  2  3  2  0  0  0  0
  2  4  1  0  0  0  0
  4 28  1  0  0  0  0
  4  9  1  0  0  0  0
  4  5  1  0  0  0  0
  5  6  1  0  0  0  0
  5 32  1  0  0  0  0
  5 33  1  0  0  0  0
  6 29  1  0  0  0  0
  6  7  1  0  0  0  0
  6  8  1  0  0  0  0
  8  9  1  0  0  0  0
  8 34  1  0  0  0  0
  8 35  1  0  0  0  0
  9 10  1  0  0  0  0
 10 15  1  0  0  0  0
 10 11  2  0  0  0  0
 11 12  1  0  0  0  0
 12 13  2  0  0  0  0
 12 36  1  0  0  0  0
 13 14  1  0  0  0  0
 14 18  1  0  0  0  0
 14 15  2  0  0  0  0
 15 16  1  0  0  0  0
 16 17  2  0  0  0  0
 17 18  1  0  0  0  0
 17 37  1  0  0  0  0
 18 19  1  0  0  0  0
 19 20  1  0  0  0  0
 19 38  1  0  0  0  0
 19 39  1  0  0  0  0
 20 21  1  0  0  0  0
 20 23  1  0  0  0  0
 20 40  1  0  0  0  0
 21 22  1  0  0  0  0
 21 41  1  0  0  0  0
 21 42  1  0  0  0  0
 22 43  1  0  0  0  0
 23 27  1  0  0  0  0
 23 24  1  0  0  0  0
 23 44  1  0  0  0  0
 24 25  1  0  0  0  0
 24 45  1  0  0  0  0
 24 46  1  0  0  0  0
 25 26  1  0  0  0  0
 25 47  1  0  0  0  0
 25 48  1  0  0  0  0
 26 27  1  0  0  0  0
 27 49  1  0  0  0  0
 27 50  1  0  0  0  0
M  END
> <s_m_source_file>
AV-unprocessed.smi

> <i_m_source_file_index>
221

> <i_lp_mmshare_version>
43012

> <i_f3d_flags>
0

> <s_epik_input>
W05IMl1DKD1PKVtDQEBIXTFbQ0gyXVtDQEBIXShGKVtDSDJdTjFjKG5bY0hdbjIpYyhjMjMpbltjSF1uM1tDSDJdW0NASF0oW0NIMl1bT0hdKVtDQEBIXTRbQ0gyXVtDSDJdT1tDSDJdNA==

> <s_epik_cmdline>
J2VwaWtfcHl0aG9uJywgJy1waCcsICc3LjAnLCAnLXRuJywgJzgnLCAnLW1hJywgJzIwMCcsICctbWV0YWxfYmluZGluZycsICctaW1hZScsICc8aW5maWxlLm1hZT4nLCAnLW9tYWUnLCAnPG91dGZpbGUubWFlPic=

> <r_lp_tautomer_probability>
1

> <r_epik_Ionization_Penalty>
0.000818822

> <r_epik_Ionization_Penalty_Charging>
0

> <r_epik_Ionization_Penalty_Neutral>
0.000818822

> <r_epik_State_Penalty>
0.000440551

> <r_epik_Charging_Adjusted_Penalty>
0.000440551

> <i_epik_Tot_Q>
0

> <i_epik_Tot_abs_Q>
0

> <r_epik_Metal_State_Penalty>
-0

> <b_epik_Metal_Only>
0

> <s_lp_Force_Field>
OPLS_2005

> <r_lp_Energy>
49.0425

> <b_lp_Chiralities_Consistent>
1

> <s_lp_Variant>
AV-unprocessed.smi:221-10

> <Gold.Version>
5.8.1

> <Gold.Id.Protein>
6NUR|6NUR_protein|mol2

> <Gold.PLP.Fitness>
41.9521

> <Gold.PLP.PLP>
-37.8919

> <Gold.PLP.part.hbond>
-2.6858

> <Gold.PLP.part.metal>
0.0000

> <Gold.PLP.part.buried>
-7.0198

> <Gold.PLP.part.nonpolar>
-30.6245

> <Gold.PLP.part.repulsive>
1.4539

> <Gold.PLP.ligand.clash>
0.0000

> <Gold.PLP.ligand.torsion>
1.1016

> <Gold.PLP.Chemscore.Hbond>
2.0269

> <Gold.PLP.Chemscore.CHOScore>
0.0000

> <Gold.PLP.Chemscore.Metal>
0.0000

> <Gold.Chemscore.Hbonds>
donor molecule, donor type, donor heavy atom, donor atom, acceptor molecule, acceptor atom, score
      P1  H  6934  6947       L1     3  1.00

> <Gold.PLP.Chemscore.Internal.Correction>
0.1826

> <Gold.Rescore>
     Score         DG    S(hbond)    S(metal)    S(lipo)     H(rot)  DE(clash)    DE(int)     intcor
     10.66     -11.99       1.97        0.00      71.69       3.31       0.15       1.18       ----

> <Gold.Chemscore.Fitness>
10.6629

> <Gold.Chemscore.DG>
-11.9929

> <Gold.Chemscore.ZeroCoef>
-5.4800

> <Gold.Chemscore.Hbond>
1.9748

> <Gold.Chemscore.Metal>
0.0000

> <Gold.Chemscore.Lipo>
71.6922

> <Gold.Chemscore.Internal_Hbond>
0.0000

> <Gold.Chemscore.DEClash>
0.1538

> <Gold.Chemscore.DEInternal>
1.1762

> <Gold.Chemscore.Rot>
3.3089

> <Gold.Chemscore.Internal.Correction>
   9.000000E+99

> <Gold.Chemscore.Hbonds>
donor molecule, donor type, donor heavy atom, donor atom, acceptor molecule, acceptor atom, score
      L1  H    22    43       P1  7948  0.04
      P1  H  6934  6947       L1     3  0.97

> <Gold.Chemscore.Hbond.Weighted>
-6.5958

> <Gold.Chemscore.Metal.Weighted>
-0.0000

> <Gold.Chemscore.Lipo.Weighted>
-8.3880

> <Gold.Chemscore.Internal_Hbond.Weighted>
0.0000

> <Gold.Chemscore.DEClash.Weighted>
0.1538

> <Gold.Chemscore.DEInternal.Weighted>
1.1762

> <Gold.Chemscore.Rot.Weighted>
8.4709

> <Gold.Chemscore.Internal.Correction.Weighted>
   9.000000E+99

> <Gold.Protein.RotatedTorsions>
[ 6907 6896 6895 6894 ] final -122.57 input  -60.11 | X-H torsion
[ 7974 7965 7964 7962 ] final   43.26 input  175.53 | X-H torsion
[ 8008 7997 7996 7995 ] final -133.48 input   59.86 | X-H torsion
[ 10167 10162 10161 10158 ] final   99.48 input  -65.29 | X-H torsion
[ 10718 10713 10712 10709 ] final  -10.45 input   66.30 | X-H torsion
[ 10763 10752 10751 10750 ] final  -79.67 input  -60.55 | X-H torsion
[ 11005 11000 10999 10996 ] final   -3.19 input  -57.11 | X-H torsion

> <Gold.Protein.ActiveResidues>
 VAL166  LYS551  ARG553  GLY616  TRP617  ASP618  TYR619  PRO620  LYS621  CYS622 
 ASP623  PHE694  ASN695  SER759  ASP760  ASP761  ALA762  ILE779  LEU786  VAL792 
 PHE793  MET794  SER795  GLU796  ALA797  LYS798  CYS799  TRP800  GLU811  SER814 

> <Gold.Protein.RotatedAtoms>
  150.8589  133.7674  159.2999 H   0  0  0  0  0  0  0  0  0  0  0  0  # atno 6907 bound_to 6896
  151.5322  135.1067  159.9915 H   0  0  0  0  0  0  0  0  0  0  0  0  # atno 6908 bound_to 6896
  152.4611  133.7780  159.6891 H   0  0  0  0  0  0  0  0  0  0  0  0  # atno 6909 bound_to 6896
  146.0671  139.5207  142.9621 H   0  0  0  0  0  0  0  0  0  0  0  0  # atno 7974 bound_to 7965
  155.3462  140.0475  157.3045 H   0  0  0  0  0  0  0  0  0  0  0  0  # atno 8008 bound_to 7997
  154.5251  140.2238  155.8869 H   0  0  0  0  0  0  0  0  0  0  0  0  # atno 8009 bound_to 7997
  156.1731  140.3091  155.9015 H   0  0  0  0  0  0  0  0  0  0  0  0  # atno 8010 bound_to 7997
  139.7613  144.6953  151.0288 H   0  0  0  0  0  0  0  0  0  0  0  0  # atno 10167 bound_to 10162
  156.6733  130.5016  149.5993 H   0  0  0  0  0  0  0  0  0  0  0  0  # atno 10718 bound_to 10713
  154.5416  135.5687  153.6844 H   0  0  0  0  0  0  0  0  0  0  0  0  # atno 10763 bound_to 10752
  152.9965  135.6229  154.2495 H   0  0  0  0  0  0  0  0  0  0  0  0  # atno 10764 bound_to 10752
  154.2426  135.2862  155.2827 H   0  0  0  0  0  0  0  0  0  0  0  0  # atno 10765 bound_to 10752
  140.6666  133.9273  155.8468 H   0  0  0  0  0  0  0  0  0  0  0  0  # atno 11005 bound_to 11000
  145.6458  141.0274  143.1787 LP  0  0  0  0  0  0  0  0  0  0  0  0  # atno 17320 bound_to 7965
  144.7209  139.8035  143.7382 LP  0  0  0  0  0  0  0  0  0  0  0  0  # atno 17321 bound_to 7965
  140.7807  143.4693  151.0168 LP  0  0  0  0  0  0  0  0  0  0  0  0  # atno 17342 bound_to 10162
  139.8379  143.7602  152.3180 LP  0  0  0  0  0  0  0  0  0  0  0  0  # atno 17343 bound_to 10162
  156.1922  130.6567  151.1074 LP  0  0  0  0  0  0  0  0  0  0  0  0  # atno 17370 bound_to 10713
  157.7069  131.0752  150.6635 LP  0  0  0  0  0  0  0  0  0  0  0  0  # atno 17371 bound_to 10713
  141.0424  134.0602  157.3885 LP  0  0  0  0  0  0  0  0  0  0  0  0  # atno 17394 bound_to 11000
  139.8995  135.0159  156.7199 LP  0  0  0  0  0  0  0  0  0  0  0  0  # atno 17395 bound_to 11000

$$$$
