AV-unprocessed.smi:148|AV-procd|sdf|1213|dock5
  -GOLD-   2262018393D 1   1.00000     0.00000
 Structure written by MMmdl.
 63 67  0  0  0  0  0  0  0  0  1 V2000
  150.1047  142.2735  155.8301 O   0  0  0  0  0  0  0  0  0  0  0  0
  151.0502  141.3304  156.2892 C   0  0  0  0  0  0  0  0  0  0  0  0
  151.2663  141.4552  157.8160 C   0  0  1  0  0  0  0  0  0  0  0  0
  152.1118  140.2851  158.3909 C   0  0  0  0  0  0  0  0  0  0  0  0
  151.3841  139.0325  158.5383 N   0  0  0  0  0  0  0  0  0  0  0  0
  151.8741  137.8432  159.0319 C   0  0  0  0  0  0  0  0  0  0  0  0
  151.0219  136.8556  159.0591 N   0  0  0  0  0  0  0  0  0  0  0  0
  149.8484  137.4097  158.5646 C   0  0  0  0  0  0  0  0  0  0  0  0
  148.5359  136.9115  158.3281 C   0  0  0  0  0  0  0  0  0  0  0  0
  148.1448  135.6387  158.5560 N   0  0  0  0  0  0  0  0  0  0  0  0
  148.7366  134.7750  157.5311 C   0  0  0  0  0  0  0  0  0  0  0  0
  148.1367  133.3670  157.5638 C   0  0  0  0  0  0  0  0  0  0  0  0
  148.3009  132.7715  158.9618 C   0  0  0  0  0  0  0  0  0  0  0  0
  147.6550  133.7001  159.9969 C   0  0  0  0  0  0  0  0  0  0  0  0
  148.2240  135.1454  159.9484 C   0  0  2  0  0  0  0  0  0  0  0  0
  147.4758  136.0522  160.9872 C   0  0  2  0  0  0  0  0  0  0  0  0
  147.1687  135.4377  162.3707 C   0  0  0  0  0  0  0  0  0  0  0  0
  145.9762  136.2101  162.9529 C   0  0  0  0  0  0  0  0  0  0  0  0
  145.4738  137.1269  161.8347 C   0  0  0  0  0  0  0  0  0  0  0  0
  146.0881  136.5692  160.5504 C   0  0  2  0  0  0  0  0  0  0  0  0
  145.2672  135.5144  160.0796 O   0  0  0  0  0  0  0  0  0  0  0  0
  147.6137  137.7614  157.8128 N   0  0  0  0  0  0  0  0  0  0  0  0
  147.9445  139.0326  157.5658 C   0  0  0  0  0  0  0  0  0  0  0  0
  149.1195  139.6401  157.7467 N   0  0  0  0  0  0  0  0  0  0  0  0
  150.0545  138.7804  158.2442 C   0  0  0  0  0  0  0  0  0  0  0  0
  151.8464  142.8460  158.1857 C   0  0  2  0  0  0  0  0  0  0  0  0
  152.3679  142.9576  159.6088 C   0  0  0  0  0  0  0  0  0  0  0  0
  152.4209  144.4666  159.8181 C   0  0  0  0  0  0  0  0  0  0  0  0
  151.3504  144.9973  159.0460 O   0  0  0  0  0  0  0  0  0  0  0  0
  150.8274  143.9916  158.1842 C   0  0  0  0  0  0  0  0  0  0  0  0
  149.4103  141.8095  155.3866 H   0  0  0  0  0  0  0  0  0  0  0  0
  150.7312  140.3258  156.0114 H   0  0  0  0  0  0  0  0  0  0  0  0
  151.9753  141.5255  155.7483 H   0  0  0  0  0  0  0  0  0  0  0  0
  150.2817  141.3886  158.2818 H   0  0  0  0  0  0  0  0  0  0  0  0
  152.9830  140.0997  157.7626 H   0  0  0  0  0  0  0  0  0  0  0  0
  152.5154  140.5592  159.3661 H   0  0  0  0  0  0  0  0  0  0  0  0
  152.8928  137.7235  159.3687 H   0  0  0  0  0  0  0  0  0  0  0  0
  148.5824  135.2081  156.5411 H   0  0  0  0  0  0  0  0  0  0  0  0
  149.8148  134.7113  157.6844 H   0  0  0  0  0  0  0  0  0  0  0  0
  147.0798  133.4065  157.2966 H   0  0  0  0  0  0  0  0  0  0  0  0
  148.6246  132.7328  156.8231 H   0  0  0  0  0  0  0  0  0  0  0  0
  147.8462  131.7815  159.0053 H   0  0  0  0  0  0  0  0  0  0  0  0
  149.3599  132.6428  159.1902 H   0  0  0  0  0  0  0  0  0  0  0  0
  146.5771  133.7269  159.8300 H   0  0  0  0  0  0  0  0  0  0  0  0
  147.8018  133.2523  160.9787 H   0  0  0  0  0  0  0  0  0  0  0  0
  149.2772  135.0950  160.2265 H   0  0  0  0  0  0  0  0  0  0  0  0
  148.0952  136.9351  161.1560 H   0  0  0  0  0  0  0  0  0  0  0  0
  146.8956  134.3875  162.2626 H   0  0  0  0  0  0  0  0  0  0  0  0
  148.0185  135.4889  163.0497 H   0  0  0  0  0  0  0  0  0  0  0  0
  145.1953  135.5140  163.2618 H   0  0  0  0  0  0  0  0  0  0  0  0
  146.2625  136.7900  163.8309 H   0  0  0  0  0  0  0  0  0  0  0  0
  144.3855  137.1931  161.7979 H   0  0  0  0  0  0  0  0  0  0  0  0
  145.8531  138.1359  162.0028 H   0  0  0  0  0  0  0  0  0  0  0  0
  146.1544  137.3410  159.7829 H   0  0  0  0  0  0  0  0  0  0  0  0
  145.5566  134.7079  160.4781 H   0  0  0  0  0  0  0  0  0  0  0  0
  147.1550  139.6518  157.1660 H   0  0  0  0  0  0  0  0  0  0  0  0
  152.6490  143.1088  157.4950 H   0  0  0  0  0  0  0  0  0  0  0  0
  151.6618  142.5095  160.3095 H   0  0  0  0  0  0  0  0  0  0  0  0
  153.3378  142.4851  159.7592 H   0  0  0  0  0  0  0  0  0  0  0  0
  152.3334  144.7460  160.8683 H   0  0  0  0  0  0  0  0  0  0  0  0
  153.3589  144.8715  159.4356 H   0  0  0  0  0  0  0  0  0  0  0  0
  150.6508  144.3922  157.1858 H   0  0  0  0  0  0  0  0  0  0  0  0
  149.8701  143.6598  158.5889 H   0  0  0  0  0  0  0  0  0  0  0  0
  1  2  1  0  0  0  0
  1 31  1  0  0  0  0
  2  3  1  0  0  0  0
  2 32  1  0  0  0  0
  2 33  1  0  0  0  0
  3  4  1  0  0  0  0
  3 26  1  0  0  0  0
  3 34  1  0  0  0  0
  4  5  1  0  0  0  0
  4 35  1  0  0  0  0
  4 36  1  0  0  0  0
  5 25  1  0  0  0  0
  5  6  1  0  0  0  0
  6  7  2  0  0  0  0
  6 37  1  0  0  0  0
  7  8  1  0  0  0  0
  8 25  2  0  0  0  0
  8  9  1  0  0  0  0
  9 10  1  0  0  0  0
  9 22  2  0  0  0  0
 10 15  1  0  0  0  0
 10 11  1  0  0  0  0
 11 12  1  0  0  0  0
 11 38  1  0  0  0  0
 11 39  1  0  0  0  0
 12 13  1  0  0  0  0
 12 40  1  0  0  0  0
 12 41  1  0  0  0  0
 13 14  1  0  0  0  0
 13 42  1  0  0  0  0
 13 43  1  0  0  0  0
 14 15  1  0  0  0  0
 14 44  1  0  0  0  0
 14 45  1  0  0  0  0
 15 16  1  0  0  0  0
 15 46  1  0  0  0  0
 16 20  1  0  0  0  0
 16 17  1  0  0  0  0
 16 47  1  0  0  0  0
 17 18  1  0  0  0  0
 17 48  1  0  0  0  0
 17 49  1  0  0  0  0
 18 19  1  0  0  0  0
 18 50  1  0  0  0  0
 18 51  1  0  0  0  0
 19 20  1  0  0  0  0
 19 52  1  0  0  0  0
 19 53  1  0  0  0  0
 20 21  1  0  0  0  0
 20 54  1  0  0  0  0
 21 55  1  0  0  0  0
 22 23  1  0  0  0  0
 23 24  2  0  0  0  0
 23 56  1  0  0  0  0
 24 25  1  0  0  0  0
 26 30  1  0  0  0  0
 26 27  1  0  0  0  0
 26 57  1  0  0  0  0
 27 28  1  0  0  0  0
 27 58  1  0  0  0  0
 27 59  1  0  0  0  0
 28 29  1  0  0  0  0
 28 60  1  0  0  0  0
 28 61  1  0  0  0  0
 29 30  1  0  0  0  0
 30 62  1  0  0  0  0
 30 63  1  0  0  0  0
M  END
> <s_m_source_file>
AV-unprocessed.smi

> <i_m_source_file_index>
148

> <i_lp_mmshare_version>
43012

> <i_f3d_flags>
0

> <s_epik_input>
W0NIMl0xT1tDSDJdW0NIMl1bQ0BIXTFbQ0BIXShbQ0gyXVtPSF0pW0NIMl1uKFtjSF1uMiljKGMyMyluW2NIXW5jM040W0NIMl1bQ0gyXVtDSDJdW0NIMl1bQ0BIXTRbQ0BASF01W0NIMl1bQ0gyXVtDSDJdW0NASF01W09IXQ==

> <s_epik_cmdline>
J2VwaWtfcHl0aG9uJywgJy1waCcsICc3LjAnLCAnLXRuJywgJzgnLCAnLW1hJywgJzIwMCcsICctbWV0YWxfYmluZGluZycsICctaW1hZScsICc8aW5maWxlLm1hZT4nLCAnLW9tYWUnLCAnPG91dGZpbGUubWFlPic=

> <r_lp_tautomer_probability>
1

> <r_epik_Ionization_Penalty>
0.00556303

> <r_epik_Ionization_Penalty_Charging>
0

> <r_epik_Ionization_Penalty_Neutral>
0.00556303

> <r_epik_State_Penalty>
0.00401767

> <r_epik_Charging_Adjusted_Penalty>
0.00401767

> <i_epik_Tot_Q>
0

> <i_epik_Tot_abs_Q>
0

> <r_epik_Metal_State_Penalty>
-0

> <b_epik_Metal_Only>
0

> <s_lp_Force_Field>
OPLS_2005

> <r_lp_Energy>
69.1671

> <b_lp_Chiralities_Consistent>
1

> <s_lp_Variant>
AV-unprocessed.smi:148-12

> <Gold.Version>
5.8.1

> <Gold.Id.Protein>
6NUR|6NUR_protein|mol2

> <Gold.PLP.Fitness>
45.3225

> <Gold.PLP.PLP>
-43.6401

> <Gold.PLP.part.hbond>
-2.0000

> <Gold.PLP.part.metal>
0.0000

> <Gold.PLP.part.buried>
-8.8407

> <Gold.PLP.part.nonpolar>
-33.5008

> <Gold.PLP.part.repulsive>
0.1162

> <Gold.PLP.ligand.clash>
0.0000

> <Gold.PLP.ligand.torsion>
1.0040

> <Gold.PLP.Chemscore.Hbond>
1.0000

> <Gold.PLP.Chemscore.CHOScore>
0.0000

> <Gold.PLP.Chemscore.Metal>
0.0000

> <Gold.Chemscore.Hbonds>
donor molecule, donor type, donor heavy atom, donor atom, acceptor molecule, acceptor atom, score
      P1  H  6896  6908       L1     7  1.00

> <Gold.PLP.Chemscore.Internal.Correction>
0.6904

> <Gold.Rescore>
     Score         DG    S(hbond)    S(metal)    S(lipo)     H(rot)  DE(clash)    DE(int)     intcor
     10.82     -13.82       0.96        0.00     116.43       3.32       0.15       2.84       ----

> <Gold.Chemscore.Fitness>
10.8228

> <Gold.Chemscore.DG>
-13.8164

> <Gold.Chemscore.ZeroCoef>
-5.4800

> <Gold.Chemscore.Hbond>
0.9623

> <Gold.Chemscore.Metal>
0.0000

> <Gold.Chemscore.Lipo>
116.4309

> <Gold.Chemscore.Internal_Hbond>
0.0000

> <Gold.Chemscore.DEClash>
0.1509

> <Gold.Chemscore.DEInternal>
2.8427

> <Gold.Chemscore.Rot>
3.3203

> <Gold.Chemscore.Internal.Correction>
   9.000000E+99

> <Gold.Chemscore.Hbonds>
donor molecule, donor type, donor heavy atom, donor atom, acceptor molecule, acceptor atom, score
      P1  H  6896  6908       L1     7  0.98

> <Gold.Chemscore.Hbond.Weighted>
-3.2139

> <Gold.Chemscore.Metal.Weighted>
-0.0000

> <Gold.Chemscore.Lipo.Weighted>
-13.6224

> <Gold.Chemscore.Internal_Hbond.Weighted>
0.0000

> <Gold.Chemscore.DEClash.Weighted>
0.1509

> <Gold.Chemscore.DEInternal.Weighted>
2.8427

> <Gold.Chemscore.Rot.Weighted>
8.5000

> <Gold.Chemscore.Internal.Correction.Weighted>
   9.000000E+99

> <Gold.Protein.RotatedTorsions>
[ 6907 6896 6895 6894 ] final -143.39 input  -60.11 | X-H torsion
[ 7974 7965 7964 7962 ] final -113.97 input  175.53 | X-H torsion
[ 8008 7997 7996 7995 ] final  -93.06 input   59.86 | X-H torsion
[ 10167 10162 10161 10158 ] final   56.78 input  -65.29 | X-H torsion
[ 10718 10713 10712 10709 ] final   35.34 input   66.30 | X-H torsion
[ 10763 10752 10751 10750 ] final -158.19 input  -60.55 | X-H torsion
[ 11005 11000 10999 10996 ] final  -20.55 input  -57.11 | X-H torsion

> <Gold.Protein.ActiveResidues>
 VAL166  LYS551  ARG553  GLY616  TRP617  ASP618  TYR619  PRO620  LYS621  CYS622 
 ASP623  PHE694  ASN695  SER759  ASP760  ASP761  ALA762  ILE779  LEU786  VAL792 
 PHE793  MET794  SER795  GLU796  ALA797  LYS798  CYS799  TRP800  GLU811  SER814 

> <Gold.Protein.RotatedAtoms>
  151.0999  133.5252  159.2610 H   0  0  0  0  0  0  0  0  0  0  0  0  # atno 6907 bound_to 6896
  151.2087  135.0471  159.8912 H   0  0  0  0  0  0  0  0  0  0  0  0  # atno 6908 bound_to 6896
  152.5442  134.0817  159.8292 H   0  0  0  0  0  0  0  0  0  0  0  0  # atno 6909 bound_to 6896
  145.1257  140.8695  143.3787 H   0  0  0  0  0  0  0  0  0  0  0  0  # atno 7974 bound_to 7965
  154.7309  140.0502  157.0726 H   0  0  0  0  0  0  0  0  0  0  0  0  # atno 8008 bound_to 7997
  155.0303  140.3157  155.4742 H   0  0  0  0  0  0  0  0  0  0  0  0  # atno 8009 bound_to 7997
  156.2841  140.2151  156.5424 H   0  0  0  0  0  0  0  0  0  0  0  0  # atno 8010 bound_to 7997
  140.2051  144.3947  150.6512 H   0  0  0  0  0  0  0  0  0  0  0  0  # atno 10167 bound_to 10162
  157.3215  130.7450  149.6788 H   0  0  0  0  0  0  0  0  0  0  0  0  # atno 10718 bound_to 10713
  154.7576  135.3109  154.8439 H   0  0  0  0  0  0  0  0  0  0  0  0  # atno 10763 bound_to 10752
  153.9209  135.6795  153.4752 H   0  0  0  0  0  0  0  0  0  0  0  0  # atno 10764 bound_to 10752
  153.1175  135.4838  154.9070 H   0  0  0  0  0  0  0  0  0  0  0  0  # atno 10765 bound_to 10752
  140.8475  133.7881  155.9929 H   0  0  0  0  0  0  0  0  0  0  0  0  # atno 11005 bound_to 11000
  145.0690  139.3046  143.5841 LP  0  0  0  0  0  0  0  0  0  0  0  0  # atno 17320 bound_to 7965
  146.3518  140.0159  142.8663 LP  0  0  0  0  0  0  0  0  0  0  0  0  # atno 17321 bound_to 7965
  140.6363  143.2195  151.6387 LP  0  0  0  0  0  0  0  0  0  0  0  0  # atno 17342 bound_to 10162
  139.5202  144.3231  152.0893 LP  0  0  0  0  0  0  0  0  0  0  0  0  # atno 17343 bound_to 10162
  155.9686  130.4222  150.4503 LP  0  0  0  0  0  0  0  0  0  0  0  0  # atno 17370 bound_to 10713
  157.2520  131.0548  151.2373 LP  0  0  0  0  0  0  0  0  0  0  0  0  # atno 17371 bound_to 10713
  140.8827  134.2592  157.5136 LP  0  0  0  0  0  0  0  0  0  0  0  0  # atno 17394 bound_to 11000
  139.8703  134.9623  156.4424 LP  0  0  0  0  0  0  0  0  0  0  0  0  # atno 17395 bound_to 11000

$$$$
