#       Name:                AV-unprocessed.smi:655
#       Creating user name   scv26
#       Creation time:       Fri Mar 27 00:15:19 2020


#       File generated by GOLD software.
#

@<TRIPOS>MOLECULE
AV-unprocessed.smi:655
    41    42     1
SMALL
NO_CHARGES


@<TRIPOS>ATOM
      1 ****        -3.9894  -1.6928  -0.7396 C.3            1 S1                 0.0000
      2 ****        -2.4700  -1.4856  -0.6660 C.3            1 S1                 0.0000
      3 ****        -2.0904  -0.4930   0.4465 C.3            1 S1                 0.0000
      4 ****        -0.5682  -0.2823   0.5309 C.3            1 S1                 0.0000
      5 ****         0.0625   0.1552  -0.8155 C.3            1 S1                 0.0000
      6 ****        -0.4254   1.4392  -1.1608 O.3            1 S1                 0.0000
      7 ****         1.6166   0.2344  -0.7810 C.3            1 S1                 0.0000
      8 ****         2.1906   0.7671   0.4359 N.am           1 S1                 0.0000
      9 ****         2.5669  -0.0440   1.4969 C.2            1 S1                 0.0000
     10 ****         3.0904   0.4350   2.6510 C.2            1 S1                 0.0000
     11 ****         3.5258  -0.6418   3.9296 Cl             1 S1                 0.0000
     12 ****         3.2878   1.8734   2.8229 C.2            1 S1                 0.0000
     13 ****         3.7530   2.4138   3.8245 O.2            1 S1                 0.0000
     14 ****         2.9002   2.6519   1.7284 N.am           1 S1                 0.0000
     15 ****         2.3595   2.1677   0.5368 C.2            1 S1                 0.0000
     16 ****         2.0590   2.9544  -0.3610 O.2            1 S1                 0.0000
     17 ****        -0.3768  -0.8054  -1.9470 C.3            1 S1                 0.0000
     18 ****        -1.9009  -1.0111  -2.0144 C.3            1 S1                 0.0000
     19 ****         3.0234   3.6512   1.8060 H              1 S1                 0.0000
     20 ****        -4.5063  -0.7594  -0.9650 H              1 S1                 0.0000
     21 ****        -4.3804  -2.0699   0.2058 H              1 S1                 0.0000
     22 ****        -4.2506  -2.4137  -1.5148 H              1 S1                 0.0000
     23 ****        -2.0168  -2.4492  -0.4282 H              1 S1                 0.0000
     24 ****        -2.5833   0.4643   0.2720 H              1 S1                 0.0000
     25 ****        -2.4582  -0.8540   1.4075 H              1 S1                 0.0000
     26 ****        -0.3564   0.4516   1.3096 H              1 S1                 0.0000
     27 ****        -0.1063  -1.2148   0.8566 H              1 S1                 0.0000
     28 ****        -0.0230   1.7069  -1.9728 H              1 S1                 0.0000
     29 ****         2.0388  -0.7688  -0.8597 H              1 S1                 0.0000
     30 ****         2.0383   0.7806  -1.6281 H              1 S1                 0.0000
     31 ****         2.4305  -1.1124   1.4056 H              1 S1                 0.0000
     32 ****        -0.0128  -0.4466  -2.9110 H              1 S1                 0.0000
     33 ****         0.0915  -1.7789  -1.7947 H              1 S1                 0.0000
     34 ****        -2.1326  -1.7404  -2.7914 H              1 S1                 0.0000
     35 ****        -2.3867  -0.0818  -2.3149 H              1 S1                 0.0000
     36 ****        -0.1949   2.0922  -0.4394 LP             1 S1                 0.0000
     37 ****        -1.4184   1.4031  -1.2729 LP             1 S1                 0.0000
     38 ****         4.0316   1.8588   4.6083 LP             1 S1                 0.0000
     39 ****         3.8527   3.4083   3.8553 LP             1 S1                 0.0000
     40 ****         1.6731   2.6118  -1.2176 LP             1 S1                 0.0000
     41 ****         2.2008   3.9361  -0.2338 LP             1 S1                 0.0000
@<TRIPOS>BOND
    1    1    2 1     
    2    1   20 1     
    3    1   21 1     
    4    1   22 1     
    5    2   18 1     
    6    2    3 1     
    7    2   23 1     
    8    3    4 1     
    9    3   24 1     
   10    3   25 1     
   11    4    5 1     
   12    4   26 1     
   13    4   27 1     
   14    5    6 1     
   15    5    7 1     
   16    5   17 1     
   17    6   28 1     
   18    7    8 1     
   19    7   29 1     
   20    7   30 1     
   21    8   15 1     
   22    8    9 1     
   23    9   10 2     
   24    9   31 1     
   25   10   11 1     
   26   10   12 1     
   27   12   13 2     
   28   12   14 1     
   29   14   19 1     
   30   14   15 1     
   31   15   16 2     
   32   17   18 1     
   33   17   32 1     
   34   17   33 1     
   35   18   34 1     
   36   18   35 1     
   37    6   36 1     
   38    6   37 1     
   39   13   38 1     
   40   13   39 1     
   41   16   40 1     
   42   16   41 1     
@<TRIPOS>SUBSTRUCTURE
      1 S1             1
@<TRIPOS>SET
LONE_PAIRS      STATIC     ATOMS    <user>   **** ""
6 36 37 38 39 40 41
DONOR_HYDROGENS      STATIC     ATOMS    <user>   **** ""
2 28 19
ATOM$BLUE        STATIC     ATOMS    COLORGROUP SYSTEM
6 36 37 38 39 40 41
ATOM$RED        STATIC     ATOMS    COLORGROUP SYSTEM
2 28 19
