#       Name:                AV-unprocessed.smi:2914
#       Creating user name   scv26
#       Creation time:       Fri Mar 27 16:07:51 2020


#       File generated by GOLD software.
#

@<TRIPOS>MOLECULE
AV-unprocessed.smi:2914
    35    37     1
SMALL
NO_CHARGES


@<TRIPOS>ATOM
      1 ****        -0.3576   3.0051  -0.2236 O.2            1 S1                 0.0000
      2 ****        -0.7335   1.8335  -0.2698 C.2            1 S1                 0.0000
      3 ****         0.0647   0.7655  -0.4442 N.am           1 S1                 0.0000
      4 ****         1.4156   0.7275  -0.5943 C.2            1 S1                 0.0000
      5 ****         2.3081   1.7646  -0.6118 C.2            1 S1                 0.0000
      6 ****         3.5533   1.0967  -0.7892 C.2            1 S1                 0.0000
      7 ****         3.4293  -0.2218  -0.8719 N.2            1 S1                 0.0000
      8 ****         2.1037  -0.4564  -0.7544 N.pl3          1 S1                 0.0000
      9 ****         1.6050  -1.8196  -0.7946 C.3            1 S1                 0.0000
     10 ****         1.3953  -2.3796   0.5986 C.3            1 S1                 0.0000
     11 ****         2.5625  -2.8982   1.4056 C.3            1 S1                 0.0000
     12 ****         1.5300  -3.8599   0.8681 C.3            1 S1                 0.0000
     13 ****        -2.0155   1.4614  -0.1510 N.am           1 S1                 0.0000
     14 ****        -3.1202   2.3449   0.0405 C.3            1 S1                 0.0000
     15 ****        -4.2677   1.8594   0.8996 C.3            1 S1                 0.0000
     16 ****        -4.4417   1.9631  -0.5905 C.3            1 S1                 0.0000
     17 ****        -0.3944  -0.1332  -0.4619 H              1 S1                 0.0000
     18 ****         2.1249   2.8238  -0.5141 H              1 S1                 0.0000
     19 ****         4.5407   1.5285  -0.8591 H              1 S1                 0.0000
     20 ****         0.6616  -1.8400  -1.3408 H              1 S1                 0.0000
     21 ****         2.3092  -2.4446  -1.3464 H              1 S1                 0.0000
     22 ****         0.6252  -1.8604   1.1660 H              1 S1                 0.0000
     23 ****         3.5433  -2.8981   0.9341 H              1 S1                 0.0000
     24 ****         2.5593  -2.7012   2.4755 H              1 S1                 0.0000
     25 ****         0.8383  -4.3053   1.5801 H              1 S1                 0.0000
     26 ****         1.8273  -4.5032   0.0424 H              1 S1                 0.0000
     27 ****        -2.2292   0.4761  -0.2015 H              1 S1                 0.0000
     28 ****        -2.9053   3.4117   0.0891 H              1 S1                 0.0000
     29 ****        -4.1967   0.8615   1.3287 H              1 S1                 0.0000
     30 ****        -4.7785   2.5960   1.5168 H              1 S1                 0.0000
     31 ****        -5.0680   2.7689  -0.9684 H              1 S1                 0.0000
     32 ****        -4.4875   1.0342  -1.1561 H              1 S1                 0.0000
     33 ****         0.6137   3.2227  -0.3196 LP             1 S1                 0.0000
     34 ****        -1.0237   3.7390  -0.0902 LP             1 S1                 0.0000
     35 ****         4.1582  -0.8954  -0.9946 LP             1 S1                 0.0000
@<TRIPOS>BOND
    1    1    2 2     
    2    2    3 am    
    3    2   13 am    
    4    3    4 1     
    5    3   17 1     
    6    4    8 1     
    7    4    5 2     
    8    5    6 1     
    9    5   18 1     
   10    6    7 2     
   11    6   19 1     
   12    7    8 1     
   13    8    9 1     
   14    9   10 1     
   15    9   20 1     
   16    9   21 1     
   17   10   12 1     
   18   10   11 1     
   19   10   22 1     
   20   11   12 1     
   21   11   23 1     
   22   11   24 1     
   23   12   25 1     
   24   12   26 1     
   25   13   14 1     
   26   13   27 1     
   27   14   16 1     
   28   14   15 1     
   29   14   28 1     
   30   15   16 1     
   31   15   29 1     
   32   15   30 1     
   33   16   31 1     
   34   16   32 1     
   35    1   33 1     
   36    1   34 1     
   37    7   35 1     
@<TRIPOS>SUBSTRUCTURE
      1 S1             1
@<TRIPOS>SET
LONE_PAIRS      STATIC     ATOMS    <user>   **** ""
3 33 34 35
DONOR_HYDROGENS      STATIC     ATOMS    <user>   **** ""
2 17 27
ATOM$BLUE        STATIC     ATOMS    COLORGROUP SYSTEM
3 33 34 35
ATOM$RED        STATIC     ATOMS    COLORGROUP SYSTEM
2 17 27
