AV-unprocessed.smi:1295|AV-procd|sdf|5403|dock7
  -GOLD-   22720 4563D 1   1.00000     0.00000
 Structure written by MMmdl.
 43 44  0  0  0  0  0  0  0  0  1 V2000
  146.9452  138.6167  151.6728 C   0  0  0  0  0  0  0  0  0  0  0  0
  146.8623  139.4881  152.9080 C   0  0  0  0  0  0  0  0  0  0  0  0
  145.9465  139.3714  153.8124 N   0  0  0  0  0  0  0  0  0  0  0  0
  145.9751  140.2348  154.9160 C   0  0  0  0  0  0  0  0  0  0  0  0
  144.8768  140.0230  155.9435 C   0  0  0  0  0  0  0  0  0  0  0  0
  146.9393  141.1918  155.0515 C   0  0  0  0  0  0  0  0  0  0  0  0
  147.0093  142.1344  156.2542 C   0  0  0  0  0  0  0  0  0  0  0  0
  148.0199  141.7480  157.3364 C   0  0  0  0  0  0  0  0  0  0  0  0
  147.8365  140.7434  158.0224 O   0  0  0  0  0  0  0  0  0  0  0  0
  149.0822  142.5565  157.4668 N   0  0  0  0  0  0  0  0  0  0  0  0
  150.2229  142.3637  158.3590 C   0  0  2  0  0  0  0  0  0  0  0  0
  150.3101  143.5259  159.3687 C   0  0  0  0  0  0  0  0  0  0  0  0
  150.7010  144.8521  158.6931 C   0  0  0  0  0  0  0  0  0  0  0  0
  152.0077  144.7071  157.8987 C   0  0  0  0  0  0  0  0  0  0  0  0
  151.9184  143.5640  156.8747 C   0  0  0  0  0  0  0  0  0  0  0  0
  151.5343  142.2282  157.5456 C   0  0  2  0  0  0  0  0  0  0  0  0
  151.4836  141.0793  156.5224 C   0  0  0  0  0  0  0  0  0  0  0  0
  147.9827  141.3132  154.0147 C   0  0  0  0  0  0  0  0  0  0  0  0
  148.9085  142.1223  154.0491 O   0  0  0  0  0  0  0  0  0  0  0  0
  147.8767  140.4407  152.9877 N   0  0  0  0  0  0  0  0  0  0  0  0
  148.5679  140.4827  152.2530 H   0  0  0  0  0  0  0  0  0  0  0  0
  147.0362  137.5688  151.9592 H   0  0  0  0  0  0  0  0  0  0  0  0
  147.8042  138.8767  151.0528 H   0  0  0  0  0  0  0  0  0  0  0  0
  146.0429  138.7309  151.0714 H   0  0  0  0  0  0  0  0  0  0  0  0
  144.2588  140.9163  156.0344 H   0  0  0  0  0  0  0  0  0  0  0  0
  145.3041  139.7935  156.9198 H   0  0  0  0  0  0  0  0  0  0  0  0
  144.2256  139.1942  155.6629 H   0  0  0  0  0  0  0  0  0  0  0  0
  147.2262  143.1535  155.9323 H   0  0  0  0  0  0  0  0  0  0  0  0
  146.0210  142.1931  156.7109 H   0  0  0  0  0  0  0  0  0  0  0  0
  149.1239  143.3649  156.8635 H   0  0  0  0  0  0  0  0  0  0  0  0
  150.0850  141.4392  158.9224 H   0  0  0  0  0  0  0  0  0  0  0  0
  149.3619  143.6400  159.8956 H   0  0  0  0  0  0  0  0  0  0  0  0
  151.0519  143.2824  160.1304 H   0  0  0  0  0  0  0  0  0  0  0  0
  149.9013  145.1782  158.0266 H   0  0  0  0  0  0  0  0  0  0  0  0
  150.8098  145.6332  159.4461 H   0  0  0  0  0  0  0  0  0  0  0  0
  152.2383  145.6438  157.3905 H   0  0  0  0  0  0  0  0  0  0  0  0
  152.8333  144.5174  158.5858 H   0  0  0  0  0  0  0  0  0  0  0  0
  151.1878  143.8194  156.1059 H   0  0  0  0  0  0  0  0  0  0  0  0
  152.8757  143.4608  156.3630 H   0  0  0  0  0  0  0  0  0  0  0  0
  152.3266  141.9835  158.2549 H   0  0  0  0  0  0  0  0  0  0  0  0
  150.7563  141.2709  155.7326 H   0  0  0  0  0  0  0  0  0  0  0  0
  151.2130  140.1385  157.0024 H   0  0  0  0  0  0  0  0  0  0  0  0
  152.4542  140.9377  156.0465 H   0  0  0  0  0  0  0  0  0  0  0  0
  1  2  1  0  0  0  0
  1 22  1  0  0  0  0
  1 23  1  0  0  0  0
  1 24  1  0  0  0  0
  2 20  1  0  0  0  0
  2  3  2  0  0  0  0
  3  4  1  0  0  0  0
  4  5  1  0  0  0  0
  4  6  2  0  0  0  0
  5 25  1  0  0  0  0
  5 26  1  0  0  0  0
  5 27  1  0  0  0  0
  6  7  1  0  0  0  0
  6 18  1  0  0  0  0
  7  8  1  0  0  0  0
  7 28  1  0  0  0  0
  7 29  1  0  0  0  0
  8  9  2  0  0  0  0
  8 10  1  0  0  0  0
 10 11  1  0  0  0  0
 10 30  1  0  0  0  0
 11 16  1  0  0  0  0
 11 12  1  0  0  0  0
 11 31  1  0  0  0  0
 12 13  1  0  0  0  0
 12 32  1  0  0  0  0
 12 33  1  0  0  0  0
 13 14  1  0  0  0  0
 13 34  1  0  0  0  0
 13 35  1  0  0  0  0
 14 15  1  0  0  0  0
 14 36  1  0  0  0  0
 14 37  1  0  0  0  0
 15 16  1  0  0  0  0
 15 38  1  0  0  0  0
 15 39  1  0  0  0  0
 16 17  1  0  0  0  0
 16 40  1  0  0  0  0
 17 41  1  0  0  0  0
 17 42  1  0  0  0  0
 17 43  1  0  0  0  0
 18 19  2  0  0  0  0
 18 20  1  0  0  0  0
 20 21  1  0  0  0  0
M  END
> <s_m_source_file>
AV-unprocessed.smi

> <i_m_source_file_index>
1295

> <i_lp_mmshare_version>
43012

> <i_f3d_flags>
0

> <s_epik_input>
W0NIM11jMW5jKFtDSDNdKWMoYyg9TylbbkhdMSlbQ0gyXUMoPU8pW05IXVtDQEBIXTJbQ0gyXVtDSDJdW0NIMl1bQ0gyXVtDQEhdMltDSDNd

> <s_epik_cmdline>
J2VwaWtfcHl0aG9uJywgJy1waCcsICc3LjAnLCAnLXRuJywgJzgnLCAnLW1hJywgJzIwMCcsICctbWV0YWxfYmluZGluZycsICctaW1hZScsICc8aW5maWxlLm1hZT4nLCAnLW9tYWUnLCAnPG91dGZpbGUubWFlPic=

> <r_lp_tautomer_probability>
0.839158

> <r_epik_Ionization_Penalty>
0.00037085

> <r_epik_Ionization_Penalty_Charging>
0.000336002

> <r_epik_Ionization_Penalty_Neutral>
3.48485e-05

> <r_epik_State_Penalty>
0.09125

> <r_epik_Charging_Adjusted_Penalty>
0.091586

> <i_epik_Tot_Q>
0

> <i_epik_Tot_abs_Q>
0

> <r_epik_Metal_State_Penalty>
0.251445

> <b_epik_Metal_Only>
0

> <s_lp_Force_Field>
OPLS_2005

> <r_lp_Energy>
10.0645

> <b_lp_Chiralities_Consistent>
1

> <s_lp_Variant>
AV-unprocessed.smi:1295-3

> <Gold.Version>
5.8.1

> <Gold.Id.Protein>
6NUR|6NUR_protein|mol2

> <Gold.PLP.Fitness>
35.4521

> <Gold.PLP.PLP>
-28.8893

> <Gold.PLP.part.hbond>
-4.0000

> <Gold.PLP.part.metal>
0.0000

> <Gold.PLP.part.buried>
-4.8684

> <Gold.PLP.part.nonpolar>
-23.2323

> <Gold.PLP.part.repulsive>
2.2910

> <Gold.PLP.ligand.clash>
0.0000

> <Gold.PLP.ligand.torsion>
0.3470

> <Gold.PLP.Chemscore.Hbond>
2.4160

> <Gold.PLP.Chemscore.CHOScore>
0.0000

> <Gold.PLP.Chemscore.Metal>
0.0000

> <Gold.Chemscore.Hbonds>
donor molecule, donor type, donor heavy atom, donor atom, acceptor molecule, acceptor atom, score
      L1  H    10    30       P1  8028  1.00
      L1  H    20    21       P1  7957  1.00
      P1  H  8011  8017       L1    19  0.35

> <Gold.PLP.Chemscore.Internal.Correction>
0.0088

> <Gold.Rescore>
     Score         DG    S(hbond)    S(metal)    S(lipo)     H(rot)  DE(clash)    DE(int)     intcor
     16.86     -19.42       2.42        0.00      82.35       1.48       2.16       0.40       ----

> <Gold.Chemscore.Fitness>
16.8573

> <Gold.Chemscore.DG>
-19.4191

> <Gold.Chemscore.ZeroCoef>
-5.4800

> <Gold.Chemscore.Hbond>
2.4231

> <Gold.Chemscore.Metal>
0.0000

> <Gold.Chemscore.Lipo>
82.3519

> <Gold.Chemscore.Internal_Hbond>
0.0000

> <Gold.Chemscore.DEClash>
2.1616

> <Gold.Chemscore.DEInternal>
0.4002

> <Gold.Chemscore.Rot>
1.4801

> <Gold.Chemscore.Internal.Correction>
   9.000000E+99

> <Gold.Chemscore.Hbonds>
donor molecule, donor type, donor heavy atom, donor atom, acceptor molecule, acceptor atom, score
      L1  H    10    30       P1  8028  0.91
      L1  H    20    21       P1  7957  0.96
      P1  H  8011  8017       L1    19  0.31

> <Gold.Chemscore.Hbond.Weighted>
-8.0931

> <Gold.Chemscore.Metal.Weighted>
-0.0000

> <Gold.Chemscore.Lipo.Weighted>
-9.6352

> <Gold.Chemscore.Internal_Hbond.Weighted>
0.0000

> <Gold.Chemscore.DEClash.Weighted>
2.1616

> <Gold.Chemscore.DEInternal.Weighted>
0.4002

> <Gold.Chemscore.Rot.Weighted>
3.7891

> <Gold.Chemscore.Internal.Correction.Weighted>
   9.000000E+99

> <Gold.Protein.RotatedTorsions>
[ 6907 6896 6895 6894 ] final  -83.49 input  -60.11 | X-H torsion
[ 7974 7965 7964 7962 ] final  150.64 input  175.53 | X-H torsion
[ 8008 7997 7996 7995 ] final   49.65 input   59.86 | X-H torsion
[ 10167 10162 10161 10158 ] final -166.29 input  -65.29 | X-H torsion
[ 10718 10713 10712 10709 ] final -106.90 input   66.30 | X-H torsion
[ 10763 10752 10751 10750 ] final  -37.35 input  -60.55 | X-H torsion
[ 11005 11000 10999 10996 ] final  -36.15 input  -57.11 | X-H torsion

> <Gold.Protein.ActiveResidues>
 VAL166  LYS551  ARG553  GLY616  TRP617  ASP618  TYR619  PRO620  LYS621  CYS622 
 ASP623  PHE694  ASN695  SER759  ASP760  ASP761  ALA762  ILE779  LEU786  VAL792 
 PHE793  MET794  SER795  GLU796  ALA797  LYS798  CYS799  TRP800  GLU811  SER814 

> <Gold.Protein.RotatedAtoms>
  150.6885  134.3504  159.4906 H   0  0  0  0  0  0  0  0  0  0  0  0  # atno 6907 bound_to 6896
  152.1346  134.9106  160.0566 H   0  0  0  0  0  0  0  0  0  0  0  0  # atno 6908 bound_to 6896
  152.0263  133.3884  159.4316 H   0  0  0  0  0  0  0  0  0  0  0  0  # atno 6909 bound_to 6896
  144.8349  139.6435  143.6042 H   0  0  0  0  0  0  0  0  0  0  0  0  # atno 7974 bound_to 7965
  155.4056  140.3440  155.4260 H   0  0  0  0  0  0  0  0  0  0  0  0  # atno 8008 bound_to 7997
  156.1478  140.1561  156.8850 H   0  0  0  0  0  0  0  0  0  0  0  0  # atno 8009 bound_to 7997
  154.5026  140.0811  156.7810 H   0  0  0  0  0  0  0  0  0  0  0  0  # atno 8010 bound_to 7997
  139.6125  144.0786  152.1856 H   0  0  0  0  0  0  0  0  0  0  0  0  # atno 10167 bound_to 10162
  156.0411  130.5635  150.7745 H   0  0  0  0  0  0  0  0  0  0  0  0  # atno 10718 bound_to 10713
  153.8948  135.6808  153.4758 H   0  0  0  0  0  0  0  0  0  0  0  0  # atno 10763 bound_to 10752
  153.1161  135.4761  154.9116 H   0  0  0  0  0  0  0  0  0  0  0  0  # atno 10764 bound_to 10752
  154.7604  135.3209  154.8342 H   0  0  0  0  0  0  0  0  0  0  0  0  # atno 10765 bound_to 10752
  140.9852  133.7034  156.1753 H   0  0  0  0  0  0  0  0  0  0  0  0  # atno 11005 bound_to 11000
  146.2649  139.6496  142.9336 LP  0  0  0  0  0  0  0  0  0  0  0  0  # atno 17320 bound_to 7965
  145.4816  141.0438  143.2643 LP  0  0  0  0  0  0  0  0  0  0  0  0  # atno 17321 bound_to 7965
  140.0408  144.6009  150.7412 LP  0  0  0  0  0  0  0  0  0  0  0  0  # atno 17342 bound_to 10162
  140.7329  143.2710  151.3888 LP  0  0  0  0  0  0  0  0  0  0  0  0  # atno 17343 bound_to 10162
  157.5230  131.0932  151.0054 LP  0  0  0  0  0  0  0  0  0  0  0  0  # atno 17370 bound_to 10713
  157.0380  130.5737  149.5352 LP  0  0  0  0  0  0  0  0  0  0  0  0  # atno 17371 bound_to 10713
  140.7125  134.4446  157.5580 LP  0  0  0  0  0  0  0  0  0  0  0  0  # atno 17394 bound_to 11000
  139.8967  134.8653  156.2074 LP  0  0  0  0  0  0  0  0  0  0  0  0  # atno 17395 bound_to 11000

$$$$
