AV-unprocessed.smi:878|AV-procd|sdf|4032|dock8
  -GOLD-   22720 1523D 1   1.00000     0.00000
 Structure written by MMmdl.
 32 33  0  0  0  0  0  0  0  0  2 V2000
  150.1334  145.0746  160.0151 C   0  0  0  0  0  0  0  0  0  0  0  0
  151.2115  144.6128  158.6319 S   0  0  0  0  0  0  0  0  0  0  0  0
  152.0898  143.1440  159.0834 C   0  0  0  0  0  0  0  0  0  0  0  0
  151.9519  141.9460  158.3510 C   0  0  0  0  0  0  0  0  0  0  0  0
  152.6629  140.7933  158.7394 C   0  0  0  0  0  0  0  0  0  0  0  0
  153.5237  140.8245  159.8651 C   0  0  0  0  0  0  0  0  0  0  0  0
  154.2576  139.7474  160.3111 O   0  0  0  0  0  0  0  0  0  0  0  0
  154.1515  138.5177  159.6070 C   0  0  0  0  0  0  0  0  0  0  0  0
  153.3375  137.5176  160.4439 C   0  0  0  0  0  0  0  0  0  0  0  0
  154.1556  136.8886  161.4908 N   0  0  0  0  0  0  0  0  0  0  0  0
  154.3192  137.5960  162.6937 C   0  0  0  0  0  0  0  0  0  0  0  0
  155.0541  137.1129  163.7142 C   0  0  0  0  0  0  0  0  0  0  0  0
  155.2396  138.0074  165.1808 Cl  0  0  0  0  0  0  0  0  0  0  0  0
  155.6929  135.8097  163.5422 C   0  0  0  0  0  0  0  0  0  0  0  0
  156.3688  135.3375  164.4552 O   0  0  0  0  0  0  0  0  0  0  0  0
  155.5069  135.1648  162.3535 N   0  5  0  0  0  0  0  0  0  0  0  0
  154.7576  135.6729  161.3267 C   0  0  0  0  0  0  0  0  0  0  0  0
  154.6089  135.0713  160.2629 O   0  0  0  0  0  0  0  0  0  0  0  0
  153.6538  142.0275  160.5877 C   0  0  0  0  0  0  0  0  0  0  0  0
  152.9410  143.1792  160.2040 C   0  0  0  0  0  0  0  0  0  0  0  0
  149.5306  145.9411  159.7434 H   0  0  0  0  0  0  0  0  0  0  0  0
  150.7231  145.3322  160.8948 H   0  0  0  0  0  0  0  0  0  0  0  0
  149.4618  144.2536  160.2664 H   0  0  0  0  0  0  0  0  0  0  0  0
  151.3037  141.8896  157.4908 H   0  0  0  0  0  0  0  0  0  0  0  0
  152.5322  139.8959  158.1544 H   0  0  0  0  0  0  0  0  0  0  0  0
  153.6760  138.6689  158.6363 H   0  0  0  0  0  0  0  0  0  0  0  0
  155.1473  138.1080  159.4327 H   0  0  0  0  0  0  0  0  0  0  0  0
  152.5022  138.0405  160.9117 H   0  0  0  0  0  0  0  0  0  0  0  0
  152.8739  136.7743  159.7937 H   0  0  0  0  0  0  0  0  0  0  0  0
  153.8165  138.5515  162.7325 H   0  0  0  0  0  0  0  0  0  0  0  0
  154.3055  142.0657  161.4484 H   0  0  0  0  0  0  0  0  0  0  0  0
  153.0517  144.0907  160.7728 H   0  0  0  0  0  0  0  0  0  0  0  0
  1  2  1  0  0  0  0
  1 21  1  0  0  0  0
  1 22  1  0  0  0  0
  1 23  1  0  0  0  0
  2  3  1  0  0  0  0
  3 20  1  0  0  0  0
  3  4  2  0  0  0  0
  4  5  1  0  0  0  0
  4 24  1  0  0  0  0
  5  6  2  0  0  0  0
  5 25  1  0  0  0  0
  6  7  1  0  0  0  0
  6 19  1  0  0  0  0
  7  8  1  0  0  0  0
  8  9  1  0  0  0  0
  8 26  1  0  0  0  0
  8 27  1  0  0  0  0
  9 10  1  0  0  0  0
  9 28  1  0  0  0  0
  9 29  1  0  0  0  0
 10 17  1  0  0  0  0
 10 11  1  0  0  0  0
 11 12  2  0  0  0  0
 11 30  1  0  0  0  0
 12 13  1  0  0  0  0
 12 14  1  0  0  0  0
 14 15  2  0  0  0  0
 14 16  1  0  0  0  0
 16 17  1  0  0  0  0
 17 18  2  0  0  0  0
 19 20  2  0  0  0  0
 19 31  1  0  0  0  0
 20 32  1  0  0  0  0
M  CHG  1  16  -1
M  END
> <s_m_source_file>
AV-unprocessed.smi

> <i_m_source_file_index>
878

> <i_lp_mmshare_version>
43012

> <i_f3d_flags>
0

> <s_epik_input>
W0NIM11TYzFbY0hdW2NIXWMoW2NIXVtjSF0xKU9bQ0gyXVtDSDJdbjJbY0hdYyhDbCljKD1PKVtuSF1jMj1P

> <s_epik_cmdline>
J2VwaWtfcHl0aG9uJywgJy1waCcsICc3LjAnLCAnLXRuJywgJzgnLCAnLW1hJywgJzIwMCcsICctbWV0YWxfYmluZGluZycsICctaW1hZScsICc8aW5maWxlLm1hZT4nLCAnLW9tYWUnLCAnPG91dGZpbGUubWFlPic=

> <r_lp_tautomer_probability>
1

> <r_epik_Ionization_Penalty>
1.65349

> <r_epik_Ionization_Penalty_Charging>
1.22116e-08

> <r_epik_Ionization_Penalty_Neutral>
1.65349

> <r_epik_State_Penalty>
1.75578

> <r_epik_Charging_Adjusted_Penalty>
1.75578

> <i_epik_Tot_Q>
-1

> <i_epik_Tot_abs_Q>
1

> <r_epik_Metal_State_Penalty>
0.0107816

> <b_epik_Metal_Only>
0

> <s_lp_Force_Field>
OPLS_2005

> <r_lp_Energy>
23.8138

> <b_lp_Chiralities_Consistent>
1

> <s_lp_Variant>
AV-unprocessed.smi:878-2

> <Gold.Version>
5.8.1

> <Gold.Id.Protein>
6NUR|6NUR_protein|mol2

> <Gold.PLP.Fitness>
43.5202

> <Gold.PLP.PLP>
-42.0262

> <Gold.PLP.part.hbond>
-1.0000

> <Gold.PLP.part.metal>
0.0000

> <Gold.PLP.part.buried>
-4.8319

> <Gold.PLP.part.nonpolar>
-35.5246

> <Gold.PLP.part.repulsive>
0.0738

> <Gold.PLP.ligand.clash>
0.0000

> <Gold.PLP.ligand.torsion>
0.7678

> <Gold.PLP.Chemscore.Hbond>
1.0000

> <Gold.PLP.Chemscore.CHOScore>
0.0000

> <Gold.PLP.Chemscore.Metal>
0.0000

> <Gold.Chemscore.Hbonds>
donor molecule, donor type, donor heavy atom, donor atom, acceptor molecule, acceptor atom, score
      P1  H  6896  6909       L1    18  0.62

> <Gold.PLP.Chemscore.Internal.Correction>
0.0296

> <Gold.Rescore>
     Score         DG    S(hbond)    S(metal)    S(lipo)     H(rot)  DE(clash)    DE(int)     intcor
     16.73     -17.56       1.00        0.00     116.48       1.91       0.13       0.70       ----

> <Gold.Chemscore.Fitness>
16.7276

> <Gold.Chemscore.DG>
-17.5597

> <Gold.Chemscore.ZeroCoef>
-5.4800

> <Gold.Chemscore.Hbond>
0.9983

> <Gold.Chemscore.Metal>
0.0000

> <Gold.Chemscore.Lipo>
116.4781

> <Gold.Chemscore.Internal_Hbond>
0.0000

> <Gold.Chemscore.DEClash>
0.1335

> <Gold.Chemscore.DEInternal>
0.6986

> <Gold.Chemscore.Rot>
1.9073

> <Gold.Chemscore.Internal.Correction>
   9.000000E+99

> <Gold.Chemscore.Hbonds>
donor molecule, donor type, donor heavy atom, donor atom, acceptor molecule, acceptor atom, score
      P1  H  6896  6909       L1    18  0.55

> <Gold.Chemscore.Hbond.Weighted>
-3.3344

> <Gold.Chemscore.Metal.Weighted>
-0.0000

> <Gold.Chemscore.Lipo.Weighted>
-13.6279

> <Gold.Chemscore.Internal_Hbond.Weighted>
0.0000

> <Gold.Chemscore.DEClash.Weighted>
0.1335

> <Gold.Chemscore.DEInternal.Weighted>
0.6986

> <Gold.Chemscore.Rot.Weighted>
4.8826

> <Gold.Chemscore.Internal.Correction.Weighted>
   9.000000E+99

> <Gold.Protein.RotatedTorsions>
[ 6907 6896 6895 6894 ] final -154.75 input  -60.11 | X-H torsion
[ 7974 7965 7964 7962 ] final   97.78 input  175.53 | X-H torsion
[ 8008 7997 7996 7995 ] final  172.25 input   59.86 | X-H torsion
[ 10167 10162 10161 10158 ] final -123.98 input  -65.29 | X-H torsion
[ 10718 10713 10712 10709 ] final  -67.20 input   66.30 | X-H torsion
[ 10763 10752 10751 10750 ] final   55.61 input  -60.55 | X-H torsion
[ 11005 11000 10999 10996 ] final  -99.98 input  -57.11 | X-H torsion

> <Gold.Protein.ActiveResidues>
 VAL166  LYS551  ARG553  GLY616  TRP617  ASP618  TYR619  PRO620  LYS621  CYS622 
 ASP623  PHE694  ASN695  SER759  ASP760  ASP761  ALA762  ILE779  LEU786  VAL792 
 PHE793  MET794  SER795  GLU796  ALA797  LYS798  CYS799  TRP800  GLU811  SER814 

> <Gold.Protein.RotatedAtoms>
  151.2621  133.4297  159.2616 H   0  0  0  0  0  0  0  0  0  0  0  0  # atno 6907 bound_to 6896
  151.0521  134.9680  159.8227 H   0  0  0  0  0  0  0  0  0  0  0  0  # atno 6908 bound_to 6896
  152.5384  134.2575  159.8975 H   0  0  0  0  0  0  0  0  0  0  0  0  # atno 6909 bound_to 6896
  145.4209  139.2321  143.3197 H   0  0  0  0  0  0  0  0  0  0  0  0  # atno 7974 bound_to 7965
  156.1192  140.1490  156.9228 H   0  0  0  0  0  0  0  0  0  0  0  0  # atno 8008 bound_to 7997
  154.4823  140.0875  156.7448 H   0  0  0  0  0  0  0  0  0  0  0  0  # atno 8009 bound_to 7997
  155.4458  140.3433  155.4297 H   0  0  0  0  0  0  0  0  0  0  0  0  # atno 8010 bound_to 7997
  139.9977  143.5574  152.2316 H   0  0  0  0  0  0  0  0  0  0  0  0  # atno 10167 bound_to 10162
  156.0571  130.4274  150.1819 H   0  0  0  0  0  0  0  0  0  0  0  0  # atno 10718 bound_to 10713
  152.9819  135.5705  154.5094 H   0  0  0  0  0  0  0  0  0  0  0  0  # atno 10763 bound_to 10752
  154.4600  135.2781  155.1721 H   0  0  0  0  0  0  0  0  0  0  0  0  # atno 10764 bound_to 10752
  154.3313  135.6248  153.5606 H   0  0  0  0  0  0  0  0  0  0  0  0  # atno 10765 bound_to 10752
  141.1288  133.8363  157.1042 H   0  0  0  0  0  0  0  0  0  0  0  0  # atno 11005 bound_to 11000
  146.2657  140.4933  142.8835 LP  0  0  0  0  0  0  0  0  0  0  0  0  # atno 17320 bound_to 7965
  144.8246  140.6607  143.6330 LP  0  0  0  0  0  0  0  0  0  0  0  0  # atno 17321 bound_to 7965
  139.6294  144.7642  151.2568 LP  0  0  0  0  0  0  0  0  0  0  0  0  # atno 17342 bound_to 10162
  140.7431  143.6506  150.8252 LP  0  0  0  0  0  0  0  0  0  0  0  0  # atno 17343 bound_to 10162
  156.9893  130.9888  151.3418 LP  0  0  0  0  0  0  0  0  0  0  0  0  # atno 17370 bound_to 10713
  157.5549  130.8207  149.8192 LP  0  0  0  0  0  0  0  0  0  0  0  0  # atno 17371 bound_to 10713
  140.0314  134.9899  157.0788 LP  0  0  0  0  0  0  0  0  0  0  0  0  # atno 17394 bound_to 11000
  140.4278  134.1812  155.7167 LP  0  0  0  0  0  0  0  0  0  0  0  0  # atno 17395 bound_to 11000

$$$$
