#       Name:                AV-unprocessed.smi:1870
#       Creating user name   scv26
#       Creation time:       Fri Mar 27 09:31:30 2020


#       File generated by GOLD software.
#

@<TRIPOS>MOLECULE
AV-unprocessed.smi:1870
    54    56     1
SMALL
NO_CHARGES


@<TRIPOS>ATOM
      1 ****        -4.6377   3.8451   0.2188 C.3            1 S1                 0.0000
      2 ****        -3.9809   2.4959   0.3319 C.2            1 S1                 0.0000
      3 ****        -2.6895   2.4734   0.2826 N.2            1 S1                 0.0000
      4 ****        -1.9867   1.2882   0.3698 N.am           1 S1                 0.0000
      5 ****        -0.5293   1.4516   0.2901 C.3            1 S1                 0.0000
      6 ****         0.0103   1.1508  -1.1266 C.3            1 S1                 0.0000
      7 ****        -0.3351   2.2376  -1.9622 O.3            1 S1                 0.0000
      8 ****         1.5438   1.0084  -1.2222 C.3            1 S1                 0.0000
      9 ****         2.0880  -0.1809  -0.5639 N.3            1 S1                 0.0000
     10 ****         2.6670   0.1232   0.7440 C.3            1 S1                 0.0000
     11 ****         2.9723  -1.1582   1.5349 C.3            1 S1                 0.0000
     12 ****         3.7027  -2.1896   0.6897 C.ar           1 S1                 0.0000
     13 ****         4.3161  -3.3011   1.3026 C.ar           1 S1                 0.0000
     14 ****         4.9692  -4.2695   0.5158 C.ar           1 S1                 0.0000
     15 ****         5.0106  -4.1288  -0.8848 C.ar           1 S1                 0.0000
     16 ****         4.3995  -3.0194  -1.5010 C.ar           1 S1                 0.0000
     17 ****         3.7393  -2.0496  -0.7188 C.ar           1 S1                 0.0000
     18 ****         3.1069  -0.8349  -1.3881 C.3            1 S1                 0.0000
     19 ****        -2.5556   0.0562   0.5096 C.2            1 S1                 0.0000
     20 ****        -1.8899  -0.9785   0.5735 O.2            1 S1                 0.0000
     21 ****        -4.0186   0.0894   0.5710 C.2            1 S1                 0.0000
     22 ****        -4.6557  -1.1794   0.7189 C.1            1 S1                 0.0000
     23 ****        -5.1906  -2.1995   0.8355 N.1            1 S1                 0.0000
     24 ****        -4.7202   1.2476   0.4902 C.2            1 S1                 0.0000
     25 ****        -6.2393   1.3348   0.5456 C.3            1 S1                 0.0000
     26 ****        -5.3619   3.8570  -0.5960 H              1 S1                 0.0000
     27 ****        -3.9116   4.6358   0.0230 H              1 S1                 0.0000
     28 ****        -5.1609   4.0982   1.1412 H              1 S1                 0.0000
     29 ****        -0.2274   2.4507   0.6106 H              1 S1                 0.0000
     30 ****        -0.0851   0.7724   1.0160 H              1 S1                 0.0000
     31 ****        -0.4505   0.2476  -1.5286 H              1 S1                 0.0000
     32 ****        -1.2742   2.3422  -1.9428 H              1 S1                 0.0000
     33 ****         1.7871   0.9674  -2.2854 H              1 S1                 0.0000
     34 ****         2.0378   1.9092  -0.8537 H              1 S1                 0.0000
     35 ****         3.5868   0.6947   0.6085 H              1 S1                 0.0000
     36 ****         2.0091   0.7579   1.3344 H              1 S1                 0.0000
     37 ****         3.5636  -0.9206   2.4198 H              1 S1                 0.0000
     38 ****         2.0409  -1.6047   1.8849 H              1 S1                 0.0000
     39 ****         4.2833  -3.4156   2.3761 H              1 S1                 0.0000
     40 ****         5.4375  -5.1210   0.9869 H              1 S1                 0.0000
     41 ****         5.5130  -4.8715  -1.4868 H              1 S1                 0.0000
     42 ****         4.4405  -2.9139  -2.5753 H              1 S1                 0.0000
     43 ****         2.6646  -1.1512  -2.3337 H              1 S1                 0.0000
     44 ****         3.9026  -0.1290  -1.6317 H              1 S1                 0.0000
     45 ****        -6.6993   0.3735   0.7729 H              1 S1                 0.0000
     46 ****        -6.6357   1.6729  -0.4122 H              1 S1                 0.0000
     47 ****        -6.5585   2.0362   1.3173 H              1 S1                 0.0000
     48 ****        -2.1887   3.3327   0.1790 LP             1 S1                 0.0000
     49 ****        -0.0351   2.0527  -2.8981 LP             1 S1                 0.0000
     50 ****         0.1046   3.0720  -1.6301 LP             1 S1                 0.0000
     51 ****         1.3123  -0.7991  -0.4369 LP             1 S1                 0.0000
     52 ****        -0.8921  -0.9351   0.5228 LP             1 S1                 0.0000
     53 ****        -2.3473  -1.8618   0.6760 LP             1 S1                 0.0000
     54 ****        -5.6526  -3.0806   0.9362 LP             1 S1                 0.0000
@<TRIPOS>BOND
    1    1    2 1     
    2    1   26 1     
    3    1   27 1     
    4    1   28 1     
    5    2   24 1     
    6    2    3 2     
    7    3    4 1     
    8    4    5 1     
    9    4   19 am    
   10    5    6 1     
   11    5   29 1     
   12    5   30 1     
   13    6    7 1     
   14    6    8 1     
   15    6   31 1     
   16    7   32 1     
   17    8    9 1     
   18    8   33 1     
   19    8   34 1     
   20    9   18 1     
   21    9   10 1     
   22   10   11 1     
   23   10   35 1     
   24   10   36 1     
   25   11   12 1     
   26   11   37 1     
   27   11   38 1     
   28   12   17 ar    
   29   12   13 ar    
   30   13   14 ar    
   31   13   39 1     
   32   14   15 ar    
   33   14   40 1     
   34   15   16 ar    
   35   15   41 1     
   36   16   17 ar    
   37   16   42 1     
   38   17   18 1     
   39   18   43 1     
   40   18   44 1     
   41   19   20 2     
   42   19   21 1     
   43   21   22 1     
   44   21   24 2     
   45   22   23 3     
   46   24   25 1     
   47   25   45 1     
   48   25   46 1     
   49   25   47 1     
   50    3   48 1     
   51    7   49 1     
   52    7   50 1     
   53    9   51 1     
   54   20   52 1     
   55   20   53 1     
   56   23   54 1     
@<TRIPOS>SUBSTRUCTURE
      1 S1             1
@<TRIPOS>SET
LONE_PAIRS      STATIC     ATOMS    <user>   **** ""
7 48 49 50 51 52 53 54
DONOR_HYDROGENS      STATIC     ATOMS    <user>   **** ""
1 32
ATOM$BLUE        STATIC     ATOMS    COLORGROUP SYSTEM
7 48 49 50 51 52 53 54
ATOM$RED        STATIC     ATOMS    COLORGROUP SYSTEM
1 32
