AV-unprocessed.smi:2693|AV-procd|sdf|10401|dock2
  -GOLD-   2272014433D 1   1.00000     0.00000
 Structure written by MMmdl.
 45 47  0  0  0  0  0  0  0  0  1 V2000
  144.1080  132.5951  149.2559 C   0  0  0  0  0  0  0  0  0  0  0  0
  144.8274  132.5469  150.5255 N   0  0  0  0  0  0  0  0  0  0  0  0
  145.1032  131.2317  151.0966 C   0  0  0  0  0  0  0  0  0  0  0  0
  145.2299  133.7173  151.1756 C   0  0  0  0  0  0  0  0  0  0  0  0
  145.0663  134.8738  150.5199 N   0  0  0  0  0  0  0  0  0  0  0  0
  145.4578  136.0085  151.1375 C   0  0  0  0  0  0  0  0  0  0  0  0
  146.0270  135.9906  152.4333 C   0  0  0  0  0  0  0  0  0  0  0  0
  146.4439  137.1386  153.1586 N   0  0  0  0  0  0  0  0  0  0  0  0
  146.6921  138.3730  152.6902 C   0  0  0  0  0  0  0  0  0  0  0  0
  146.6508  138.7073  151.5065 O   0  0  0  0  0  0  0  0  0  0  0  0
  147.0075  139.2141  153.6836 N   0  0  0  0  0  0  0  0  0  0  0  0
  147.3235  140.6324  153.5049 C   0  0  2  0  0  0  0  0  0  0  0  0
  148.7246  141.0086  154.0379 C   0  0  2  0  0  0  0  0  0  0  0  0
  149.7481  139.9813  154.4573 C   0  0  0  0  0  0  0  0  0  0  0  0
  149.5604  139.9158  155.9758 C   0  0  0  0  0  0  0  0  0  0  0  0
  148.2495  140.4287  156.2035 O   0  0  0  0  0  0  0  0  0  0  0  0
  148.0425  141.5119  155.2995 C   0  0  2  0  0  0  0  0  0  0  0  0
  146.6794  141.5528  154.5782 C   0  0  0  0  0  0  0  0  0  0  0  0
  146.2889  142.9391  154.0574 C   0  0  0  0  0  0  0  0  0  0  0  0
  145.4740  141.0408  155.3788 C   0  0  0  0  0  0  0  0  0  0  0  0
  146.1382  134.7215  153.0353 C   0  0  0  0  0  0  0  0  0  0  0  0
  145.7456  133.5940  152.4059 N   0  0  0  0  0  0  0  0  0  0  0  0
  144.7430  133.0174  148.4770 H   0  0  0  0  0  0  0  0  0  0  0  0
  143.2144  133.2136  149.3455 H   0  0  0  0  0  0  0  0  0  0  0  0
  143.7916  131.6044  148.9298 H   0  0  0  0  0  0  0  0  0  0  0  0
  146.1720  131.1085  151.2739 H   0  0  0  0  0  0  0  0  0  0  0  0
  144.7836  130.4254  150.4364 H   0  0  0  0  0  0  0  0  0  0  0  0
  144.5805  131.1140  152.0463 H   0  0  0  0  0  0  0  0  0  0  0  0
  145.2875  136.9194  150.5856 H   0  0  0  0  0  0  0  0  0  0  0  0
  146.5987  136.9965  154.1461 H   0  0  0  0  0  0  0  0  0  0  0  0
  147.0161  138.8606  154.6291 H   0  0  0  0  0  0  0  0  0  0  0  0
  147.1672  140.9878  152.4846 H   0  0  0  0  0  0  0  0  0  0  0  0
  149.1457  141.8373  153.4661 H   0  0  0  0  0  0  0  0  0  0  0  0
  149.5723  139.0113  153.9928 H   0  0  0  0  0  0  0  0  0  0  0  0
  150.7639  140.2835  154.2010 H   0  0  0  0  0  0  0  0  0  0  0  0
  149.6700  138.9057  156.3708 H   0  0  0  0  0  0  0  0  0  0  0  0
  150.2839  140.5594  156.4786 H   0  0  0  0  0  0  0  0  0  0  0  0
  148.4256  142.4662  155.6644 H   0  0  0  0  0  0  0  0  0  0  0  0
  146.0581  143.6248  154.8732 H   0  0  0  0  0  0  0  0  0  0  0  0
  145.4131  142.8894  153.4097 H   0  0  0  0  0  0  0  0  0  0  0  0
  147.0925  143.3922  153.4757 H   0  0  0  0  0  0  0  0  0  0  0  0
  145.2027  141.7315  156.1776 H   0  0  0  0  0  0  0  0  0  0  0  0
  145.6710  140.0783  155.8513 H   0  0  0  0  0  0  0  0  0  0  0  0
  144.5975  140.9139  154.7425 H   0  0  0  0  0  0  0  0  0  0  0  0
  146.5478  134.6059  154.0281 H   0  0  0  0  0  0  0  0  0  0  0  0
  1  2  1  0  0  0  0
  1 23  1  0  0  0  0
  1 24  1  0  0  0  0
  1 25  1  0  0  0  0
  2  3  1  0  0  0  0
  2  4  1  0  0  0  0
  3 26  1  0  0  0  0
  3 27  1  0  0  0  0
  3 28  1  0  0  0  0
  4 22  1  0  0  0  0
  4  5  2  0  0  0  0
  5  6  1  0  0  0  0
  6  7  2  0  0  0  0
  6 29  1  0  0  0  0
  7  8  1  0  0  0  0
  7 21  1  0  0  0  0
  8  9  1  0  0  0  0
  8 30  1  0  0  0  0
  9 10  2  0  0  0  0
  9 11  1  0  0  0  0
 11 12  1  0  0  0  0
 11 31  1  0  0  0  0
 12 18  1  0  0  0  0
 12 13  1  0  0  0  0
 12 32  1  0  0  0  0
 13 17  1  0  0  0  0
 13 14  1  0  0  0  0
 13 33  1  0  0  0  0
 14 15  1  0  0  0  0
 14 34  1  0  0  0  0
 14 35  1  0  0  0  0
 15 16  1  0  0  0  0
 15 36  1  0  0  0  0
 15 37  1  0  0  0  0
 16 17  1  0  0  0  0
 17 18  1  0  0  0  0
 17 38  1  0  0  0  0
 18 19  1  0  0  0  0
 18 20  1  0  0  0  0
 19 39  1  0  0  0  0
 19 40  1  0  0  0  0
 19 41  1  0  0  0  0
 20 42  1  0  0  0  0
 20 43  1  0  0  0  0
 20 44  1  0  0  0  0
 21 22  2  0  0  0  0
 21 45  1  0  0  0  0
M  END
> <s_m_source_file>
AV-unprocessed.smi

> <i_m_source_file_index>
2693

> <i_lp_mmshare_version>
43012

> <i_f3d_flags>
0

> <s_epik_input>
W0NIM11OKFtDSDNdKWMxbltjSF1jKFtjSF1uMSlbTkhdQyg9TylbTkhdW0NASF0yQyhbQ0gzXSkoW0NIM10pW0NAQEhdKFtDQEhdMjMpT1tDSDJdW0NIMl0z

> <s_epik_cmdline>
J2VwaWtfcHl0aG9uJywgJy1waCcsICc3LjAnLCAnLXRuJywgJzgnLCAnLW1hJywgJzIwMCcsICctbWV0YWxfYmluZGluZycsICctaW1hZScsICc8aW5maWxlLm1hZT4nLCAnLW9tYWUnLCAnPG91dGZpbGUubWFlPic=

> <r_lp_tautomer_probability>
1

> <r_epik_Ionization_Penalty>
0.00031779

> <r_epik_Ionization_Penalty_Charging>
0

> <r_epik_Ionization_Penalty_Neutral>
0.00031779

> <r_epik_State_Penalty>
-0

> <r_epik_Charging_Adjusted_Penalty>
0

> <i_epik_Tot_Q>
0

> <i_epik_Tot_abs_Q>
0

> <r_epik_Metal_State_Penalty>
-0

> <b_epik_Metal_Only>
0

> <s_lp_Force_Field>
OPLS_2005

> <r_lp_Energy>
31.9605

> <b_lp_Chiralities_Consistent>
1

> <s_lp_Variant>
AV-unprocessed.smi:2693-5

> <Gold.Version>
5.8.1

> <Gold.Id.Protein>
6NUR|6NUR_protein|mol2

> <Gold.PLP.Fitness>
40.8648

> <Gold.PLP.PLP>
-37.0698

> <Gold.PLP.part.hbond>
-1.3290

> <Gold.PLP.part.metal>
0.0000

> <Gold.PLP.part.buried>
-2.2993

> <Gold.PLP.part.nonpolar>
-34.4991

> <Gold.PLP.part.repulsive>
1.2265

> <Gold.PLP.ligand.clash>
0.0000

> <Gold.PLP.ligand.torsion>
0.2072

> <Gold.PLP.Chemscore.Hbond>
0.3412

> <Gold.PLP.Chemscore.CHOScore>
1.0000

> <Gold.PLP.Chemscore.Metal>
0.0000

> <Gold.Chemscore.Hbonds>
donor molecule, donor type, donor heavy atom, donor atom, acceptor molecule, acceptor atom, score
      P1  H  7954  7966       L1    10  0.18
      L1  C     6    29       P1 10171  1.00

> <Gold.PLP.Chemscore.Internal.Correction>
0.1857

> <Gold.Rescore>
     Score         DG    S(hbond)    S(metal)    S(lipo)     H(rot)  DE(clash)    DE(int)     intcor
     11.93     -14.35       0.48        0.00      83.91       1.00       1.17       1.25       ----

> <Gold.Chemscore.Fitness>
11.9316

> <Gold.Chemscore.DG>
-14.3529

> <Gold.Chemscore.ZeroCoef>
-5.4800

> <Gold.Chemscore.Hbond>
0.4838

> <Gold.Chemscore.Metal>
0.0000

> <Gold.Chemscore.Lipo>
83.9059

> <Gold.Chemscore.Internal_Hbond>
0.0000

> <Gold.Chemscore.DEClash>
1.1697

> <Gold.Chemscore.DEInternal>
1.2516

> <Gold.Chemscore.Rot>
1.0000

> <Gold.Chemscore.Internal.Correction>
   9.000000E+99

> <Gold.Chemscore.Hbonds>
donor molecule, donor type, donor heavy atom, donor atom, acceptor molecule, acceptor atom, score
      P1  H  7954  7966       L1    10  0.19

> <Gold.Chemscore.Hbond.Weighted>
-1.6159

> <Gold.Chemscore.Metal.Weighted>
-0.0000

> <Gold.Chemscore.Lipo.Weighted>
-9.8170

> <Gold.Chemscore.Internal_Hbond.Weighted>
0.0000

> <Gold.Chemscore.DEClash.Weighted>
1.1697

> <Gold.Chemscore.DEInternal.Weighted>
1.2516

> <Gold.Chemscore.Rot.Weighted>
2.5600

> <Gold.Chemscore.Internal.Correction.Weighted>
   9.000000E+99

> <Gold.Protein.RotatedTorsions>
[ 6907 6896 6895 6894 ] final -160.35 input  -60.11 | X-H torsion
[ 7974 7965 7964 7962 ] final   54.14 input  175.53 | X-H torsion
[ 8008 7997 7996 7995 ] final  -80.46 input   59.86 | X-H torsion
[ 10167 10162 10161 10158 ] final   76.62 input  -65.29 | X-H torsion
[ 10718 10713 10712 10709 ] final -123.86 input   66.30 | X-H torsion
[ 10763 10752 10751 10750 ] final   38.11 input  -60.55 | X-H torsion
[ 11005 11000 10999 10996 ] final -156.10 input  -57.11 | X-H torsion

> <Gold.Protein.ActiveResidues>
 VAL166  LYS551  ARG553  GLY616  TRP617  ASP618  TYR619  PRO620  LYS621  CYS622 
 ASP623  PHE694  ASN695  SER759  ASP760  ASP761  ALA762  ILE779  LEU786  VAL792 
 PHE793  MET794  SER795  GLU796  ALA797  LYS798  CYS799  TRP800  GLU811  SER814 

> <Gold.Protein.RotatedAtoms>
  151.3477  133.3937  159.2676 H   0  0  0  0  0  0  0  0  0  0  0  0  # atno 6907 bound_to 6896
  150.9826  134.9179  159.7864 H   0  0  0  0  0  0  0  0  0  0  0  0  # atno 6908 bound_to 6896
  152.5222  134.3441  159.9280 H   0  0  0  0  0  0  0  0  0  0  0  0  # atno 6909 bound_to 6896
  145.9640  139.4085  143.0231 H   0  0  0  0  0  0  0  0  0  0  0  0  # atno 7974 bound_to 7965
  154.5885  140.0662  156.9206 H   0  0  0  0  0  0  0  0  0  0  0  0  # atno 8008 bound_to 7997
  155.2336  140.3339  155.4282 H   0  0  0  0  0  0  0  0  0  0  0  0  # atno 8009 bound_to 7997
  156.2240  140.1811  156.7394 H   0  0  0  0  0  0  0  0  0  0  0  0  # atno 8010 bound_to 7997
  139.9903  144.5762  150.7824 H   0  0  0  0  0  0  0  0  0  0  0  0  # atno 10167 bound_to 10162
  156.1538  130.6554  150.9952 H   0  0  0  0  0  0  0  0  0  0  0  0  # atno 10718 bound_to 10713
  153.0012  135.6258  154.2253 H   0  0  0  0  0  0  0  0  0  0  0  0  # atno 10763 bound_to 10752
  154.1995  135.2805  155.2997 H   0  0  0  0  0  0  0  0  0  0  0  0  # atno 10764 bound_to 10752
  154.5695  135.5681  153.7140 H   0  0  0  0  0  0  0  0  0  0  0  0  # atno 10765 bound_to 10752
  140.6792  134.4163  157.5227 H   0  0  0  0  0  0  0  0  0  0  0  0  # atno 11005 bound_to 11000
  145.8000  140.9775  143.1004 LP  0  0  0  0  0  0  0  0  0  0  0  0  # atno 17320 bound_to 7965
  144.6821  139.9790  143.7483 LP  0  0  0  0  0  0  0  0  0  0  0  0  # atno 17321 bound_to 7965
  140.7457  143.2880  151.3410 LP  0  0  0  0  0  0  0  0  0  0  0  0  # atno 17342 bound_to 10162
  139.6345  144.0657  152.2504 LP  0  0  0  0  0  0  0  0  0  0  0  0  # atno 17343 bound_to 10162
  157.6679  131.0868  150.7685 LP  0  0  0  0  0  0  0  0  0  0  0  0  # atno 17370 bound_to 10713
  156.7751  130.4841  149.5411 LP  0  0  0  0  0  0  0  0  0  0  0  0  # atno 17371 bound_to 10713
  139.8957  134.8677  156.2120 LP  0  0  0  0  0  0  0  0  0  0  0  0  # atno 17394 bound_to 11000
  141.0331  133.6978  156.1464 LP  0  0  0  0  0  0  0  0  0  0  0  0  # atno 17395 bound_to 11000

$$$$
