AV-unprocessed.smi:1169|AV-procd|sdf|4940|dock5
  -GOLD-   22720 3523D 1   1.00000     0.00000
 Structure written by MMmdl.
 29 30  0  0  0  0  0  0  0  0  1 V2000
  152.8442  139.5385  155.5484 O   0  0  0  0  0  0  0  0  0  0  0  0
  152.0925  139.7089  156.5078 C   0  0  0  0  0  0  0  0  0  0  0  0
  152.6095  139.4617  157.9301 C   0  0  0  0  0  0  0  0  0  0  0  0
  152.7560  140.6909  158.6931 N   0  0  0  0  0  0  0  0  0  0  0  0
  153.3335  140.8655  159.9326 C   0  0  0  0  0  0  0  0  0  0  0  0
  153.2272  142.1897  160.2464 C   0  0  0  0  0  0  0  0  0  0  0  0
  152.5637  142.7610  159.1217 C   0  0  0  0  0  0  0  0  0  0  0  0
  152.1712  144.1977  158.8987 C   0  0  0  0  0  0  0  0  0  0  0  0
  150.8666  144.2859  158.6401 F   0  0  0  0  0  0  0  0  0  0  0  0
  152.4421  144.9175  159.9873 F   0  0  0  0  0  0  0  0  0  0  0  0
  152.8473  144.6992  157.8654 F   0  0  0  0  0  0  0  0  0  0  0  0
  152.2871  141.8546  158.1937 N   0  0  0  0  0  0  0  0  0  0  0  0
  150.8099  140.0855  156.3772 N   0  0  0  0  0  0  0  0  0  0  0  0
  150.1340  140.3421  155.1129 C   0  0  0  0  0  0  0  0  0  0  0  0
  148.7014  140.8209  155.2461 C   0  0  0  0  0  0  0  0  0  0  0  0
  147.6262  140.2888  154.3282 C   0  0  0  0  0  0  0  0  0  0  0  0
  148.0834  141.7227  154.2038 C   0  0  0  0  0  0  0  0  0  0  0  0
  151.9175  138.8013  158.4538 H   0  0  0  0  0  0  0  0  0  0  0  0
  153.5735  138.9513  157.8938 H   0  0  0  0  0  0  0  0  0  0  0  0
  153.7630  140.0418  160.4835 H   0  0  0  0  0  0  0  0  0  0  0  0
  153.5716  142.6785  161.1456 H   0  0  0  0  0  0  0  0  0  0  0  0
  150.2628  140.2024  157.2176 H   0  0  0  0  0  0  0  0  0  0  0  0
  150.7122  141.0894  154.5684 H   0  0  0  0  0  0  0  0  0  0  0  0
  150.1465  139.4410  154.4976 H   0  0  0  0  0  0  0  0  0  0  0  0
  148.3913  140.9950  156.2749 H   0  0  0  0  0  0  0  0  0  0  0  0
  147.9252  139.5972  153.5430 H   0  0  0  0  0  0  0  0  0  0  0  0
  146.6426  140.1099  154.7575 H   0  0  0  0  0  0  0  0  0  0  0  0
  147.4062  142.4998  154.5523 H   0  0  0  0  0  0  0  0  0  0  0  0
  148.6868  141.9849  153.3370 H   0  0  0  0  0  0  0  0  0  0  0  0
  1  2  2  0  0  0  0
  2  3  1  0  0  0  0
  2 13  1  0  0  0  0
  3  4  1  0  0  0  0
  3 18  1  0  0  0  0
  3 19  1  0  0  0  0
  4 12  1  0  0  0  0
  4  5  1  0  0  0  0
  5  6  2  0  0  0  0
  5 20  1  0  0  0  0
  6  7  1  0  0  0  0
  6 21  1  0  0  0  0
  7  8  1  0  0  0  0
  7 12  2  0  0  0  0
  8  9  1  0  0  0  0
  8 10  1  0  0  0  0
  8 11  1  0  0  0  0
 13 14  1  0  0  0  0
 13 22  1  0  0  0  0
 14 15  1  0  0  0  0
 14 23  1  0  0  0  0
 14 24  1  0  0  0  0
 15 17  1  0  0  0  0
 15 16  1  0  0  0  0
 15 25  1  0  0  0  0
 16 17  1  0  0  0  0
 16 26  1  0  0  0  0
 16 27  1  0  0  0  0
 17 28  1  0  0  0  0
 17 29  1  0  0  0  0
M  END
> <s_m_source_file>
AV-unprocessed.smi

> <i_m_source_file_index>
1169

> <i_lp_mmshare_version>
43012

> <i_f3d_flags>
0

> <s_epik_input>
W0NIMl0xW0NIMl1bQ0hdMVtDSDJdW05IXUMoPU8pW0NIMl1uMltjSF1bY0hdYyhuMilDKEYpKEYpRg==

> <s_epik_cmdline>
J2VwaWtfcHl0aG9uJywgJy1waCcsICc3LjAnLCAnLXRuJywgJzgnLCAnLW1hJywgJzIwMCcsICctbWV0YWxfYmluZGluZycsICctaW1hZScsICc8aW5maWxlLm1hZT4nLCAnLW9tYWUnLCAnPG91dGZpbGUubWFlPic=

> <r_lp_tautomer_probability>
1

> <r_epik_Ionization_Penalty>
8.05593e-08

> <r_epik_Ionization_Penalty_Charging>
0

> <r_epik_Ionization_Penalty_Neutral>
8.05593e-08

> <r_epik_State_Penalty>
-0

> <r_epik_Charging_Adjusted_Penalty>
0

> <i_epik_Tot_Q>
0

> <i_epik_Tot_abs_Q>
0

> <r_epik_Metal_State_Penalty>
-0

> <b_epik_Metal_Only>
0

> <s_lp_Force_Field>
OPLS_2005

> <r_lp_Energy>
14.9907

> <b_lp_Chiralities_Consistent>
1

> <s_lp_Variant>
AV-unprocessed.smi:1169-1

> <Gold.Version>
5.8.1

> <Gold.Id.Protein>
6NUR|6NUR_protein|mol2

> <Gold.PLP.Fitness>
44.0757

> <Gold.PLP.PLP>
-41.9484

> <Gold.PLP.part.hbond>
-1.0000

> <Gold.PLP.part.metal>
0.0000

> <Gold.PLP.part.buried>
-3.9666

> <Gold.PLP.part.nonpolar>
-36.4190

> <Gold.PLP.part.repulsive>
0.0732

> <Gold.PLP.ligand.clash>
0.0000

> <Gold.PLP.ligand.torsion>
0.7242

> <Gold.PLP.Chemscore.Hbond>
1.0000

> <Gold.PLP.Chemscore.CHOScore>
0.0000

> <Gold.PLP.Chemscore.Metal>
0.0000

> <Gold.Chemscore.Hbonds>
donor molecule, donor type, donor heavy atom, donor atom, acceptor molecule, acceptor atom, score
      P1  H  7997  8009       L1     1  1.00

> <Gold.PLP.Chemscore.Internal.Correction>
0.5758

> <Gold.Rescore>
     Score         DG    S(hbond)    S(metal)    S(lipo)     H(rot)  DE(clash)    DE(int)     intcor
     11.95     -12.99       0.95        0.00      77.16       1.84       0.11       0.93       ----

> <Gold.Chemscore.Fitness>
11.9527

> <Gold.Chemscore.DG>
-12.9856

> <Gold.Chemscore.ZeroCoef>
-5.4800

> <Gold.Chemscore.Hbond>
0.9516

> <Gold.Chemscore.Metal>
0.0000

> <Gold.Chemscore.Lipo>
77.1550

> <Gold.Chemscore.Internal_Hbond>
0.0000

> <Gold.Chemscore.DEClash>
0.1058

> <Gold.Chemscore.DEInternal>
0.9271

> <Gold.Chemscore.Rot>
1.8359

> <Gold.Chemscore.Internal.Correction>
   9.000000E+99

> <Gold.Chemscore.Hbonds>
donor molecule, donor type, donor heavy atom, donor atom, acceptor molecule, acceptor atom, score
      P1  H  7997  8009       L1     1  0.65

> <Gold.Chemscore.Hbond.Weighted>
-3.1784

> <Gold.Chemscore.Metal.Weighted>
-0.0000

> <Gold.Chemscore.Lipo.Weighted>
-9.0271

> <Gold.Chemscore.Internal_Hbond.Weighted>
0.0000

> <Gold.Chemscore.DEClash.Weighted>
0.1058

> <Gold.Chemscore.DEInternal.Weighted>
0.9271

> <Gold.Chemscore.Rot.Weighted>
4.7000

> <Gold.Chemscore.Internal.Correction.Weighted>
   9.000000E+99

> <Gold.Protein.RotatedTorsions>
[ 6907 6896 6895 6894 ] final -106.44 input  -60.11 | X-H torsion
[ 7974 7965 7964 7962 ] final  -41.25 input  175.53 | X-H torsion
[ 8008 7997 7996 7995 ] final -140.44 input   59.86 | X-H torsion
[ 10167 10162 10161 10158 ] final  -18.42 input  -65.29 | X-H torsion
[ 10718 10713 10712 10709 ] final -139.92 input   66.30 | X-H torsion
[ 10763 10752 10751 10750 ] final   17.13 input  -60.55 | X-H torsion
[ 11005 11000 10999 10996 ] final  -18.73 input  -57.11 | X-H torsion

> <Gold.Protein.ActiveResidues>
 VAL166  LYS551  ARG553  GLY616  TRP617  ASP618  TYR619  PRO620  LYS621  CYS622 
 ASP623  PHE694  ASN695  SER759  ASP760  ASP761  ALA762  ILE779  LEU786  VAL792 
 PHE793  MET794  SER795  GLU796  ALA797  LYS798  CYS799  TRP800  GLU811  SER814 

> <Gold.Protein.RotatedAtoms>
  150.7389  133.9976  159.3627 H   0  0  0  0  0  0  0  0  0  0  0  0  # atno 6907 bound_to 6896
  151.7928  135.0729  160.0399 H   0  0  0  0  0  0  0  0  0  0  0  0  # atno 6908 bound_to 6896
  152.3196  133.5802  159.5771 H   0  0  0  0  0  0  0  0  0  0  0  0  # atno 6909 bound_to 6896
  146.0228  140.6828  142.9170 H   0  0  0  0  0  0  0  0  0  0  0  0  # atno 7974 bound_to 7965
  155.4613  140.0546  157.2990 H   0  0  0  0  0  0  0  0  0  0  0  0  # atno 8008 bound_to 7997
  154.4736  140.2051  155.9888 H   0  0  0  0  0  0  0  0  0  0  0  0  # atno 8009 bound_to 7997
  156.1096  140.3206  155.8058 H   0  0  0  0  0  0  0  0  0  0  0  0  # atno 8010 bound_to 7997
  140.7258  143.4918  150.9982 H   0  0  0  0  0  0  0  0  0  0  0  0  # atno 10167 bound_to 10162
  156.3163  130.7510  151.1597 H   0  0  0  0  0  0  0  0  0  0  0  0  # atno 10718 bound_to 10713
  153.1366  135.6751  153.9092 H   0  0  0  0  0  0  0  0  0  0  0  0  # atno 10763 bound_to 10752
  153.8562  135.3087  155.3436 H   0  0  0  0  0  0  0  0  0  0  0  0  # atno 10764 bound_to 10752
  154.7753  135.4918  153.9814 H   0  0  0  0  0  0  0  0  0  0  0  0  # atno 10765 bound_to 10752
  140.8297  133.8006  155.9745 H   0  0  0  0  0  0  0  0  0  0  0  0  # atno 11005 bound_to 11000
  144.6997  140.3597  143.7166 LP  0  0  0  0  0  0  0  0  0  0  0  0  # atno 17320 bound_to 7965
  145.7165  139.1698  143.2509 LP  0  0  0  0  0  0  0  0  0  0  0  0  # atno 17321 bound_to 7965
  139.8622  143.7299  152.3172 LP  0  0  0  0  0  0  0  0  0  0  0  0  # atno 17342 bound_to 10162
  139.7519  144.7532  151.0494 LP  0  0  0  0  0  0  0  0  0  0  0  0  # atno 17343 bound_to 10162
  157.7402  131.0519  150.5180 LP  0  0  0  0  0  0  0  0  0  0  0  0  # atno 17370 bound_to 10713
  156.5327  130.4188  149.6193 LP  0  0  0  0  0  0  0  0  0  0  0  0  # atno 17371 bound_to 10713
  140.9011  134.2377  157.5041 LP  0  0  0  0  0  0  0  0  0  0  0  0  # atno 17394 bound_to 11000
  139.8705  134.9707  156.4710 LP  0  0  0  0  0  0  0  0  0  0  0  0  # atno 17395 bound_to 11000

$$$$
