AV-unprocessed.smi:2775|AV-procd|sdf|10701|dock5
  -GOLD-   2272015143D 1   1.00000     0.00000
 Structure written by MMmdl.
 43 46  0  0  0  0  0  0  0  0  2 V2000
  143.5741  132.8676  151.3820 C   0  0  0  0  0  0  0  0  0  0  0  0
  143.7412  134.2037  152.0797 C   0  0  0  0  0  0  0  0  0  0  0  0
  142.6298  134.8086  152.5535 N   0  3  0  0  0  0  0  0  0  0  0  0
  142.6556  135.9941  153.1968 C   0  0  0  0  0  0  0  0  0  0  0  0
  143.8804  136.6605  153.3946 C   0  0  0  0  0  0  0  0  0  0  0  0
  145.0770  136.0788  152.9036 C   0  0  0  0  0  0  0  0  0  0  0  0
  146.3617  136.6676  153.0644 N   0  0  0  0  0  0  0  0  0  0  0  0
  146.8008  137.5315  153.9997 C   0  0  0  0  0  0  0  0  0  0  0  0
  146.1209  137.9777  154.9208 O   0  0  0  0  0  0  0  0  0  0  0  0
  148.0860  137.8929  153.8429 N   0  0  0  0  0  0  0  0  0  0  0  0
  148.8594  138.8094  154.6822 C   0  0  1  0  0  0  0  0  0  0  0  0
  150.2721  139.0625  154.1230 C   0  0  2  0  0  0  0  0  0  0  0  0
  151.4778  138.6282  154.9116 C   0  0  0  0  0  0  0  0  0  0  0  0
  151.8954  139.9126  155.6331 C   0  0  0  0  0  0  0  0  0  0  0  0
  150.7155  140.7130  155.6573 O   0  0  0  0  0  0  0  0  0  0  0  0
  150.0579  140.5452  154.4049 C   0  0  2  0  0  0  0  0  0  0  0  0
  148.5447  140.3068  154.4761 C   0  0  0  0  0  0  0  0  0  0  0  0
  147.6316  140.8240  153.3480 C   0  0  0  0  0  0  0  0  0  0  0  0
  146.5651  141.1301  154.4031 C   0  0  0  0  0  0  0  0  0  0  0  0
  147.6663  141.0844  155.4665 C   0  0  0  0  0  0  0  0  0  0  0  0
  145.0012  134.8249  152.2477 C   0  0  0  0  0  0  0  0  0  0  0  0
  146.4345  134.0567  151.6509 Cl  0  0  0  0  0  0  0  0  0  0  0  0
  143.9183  132.9339  150.3495 H   0  0  0  0  0  0  0  0  0  0  0  0
  142.5304  132.5511  151.3714 H   0  0  0  0  0  0  0  0  0  0  0  0
  144.1555  132.0980  151.8902 H   0  0  0  0  0  0  0  0  0  0  0  0
  141.7016  136.3698  153.5372 H   0  0  0  0  0  0  0  0  0  0  0  0
  143.8743  137.5978  153.9286 H   0  0  0  0  0  0  0  0  0  0  0  0
  147.0267  136.4445  152.3376 H   0  0  0  0  0  0  0  0  0  0  0  0
  148.5841  137.4768  153.0688 H   0  0  0  0  0  0  0  0  0  0  0  0
  148.8939  138.5381  155.7396 H   0  0  0  0  0  0  0  0  0  0  0  0
  150.3381  138.8709  153.0503 H   0  0  0  0  0  0  0  0  0  0  0  0
  151.2153  137.8487  155.6277 H   0  0  0  0  0  0  0  0  0  0  0  0
  152.2785  138.2449  154.2786 H   0  0  0  0  0  0  0  0  0  0  0  0
  152.2753  139.7265  156.6379 H   0  0  0  0  0  0  0  0  0  0  0  0
  152.6678  140.4357  155.0673 H   0  0  0  0  0  0  0  0  0  0  0  0
  150.4125  141.2093  153.6156 H   0  0  0  0  0  0  0  0  0  0  0  0
  148.0194  141.7299  152.8798 H   0  0  0  0  0  0  0  0  0  0  0  0
  147.3316  140.0926  152.5977 H   0  0  0  0  0  0  0  0  0  0  0  0
  146.0820  142.1011  154.2910 H   0  0  0  0  0  0  0  0  0  0  0  0
  145.8350  140.3277  154.5131 H   0  0  0  0  0  0  0  0  0  0  0  0
  147.4007  140.5367  156.3709 H   0  0  0  0  0  0  0  0  0  0  0  0
  148.0682  142.0720  155.6975 H   0  0  0  0  0  0  0  0  0  0  0  0
  141.7302  134.3449  152.4235 H   0  0  0  0  0  0  0  0  0  0  0  0
  1  2  1  0  0  0  0
  1 23  1  0  0  0  0
  1 24  1  0  0  0  0
  1 25  1  0  0  0  0
  2 21  1  0  0  0  0
  2  3  2  0  0  0  0
  3  4  1  0  0  0  0
  3 43  1  0  0  0  0
  4  5  2  0  0  0  0
  4 26  1  0  0  0  0
  5  6  1  0  0  0  0
  5 27  1  0  0  0  0
  6  7  1  0  0  0  0
  6 21  2  0  0  0  0
  7  8  1  0  0  0  0
  7 28  1  0  0  0  0
  8  9  2  0  0  0  0
  8 10  1  0  0  0  0
 10 11  1  0  0  0  0
 10 29  1  0  0  0  0
 11 17  1  0  0  0  0
 11 12  1  0  0  0  0
 11 30  1  0  0  0  0
 12 16  1  0  0  0  0
 12 13  1  0  0  0  0
 12 31  1  0  0  0  0
 13 14  1  0  0  0  0
 13 32  1  0  0  0  0
 13 33  1  0  0  0  0
 14 15  1  0  0  0  0
 14 34  1  0  0  0  0
 14 35  1  0  0  0  0
 15 16  1  0  0  0  0
 16 17  1  0  0  0  0
 16 36  1  0  0  0  0
 17 20  1  0  0  0  0
 17 18  1  0  0  0  0
 18 19  1  0  0  0  0
 18 37  1  0  0  0  0
 18 38  1  0  0  0  0
 19 20  1  0  0  0  0
 19 39  1  0  0  0  0
 19 40  1  0  0  0  0
 20 41  1  0  0  0  0
 20 42  1  0  0  0  0
 21 22  1  0  0  0  0
M  CHG  1   3   1
M  END
> <s_m_source_file>
AV-unprocessed.smi

> <i_m_source_file_index>
2775

> <i_lp_mmshare_version>
43012

> <i_f3d_flags>
0

> <s_epik_input>
W0NIM11jMW5bY0hdW2NIXWMoYzFDbClbTkhdQyg9TylbTkhdW0NAQEhdMltDQEhdKFtDSDJdW0NIMl1PMylbQ0BASF0zQzI0W0NIMl1bQ0gyXVtDSDJdNA==

> <s_epik_cmdline>
J2VwaWtfcHl0aG9uJywgJy1waCcsICc3LjAnLCAnLXRuJywgJzgnLCAnLW1hJywgJzIwMCcsICctbWV0YWxfYmluZGluZycsICctaW1hZScsICc8aW5maWxlLm1hZT4nLCAnLW9tYWUnLCAnPG91dGZpbGUubWFlPic=

> <r_epik_Ionization_Penalty>
2.4104

> <r_epik_Ionization_Penalty_Charging>
2.41038

> <r_epik_Ionization_Penalty_Neutral>
1.9872e-05

> <r_epik_State_Penalty>
2.56896

> <r_epik_Charging_Adjusted_Penalty>
4.97934

> <i_epik_Tot_Q>
1

> <i_epik_Tot_abs_Q>
1

> <r_epik_Metal_State_Penalty>
2.57906

> <b_epik_Metal_Only>
0

> <s_lp_Force_Field>
OPLS_2005

> <r_lp_Energy>
60.4294

> <b_lp_Chiralities_Consistent>
1

> <s_lp_Variant>
AV-unprocessed.smi:2775-14

> <Gold.Version>
5.8.1

> <Gold.Id.Protein>
6NUR|6NUR_protein|mol2

> <Gold.PLP.Fitness>
38.5982

> <Gold.PLP.PLP>
-33.1777

> <Gold.PLP.part.hbond>
-2.5228

> <Gold.PLP.part.metal>
0.0000

> <Gold.PLP.part.buried>
0.3985

> <Gold.PLP.part.nonpolar>
-30.4245

> <Gold.PLP.part.repulsive>
0.1284

> <Gold.PLP.ligand.clash>
0.0000

> <Gold.PLP.ligand.torsion>
0.2552

> <Gold.PLP.Chemscore.Hbond>
1.9120

> <Gold.PLP.Chemscore.CHOScore>
0.0000

> <Gold.PLP.Chemscore.Metal>
0.0000

> <Gold.Chemscore.Hbonds>
donor molecule, donor type, donor heavy atom, donor atom, acceptor molecule, acceptor atom, score
      L1  H     7    28       P1  7948  0.94
      L1  H    10    29       P1  7948  1.00

> <Gold.PLP.Chemscore.Internal.Correction>
0.1950

> <Gold.Rescore>
     Score         DG    S(hbond)    S(metal)    S(lipo)     H(rot)  DE(clash)    DE(int)     intcor
     18.33     -19.27       1.92        0.00      84.84       1.00       0.04       0.89       ----

> <Gold.Chemscore.Fitness>
18.3334

> <Gold.Chemscore.DG>
-19.2693

> <Gold.Chemscore.ZeroCoef>
-5.4800

> <Gold.Chemscore.Hbond>
1.9230

> <Gold.Chemscore.Metal>
0.0000

> <Gold.Chemscore.Lipo>
84.8418

> <Gold.Chemscore.Internal_Hbond>
0.0000

> <Gold.Chemscore.DEClash>
0.0410

> <Gold.Chemscore.DEInternal>
0.8948

> <Gold.Chemscore.Rot>
1.0000

> <Gold.Chemscore.Internal.Correction>
   9.000000E+99

> <Gold.Chemscore.Hbonds>
donor molecule, donor type, donor heavy atom, donor atom, acceptor molecule, acceptor atom, score
      L1  H     7    28       P1  7948  0.89
      L1  H    10    29       P1  7948  0.99

> <Gold.Chemscore.Hbond.Weighted>
-6.4228

> <Gold.Chemscore.Metal.Weighted>
-0.0000

> <Gold.Chemscore.Lipo.Weighted>
-9.9265

> <Gold.Chemscore.Internal_Hbond.Weighted>
0.0000

> <Gold.Chemscore.DEClash.Weighted>
0.0410

> <Gold.Chemscore.DEInternal.Weighted>
0.8948

> <Gold.Chemscore.Rot.Weighted>
2.5600

> <Gold.Chemscore.Internal.Correction.Weighted>
   9.000000E+99

> <Gold.Protein.RotatedTorsions>
[ 6907 6896 6895 6894 ] final -164.58 input  -60.11 | X-H torsion
[ 7974 7965 7964 7962 ] final -122.95 input  175.53 | X-H torsion
[ 8008 7997 7996 7995 ] final -157.05 input   59.86 | X-H torsion
[ 10167 10162 10161 10158 ] final -142.62 input  -65.29 | X-H torsion
[ 10718 10713 10712 10709 ] final   53.72 input   66.30 | X-H torsion
[ 10763 10752 10751 10750 ] final  -51.44 input  -60.55 | X-H torsion
[ 11005 11000 10999 10996 ] final -146.36 input  -57.11 | X-H torsion

> <Gold.Protein.ActiveResidues>
 VAL166  LYS551  ARG553  GLY616  TRP617  ASP618  TYR619  PRO620  LYS621  CYS622 
 ASP623  PHE694  ASN695  SER759  ASP760  ASP761  ALA762  ILE779  LEU786  VAL792 
 PHE793  MET794  SER795  GLU796  ALA797  LYS798  CYS799  TRP800  GLU811  SER814 

> <Gold.Protein.RotatedAtoms>
  151.4140  133.3718  159.2747 H   0  0  0  0  0  0  0  0  0  0  0  0  # atno 6907 bound_to 6896
  150.9342  134.8756  159.7581 H   0  0  0  0  0  0  0  0  0  0  0  0  # atno 6908 bound_to 6896
  152.5042  134.4087  159.9493 H   0  0  0  0  0  0  0  0  0  0  0  0  # atno 6909 bound_to 6896
  145.0240  140.8012  143.4364 H   0  0  0  0  0  0  0  0  0  0  0  0  # atno 7974 bound_to 7965
  155.7266  140.0796  157.2307 H   0  0  0  0  0  0  0  0  0  0  0  0  # atno 8008 bound_to 7997
  154.4038  140.1603  156.2516 H   0  0  0  0  0  0  0  0  0  0  0  0  # atno 8009 bound_to 7997
  155.9148  140.3401  155.6129 H   0  0  0  0  0  0  0  0  0  0  0  0  # atno 8010 bound_to 7997
  139.8071  143.7753  152.2661 H   0  0  0  0  0  0  0  0  0  0  0  0  # atno 10167 bound_to 10162
  157.5192  130.8553  149.8536 H   0  0  0  0  0  0  0  0  0  0  0  0  # atno 10718 bound_to 10713
  154.1266  135.6526  153.4913 H   0  0  0  0  0  0  0  0  0  0  0  0  # atno 10763 bound_to 10752
  153.0208  135.5283  154.7044 H   0  0  0  0  0  0  0  0  0  0  0  0  # atno 10764 bound_to 10752
  154.6266  135.2971  155.0235 H   0  0  0  0  0  0  0  0  0  0  0  0  # atno 10765 bound_to 10752
  140.7828  134.3059  157.5040 H   0  0  0  0  0  0  0  0  0  0  0  0  # atno 11005 bound_to 11000
  145.1858  139.2327  143.5268 LP  0  0  0  0  0  0  0  0  0  0  0  0  # atno 17320 bound_to 7965
  146.3489  140.1643  142.8590 LP  0  0  0  0  0  0  0  0  0  0  0  0  # atno 17321 bound_to 7965
  139.7891  144.7417  150.9980 LP  0  0  0  0  0  0  0  0  0  0  0  0  # atno 17342 bound_to 10162
  140.7819  143.4461  151.0481 LP  0  0  0  0  0  0  0  0  0  0  0  0  # atno 17343 bound_to 10162
  156.0342  130.3756  150.1606 LP  0  0  0  0  0  0  0  0  0  0  0  0  # atno 17370 bound_to 10713
  156.9794  130.9859  151.3441 LP  0  0  0  0  0  0  0  0  0  0  0  0  # atno 17371 bound_to 10713
  139.8740  134.9328  156.3565 LP  0  0  0  0  0  0  0  0  0  0  0  0  # atno 17394 bound_to 11000
  140.9466  133.7479  156.0216 LP  0  0  0  0  0  0  0  0  0  0  0  0  # atno 17395 bound_to 11000

$$$$
