AV-unprocessed.smi:3290|AV-procd|sdf|12615|dock1
  -GOLD-   2272018543D 1   1.00000     0.00000
 Structure written by MMmdl.
 43 44  0  0  0  0  0  0  0  0  2 V2000
  151.3284  145.0757  159.3766 C   0  0  0  0  0  0  0  0  0  0  0  0
  151.5524  143.5758  159.6410 C   0  0  2  0  0  0  0  0  0  0  0  0
  152.9610  143.3614  160.2347 C   0  0  0  0  0  0  0  0  0  0  0  0
  153.2244  141.8884  160.5740 C   0  0  0  0  0  0  0  0  0  0  0  0
  153.0244  141.0020  159.3401 C   0  0  0  0  0  0  0  0  0  0  0  0
  151.6229  141.2001  158.7464 C   0  0  0  0  0  0  0  0  0  0  0  0
  151.3411  142.6764  158.3868 C   0  0  1  0  0  0  0  0  0  0  0  0
  149.9278  142.7921  157.7716 C   0  0  0  0  0  0  0  0  0  0  0  0
  149.8797  142.2859  156.3852 N   0  3  0  0  0  0  0  0  0  0  0  0
  148.8625  141.2396  156.1602 C   0  0  0  0  0  0  0  0  0  0  0  0
  149.0913  140.5091  154.8256 C   0  0  1  0  0  0  0  0  0  0  0  0
  149.2151  141.4710  153.7961 O   0  0  0  0  0  0  0  0  0  0  0  0
  150.3099  139.6029  154.8991 C   0  0  0  0  0  0  0  0  0  0  0  0
  151.1299  139.5728  156.0480 C   0  0  0  0  0  0  0  0  0  0  0  0
  152.2391  138.7034  156.0617 C   0  0  0  0  0  0  0  0  0  0  0  0
  152.5587  137.8938  155.0297 N   0  0  0  0  0  0  0  0  0  0  0  0
  151.7710  137.9262  153.9337 C   0  0  0  0  0  0  0  0  0  0  0  0
  150.6390  138.7581  153.8185 C   0  0  0  0  0  0  0  0  0  0  0  0
  151.9426  145.4307  158.5483 H   0  0  0  0  0  0  0  0  0  0  0  0
  151.5839  145.6697  160.2547 H   0  0  0  0  0  0  0  0  0  0  0  0
  150.2858  145.2938  159.1471 H   0  0  0  0  0  0  0  0  0  0  0  0
  150.8298  143.2720  160.4000 H   0  0  0  0  0  0  0  0  0  0  0  0
  153.7164  143.7118  159.5297 H   0  0  0  0  0  0  0  0  0  0  0  0
  153.0823  143.9624  161.1368 H   0  0  0  0  0  0  0  0  0  0  0  0
  154.2377  141.7691  160.9582 H   0  0  0  0  0  0  0  0  0  0  0  0
  152.5509  141.5685  161.3700 H   0  0  0  0  0  0  0  0  0  0  0  0
  153.7796  141.2398  158.5899 H   0  0  0  0  0  0  0  0  0  0  0  0
  153.1713  139.9552  159.6073 H   0  0  0  0  0  0  0  0  0  0  0  0
  151.5241  140.5736  157.8591 H   0  0  0  0  0  0  0  0  0  0  0  0
  150.8752  140.8443  159.4568 H   0  0  0  0  0  0  0  0  0  0  0  0
  152.0698  142.9635  157.6266 H   0  0  0  0  0  0  0  0  0  0  0  0
  149.2170  142.2019  158.3517 H   0  0  0  0  0  0  0  0  0  0  0  0
  149.5800  143.8254  157.8091 H   0  0  0  0  0  0  0  0  0  0  0  0
  149.6831  143.0608  155.7681 H   0  0  0  0  0  0  0  0  0  0  0  0
  148.8741  140.5314  156.9905 H   0  0  0  0  0  0  0  0  0  0  0  0
  147.8789  141.7115  156.1559 H   0  0  0  0  0  0  0  0  0  0  0  0
  148.2181  139.8965  154.5960 H   0  0  0  0  0  0  0  0  0  0  0  0
  148.9538  141.0716  152.9798 H   0  0  0  0  0  0  0  0  0  0  0  0
  150.9167  140.1979  156.9028 H   0  0  0  0  0  0  0  0  0  0  0  0
  152.8850  138.6561  156.9260 H   0  0  0  0  0  0  0  0  0  0  0  0
  152.0491  137.2679  153.1239 H   0  0  0  0  0  0  0  0  0  0  0  0
  150.0408  138.7423  152.9192 H   0  0  0  0  0  0  0  0  0  0  0  0
  150.7854  141.9063  156.1475 H   0  0  0  0  0  0  0  0  0  0  0  0
  1  2  1  0  0  0  0
  1 19  1  0  0  0  0
  1 20  1  0  0  0  0
  1 21  1  0  0  0  0
  2  7  1  0  0  0  0
  2  3  1  0  0  0  0
  2 22  1  0  0  0  0
  3  4  1  0  0  0  0
  3 23  1  0  0  0  0
  3 24  1  0  0  0  0
  4  5  1  0  0  0  0
  4 25  1  0  0  0  0
  4 26  1  0  0  0  0
  5  6  1  0  0  0  0
  5 27  1  0  0  0  0
  5 28  1  0  0  0  0
  6  7  1  0  0  0  0
  6 29  1  0  0  0  0
  6 30  1  0  0  0  0
  7  8  1  0  0  0  0
  7 31  1  0  0  0  0
  8  9  1  0  0  0  0
  8 32  1  0  0  0  0
  8 33  1  0  0  0  0
  9 10  1  0  0  0  0
  9 34  1  0  0  0  0
  9 43  1  0  0  0  0
 10 11  1  0  0  0  0
 10 35  1  0  0  0  0
 10 36  1  0  0  0  0
 11 12  1  0  0  0  0
 11 13  1  0  0  0  0
 11 37  1  0  0  0  0
 12 38  1  0  0  0  0
 13 18  1  0  0  0  0
 13 14  2  0  0  0  0
 14 15  1  0  0  0  0
 14 39  1  0  0  0  0
 15 16  2  0  0  0  0
 15 40  1  0  0  0  0
 16 17  1  0  0  0  0
 17 18  2  0  0  0  0
 17 41  1  0  0  0  0
 18 42  1  0  0  0  0
M  CHG  1   9   1
M  END
> <s_m_source_file>
AV-unprocessed.smi

> <i_m_source_file_index>
3290

> <i_lp_mmshare_version>
43012

> <i_f3d_flags>
0

> <s_epik_input>
W0NIM11bQ0BASF0xW0NIMl1bQ0gyXVtDSDJdW0NIMl1bQ0BIXTFbQ0gyXVtOSF1bQ0gyXVtDQEhdKFtPSF0pYzJbY0hdW2NIXW5bY0hdW2NIXTI=

> <s_epik_cmdline>
J2VwaWtfcHl0aG9uJywgJy1waCcsICc3LjAnLCAnLXRuJywgJzgnLCAnLW1hJywgJzIwMCcsICctbWV0YWxfYmluZGluZycsICctaW1hZScsICc8aW5maWxlLm1hZT4nLCAnLW9tYWUnLCAnPG91dGZpbGUubWFlPic=

> <r_lp_tautomer_probability>
1

> <r_epik_Ionization_Penalty>
0.00420552

> <r_epik_Ionization_Penalty_Charging>
0.00207255

> <r_epik_Ionization_Penalty_Neutral>
0.00213297

> <r_epik_State_Penalty>
-0

> <r_epik_Charging_Adjusted_Penalty>
0.00207255

> <i_epik_Tot_Q>
1

> <i_epik_Tot_abs_Q>
1

> <r_epik_Metal_State_Penalty>
-0

> <b_epik_Metal_Only>
0

> <s_lp_Force_Field>
OPLS_2005

> <r_lp_Energy>
17.7323

> <b_lp_Chiralities_Consistent>
1

> <s_lp_Variant>
AV-unprocessed.smi:3290-5

> <Gold.Version>
5.8.1

> <Gold.Id.Protein>
6NUR|6NUR_protein|mol2

> <Gold.PLP.Fitness>
50.3753

> <Gold.PLP.PLP>
-40.6929

> <Gold.PLP.part.hbond>
-5.0000

> <Gold.PLP.part.metal>
0.0000

> <Gold.PLP.part.buried>
-3.4205

> <Gold.PLP.part.nonpolar>
-32.6118

> <Gold.PLP.part.repulsive>
0.1035

> <Gold.PLP.ligand.clash>
0.0000

> <Gold.PLP.ligand.torsion>
0.6362

> <Gold.PLP.Chemscore.Hbond>
2.6159

> <Gold.PLP.Chemscore.CHOScore>
1.0000

> <Gold.PLP.Chemscore.Metal>
0.0000

> <Gold.Chemscore.Hbonds>
donor molecule, donor type, donor heavy atom, donor atom, acceptor molecule, acceptor atom, score
      L1  H     9    34       P1  8028  1.79
      L1  H    12    38       P1  7957  0.57
      P1  H 10752 10765       L1    16  0.02
      L1  C    17    41       P1  7949  1.00

> <Gold.PLP.Chemscore.Internal.Correction>
0.1072

> <Gold.Rescore>
     Score         DG    S(hbond)    S(metal)    S(lipo)     H(rot)  DE(clash)    DE(int)     intcor
     19.10     -20.15       1.69        0.00     121.88       2.05       0.48       0.58       ----

> <Gold.Chemscore.Fitness>
19.0961

> <Gold.Chemscore.DG>
-20.1490

> <Gold.Chemscore.ZeroCoef>
-5.4800

> <Gold.Chemscore.Hbond>
1.6935

> <Gold.Chemscore.Metal>
0.0000

> <Gold.Chemscore.Lipo>
121.8819

> <Gold.Chemscore.Internal_Hbond>
0.0000

> <Gold.Chemscore.DEClash>
0.4776

> <Gold.Chemscore.DEInternal>
0.5753

> <Gold.Chemscore.Rot>
2.0498

> <Gold.Chemscore.Internal.Correction>
   9.000000E+99

> <Gold.Chemscore.Hbonds>
donor molecule, donor type, donor heavy atom, donor atom, acceptor molecule, acceptor atom, score
      L1  H     9    34       P1  8028  0.88
      L1  H    12    38       P1  7957  0.57
      P1  H 10752 10765       L1    16  0.01

> <Gold.Chemscore.Hbond.Weighted>
-5.6563

> <Gold.Chemscore.Metal.Weighted>
-0.0000

> <Gold.Chemscore.Lipo.Weighted>
-14.2602

> <Gold.Chemscore.Internal_Hbond.Weighted>
0.0000

> <Gold.Chemscore.DEClash.Weighted>
0.4776

> <Gold.Chemscore.DEInternal.Weighted>
0.5753

> <Gold.Chemscore.Rot.Weighted>
5.2475

> <Gold.Chemscore.Internal.Correction.Weighted>
   9.000000E+99

> <Gold.Protein.RotatedTorsions>
[ 6907 6896 6895 6894 ] final -167.26 input  -60.11 | X-H torsion
[ 7974 7965 7964 7962 ] final   88.38 input  175.53 | X-H torsion
[ 8008 7997 7996 7995 ] final  111.03 input   59.86 | X-H torsion
[ 10167 10162 10161 10158 ] final  162.07 input  -65.29 | X-H torsion
[ 10718 10713 10712 10709 ] final  148.62 input   66.30 | X-H torsion
[ 10763 10752 10751 10750 ] final -159.50 input  -60.55 | X-H torsion
[ 11005 11000 10999 10996 ] final  -35.10 input  -57.11 | X-H torsion

> <Gold.Protein.ActiveResidues>
 VAL166  LYS551  ARG553  GLY616  TRP617  ASP618  TYR619  PRO620  LYS621  CYS622 
 ASP623  PHE694  ASN695  SER759  ASP760  ASP761  ALA762  ILE779  LEU786  VAL792 
 PHE793  MET794  SER795  GLU796  ALA797  LYS798  CYS799  TRP800  GLU811  SER814 

> <Gold.Protein.RotatedAtoms>
  151.4567  133.3603  159.2802 H   0  0  0  0  0  0  0  0  0  0  0  0  # atno 6907 bound_to 6896
  150.9053  134.8469  159.7399 H   0  0  0  0  0  0  0  0  0  0  0  0  # atno 6908 bound_to 6896
  152.4902  134.4492  159.9621 H   0  0  0  0  0  0  0  0  0  0  0  0  # atno 6909 bound_to 6896
  145.5465  139.2292  143.2536 H   0  0  0  0  0  0  0  0  0  0  0  0  # atno 7974 bound_to 7965
  156.2095  140.3027  155.9701 H   0  0  0  0  0  0  0  0  0  0  0  0  # atno 8008 bound_to 7997
  155.2758  140.0435  157.3028 H   0  0  0  0  0  0  0  0  0  0  0  0  # atno 8009 bound_to 7997
  154.5680  140.2340  155.8243 H   0  0  0  0  0  0  0  0  0  0  0  0  # atno 8010 bound_to 7997
  139.4856  144.4474  151.8874 H   0  0  0  0  0  0  0  0  0  0  0  0  # atno 10167 bound_to 10162
  157.3063  131.0880  151.1351 H   0  0  0  0  0  0  0  0  0  0  0  0  # atno 10718 bound_to 10713
  154.7469  135.3082  154.8628 H   0  0  0  0  0  0  0  0  0  0  0  0  # atno 10763 bound_to 10752
  153.9426  135.6773  153.4748 H   0  0  0  0  0  0  0  0  0  0  0  0  # atno 10764 bound_to 10752
  153.1065  135.4886  154.8888 H   0  0  0  0  0  0  0  0  0  0  0  0  # atno 10765 bound_to 10752
  140.9769  133.7078  156.1618 H   0  0  0  0  0  0  0  0  0  0  0  0  # atno 11005 bound_to 11000
  146.1946  140.6287  142.9130 LP  0  0  0  0  0  0  0  0  0  0  0  0  # atno 17320 bound_to 7965
  144.7551  140.5286  143.6775 LP  0  0  0  0  0  0  0  0  0  0  0  0  # atno 17321 bound_to 7965
  140.3929  144.2592  150.5898 LP  0  0  0  0  0  0  0  0  0  0  0  0  # atno 17342 bound_to 10162
  140.5129  143.2286  151.8508 LP  0  0  0  0  0  0  0  0  0  0  0  0  # atno 17343 bound_to 10162
  157.2690  130.6695  149.6010 LP  0  0  0  0  0  0  0  0  0  0  0  0  # atno 17370 bound_to 10713
  155.9674  130.4485  150.5621 LP  0  0  0  0  0  0  0  0  0  0  0  0  # atno 17371 bound_to 10713
  140.7245  134.4322  157.5572 LP  0  0  0  0  0  0  0  0  0  0  0  0  # atno 17394 bound_to 11000
  139.8934  134.8731  156.2224 LP  0  0  0  0  0  0  0  0  0  0  0  0  # atno 17395 bound_to 11000

$$$$
