AV-unprocessed.smi:1803|AV-procd|sdf|7283|dock1
  -GOLD-   22720 8543D 1   1.00000     0.00000
 Structure written by MMmdl.
 36 38  0  0  0  0  0  0  0  0  2 V2000
  146.1724  139.1802  153.8310 O   0  0  0  0  0  0  0  0  0  0  0  0
  146.8802  138.3133  153.3220 C   0  0  0  0  0  0  0  0  0  0  0  0
  148.2237  138.3450  153.4473 N   0  0  0  0  0  0  0  0  0  0  0  0
  149.0810  139.2685  154.1137 C   0  0  0  0  0  0  0  0  0  0  0  0
  150.4091  139.1115  154.2420 N   0  0  0  0  0  0  0  0  0  0  0  0
  150.9987  140.1740  154.9129 N   0  0  0  0  0  0  0  0  0  0  0  0
  150.0969  141.0991  155.2529 C   0  0  0  0  0  0  0  0  0  0  0  0
  148.4392  140.7603  154.7871 S   0  0  0  0  0  0  0  0  0  0  0  0
  146.3781  137.2862  152.6161 N   0  0  0  0  0  0  0  0  0  0  0  0
  144.9672  137.0682  152.3065 C   0  0  2  0  0  0  0  0  0  0  0  0
  144.0764  137.0668  153.5643 C   0  0  0  0  0  0  0  0  0  0  0  0
  143.1066  135.8994  153.3554 C   0  0  0  0  0  0  0  0  0  0  0  0
  143.9104  134.9357  152.5948 N   0  3  1  0  0  0  0  0  0  0  0  0
  143.2295  133.7727  151.9903 C   0  0  0  0  0  0  0  0  0  0  0  0
  144.3012  132.8284  151.4043 C   0  0  0  0  0  0  0  0  0  0  0  0
  145.2716  133.5639  150.4526 C   0  0  0  0  0  0  0  0  0  0  0  0
  145.8515  134.8399  151.1001 C   0  0  0  0  0  0  0  0  0  0  0  0
  144.6919  135.7115  151.6165 C   0  0  2  0  0  0  0  0  0  0  0  0
  148.6980  137.5352  153.0741 H   0  0  0  0  0  0  0  0  0  0  0  0
  150.4106  141.9887  155.7788 H   0  0  0  0  0  0  0  0  0  0  0  0
  147.0340  136.6158  152.2406 H   0  0  0  0  0  0  0  0  0  0  0  0
  144.6174  137.8657  151.6479 H   0  0  0  0  0  0  0  0  0  0  0  0
  144.6780  136.8770  154.4549 H   0  0  0  0  0  0  0  0  0  0  0  0
  143.5597  138.0152  153.7142 H   0  0  0  0  0  0  0  0  0  0  0  0
  142.7436  135.4793  154.2937 H   0  0  0  0  0  0  0  0  0  0  0  0
  142.2482  136.2149  152.7602 H   0  0  0  0  0  0  0  0  0  0  0  0
  142.6443  133.2528  152.7496 H   0  0  0  0  0  0  0  0  0  0  0  0
  142.5360  134.1037  151.2157 H   0  0  0  0  0  0  0  0  0  0  0  0
  144.8733  132.3873  152.2217 H   0  0  0  0  0  0  0  0  0  0  0  0
  143.8238  131.9982  150.8827 H   0  0  0  0  0  0  0  0  0  0  0  0
  146.0795  132.8962  150.1518 H   0  0  0  0  0  0  0  0  0  0  0  0
  144.7405  133.8339  149.5389 H   0  0  0  0  0  0  0  0  0  0  0  0
  146.5213  134.5715  151.9186 H   0  0  0  0  0  0  0  0  0  0  0  0
  146.4459  135.3877  150.3683 H   0  0  0  0  0  0  0  0  0  0  0  0
  144.0348  135.9272  150.7712 H   0  0  0  0  0  0  0  0  0  0  0  0
  144.5801  134.5651  153.2539 H   0  0  0  0  0  0  0  0  0  0  0  0
  1  2  2  0  0  0  0
  2  3  1  0  0  0  0
  2  9  1  0  0  0  0
  3  4  1  0  0  0  0
  3 19  1  0  0  0  0
  4  8  1  0  0  0  0
  4  5  2  0  0  0  0
  5  6  1  0  0  0  0
  6  7  2  0  0  0  0
  7  8  1  0  0  0  0
  7 20  1  0  0  0  0
  9 10  1  0  0  0  0
  9 21  1  0  0  0  0
 10 18  1  0  0  0  0
 10 11  1  0  0  0  0
 10 22  1  0  0  0  0
 11 12  1  0  0  0  0
 11 23  1  0  0  0  0
 11 24  1  0  0  0  0
 12 13  1  0  0  0  0
 12 25  1  0  0  0  0
 12 26  1  0  0  0  0
 13 18  1  0  0  0  0
 13 14  1  0  0  0  0
 13 36  1  0  0  0  0
 14 15  1  0  0  0  0
 14 27  1  0  0  0  0
 14 28  1  0  0  0  0
 15 16  1  0  0  0  0
 15 29  1  0  0  0  0
 15 30  1  0  0  0  0
 16 17  1  0  0  0  0
 16 31  1  0  0  0  0
 16 32  1  0  0  0  0
 17 18  1  0  0  0  0
 17 33  1  0  0  0  0
 17 34  1  0  0  0  0
 18 35  1  0  0  0  0
M  CHG  1  13   1
M  END
> <s_m_source_file>
AV-unprocessed.smi

> <i_m_source_file_index>
1803

> <i_lp_mmshare_version>
43012

> <i_f3d_flags>
0

> <s_epik_input>
czFbY0hdbm5jMVtOSF1DKD1PKVtOSF1bQ0BIXShbQ0gyXVtDSDJdMilbQ0BASF0oTjIzKVtDSDJdW0NIMl1bQ0gyXVtDSDJdMw==

> <s_epik_cmdline>
J2VwaWtfcHl0aG9uJywgJy1waCcsICc3LjAnLCAnLXRuJywgJzgnLCAnLW1hJywgJzIwMCcsICctbWV0YWxfYmluZGluZycsICctaW1hZScsICc8aW5maWxlLm1hZT4nLCAnLW9tYWUnLCAnPG91dGZpbGUubWFlPic=

> <r_lp_tautomer_probability>
1

> <r_epik_Ionization_Penalty>
0.00213286

> <r_epik_Ionization_Penalty_Charging>
0.00107044

> <r_epik_Ionization_Penalty_Neutral>
0.00106242

> <r_epik_State_Penalty>
-0

> <r_epik_Charging_Adjusted_Penalty>
0.00107044

> <i_epik_Tot_Q>
1

> <i_epik_Tot_abs_Q>
1

> <r_epik_Metal_State_Penalty>
0.292783

> <b_epik_Metal_Only>
0

> <s_lp_Force_Field>
OPLS_2005

> <r_lp_Energy>
42.6799

> <b_lp_Chiralities_Consistent>
1

> <s_lp_Variant>
AV-unprocessed.smi:1803-5

> <Gold.Version>
5.8.1

> <Gold.Id.Protein>
6NUR|6NUR_protein|mol2

> <Gold.PLP.Fitness>
35.2536

> <Gold.PLP.PLP>
-27.3183

> <Gold.PLP.part.hbond>
-4.0082

> <Gold.PLP.part.metal>
0.0000

> <Gold.PLP.part.buried>
-2.7240

> <Gold.PLP.part.nonpolar>
-21.1037

> <Gold.PLP.part.repulsive>
0.5923

> <Gold.PLP.ligand.clash>
0.0000

> <Gold.PLP.ligand.torsion>
0.0500

> <Gold.PLP.Chemscore.Hbond>
2.6780

> <Gold.PLP.Chemscore.CHOScore>
0.0000

> <Gold.PLP.Chemscore.Metal>
0.0000

> <Gold.Chemscore.Hbonds>
donor molecule, donor type, donor heavy atom, donor atom, acceptor molecule, acceptor atom, score
      L1  H     3    19       P1  7948  1.00
      L1  H     9    21       P1  7948  0.93
      P1  H  7989  7998       L1     6  0.70

> <Gold.PLP.Chemscore.Internal.Correction>
0.0013

> <Gold.Rescore>
     Score         DG    S(hbond)    S(metal)    S(lipo)     H(rot)  DE(clash)    DE(int)     intcor
     13.32     -15.79       1.93        0.00      54.95       1.00       0.18       2.29       ----

> <Gold.Chemscore.Fitness>
13.3219

> <Gold.Chemscore.DG>
-15.7898

> <Gold.Chemscore.ZeroCoef>
-5.4800

> <Gold.Chemscore.Hbond>
1.9284

> <Gold.Chemscore.Metal>
0.0000

> <Gold.Chemscore.Lipo>
54.9483

> <Gold.Chemscore.Internal_Hbond>
0.0000

> <Gold.Chemscore.DEClash>
0.1760

> <Gold.Chemscore.DEInternal>
2.2919

> <Gold.Chemscore.Rot>
1.0000

> <Gold.Chemscore.Internal.Correction>
   9.000000E+99

> <Gold.Chemscore.Hbonds>
donor molecule, donor type, donor heavy atom, donor atom, acceptor molecule, acceptor atom, score
      L1  H     3    19       P1  7948  0.98
      L1  H     9    21       P1  7948  0.88
      P1  H  7989  7998       L1     6  0.02

> <Gold.Chemscore.Hbond.Weighted>
-6.4408

> <Gold.Chemscore.Metal.Weighted>
-0.0000

> <Gold.Chemscore.Lipo.Weighted>
-6.4290

> <Gold.Chemscore.Internal_Hbond.Weighted>
0.0000

> <Gold.Chemscore.DEClash.Weighted>
0.1760

> <Gold.Chemscore.DEInternal.Weighted>
2.2919

> <Gold.Chemscore.Rot.Weighted>
2.5600

> <Gold.Chemscore.Internal.Correction.Weighted>
   9.000000E+99

> <Gold.Protein.RotatedTorsions>
[ 6907 6896 6895 6894 ] final   60.06 input  -60.11 | X-H torsion
[ 7974 7965 7964 7962 ] final   -3.71 input  175.53 | X-H torsion
[ 8008 7997 7996 7995 ] final  133.95 input   59.86 | X-H torsion
[ 10167 10162 10161 10158 ] final  105.37 input  -65.29 | X-H torsion
[ 10718 10713 10712 10709 ] final  -66.85 input   66.30 | X-H torsion
[ 10763 10752 10751 10750 ] final   43.61 input  -60.55 | X-H torsion
[ 11005 11000 10999 10996 ] final  160.23 input  -57.11 | X-H torsion

> <Gold.Protein.ActiveResidues>
 VAL166  LYS551  ARG553  GLY616  TRP617  ASP618  TYR619  PRO620  LYS621  CYS622 
 ASP623  PHE694  ASN695  SER759  ASP760  ASP761  ALA762  ILE779  LEU786  VAL792 
 PHE793  MET794  SER795  GLU796  ALA797  LYS798  CYS799  TRP800  GLU811  SER814 

> <Gold.Protein.RotatedAtoms>
  152.3970  134.6349  160.0084 H   0  0  0  0  0  0  0  0  0  0  0  0  # atno 6907 bound_to 6896
  151.6565  133.3313  159.3172 H   0  0  0  0  0  0  0  0  0  0  0  0  # atno 6908 bound_to 6896
  150.7876  134.6917  159.6545 H   0  0  0  0  0  0  0  0  0  0  0  0  # atno 6909 bound_to 6896
  146.2385  140.1763  142.8332 H   0  0  0  0  0  0  0  0  0  0  0  0  # atno 7974 bound_to 7965
  156.2996  140.2508  156.3337 H   0  0  0  0  0  0  0  0  0  0  0  0  # atno 8008 bound_to 7997
  154.9121  140.0403  157.1971 H   0  0  0  0  0  0  0  0  0  0  0  0  # atno 8009 bound_to 7997
  154.8395  140.2888  155.5673 H   0  0  0  0  0  0  0  0  0  0  0  0  # atno 8010 bound_to 7997
  139.7098  144.7080  151.1046 H   0  0  0  0  0  0  0  0  0  0  0  0  # atno 10167 bound_to 10162
  156.0589  130.4268  150.1769 H   0  0  0  0  0  0  0  0  0  0  0  0  # atno 10718 bound_to 10713
  152.9857  135.6096  154.3140 H   0  0  0  0  0  0  0  0  0  0  0  0  # atno 10763 bound_to 10752
  154.2854  135.2776  155.2680 H   0  0  0  0  0  0  0  0  0  0  0  0  # atno 10764 bound_to 10752
  154.5000  135.5869  153.6580 H   0  0  0  0  0  0  0  0  0  0  0  0  # atno 10765 bound_to 10752
  140.2039  134.8317  157.3048 H   0  0  0  0  0  0  0  0  0  0  0  0  # atno 11005 bound_to 11000
  144.9971  140.8599  143.5304 LP  0  0  0  0  0  0  0  0  0  0  0  0  # atno 17320 bound_to 7965
  145.1777  139.2369  143.5309 LP  0  0  0  0  0  0  0  0  0  0  0  0  # atno 17321 bound_to 7965
  140.7730  143.5309  150.9425 LP  0  0  0  0  0  0  0  0  0  0  0  0  # atno 17342 bound_to 10162
  139.8993  143.6856  152.3134 LP  0  0  0  0  0  0  0  0  0  0  0  0  # atno 17343 bound_to 10162
  156.9840  130.9873  151.3430 LP  0  0  0  0  0  0  0  0  0  0  0  0  # atno 17370 bound_to 10713
  157.5583  130.8228  149.8232 LP  0  0  0  0  0  0  0  0  0  0  0  0  # atno 17371 bound_to 10713
  140.2024  134.4239  155.7656 LP  0  0  0  0  0  0  0  0  0  0  0  0  # atno 17394 bound_to 11000
  141.2227  133.7078  156.8205 LP  0  0  0  0  0  0  0  0  0  0  0  0  # atno 17395 bound_to 11000

$$$$
