AV-unprocessed.smi:2896|AV-procd|sdf|11139|dock2
  -GOLD-   2272016 13D 1   1.00000     0.00000
 Structure written by MMmdl.
 49 50  0  0  0  0  0  0  0  0  1 V2000
  147.3767  137.7096  157.7232 C   0  0  0  0  0  0  0  0  0  0  0  0
  148.2699  136.6431  158.3880 C   0  0  1  0  0  0  0  0  0  0  0  0
  149.3466  137.2332  159.3279 C   0  0  0  0  0  0  0  0  0  0  0  0
  150.3141  138.0616  158.6168 N   0  0  0  0  0  0  0  0  0  0  0  0
  151.6237  137.7901  158.4851 C   0  0  0  0  0  0  0  0  0  0  0  0
  152.1382  136.7936  158.9957 O   0  0  0  0  0  0  0  0  0  0  0  0
  152.4876  138.7941  157.6791 C   0  0  0  0  0  0  0  0  0  0  0  0
  153.9160  138.2141  157.5023 C   0  0  0  0  0  0  0  0  0  0  0  0
  151.9267  138.9875  156.2457 C   0  0  0  0  0  0  0  0  0  0  0  0
  152.4837  140.1301  158.4504 C   0  0  0  0  0  0  0  0  0  0  0  0
  153.0670  140.2699  159.7343 C   0  0  0  0  0  0  0  0  0  0  0  0
  153.0208  141.5171  160.3859 C   0  0  0  0  0  0  0  0  0  0  0  0
  152.3872  142.5916  159.7358 C   0  0  0  0  0  0  0  0  0  0  0  0
  151.8193  142.4833  158.5182 N   0  0  0  0  0  0  0  0  0  0  0  0
  151.8695  141.2838  157.9014 C   0  0  0  0  0  0  0  0  0  0  0  0
  147.4679  135.4842  159.0305 C   0  0  0  0  0  0  0  0  0  0  0  0
  147.6451  135.2461  160.4668 N   0  0  0  0  0  0  0  0  0  0  0  0
  146.9090  134.0562  160.8836 C   0  0  0  0  0  0  0  0  0  0  0  0
  147.0771  133.7659  162.3845 C   0  0  0  0  0  0  0  0  0  0  0  0
  146.6553  134.8989  163.1350 O   0  0  0  0  0  0  0  0  0  0  0  0
  147.3818  136.0756  162.7990 C   0  0  0  0  0  0  0  0  0  0  0  0
  147.2285  136.3737  161.2967 C   0  0  0  0  0  0  0  0  0  0  0  0
  146.8714  138.3448  158.4475 H   0  0  0  0  0  0  0  0  0  0  0  0
  146.6141  137.2469  157.0966 H   0  0  0  0  0  0  0  0  0  0  0  0
  147.9632  138.3647  157.0784 H   0  0  0  0  0  0  0  0  0  0  0  0
  148.8043  136.1783  157.5582 H   0  0  0  0  0  0  0  0  0  0  0  0
  148.8831  137.8573  160.0916 H   0  0  0  0  0  0  0  0  0  0  0  0
  149.8647  136.4339  159.8606 H   0  0  0  0  0  0  0  0  0  0  0  0
  149.9604  138.9010  158.1811 H   0  0  0  0  0  0  0  0  0  0  0  0
  154.4001  137.9788  158.4508 H   0  0  0  0  0  0  0  0  0  0  0  0
  154.5627  138.9118  156.9690 H   0  0  0  0  0  0  0  0  0  0  0  0
  153.8977  137.2895  156.9237 H   0  0  0  0  0  0  0  0  0  0  0  0
  150.9052  139.3661  156.2239 H   0  0  0  0  0  0  0  0  0  0  0  0
  151.9267  138.0482  155.6907 H   0  0  0  0  0  0  0  0  0  0  0  0
  152.5371  139.6944  155.6827 H   0  0  0  0  0  0  0  0  0  0  0  0
  153.5499  139.4477  160.2380 H   0  0  0  0  0  0  0  0  0  0  0  0
  153.4600  141.6459  161.3640 H   0  0  0  0  0  0  0  0  0  0  0  0
  152.3330  143.5618  160.2069 H   0  0  0  0  0  0  0  0  0  0  0  0
  151.3877  141.2518  156.9363 H   0  0  0  0  0  0  0  0  0  0  0  0
  146.4074  135.5927  158.7987 H   0  0  0  0  0  0  0  0  0  0  0  0
  147.7794  134.5783  158.5082 H   0  0  0  0  0  0  0  0  0  0  0  0
  145.8484  134.1799  160.6586 H   0  0  0  0  0  0  0  0  0  0  0  0
  147.2490  133.1915  160.3127 H   0  0  0  0  0  0  0  0  0  0  0  0
  146.4774  132.9028  162.6739 H   0  0  0  0  0  0  0  0  0  0  0  0
  148.1159  133.5287  162.6196 H   0  0  0  0  0  0  0  0  0  0  0  0
  147.0041  136.9090  163.3913 H   0  0  0  0  0  0  0  0  0  0  0  0
  148.4333  135.9479  163.0606 H   0  0  0  0  0  0  0  0  0  0  0  0
  147.8303  137.2500  161.0694 H   0  0  0  0  0  0  0  0  0  0  0  0
  146.1911  136.6325  161.0799 H   0  0  0  0  0  0  0  0  0  0  0  0
  1  2  1  0  0  0  0
  1 23  1  0  0  0  0
  1 24  1  0  0  0  0
  1 25  1  0  0  0  0
  2  3  1  0  0  0  0
  2 16  1  0  0  0  0
  2 26  1  0  0  0  0
  3  4  1  0  0  0  0
  3 27  1  0  0  0  0
  3 28  1  0  0  0  0
  4  5  1  0  0  0  0
  4 29  1  0  0  0  0
  5  6  2  0  0  0  0
  5  7  1  0  0  0  0
  7  8  1  0  0  0  0
  7  9  1  0  0  0  0
  7 10  1  0  0  0  0
  8 30  1  0  0  0  0
  8 31  1  0  0  0  0
  8 32  1  0  0  0  0
  9 33  1  0  0  0  0
  9 34  1  0  0  0  0
  9 35  1  0  0  0  0
 10 15  1  0  0  0  0
 10 11  2  0  0  0  0
 11 12  1  0  0  0  0
 11 36  1  0  0  0  0
 12 13  2  0  0  0  0
 12 37  1  0  0  0  0
 13 14  1  0  0  0  0
 13 38  1  0  0  0  0
 14 15  2  0  0  0  0
 15 39  1  0  0  0  0
 16 17  1  0  0  0  0
 16 40  1  0  0  0  0
 16 41  1  0  0  0  0
 17 22  1  0  0  0  0
 17 18  1  0  0  0  0
 18 19  1  0  0  0  0
 18 42  1  0  0  0  0
 18 43  1  0  0  0  0
 19 20  1  0  0  0  0
 19 44  1  0  0  0  0
 19 45  1  0  0  0  0
 20 21  1  0  0  0  0
 21 22  1  0  0  0  0
 21 46  1  0  0  0  0
 21 47  1  0  0  0  0
 22 48  1  0  0  0  0
 22 49  1  0  0  0  0
M  END
> <s_m_source_file>
AV-unprocessed.smi

> <i_m_source_file_index>
2896

> <i_lp_mmshare_version>
43012

> <i_f3d_flags>
0

> <s_epik_input>
W0NIMl0xW0NIMl1PW0NIMl1bQ0gyXU4xW0NIMl1bQ0BIXShbQ0gzXSlbQ0gyXVtOSF1DKD1PKUMoW0NIM10pKFtDSDNdKWMyW2NIXVtjSF1bY0hdbltjSF0y

> <s_epik_cmdline>
J2VwaWtfcHl0aG9uJywgJy1waCcsICc3LjAnLCAnLXRuJywgJzgnLCAnLW1hJywgJzIwMCcsICctbWV0YWxfYmluZGluZycsICctaW1hZScsICc8aW5maWxlLm1hZT4nLCAnLW9tYWUnLCAnPG91dGZpbGUubWFlPic=

> <r_epik_Ionization_Penalty>
0.458454

> <r_epik_Ionization_Penalty_Charging>
0

> <r_epik_Ionization_Penalty_Neutral>
0.458454

> <r_epik_State_Penalty>
0.453234

> <r_epik_Charging_Adjusted_Penalty>
0.453234

> <i_epik_Tot_Q>
0

> <i_epik_Tot_abs_Q>
0

> <r_epik_Metal_State_Penalty>
0.448418

> <b_epik_Metal_Only>
0

> <s_lp_Force_Field>
OPLS_2005

> <r_lp_Energy>
37.0423

> <b_lp_Chiralities_Consistent>
1

> <s_lp_Variant>
AV-unprocessed.smi:2896-4

> <Gold.Version>
5.8.1

> <Gold.Id.Protein>
6NUR|6NUR_protein|mol2

> <Gold.PLP.Fitness>
36.9850

> <Gold.PLP.PLP>
-36.0359

> <Gold.PLP.part.hbond>
-1.7213

> <Gold.PLP.part.metal>
0.0000

> <Gold.PLP.part.buried>
-3.4733

> <Gold.PLP.part.nonpolar>
-30.8926

> <Gold.PLP.part.repulsive>
0.1633

> <Gold.PLP.ligand.clash>
0.0000

> <Gold.PLP.ligand.torsion>
0.9942

> <Gold.PLP.Chemscore.Hbond>
0.8480

> <Gold.PLP.Chemscore.CHOScore>
0.0000

> <Gold.PLP.Chemscore.Metal>
0.0000

> <Gold.Chemscore.Hbonds>
donor molecule, donor type, donor heavy atom, donor atom, acceptor molecule, acceptor atom, score
      P1  H  6896  6908       L1     6  0.91

> <Gold.PLP.Chemscore.Internal.Correction>
0.3935

> <Gold.Rescore>
     Score         DG    S(hbond)    S(metal)    S(lipo)     H(rot)  DE(clash)    DE(int)     intcor
     14.80     -15.66       0.94        0.00      96.89       1.68       0.00       0.86       ----

> <Gold.Chemscore.Fitness>
14.7981

> <Gold.Chemscore.DG>
-15.6612

> <Gold.Chemscore.ZeroCoef>
-5.4800

> <Gold.Chemscore.Hbond>
0.9443

> <Gold.Chemscore.Metal>
0.0000

> <Gold.Chemscore.Lipo>
96.8902

> <Gold.Chemscore.Internal_Hbond>
0.0000

> <Gold.Chemscore.DEClash>
0.0009

> <Gold.Chemscore.DEInternal>
0.8622

> <Gold.Chemscore.Rot>
1.6832

> <Gold.Chemscore.Internal.Correction>
   9.000000E+99

> <Gold.Chemscore.Hbonds>
donor molecule, donor type, donor heavy atom, donor atom, acceptor molecule, acceptor atom, score
      P1  H  6896  6908       L1     6  0.87

> <Gold.Chemscore.Hbond.Weighted>
-3.1540

> <Gold.Chemscore.Metal.Weighted>
-0.0000

> <Gold.Chemscore.Lipo.Weighted>
-11.3362

> <Gold.Chemscore.Internal_Hbond.Weighted>
0.0000

> <Gold.Chemscore.DEClash.Weighted>
0.0009

> <Gold.Chemscore.DEInternal.Weighted>
0.8622

> <Gold.Chemscore.Rot.Weighted>
4.3090

> <Gold.Chemscore.Internal.Correction.Weighted>
   9.000000E+99

> <Gold.Protein.RotatedTorsions>
[ 6907 6896 6895 6894 ] final -116.99 input  -60.11 | X-H torsion
[ 7974 7965 7964 7962 ] final  -85.67 input  175.53 | X-H torsion
[ 8008 7997 7996 7995 ] final  -78.31 input   59.86 | X-H torsion
[ 10167 10162 10161 10158 ] final  -46.07 input  -65.29 | X-H torsion
[ 10718 10713 10712 10709 ] final  126.28 input   66.30 | X-H torsion
[ 10763 10752 10751 10750 ] final  135.91 input  -60.55 | X-H torsion
[ 11005 11000 10999 10996 ] final  -35.33 input  -57.11 | X-H torsion

> <Gold.Protein.ActiveResidues>
 VAL166  LYS551  ARG553  GLY616  TRP617  ASP618  TYR619  PRO620  LYS621  CYS622 
 ASP623  PHE694  ASN695  SER759  ASP760  ASP761  ALA762  ILE779  LEU786  VAL792 
 PHE793  MET794  SER795  GLU796  ALA797  LYS798  CYS799  TRP800  GLU811  SER814 

> <Gold.Protein.RotatedAtoms>
  150.8100  133.8439  159.3186 H   0  0  0  0  0  0  0  0  0  0  0  0  # atno 6907 bound_to 6896
  151.6227  135.1029  160.0114 H   0  0  0  0  0  0  0  0  0  0  0  0  # atno 6908 bound_to 6896
  152.4192  133.7048  159.6501 H   0  0  0  0  0  0  0  0  0  0  0  0  # atno 6909 bound_to 6896
  145.4902  140.9553  143.1816 H   0  0  0  0  0  0  0  0  0  0  0  0  # atno 7974 bound_to 7965
  154.5677  140.0696  156.8917 H   0  0  0  0  0  0  0  0  0  0  0  0  # atno 8008 bound_to 7997
  155.2692  140.3364  155.4248 H   0  0  0  0  0  0  0  0  0  0  0  0  # atno 8009 bound_to 7997
  156.2094  140.1753  156.7714 H   0  0  0  0  0  0  0  0  0  0  0  0  # atno 8010 bound_to 7997
  140.6832  143.2848  151.3730 H   0  0  0  0  0  0  0  0  0  0  0  0  # atno 10167 bound_to 10162
  157.5432  131.1096  150.8824 H   0  0  0  0  0  0  0  0  0  0  0  0  # atno 10718 bound_to 10713
  153.8478  135.3083  155.3430 H   0  0  0  0  0  0  0  0  0  0  0  0  # atno 10763 bound_to 10752
  154.7905  135.4785  154.0044 H   0  0  0  0  0  0  0  0  0  0  0  0  # atno 10764 bound_to 10752
  153.1537  135.6848  153.8937 H   0  0  0  0  0  0  0  0  0  0  0  0  # atno 10765 bound_to 10752
  140.9787  133.7068  156.1647 H   0  0  0  0  0  0  0  0  0  0  0  0  # atno 11005 bound_to 11000
  144.7838  139.6469  143.7143 LP  0  0  0  0  0  0  0  0  0  0  0  0  # atno 17320 bound_to 7965
  146.2288  139.5775  142.9569 LP  0  0  0  0  0  0  0  0  0  0  0  0  # atno 17321 bound_to 7965
  139.6170  144.0982  152.2355 LP  0  0  0  0  0  0  0  0  0  0  0  0  # atno 17342 bound_to 10162
  140.0415  144.6004  150.7407 LP  0  0  0  0  0  0  0  0  0  0  0  0  # atno 17343 bound_to 10162
  156.9370  130.5370  149.5279 LP  0  0  0  0  0  0  0  0  0  0  0  0  # atno 17370 bound_to 10713
  156.0514  130.5583  150.8997 LP  0  0  0  0  0  0  0  0  0  0  0  0  # atno 17371 bound_to 10713
  140.7219  134.4349  157.5574 LP  0  0  0  0  0  0  0  0  0  0  0  0  # atno 17394 bound_to 11000
  139.8941  134.8714  156.2192 LP  0  0  0  0  0  0  0  0  0  0  0  0  # atno 17395 bound_to 11000

$$$$
