#       Name:                AV-unprocessed.smi:2285
#       Creating user name   scv26
#       Creation time:       Fri Mar 27 12:42:04 2020


#       File generated by GOLD software.
#

@<TRIPOS>MOLECULE
AV-unprocessed.smi:2285
    41    42     1
SMALL
NO_CHARGES


@<TRIPOS>ATOM
      1 ****        -2.0177   1.6103  -3.4825 C.3            1 S1                 0.0000
      2 ****        -2.3249   0.5587  -2.4075 C.3            1 S1                 0.0000
      3 ****        -1.6851  -0.8016  -2.6775 C.3            1 S1                 0.0000
      4 ****        -0.1580  -0.7588  -2.6314 C.3            1 S1                 0.0000
      5 ****         0.4391  -0.1220  -1.4622 N.am           1 S1                 0.0000
      6 ****         0.5264  -0.6770  -0.2451 C.2            1 S1                 0.0000
      7 ****         0.1197  -1.8122   0.0088 O.2            1 S1                 0.0000
      8 ****         1.1042   0.1713   0.6286 N.am           1 S1                 0.0000
      9 ****         1.3661  -0.0341   1.9895 C.2            1 S1                 0.0000
     10 ****         1.0952  -1.1484   2.6102 N.2            1 S1                 0.0000
     11 ****         1.3709  -1.3192   3.9668 C.2            1 S1                 0.0000
     12 ****         1.9302  -0.3303   4.6868 C.2            1 S1                 0.0000
     13 ****         2.2496   0.8973   4.0896 N.am           1 S1                 0.0000
     14 ****         2.8579   1.9387   4.9182 C.3            1 S1                 0.0000
     15 ****         2.0057   1.1186   2.7693 C.2            1 S1                 0.0000
     16 ****         2.2729   2.1787   2.1998 O.2            1 S1                 0.0000
     17 ****        -2.3946  -2.0539  -2.2055 C.3            1 S1                 0.0000
     18 ****        -2.3472  -1.7256  -3.6771 C.3            1 S1                 0.0000
     19 ****        -2.5575   2.5356  -3.2807 H              1 S1                 0.0000
     20 ****        -2.3163   1.2614  -4.4714 H              1 S1                 0.0000
     21 ****        -0.9557   1.8530  -3.5164 H              1 S1                 0.0000
     22 ****        -2.0175   0.9217  -1.4265 H              1 S1                 0.0000
     23 ****        -3.4062   0.4295  -2.3486 H              1 S1                 0.0000
     24 ****         0.2352  -1.7726  -2.7263 H              1 S1                 0.0000
     25 ****         0.1991  -0.2274  -3.5134 H              1 S1                 0.0000
     26 ****         0.7981   0.8132  -1.5878 H              1 S1                 0.0000
     27 ****         1.3736   1.0682   0.2520 H              1 S1                 0.0000
     28 ****         1.1139  -2.2755   4.3983 H              1 S1                 0.0000
     29 ****         2.1630  -0.4160   5.7383 H              1 S1                 0.0000
     30 ****         2.2619   2.8522   4.8872 H              1 S1                 0.0000
     31 ****         3.8609   2.1738   4.5589 H              1 S1                 0.0000
     32 ****         2.9444   1.6419   5.9640 H              1 S1                 0.0000
     33 ****        -1.7850  -2.8859  -1.8587 H              1 S1                 0.0000
     34 ****        -3.3483  -1.9360  -1.6949 H              1 S1                 0.0000
     35 ****        -3.2706  -1.3901  -4.1453 H              1 S1                 0.0000
     36 ****        -1.7042  -2.3375  -4.3066 H              1 S1                 0.0000
     37 ****        -0.2996  -2.3657  -0.7109 LP             1 S1                 0.0000
     38 ****         0.2088  -2.1799   0.9344 LP             1 S1                 0.0000
     39 ****         0.6784  -1.9007   2.0999 LP             1 S1                 0.0000
     40 ****         2.0721   2.2877   1.2262 LP             1 S1                 0.0000
     41 ****         2.6905   2.9297   2.7113 LP             1 S1                 0.0000
@<TRIPOS>BOND
    1    1    2 1     
    2    1   19 1     
    3    1   20 1     
    4    1   21 1     
    5    2    3 1     
    6    2   22 1     
    7    2   23 1     
    8    3   18 1     
    9    3    4 1     
   10    3   17 1     
   11    4    5 1     
   12    4   24 1     
   13    4   25 1     
   14    5    6 am    
   15    5   26 1     
   16    6    7 2     
   17    6    8 am    
   18    8    9 1     
   19    8   27 1     
   20    9   15 1     
   21    9   10 2     
   22   10   11 1     
   23   11   12 2     
   24   11   28 1     
   25   12   13 1     
   26   12   29 1     
   27   13   14 1     
   28   13   15 am    
   29   14   30 1     
   30   14   31 1     
   31   14   32 1     
   32   15   16 2     
   33   17   18 1     
   34   17   33 1     
   35   17   34 1     
   36   18   35 1     
   37   18   36 1     
   38    7   37 1     
   39    7   38 1     
   40   10   39 1     
   41   16   40 1     
   42   16   41 1     
@<TRIPOS>SUBSTRUCTURE
      1 S1             1
@<TRIPOS>SET
LONE_PAIRS      STATIC     ATOMS    <user>   **** ""
5 37 38 39 40 41
DONOR_HYDROGENS      STATIC     ATOMS    <user>   **** ""
2 26 27
ATOM$BLUE        STATIC     ATOMS    COLORGROUP SYSTEM
5 37 38 39 40 41
ATOM$RED        STATIC     ATOMS    COLORGROUP SYSTEM
2 26 27
