#       Name:                AV-unprocessed.smi:83
#       Creating user name   scv26
#       Creation time:       Thu Mar 26 17:18:40 2020


#       File generated by GOLD software.
#

@<TRIPOS>MOLECULE
AV-unprocessed.smi:83
    65    68     1
SMALL
NO_CHARGES


@<TRIPOS>ATOM
      1 ****        -4.2915  -4.6410   2.4298 C.3            1 S1                 0.0000
      2 ****        -3.3926  -3.5975   1.7643 C.2            1 S1                 0.0000
      3 ****        -2.2183  -3.5051   2.1220 O.2            1 S1                 0.0000
      4 ****        -3.9237  -2.8115   0.8063 N.am           1 S1                 0.0000
      5 ****        -5.3029  -2.8672   0.3247 C.3            1 S1                 0.0000
      6 ****        -5.3544  -1.9246  -0.8793 C.3            1 S1                 0.0000
      7 ****        -4.2333  -0.9248  -0.6172 C.3            1 S1                 0.0000
      8 ****        -3.7323  -0.2020  -1.8830 C.3            1 S1                 0.0000
      9 ****        -2.7445   0.8374  -1.5865 N.pl3          1 S1                 0.0000
     10 ****        -3.2119   2.0841  -0.9942 C.3            1 S1                 0.0000
     11 ****        -1.4327   0.4902  -1.4759 C.ar           1 S1                 0.0000
     12 ****        -0.9388  -0.4204  -2.3563 N.ar           1 S1                 0.0000
     13 ****         0.3383  -0.8059  -2.2969 C.ar           1 S1                 0.0000
     14 ****         1.2874  -0.4159  -1.4463 N.ar           1 S1                 0.0000
     15 ****         0.8047   0.4940  -0.5538 C.ar           1 S1                 0.0000
     16 ****        -0.5264   1.0021  -0.4970 C.ar           1 S1                 0.0000
     17 ****        -0.6309   1.9030   0.5589 N.2            1 S1                 0.0000
     18 ****         0.5619   1.9304   1.0857 C.2            1 S1                 0.0000
     19 ****         1.4865   1.1146   0.4778 N.pl3          1 S1                 0.0000
     20 ****         2.8784   0.9516   0.8591 C.3            1 S1                 0.0000
     21 ****         3.7770   2.0637   0.2854 C.3            1 S1                 0.0000
     22 ****         3.7456   2.0505  -1.1294 O.3            1 S1                 0.0000
     23 ****         5.2279   1.9849   0.8028 C.3            1 S1                 0.0000
     24 ****         6.2172   2.9998   0.2247 C.3            1 S1                 0.0000
     25 ****         7.5345   2.3060   0.4907 C.3            1 S1                 0.0000
     26 ****         7.1788   0.8449   0.2241 C.3            1 S1                 0.0000
     27 ****         5.8081   0.7005   0.5886 O.3            1 S1                 0.0000
     28 ****        -3.1780  -1.7699   0.1056 C.3            1 S1                 0.0000
     29 ****        -5.1680  -4.1699   2.8752 H              1 S1                 0.0000
     30 ****        -3.7535  -5.1640   3.2211 H              1 S1                 0.0000
     31 ****        -4.6234  -5.3826   1.7030 H              1 S1                 0.0000
     32 ****        -5.6025  -3.8779   0.0444 H              1 S1                 0.0000
     33 ****        -5.9714  -2.5169   1.1125 H              1 S1                 0.0000
     34 ****        -5.1462  -2.4875  -1.7904 H              1 S1                 0.0000
     35 ****        -6.3272  -1.4466  -0.9976 H              1 S1                 0.0000
     36 ****        -4.6164  -0.1859   0.0887 H              1 S1                 0.0000
     37 ****        -3.3530  -0.9254  -2.6047 H              1 S1                 0.0000
     38 ****        -4.5794   0.2763  -2.3757 H              1 S1                 0.0000
     39 ****        -2.5251   2.9025  -1.2126 H              1 S1                 0.0000
     40 ****        -3.3112   1.9852   0.0870 H              1 S1                 0.0000
     41 ****        -4.1875   2.3565  -1.3975 H              1 S1                 0.0000
     42 ****         0.6423  -1.5320  -3.0364 H              1 S1                 0.0000
     43 ****         0.8017   2.5494   1.9382 H              1 S1                 0.0000
     44 ****         2.9326   0.9498   1.9485 H              1 S1                 0.0000
     45 ****         3.2211  -0.0302   0.5296 H              1 S1                 0.0000
     46 ****         3.3695   3.0278   0.5926 H              1 S1                 0.0000
     47 ****         2.8445   2.0964  -1.4099 H              1 S1                 0.0000
     48 ****         5.2093   2.1228   1.8854 H              1 S1                 0.0000
     49 ****         6.0832   3.1271  -0.8503 H              1 S1                 0.0000
     50 ****         6.1453   3.9801   0.6966 H              1 S1                 0.0000
     51 ****         8.3470   2.6692  -0.1391 H              1 S1                 0.0000
     52 ****         7.8240   2.4384   1.5343 H              1 S1                 0.0000
     53 ****         7.2788   0.6181  -0.8381 H              1 S1                 0.0000
     54 ****         7.8140   0.1537   0.7787 H              1 S1                 0.0000
     55 ****        -2.5830  -1.1606   0.7882 H              1 S1                 0.0000
     56 ****        -2.4993  -2.2445  -0.6045 H              1 S1                 0.0000
     57 ****        -1.8648  -4.1072   2.8379 LP             1 S1                 0.0000
     58 ****        -1.6179  -2.8280   1.6966 LP             1 S1                 0.0000
     59 ****        -1.5392  -0.8062  -3.0569 LP             1 S1                 0.0000
     60 ****         2.2306  -0.7477  -1.4611 LP             1 S1                 0.0000
     61 ****        -1.4397   2.4147   0.8487 LP             1 S1                 0.0000
     62 ****         4.1617   1.2066  -1.4682 LP             1 S1                 0.0000
     63 ****         4.2501   2.8371  -1.4853 LP             1 S1                 0.0000
     64 ****         5.3167   0.2325  -0.1459 LP             1 S1                 0.0000
     65 ****         5.7429   0.1623   1.4289 LP             1 S1                 0.0000
@<TRIPOS>BOND
    1    1    2 1     
    2    1   29 1     
    3    1   30 1     
    4    1   31 1     
    5    2    3 2     
    6    2    4 am    
    7    4   28 1     
    8    4    5 1     
    9    5    6 1     
   10    5   32 1     
   11    5   33 1     
   12    6    7 1     
   13    6   34 1     
   14    6   35 1     
   15    7    8 1     
   16    7   28 1     
   17    7   36 1     
   18    8    9 1     
   19    8   37 1     
   20    8   38 1     
   21    9   10 1     
   22    9   11 1     
   23   10   39 1     
   24   10   40 1     
   25   10   41 1     
   26   11   16 ar    
   27   11   12 ar    
   28   12   13 ar    
   29   13   14 ar    
   30   13   42 1     
   31   14   15 ar    
   32   15   19 1     
   33   15   16 ar    
   34   16   17 1     
   35   17   18 2     
   36   18   19 1     
   37   18   43 1     
   38   19   20 1     
   39   20   21 1     
   40   20   44 1     
   41   20   45 1     
   42   21   22 1     
   43   21   23 1     
   44   21   46 1     
   45   22   47 1     
   46   23   27 1     
   47   23   24 1     
   48   23   48 1     
   49   24   25 1     
   50   24   49 1     
   51   24   50 1     
   52   25   26 1     
   53   25   51 1     
   54   25   52 1     
   55   26   27 1     
   56   26   53 1     
   57   26   54 1     
   58   28   55 1     
   59   28   56 1     
   60    3   57 1     
   61    3   58 1     
   62   12   59 1     
   63   14   60 1     
   64   17   61 1     
   65   22   62 1     
   66   22   63 1     
   67   27   64 1     
   68   27   65 1     
@<TRIPOS>SUBSTRUCTURE
      1 S1             1
@<TRIPOS>SET
LONE_PAIRS      STATIC     ATOMS    <user>   **** ""
9 57 58 59 60 61 62 63 64 65
DONOR_HYDROGENS      STATIC     ATOMS    <user>   **** ""
1 47
ATOM$BLUE        STATIC     ATOMS    COLORGROUP SYSTEM
9 57 58 59 60 61 62 63 64 65
ATOM$RED        STATIC     ATOMS    COLORGROUP SYSTEM
1 47
