#       Name:                AV-unprocessed.smi:24
#       Creating user name   scv26
#       Creation time:       Thu Mar 26 15:43:20 2020


#       File generated by GOLD software.
#

@<TRIPOS>MOLECULE
AV-unprocessed.smi:24
    72    76     1
SMALL
NO_CHARGES


@<TRIPOS>ATOM
      1 ****        -6.8293  -0.9796   3.0306 C.3            1 S1                 0.0000
      2 ****        -6.0340   0.0447   2.4519 O.3            1 S1                 0.0000
      3 ****        -4.6632  -0.0803   2.5244 C.ar           1 S1                 0.0000
      4 ****        -3.8936   0.9425   1.9338 C.ar           1 S1                 0.0000
      5 ****        -2.4872   0.8937   1.9602 C.ar           1 S1                 0.0000
      6 ****        -1.8235  -0.1889   2.5776 C.ar           1 S1                 0.0000
      7 ****        -0.2981  -0.2613   2.6222 C.3            1 S1                 0.0000
      8 ****         0.2856   0.6158   3.7330 C.3            1 S1                 0.0000
      9 ****         1.1863   1.5205   2.9607 C.2            1 S1                 0.0000
     10 ****         1.9684   2.5889   3.6221 C.ar           1 S1                 0.0000
     11 ****         2.7844   3.4376   2.8397 C.ar           1 S1                 0.0000
     12 ****         3.5242   4.4591   3.4671 C.ar           1 S1                 0.0000
     13 ****         3.4503   4.6308   4.8637 C.ar           1 S1                 0.0000
     14 ****         2.6367   3.7811   5.6395 C.ar           1 S1                 0.0000
     15 ****         1.8921   2.7560   5.0236 C.ar           1 S1                 0.0000
     16 ****         1.2038   1.2819   1.7013 N.2            1 S1                 0.0000
     17 ****         0.3743   0.2460   1.4187 N.am           1 S1                 0.0000
     18 ****         0.2611  -0.3010   0.1877 C.2            1 S1                 0.0000
     19 ****        -0.4043  -1.3189  -0.0131 O.2            1 S1                 0.0000
     20 ****         1.0005   0.3752  -0.9864 C.3            1 S1                 0.0000
     21 ****         0.5932  -0.1406  -2.3123 N.am           1 S1                 0.0000
     22 ****        -0.5396   0.4336  -2.9414 C.2            1 S1                 0.0000
     23 ****        -1.1690   1.3499  -2.4101 O.2            1 S1                 0.0000
     24 ****        -0.8996  -0.1377  -4.2340 C.2            1 S1                 0.0000
     25 ****        -1.9587   0.3471  -4.9044 F              1 S1                 0.0000
     26 ****        -0.1861  -1.1491  -4.7702 C.2            1 S1                 0.0000
     27 ****         0.9158  -1.7028  -4.1430 N.am           1 S1                 0.0000
     28 ****         1.7002  -2.8436  -4.7557 C.3            1 S1                 0.0000
     29 ****         3.0333  -2.3344  -5.3344 C.3            1 S1                 0.0000
     30 ****         3.0324  -2.9167  -6.7337 C.3            1 S1                 0.0000
     31 ****         1.5451  -2.9742  -7.0479 C.3            1 S1                 0.0000
     32 ****         0.9779  -3.4025  -5.8165 O.3            1 S1                 0.0000
     33 ****         1.3250  -1.2076  -2.8856 C.2            1 S1                 0.0000
     34 ****         2.2951  -1.6984  -2.3037 O.2            1 S1                 0.0000
     35 ****        -2.5867  -1.2105   3.1778 C.ar           1 S1                 0.0000
     36 ****        -3.9939  -1.1612   3.1512 C.ar           1 S1                 0.0000
     37 ****        -7.8833  -0.7400   2.8903 H              1 S1                 0.0000
     38 ****        -6.6509  -1.0652   4.1033 H              1 S1                 0.0000
     39 ****        -6.6443  -1.9438   2.5553 H              1 S1                 0.0000
     40 ****        -4.3870   1.7752   1.4542 H              1 S1                 0.0000
     41 ****        -1.9218   1.6930   1.5036 H              1 S1                 0.0000
     42 ****         0.0091  -1.2977   2.7757 H              1 S1                 0.0000
     43 ****        -0.4824   1.1849   4.2590 H              1 S1                 0.0000
     44 ****         0.8436   0.0242   4.4597 H              1 S1                 0.0000
     45 ****         2.8539   3.3224   1.7676 H              1 S1                 0.0000
     46 ****         4.1487   5.1125   2.8757 H              1 S1                 0.0000
     47 ****         4.0188   5.4154   5.3412 H              1 S1                 0.0000
     48 ****         2.5836   3.9163   6.7098 H              1 S1                 0.0000
     49 ****         1.2761   2.1186   5.6404 H              1 S1                 0.0000
     50 ****         0.8358   1.4532  -0.9417 H              1 S1                 0.0000
     51 ****         2.0740   0.2623  -0.8283 H              1 S1                 0.0000
     52 ****        -0.5078  -1.5287  -5.7276 H              1 S1                 0.0000
     53 ****         1.8106  -3.5887  -3.9656 H              1 S1                 0.0000
     54 ****         3.0345  -1.2438  -5.3770 H              1 S1                 0.0000
     55 ****         3.8768  -2.6670  -4.7287 H              1 S1                 0.0000
     56 ****         3.5971  -2.3168  -7.4477 H              1 S1                 0.0000
     57 ****         3.4512  -3.9238  -6.7224 H              1 S1                 0.0000
     58 ****         1.1666  -1.9864  -7.3140 H              1 S1                 0.0000
     59 ****         1.3103  -3.6635  -7.8591 H              1 S1                 0.0000
     60 ****        -2.0941  -2.0418   3.6606 H              1 S1                 0.0000
     61 ****        -4.5377  -1.9669   3.6201 H              1 S1                 0.0000
     62 ****        -6.2786   0.9023   2.9044 LP             1 S1                 0.0000
     63 ****        -6.2767   0.0980   1.4833 LP             1 S1                 0.0000
     64 ****         1.7471   1.7838   1.0283 LP             1 S1                 0.0000
     65 ****        -0.8793  -1.7636   0.7463 LP             1 S1                 0.0000
     66 ****        -0.4691  -1.7000  -0.9353 LP             1 S1                 0.0000
     67 ****        -0.8831   1.7018  -1.5187 LP             1 S1                 0.0000
     68 ****        -1.9657   1.7418  -2.8702 LP             1 S1                 0.0000
     69 ****         0.0249  -3.1038  -5.7658 LP             1 S1                 0.0000
     70 ****         1.0181  -4.4000  -5.7592 LP             1 S1                 0.0000
     71 ****         2.5759  -1.3427  -1.4122 LP             1 S1                 0.0000
     72 ****         2.8010  -2.4520  -2.7232 LP             1 S1                 0.0000
@<TRIPOS>BOND
    1    1    2 1     
    2    1   37 1     
    3    1   38 1     
    4    1   39 1     
    5    2    3 1     
    6    3   36 ar    
    7    3    4 ar    
    8    4    5 ar    
    9    4   40 1     
   10    5    6 ar    
   11    5   41 1     
   12    6    7 1     
   13    6   35 ar    
   14    7   17 1     
   15    7    8 1     
   16    7   42 1     
   17    8    9 1     
   18    8   43 1     
   19    8   44 1     
   20    9   10 1     
   21    9   16 2     
   22   10   15 ar    
   23   10   11 ar    
   24   11   12 ar    
   25   11   45 1     
   26   12   13 ar    
   27   12   46 1     
   28   13   14 ar    
   29   13   47 1     
   30   14   15 ar    
   31   14   48 1     
   32   15   49 1     
   33   16   17 1     
   34   17   18 am    
   35   18   19 2     
   36   18   20 1     
   37   20   21 1     
   38   20   50 1     
   39   20   51 1     
   40   21   33 am    
   41   21   22 am    
   42   22   23 2     
   43   22   24 1     
   44   24   25 1     
   45   24   26 2     
   46   26   27 1     
   47   26   52 1     
   48   27   28 1     
   49   27   33 am    
   50   28   32 1     
   51   28   29 1     
   52   28   53 1     
   53   29   30 1     
   54   29   54 1     
   55   29   55 1     
   56   30   31 1     
   57   30   56 1     
   58   30   57 1     
   59   31   32 1     
   60   31   58 1     
   61   31   59 1     
   62   33   34 2     
   63   35   36 ar    
   64   35   60 1     
   65   36   61 1     
   66    2   62 1     
   67    2   63 1     
   68   16   64 1     
   69   19   65 1     
   70   19   66 1     
   71   23   67 1     
   72   23   68 1     
   73   32   69 1     
   74   32   70 1     
   75   34   71 1     
   76   34   72 1     
@<TRIPOS>SUBSTRUCTURE
      1 S1             1
@<TRIPOS>SET
LONE_PAIRS      STATIC     ATOMS    <user>   **** ""
11 62 63 64 65 66 67 68 69 70 71 72
ATOM$BLUE        STATIC     ATOMS    COLORGROUP SYSTEM
11 62 63 64 65 66 67 68 69 70 71 72
