AV-unprocessed.smi:1587|AV-procd|sdf|6387|dock6
  -GOLD-   22720 7 23D 1   1.00000     0.00000
 Structure written by MMmdl.
 36 37  0  0  0  0  0  0  0  0  1 V2000
  144.7806  137.1430  152.3016 O   0  0  0  0  0  0  0  0  0  0  0  0
  145.9704  136.8648  152.1486 C   0  0  0  0  0  0  0  0  0  0  0  0
  146.9676  137.7254  152.4003 N   0  0  0  0  0  0  0  0  0  0  0  0
  146.7931  139.0880  152.8885 C   0  0  0  0  0  0  0  0  0  0  0  0
  146.8596  139.1474  154.4263 C   0  0  0  0  0  0  0  0  0  0  0  0
  148.1901  139.4009  154.9755 N   0  0  0  0  0  0  0  0  0  0  0  0
  149.2076  138.5123  154.4178 C   0  0  0  0  0  0  0  0  0  0  0  0
  150.6070  138.8144  154.9824 C   0  0  0  0  0  0  0  0  0  0  0  0
  150.9366  140.1792  154.7456 O   0  0  0  0  0  0  0  0  0  0  0  0
  149.9923  141.0776  155.3184 C   0  0  0  0  0  0  0  0  0  0  0  0
  148.5938  140.7847  154.7482 C   0  0  0  0  0  0  0  0  0  0  0  0
  146.4443  135.6824  151.7175 N   0  0  0  0  0  0  0  0  0  0  0  0
  145.7093  134.5279  151.3366 C   0  0  0  0  0  0  0  0  0  0  0  0
  146.4945  133.4275  150.9239 C   0  0  0  0  0  0  0  0  0  0  0  0
  145.8607  132.2350  150.5241 C   0  0  0  0  0  0  0  0  0  0  0  0
  144.4560  132.1732  150.5469 C   0  0  0  0  0  0  0  0  0  0  0  0
  143.7492  133.3137  150.9703 C   0  0  0  0  0  0  0  0  0  0  0  0
  144.3546  134.4578  151.3538 N   0  0  0  0  0  0  0  0  0  0  0  0
  147.9159  137.4157  152.2464 H   0  0  0  0  0  0  0  0  0  0  0  0
  147.5469  139.7425  152.4474 H   0  0  0  0  0  0  0  0  0  0  0  0
  145.8262  139.4378  152.5287 H   0  0  0  0  0  0  0  0  0  0  0  0
  146.1600  139.8997  154.7941 H   0  0  0  0  0  0  0  0  0  0  0  0
  146.5013  138.1926  154.8141 H   0  0  0  0  0  0  0  0  0  0  0  0
  148.9642  137.4729  154.6347 H   0  0  0  0  0  0  0  0  0  0  0  0
  149.2290  138.6095  153.3312 H   0  0  0  0  0  0  0  0  0  0  0  0
  150.6444  138.6050  156.0525 H   0  0  0  0  0  0  0  0  0  0  0  0
  151.3537  138.1794  154.5054 H   0  0  0  0  0  0  0  0  0  0  0  0
  149.9956  140.9773  156.4050 H   0  0  0  0  0  0  0  0  0  0  0  0
  150.2894  142.1010  155.0899 H   0  0  0  0  0  0  0  0  0  0  0  0
  148.5890  141.0007  153.6786 H   0  0  0  0  0  0  0  0  0  0  0  0
  147.8713  141.4616  155.2054 H   0  0  0  0  0  0  0  0  0  0  0  0
  147.4478  135.5984  151.6524 H   0  0  0  0  0  0  0  0  0  0  0  0
  147.5730  133.4914  150.9128 H   0  0  0  0  0  0  0  0  0  0  0  0
  146.4427  131.3829  150.2056 H   0  0  0  0  0  0  0  0  0  0  0  0
  143.9336  131.2764  150.2480 H   0  0  0  0  0  0  0  0  0  0  0  0
  142.6698  133.3082  151.0016 H   0  0  0  0  0  0  0  0  0  0  0  0
  1  2  2  0  0  0  0
  2  3  1  0  0  0  0
  2 12  1  0  0  0  0
  3  4  1  0  0  0  0
  3 19  1  0  0  0  0
  4  5  1  0  0  0  0
  4 20  1  0  0  0  0
  4 21  1  0  0  0  0
  5  6  1  0  0  0  0
  5 22  1  0  0  0  0
  5 23  1  0  0  0  0
  6 11  1  0  0  0  0
  6  7  1  0  0  0  0
  7  8  1  0  0  0  0
  7 24  1  0  0  0  0
  7 25  1  0  0  0  0
  8  9  1  0  0  0  0
  8 26  1  0  0  0  0
  8 27  1  0  0  0  0
  9 10  1  0  0  0  0
 10 11  1  0  0  0  0
 10 28  1  0  0  0  0
 10 29  1  0  0  0  0
 11 30  1  0  0  0  0
 11 31  1  0  0  0  0
 12 13  1  0  0  0  0
 12 32  1  0  0  0  0
 13 18  1  0  0  0  0
 13 14  2  0  0  0  0
 14 15  1  0  0  0  0
 14 33  1  0  0  0  0
 15 16  2  0  0  0  0
 15 34  1  0  0  0  0
 16 17  1  0  0  0  0
 16 35  1  0  0  0  0
 17 18  2  0  0  0  0
 17 36  1  0  0  0  0
M  END
> <s_m_source_file>
AV-unprocessed.smi

> <i_m_source_file_index>
1587

> <i_lp_mmshare_version>
43012

> <i_f3d_flags>
0

> <s_epik_input>
bjFbY0hdW2NIXVtjSF1bY0hdYzFbTkhdQyg9TylbTkhdW0NIMl1bQ0gyXU4yW0NIMl1bQ0gyXU9bQ0gyXVtDSDJdMg==

> <s_epik_cmdline>
J2VwaWtfcHl0aG9uJywgJy1waCcsICc3LjAnLCAnLXRuJywgJzgnLCAnLW1hJywgJzIwMCcsICctbWV0YWxfYmluZGluZycsICctaW1hZScsICc8aW5maWxlLm1hZT4nLCAnLW9tYWUnLCAnPG91dGZpbGUubWFlPic=

> <r_epik_Ionization_Penalty>
0.266037

> <r_epik_Ionization_Penalty_Charging>
0

> <r_epik_Ionization_Penalty_Neutral>
0.266037

> <r_epik_State_Penalty>
0.257924

> <r_epik_Charging_Adjusted_Penalty>
0.257924

> <i_epik_Tot_Q>
0

> <i_epik_Tot_abs_Q>
0

> <r_epik_Metal_State_Penalty>
0.257923

> <b_epik_Metal_Only>
0

> <s_lp_Force_Field>
OPLS_2005

> <r_lp_Energy>
22.0776

> <b_lp_Chiralities_Consistent>
1

> <s_lp_Variant>
AV-unprocessed.smi:1587-1

> <Gold.Version>
5.8.1

> <Gold.Id.Protein>
6NUR|6NUR_protein|mol2

> <Gold.PLP.Fitness>
42.0984

> <Gold.PLP.PLP>
-30.9694

> <Gold.PLP.part.hbond>
-2.9567

> <Gold.PLP.part.metal>
0.0000

> <Gold.PLP.part.buried>
-5.0101

> <Gold.PLP.part.nonpolar>
-24.3697

> <Gold.PLP.part.repulsive>
1.2325

> <Gold.PLP.ligand.clash>
0.0000

> <Gold.PLP.ligand.torsion>
0.4485

> <Gold.PLP.Chemscore.Hbond>
3.0000

> <Gold.PLP.Chemscore.CHOScore>
1.0000

> <Gold.PLP.Chemscore.Metal>
0.0000

> <Gold.Chemscore.Hbonds>
donor molecule, donor type, donor heavy atom, donor atom, acceptor molecule, acceptor atom, score
      L1  H     3    19       P1  7948  1.00
      L1  H    12    32       P1  7948  1.00
      P1  H  7989  7998       L1     9  1.00
      L1  C    17    36       P1 10186  1.00

> <Gold.PLP.Chemscore.Internal.Correction>
0.0259

> <Gold.Rescore>
     Score         DG    S(hbond)    S(metal)    S(lipo)     H(rot)  DE(clash)    DE(int)     intcor
     17.31     -19.07       2.90        0.00      67.31       1.55       0.01       1.75       ----

> <Gold.Chemscore.Fitness>
17.3123

> <Gold.Chemscore.DG>
-19.0654

> <Gold.Chemscore.ZeroCoef>
-5.4800

> <Gold.Chemscore.Hbond>
2.8964

> <Gold.Chemscore.Metal>
0.0000

> <Gold.Chemscore.Lipo>
67.3109

> <Gold.Chemscore.Internal_Hbond>
0.0000

> <Gold.Chemscore.DEClash>
0.0060

> <Gold.Chemscore.DEInternal>
1.7471

> <Gold.Chemscore.Rot>
1.5484

> <Gold.Chemscore.Internal.Correction>
   9.000000E+99

> <Gold.Chemscore.Hbonds>
donor molecule, donor type, donor heavy atom, donor atom, acceptor molecule, acceptor atom, score
      L1  H     3    19       P1  7948  0.93
      L1  H    12    32       P1  7948  0.94
      P1  H  7989  7998       L1     9  0.68

> <Gold.Chemscore.Hbond.Weighted>
-9.6739

> <Gold.Chemscore.Metal.Weighted>
-0.0000

> <Gold.Chemscore.Lipo.Weighted>
-7.8754

> <Gold.Chemscore.Internal_Hbond.Weighted>
0.0000

> <Gold.Chemscore.DEClash.Weighted>
0.0060

> <Gold.Chemscore.DEInternal.Weighted>
1.7471

> <Gold.Chemscore.Rot.Weighted>
3.9639

> <Gold.Chemscore.Internal.Correction.Weighted>
   9.000000E+99

> <Gold.Protein.RotatedTorsions>
[ 6907 6896 6895 6894 ] final   94.33 input  -60.11 | X-H torsion
[ 7974 7965 7964 7962 ] final -107.16 input  175.53 | X-H torsion
[ 8008 7997 7996 7995 ] final  -82.42 input   59.86 | X-H torsion
[ 10167 10162 10161 10158 ] final   85.64 input  -65.29 | X-H torsion
[ 10718 10713 10712 10709 ] final   94.56 input   66.30 | X-H torsion
[ 10763 10752 10751 10750 ] final  -75.35 input  -60.55 | X-H torsion
[ 11005 11000 10999 10996 ] final  -96.90 input  -57.11 | X-H torsion

> <Gold.Protein.ActiveResidues>
 VAL166  LYS551  ARG553  GLY616  TRP617  ASP618  TYR619  PRO620  LYS621  CYS622 
 ASP623  PHE694  ASN695  SER759  ASP760  ASP761  ALA762  ILE779  LEU786  VAL792 
 PHE793  MET794  SER795  GLU796  ALA797  LYS798  CYS799  TRP800  GLU811  SER814 

> <Gold.Protein.RotatedAtoms>
  152.5450  134.1211  159.8398 H   0  0  0  0  0  0  0  0  0  0  0  0  # atno 6907 bound_to 6896
  151.1267  133.5059  159.2608 H   0  0  0  0  0  0  0  0  0  0  0  0  # atno 6908 bound_to 6896
  151.1720  135.0332  159.8810 H   0  0  0  0  0  0  0  0  0  0  0  0  # atno 6909 bound_to 6896
  145.2088  140.9087  143.3327 H   0  0  0  0  0  0  0  0  0  0  0  0  # atno 7974 bound_to 7965
  154.6084  140.0633  156.9461 H   0  0  0  0  0  0  0  0  0  0  0  0  # atno 8008 bound_to 7997
  155.2014  140.3315  155.4324 H   0  0  0  0  0  0  0  0  0  0  0  0  # atno 8009 bound_to 7997
  156.2362  140.1864  156.7097 H   0  0  0  0  0  0  0  0  0  0  0  0  # atno 8010 bound_to 7997
  139.8957  144.6359  150.8691 H   0  0  0  0  0  0  0  0  0  0  0  0  # atno 10167 bound_to 10162
  157.6947  131.0516  150.4204 H   0  0  0  0  0  0  0  0  0  0  0  0  # atno 10718 bound_to 10713
  154.4854  135.5834  153.6420 H   0  0  0  0  0  0  0  0  0  0  0  0  # atno 10763 bound_to 10752
  152.9854  135.6100  154.3193 H   0  0  0  0  0  0  0  0  0  0  0  0  # atno 10764 bound_to 10752
  154.3088  135.2845  155.2555 H   0  0  0  0  0  0  0  0  0  0  0  0  # atno 10765 bound_to 10752
  141.1396  133.8131  157.0634 H   0  0  0  0  0  0  0  0  0  0  0  0  # atno 11005 bound_to 11000
  144.9876  139.3721  143.6231 LP  0  0  0  0  0  0  0  0  0  0  0  0  # atno 17320 bound_to 7965
  146.3402  139.9045  142.8789 LP  0  0  0  0  0  0  0  0  0  0  0  0  # atno 17321 bound_to 7965
  140.7717  143.3476  151.2080 LP  0  0  0  0  0  0  0  0  0  0  0  0  # atno 17342 bound_to 10162
  139.7070  143.9439  152.2931 LP  0  0  0  0  0  0  0  0  0  0  0  0  # atno 17343 bound_to 10162
  156.4580  130.4026  149.6594 LP  0  0  0  0  0  0  0  0  0  0  0  0  # atno 17370 bound_to 10713
  156.3719  130.7535  151.2519 LP  0  0  0  0  0  0  0  0  0  0  0  0  # atno 17371 bound_to 10713
  140.0557  134.9782  157.1216 LP  0  0  0  0  0  0  0  0  0  0  0  0  # atno 17394 bound_to 11000
  140.3923  134.2171  155.7166 LP  0  0  0  0  0  0  0  0  0  0  0  0  # atno 17395 bound_to 11000

$$$$
