#       Name:                AV-unprocessed.smi:2007
#       Creating user name   scv26
#       Creation time:       Fri Mar 27 10:37:10 2020


#       File generated by GOLD software.
#

@<TRIPOS>MOLECULE
AV-unprocessed.smi:2007
    42    43     1
SMALL
NO_CHARGES


@<TRIPOS>ATOM
      1 ****        -0.7370   3.6464  -0.5116 C.3            1 S1                 0.0000
      2 ****        -0.4133   2.1491  -0.6052 C.3            1 S1                 0.0000
      3 ****         1.1131   1.9126  -0.6860 C.3            1 S1                 0.0000
      4 ****         1.4766   0.4807  -0.8362 N.4            1 S1                 1.0000
      5 ****         1.3086  -0.0314  -2.2180 C.3            1 S1                 0.0000
      6 ****         1.6270  -1.5349  -2.2687 C.3            1 S1                 0.0000
      7 ****         2.9498  -1.7568  -1.7943 O.3            1 S1                 0.0000
      8 ****         3.1087  -1.3403  -0.4434 C.3            1 S1                 0.0000
      9 ****         2.8336   0.1690  -0.3307 C.3            1 S1                 0.0000
     10 ****        -1.0044   1.4641   0.5456 N.am           1 S1                 0.0000
     11 ****        -1.4876   0.2124   0.5564 C.2            1 S1                 0.0000
     12 ****        -1.4526  -0.5360  -0.4206 O.2            1 S1                 0.0000
     13 ****        -1.9955  -0.1047   1.7600 N.am           1 S1                 0.0000
     14 ****        -2.5573  -1.3404   2.1756 C.2            1 S1                 0.0000
     15 ****        -2.6172  -2.4370   1.4108 N.2            1 S1                 0.0000
     16 ****        -3.2182  -3.5083   2.0770 C.2            1 S1                 0.0000
     17 ****        -3.6089  -3.2085   3.3583 C.2            1 S1                 0.0000
     18 ****        -3.2348  -1.5594   3.7824 S.3            1 S1                 0.0000
     19 ****        -0.3476   4.1862  -1.3754 H              1 S1                 0.0000
     20 ****        -0.3021   4.0937   0.3830 H              1 S1                 0.0000
     21 ****        -1.8140   3.8149  -0.4787 H              1 S1                 0.0000
     22 ****        -0.8847   1.7822  -1.5180 H              1 S1                 0.0000
     23 ****         1.5502   2.4860  -1.5049 H              1 S1                 0.0000
     24 ****         1.5637   2.3017   0.2285 H              1 S1                 0.0000
     25 ****         0.2889   0.1337  -2.5645 H              1 S1                 0.0000
     26 ****         1.9684   0.5126  -2.8957 H              1 S1                 0.0000
     27 ****         0.9119  -2.1051  -1.6732 H              1 S1                 0.0000
     28 ****         1.5525  -1.9007  -3.2928 H              1 S1                 0.0000
     29 ****         2.4388  -1.9073   0.2051 H              1 S1                 0.0000
     30 ****         4.1264  -1.5621  -0.1220 H              1 S1                 0.0000
     31 ****         3.5756   0.7315  -0.8996 H              1 S1                 0.0000
     32 ****         2.9227   0.4789   0.7111 H              1 S1                 0.0000
     33 ****        -1.0773   2.0017   1.3974 H              1 S1                 0.0000
     34 ****        -1.9769   0.6196   2.4627 H              1 S1                 0.0000
     35 ****        -3.3270  -4.4518   1.5629 H              1 S1                 0.0000
     36 ****        -4.0920  -3.8557   4.0755 H              1 S1                 0.0000
     37 ****         0.8335  -0.0372  -0.2537 H              1 S1                 0.0000
     38 ****         3.5886  -1.2437  -2.3675 LP             1 S1                 0.0000
     39 ****         3.1557  -2.7333  -1.8573 LP             1 S1                 0.0000
     40 ****        -1.0486  -0.2193  -1.2788 LP             1 S1                 0.0000
     41 ****        -1.8282  -1.4605  -0.3559 LP             1 S1                 0.0000
     42 ****        -2.2726  -2.4842   0.4733 LP             1 S1                 0.0000
@<TRIPOS>BOND
    1    1    2 1     
    2    1   19 1     
    3    1   20 1     
    4    1   21 1     
    5    2    3 1     
    6    2   10 1     
    7    2   22 1     
    8    3    4 1     
    9    3   23 1     
   10    3   24 1     
   11    4    9 1     
   12    4    5 1     
   13    4   37 1     
   14    5    6 1     
   15    5   25 1     
   16    5   26 1     
   17    6    7 1     
   18    6   27 1     
   19    6   28 1     
   20    7    8 1     
   21    8    9 1     
   22    8   29 1     
   23    8   30 1     
   24    9   31 1     
   25    9   32 1     
   26   10   11 am    
   27   10   33 1     
   28   11   12 2     
   29   11   13 am    
   30   13   14 1     
   31   13   34 1     
   32   14   18 1     
   33   14   15 2     
   34   15   16 1     
   35   16   17 2     
   36   16   35 1     
   37   17   18 1     
   38   17   36 1     
   39    7   38 1     
   40    7   39 1     
   41   12   40 1     
   42   12   41 1     
   43   15   42 1     
@<TRIPOS>SUBSTRUCTURE
      1 S1             1
@<TRIPOS>SET
LONE_PAIRS      STATIC     ATOMS    <user>   **** ""
5 38 39 40 41 42
DONOR_HYDROGENS      STATIC     ATOMS    <user>   **** ""
3 37 33 34
ATOM$BLUE        STATIC     ATOMS    COLORGROUP SYSTEM
5 38 39 40 41 42
ATOM$RED        STATIC     ATOMS    COLORGROUP SYSTEM
3 37 33 34
