AV-unprocessed.smi:204|AV-procd|sdf|1598|dock4
  -GOLD-   2262019503D 1   1.00000     0.00000
 Structure written by MMmdl.
 53 56  0  0  0  0  0  0  0  0  1 V2000
  152.1040  145.3141  158.7432 C   0  0  0  0  0  0  0  0  0  0  0  0
  151.8375  144.3727  159.9131 C   0  0  0  0  0  0  0  0  0  0  0  0
  150.6996  144.2565  160.3671 O   0  0  0  0  0  0  0  0  0  0  0  0
  152.8976  143.7070  160.3916 N   0  0  0  0  0  0  0  0  0  0  0  0
  152.8492  142.7664  161.5043 C   0  0  0  0  0  0  0  0  0  0  0  0
  153.1456  141.3276  161.0423 C   0  0  2  0  0  0  0  0  0  0  0  0
  154.6526  140.9911  161.0799 C   0  0  0  0  0  0  0  0  0  0  0  0
  154.9058  139.5645  160.5675 C   0  0  0  0  0  0  0  0  0  0  0  0
  154.2953  139.3649  159.1717 C   0  0  0  0  0  0  0  0  0  0  0  0
  152.8802  139.7209  159.1776 N   0  0  0  0  0  0  0  0  0  0  0  0
  152.2391  139.3672  158.0443 C   0  0  0  0  0  0  0  0  0  0  0  0
  152.3282  138.0702  157.6619 N   0  0  0  0  0  0  0  0  0  0  0  0
  151.7158  137.6607  156.5466 C   0  0  0  0  0  0  0  0  0  0  0  0
  150.9826  138.3719  155.6870 N   0  0  0  0  0  0  0  0  0  0  0  0
  150.8981  139.6792  156.0667 C   0  0  0  0  0  0  0  0  0  0  0  0
  151.4898  140.2577  157.2250 C   0  0  0  0  0  0  0  0  0  0  0  0
  151.1872  141.6124  157.2869 N   0  0  0  0  0  0  0  0  0  0  0  0
  150.4536  141.8218  156.2283 C   0  0  0  0  0  0  0  0  0  0  0  0
  150.2393  140.7184  155.4325 N   0  0  0  0  0  0  0  0  0  0  0  0
  149.4672  140.6771  154.1995 C   0  0  0  0  0  0  0  0  0  0  0  0
  147.9506  140.8882  154.3930 C   0  0  0  0  0  0  0  0  0  0  0  0
  147.1532  140.2277  153.2542 C   0  0  0  0  0  0  0  0  0  0  0  0
  145.8058  140.0124  153.6232 O   0  0  0  0  0  0  0  0  0  0  0  0
  147.4040  140.5949  155.7981 C   0  0  0  0  0  0  0  0  0  0  0  0
  146.7382  141.8734  155.8659 O   0  0  0  0  0  0  0  0  0  0  0  0
  147.5163  142.3201  154.7354 C   0  0  0  0  0  0  0  0  0  0  0  0
  152.5910  141.0810  159.6250 C   0  0  0  0  0  0  0  0  0  0  0  0
  152.8049  146.0963  159.0360 H   0  0  0  0  0  0  0  0  0  0  0  0
  151.1815  145.7900  158.4092 H   0  0  0  0  0  0  0  0  0  0  0  0
  152.5286  144.7655  157.9020 H   0  0  0  0  0  0  0  0  0  0  0  0
  153.7967  143.8621  159.9586 H   0  0  0  0  0  0  0  0  0  0  0  0
  153.5803  143.0743  162.2534 H   0  0  0  0  0  0  0  0  0  0  0  0
  151.8677  142.8120  161.9798 H   0  0  0  0  0  0  0  0  0  0  0  0
  152.6304  140.6456  161.7211 H   0  0  0  0  0  0  0  0  0  0  0  0
  155.2050  141.7025  160.4643 H   0  0  0  0  0  0  0  0  0  0  0  0
  155.0449  141.0857  162.0927 H   0  0  0  0  0  0  0  0  0  0  0  0
  155.9762  139.3600  160.5403 H   0  0  0  0  0  0  0  0  0  0  0  0
  154.4692  138.8453  161.2617 H   0  0  0  0  0  0  0  0  0  0  0  0
  154.8238  139.9823  158.4440 H   0  0  0  0  0  0  0  0  0  0  0  0
  154.4157  138.3264  158.8595 H   0  0  0  0  0  0  0  0  0  0  0  0
  151.8306  136.6136  156.3082 H   0  0  0  0  0  0  0  0  0  0  0  0
  150.0521  142.7966  155.9917 H   0  0  0  0  0  0  0  0  0  0  0  0
  149.8762  141.4307  153.5255 H   0  0  0  0  0  0  0  0  0  0  0  0
  149.6573  139.7199  153.7126 H   0  0  0  0  0  0  0  0  0  0  0  0
  147.1853  140.8221  152.3411 H   0  0  0  0  0  0  0  0  0  0  0  0
  147.5857  139.2601  152.9963 H   0  0  0  0  0  0  0  0  0  0  0  0
  145.2488  140.4132  152.9729 H   0  0  0  0  0  0  0  0  0  0  0  0
  146.7107  139.7540  155.8402 H   0  0  0  0  0  0  0  0  0  0  0  0
  148.1706  140.5057  156.5688 H   0  0  0  0  0  0  0  0  0  0  0  0
  148.3370  142.9709  155.0416 H   0  0  0  0  0  0  0  0  0  0  0  0
  146.9065  142.7981  153.9678 H   0  0  0  0  0  0  0  0  0  0  0  0
  151.5123  141.2450  159.6142 H   0  0  0  0  0  0  0  0  0  0  0  0
  153.0295  141.7974  158.9295 H   0  0  0  0  0  0  0  0  0  0  0  0
  1  2  1  0  0  0  0
  1 28  1  0  0  0  0
  1 29  1  0  0  0  0
  1 30  1  0  0  0  0
  2  3  2  0  0  0  0
  2  4  1  0  0  0  0
  4  5  1  0  0  0  0
  4 31  1  0  0  0  0
  5  6  1  0  0  0  0
  5 32  1  0  0  0  0
  5 33  1  0  0  0  0
  6 27  1  0  0  0  0
  6  7  1  0  0  0  0
  6 34  1  0  0  0  0
  7  8  1  0  0  0  0
  7 35  1  0  0  0  0
  7 36  1  0  0  0  0
  8  9  1  0  0  0  0
  8 37  1  0  0  0  0
  8 38  1  0  0  0  0
  9 10  1  0  0  0  0
  9 39  1  0  0  0  0
  9 40  1  0  0  0  0
 10 11  1  0  0  0  0
 10 27  1  0  0  0  0
 11 16  1  0  0  0  0
 11 12  2  0  0  0  0
 12 13  1  0  0  0  0
 13 14  2  0  0  0  0
 13 41  1  0  0  0  0
 14 15  1  0  0  0  0
 15 19  1  0  0  0  0
 15 16  2  0  0  0  0
 16 17  1  0  0  0  0
 17 18  2  0  0  0  0
 18 19  1  0  0  0  0
 18 42  1  0  0  0  0
 19 20  1  0  0  0  0
 20 21  1  0  0  0  0
 20 43  1  0  0  0  0
 20 44  1  0  0  0  0
 21 26  1  0  0  0  0
 21 22  1  0  0  0  0
 21 24  1  0  0  0  0
 22 23  1  0  0  0  0
 22 45  1  0  0  0  0
 22 46  1  0  0  0  0
 23 47  1  0  0  0  0
 24 25  1  0  0  0  0
 24 48  1  0  0  0  0
 24 49  1  0  0  0  0
 25 26  1  0  0  0  0
 26 50  1  0  0  0  0
 26 51  1  0  0  0  0
 27 52  1  0  0  0  0
 27 53  1  0  0  0  0
M  END
> <s_m_source_file>
AV-unprocessed.smi

> <i_m_source_file_index>
204

> <i_lp_mmshare_version>
43012

> <i_f3d_flags>
0

> <s_epik_input>
W0NIM11DKD1PKVtOSF1bQ0gyXVtDQEBIXTFbQ0gyXVtDSDJdW0NIMl1OKFtDSDJdMSljKG5bY0hdbjIpYyhjMjMpbltjSF1uM1tDSDJdQzQoW0NIMl1bT0hdKVtDSDJdT1tDSDJdNA==

> <s_epik_cmdline>
J2VwaWtfcHl0aG9uJywgJy1waCcsICc3LjAnLCAnLXRuJywgJzgnLCAnLW1hJywgJzIwMCcsICctbWV0YWxfYmluZGluZycsICctaW1hZScsICc8aW5maWxlLm1hZT4nLCAnLW9tYWUnLCAnPG91dGZpbGUubWFlPic=

> <r_lp_tautomer_probability>
1

> <r_epik_Ionization_Penalty>
0.00166599

> <r_epik_Ionization_Penalty_Charging>
0

> <r_epik_Ionization_Penalty_Neutral>
0.00166599

> <r_epik_State_Penalty>
0.000989951

> <r_epik_Charging_Adjusted_Penalty>
0.000989951

> <i_epik_Tot_Q>
0

> <i_epik_Tot_abs_Q>
0

> <r_epik_Metal_State_Penalty>
-0

> <b_epik_Metal_Only>
0

> <s_lp_Force_Field>
OPLS_2005

> <r_lp_Energy>
36.8691

> <b_lp_Chiralities_Consistent>
1

> <s_lp_Variant>
AV-unprocessed.smi:204-1

> <Gold.Version>
5.8.1

> <Gold.Id.Protein>
6NUR|6NUR_protein|mol2

> <Gold.PLP.Fitness>
47.0305

> <Gold.PLP.PLP>
-43.0145

> <Gold.PLP.part.hbond>
-1.3767

> <Gold.PLP.part.metal>
0.0000

> <Gold.PLP.part.buried>
-2.6403

> <Gold.PLP.part.nonpolar>
-39.0883

> <Gold.PLP.part.repulsive>
0.3006

> <Gold.PLP.ligand.clash>
0.0000

> <Gold.PLP.ligand.torsion>
1.2853

> <Gold.PLP.Chemscore.Hbond>
1.0000

> <Gold.PLP.Chemscore.CHOScore>
1.0000

> <Gold.PLP.Chemscore.Metal>
0.0000

> <Gold.Chemscore.Hbonds>
donor molecule, donor type, donor heavy atom, donor atom, acceptor molecule, acceptor atom, score
      L1  H    23    47       P1 10175  0.85
      L1  C    18    42       P1  8028  1.00

> <Gold.PLP.Chemscore.Internal.Correction>
0.5866

> <Gold.Rescore>
     Score         DG    S(hbond)    S(metal)    S(lipo)     H(rot)  DE(clash)    DE(int)     intcor
      7.39     -10.72       0.99        0.00      89.22       3.33       0.02       3.32       ----

> <Gold.Chemscore.Fitness>
7.3850

> <Gold.Chemscore.DG>
-10.7230

> <Gold.Chemscore.ZeroCoef>
-5.4800

> <Gold.Chemscore.Hbond>
0.9937

> <Gold.Chemscore.Metal>
0.0000

> <Gold.Chemscore.Lipo>
89.2206

> <Gold.Chemscore.Internal_Hbond>
0.0000

> <Gold.Chemscore.DEClash>
0.0215

> <Gold.Chemscore.DEInternal>
3.3165

> <Gold.Chemscore.Rot>
3.3261

> <Gold.Chemscore.Internal.Correction>
   9.000000E+99

> <Gold.Chemscore.Hbonds>
donor molecule, donor type, donor heavy atom, donor atom, acceptor molecule, acceptor atom, score
      L1  H    23    47       P1 10175  0.80

> <Gold.Chemscore.Hbond.Weighted>
-3.3190

> <Gold.Chemscore.Metal.Weighted>
-0.0000

> <Gold.Chemscore.Lipo.Weighted>
-10.4388

> <Gold.Chemscore.Internal_Hbond.Weighted>
0.0000

> <Gold.Chemscore.DEClash.Weighted>
0.0215

> <Gold.Chemscore.DEInternal.Weighted>
3.3165

> <Gold.Chemscore.Rot.Weighted>
8.5149

> <Gold.Chemscore.Internal.Correction.Weighted>
   9.000000E+99

> <Gold.Protein.RotatedTorsions>
[ 6907 6896 6895 6894 ] final -116.48 input  -60.11 | X-H torsion
[ 7974 7965 7964 7962 ] final  161.77 input  175.53 | X-H torsion
[ 8008 7997 7996 7995 ] final -174.73 input   59.86 | X-H torsion
[ 10167 10162 10161 10158 ] final   79.23 input  -65.29 | X-H torsion
[ 10718 10713 10712 10709 ] final  138.89 input   66.30 | X-H torsion
[ 10763 10752 10751 10750 ] final  -64.09 input  -60.55 | X-H torsion
[ 11005 11000 10999 10996 ] final -111.00 input  -57.11 | X-H torsion

> <Gold.Protein.ActiveResidues>
 VAL166  LYS551  ARG553  GLY616  TRP617  ASP618  TYR619  PRO620  LYS621  CYS622 
 ASP623  PHE694  ASN695  SER759  ASP760  ASP761  ALA762  ILE779  LEU786  VAL792 
 PHE793  MET794  SER795  GLU796  ALA797  LYS798  CYS799  TRP800  GLU811  SER814 

> <Gold.Protein.RotatedAtoms>
  150.8059  133.8511  159.3205 H   0  0  0  0  0  0  0  0  0  0  0  0  # atno 6907 bound_to 6896
  151.6310  135.1021  160.0131 H   0  0  0  0  0  0  0  0  0  0  0  0  # atno 6908 bound_to 6896
  152.4149  133.6983  159.6465 H   0  0  0  0  0  0  0  0  0  0  0  0  # atno 6909 bound_to 6896
  144.7669  139.7945  143.6311 H   0  0  0  0  0  0  0  0  0  0  0  0  # atno 7974 bound_to 7965
  155.9738  140.1168  157.0788 H   0  0  0  0  0  0  0  0  0  0  0  0  # atno 8008 bound_to 7997
  154.4163  140.1158  156.5410 H   0  0  0  0  0  0  0  0  0  0  0  0  # atno 8009 bound_to 7997
  155.6562  140.3473  155.4768 H   0  0  0  0  0  0  0  0  0  0  0  0  # atno 8010 bound_to 7997
  139.9625  144.5951  150.8059 H   0  0  0  0  0  0  0  0  0  0  0  0  # atno 10167 bound_to 10162
  157.4203  131.1038  151.0360 H   0  0  0  0  0  0  0  0  0  0  0  0  # atno 10718 bound_to 10713
  154.3249  135.6188  153.5524 H   0  0  0  0  0  0  0  0  0  0  0  0  # atno 10763 bound_to 10752
  152.9816  135.5733  154.5028 H   0  0  0  0  0  0  0  0  0  0  0  0  # atno 10764 bound_to 10752
  154.4703  135.2859  155.1624 H   0  0  0  0  0  0  0  0  0  0  0  0  # atno 10765 bound_to 10752
  141.0759  133.9301  157.2390 H   0  0  0  0  0  0  0  0  0  0  0  0  # atno 11005 bound_to 11000
  146.1784  139.4965  142.9882 LP  0  0  0  0  0  0  0  0  0  0  0  0  # atno 17320 bound_to 7965
  145.6442  141.0277  143.1795 LP  0  0  0  0  0  0  0  0  0  0  0  0  # atno 17321 bound_to 7965
  140.7548  143.3035  151.3021 LP  0  0  0  0  0  0  0  0  0  0  0  0  # atno 17342 bound_to 10162
  139.6543  144.0305  152.2648 LP  0  0  0  0  0  0  0  0  0  0  0  0  # atno 17343 bound_to 10162
  157.1293  130.6095  149.5525 LP  0  0  0  0  0  0  0  0  0  0  0  0  # atno 17370 bound_to 10713
  155.9878  130.4919  150.7144 LP  0  0  0  0  0  0  0  0  0  0  0  0  # atno 17371 bound_to 10713
  139.9572  135.0163  156.9160 LP  0  0  0  0  0  0  0  0  0  0  0  0  # atno 17394 bound_to 11000
  140.5574  134.0568  155.7388 LP  0  0  0  0  0  0  0  0  0  0  0  0  # atno 17395 bound_to 11000

$$$$
