AV-unprocessed.smi:1718|AV-procd|sdf|6926|dock5
  -GOLD-   22720 8133D 1   1.00000     0.00000
 Structure written by MMmdl.
 39 40  0  0  0  0  0  0  0  0  2 V2000
  148.9216  136.6903  156.6043 C   0  0  0  0  0  0  0  0  0  0  0  0
  150.0540  136.8302  157.6331 C   0  0  2  0  0  0  0  0  0  0  0  0
  149.5862  136.2812  158.8624 O   0  0  0  0  0  0  0  0  0  0  0  0
  148.3718  136.8341  159.3614 C   0  0  0  0  0  0  0  0  0  0  0  0
  147.8990  136.0229  160.5752 C   0  0  2  0  0  0  0  0  0  0  0  0
  146.3949  136.1122  160.8762 C   0  0  0  0  0  0  0  0  0  0  0  0
  146.3344  136.4286  162.3627 C   0  0  0  0  0  0  0  0  0  0  0  0
  147.7391  136.0997  162.8550 C   0  0  0  0  0  0  0  0  0  0  0  0
  148.5559  136.4652  161.7560 O   0  0  0  0  0  0  0  0  0  0  0  0
  150.4675  138.2991  157.8235 C   0  0  0  0  0  0  0  0  0  0  0  0
  149.8410  139.1840  157.2412 O   0  0  0  0  0  0  0  0  0  0  0  0
  151.4989  138.4980  158.6679 N   0  0  0  0  0  0  0  0  0  0  0  0
  152.1059  139.6941  159.0878 C   0  0  0  0  0  0  0  0  0  0  0  0
  151.6213  140.9448  158.8500 C   0  0  0  0  0  0  0  0  0  0  0  0
  152.3044  142.1469  159.3116 C   0  0  0  0  0  0  0  0  0  0  0  0
  151.7425  143.5489  159.1552 C   0  0  0  0  0  0  0  0  0  0  0  0
  150.5525  143.5244  158.5542 F   0  0  0  0  0  0  0  0  0  0  0  0
  151.5912  144.1129  160.3526 F   0  0  0  0  0  0  0  0  0  0  0  0
  152.5616  144.3153  158.4347 F   0  0  0  0  0  0  0  0  0  0  0  0
  153.4636  141.8581  160.0047 C   0  0  0  0  0  0  0  0  0  0  0  0
  154.0263  140.6563  160.2581 N   0  5  0  0  0  0  0  0  0  0  0  0
  153.3781  139.5390  159.8237 C   0  0  0  0  0  0  0  0  0  0  0  0
  153.8297  138.4118  160.0302 O   0  0  0  0  0  0  0  0  0  0  0  0
  149.2072  137.1119  155.6397 H   0  0  0  0  0  0  0  0  0  0  0  0
  148.0125  137.1937  156.9358 H   0  0  0  0  0  0  0  0  0  0  0  0
  148.6749  135.6406  156.4444 H   0  0  0  0  0  0  0  0  0  0  0  0
  150.9073  136.2479  157.2795 H   0  0  0  0  0  0  0  0  0  0  0  0
  148.5337  137.8716  159.6565 H   0  0  0  0  0  0  0  0  0  0  0  0
  147.5924  136.8300  158.5988 H   0  0  0  0  0  0  0  0  0  0  0  0
  148.1670  134.9750  160.4305 H   0  0  0  0  0  0  0  0  0  0  0  0
  145.8901  136.8842  160.2945 H   0  0  0  0  0  0  0  0  0  0  0  0
  145.9075  135.1618  160.6555 H   0  0  0  0  0  0  0  0  0  0  0  0
  146.1362  137.4919  162.5037 H   0  0  0  0  0  0  0  0  0  0  0  0
  145.5605  135.8676  162.8874 H   0  0  0  0  0  0  0  0  0  0  0  0
  148.0089  136.6472  163.7585 H   0  0  0  0  0  0  0  0  0  0  0  0
  147.8451  135.0317  163.0519 H   0  0  0  0  0  0  0  0  0  0  0  0
  151.8768  137.6706  159.1062 H   0  0  0  0  0  0  0  0  0  0  0  0
  150.7119  141.0927  158.2925 H   0  0  0  0  0  0  0  0  0  0  0  0
  154.0201  142.7233  160.4241 H   0  0  0  0  0  0  0  0  0  0  0  0
  1  2  1  0  0  0  0
  1 24  1  0  0  0  0
  1 25  1  0  0  0  0
  1 26  1  0  0  0  0
  2  3  1  0  0  0  0
  2 10  1  0  0  0  0
  2 27  1  0  0  0  0
  3  4  1  0  0  0  0
  4  5  1  0  0  0  0
  4 28  1  0  0  0  0
  4 29  1  0  0  0  0
  5  9  1  0  0  0  0
  5  6  1  0  0  0  0
  5 30  1  0  0  0  0
  6  7  1  0  0  0  0
  6 31  1  0  0  0  0
  6 32  1  0  0  0  0
  7  8  1  0  0  0  0
  7 33  1  0  0  0  0
  7 34  1  0  0  0  0
  8  9  1  0  0  0  0
  8 35  1  0  0  0  0
  8 36  1  0  0  0  0
 10 11  2  0  0  0  0
 10 12  1  0  0  0  0
 12 13  1  0  0  0  0
 12 37  1  0  0  0  0
 13 22  1  0  0  0  0
 13 14  2  0  0  0  0
 14 15  1  0  0  0  0
 14 38  1  0  0  0  0
 15 16  1  0  0  0  0
 15 20  2  0  0  0  0
 16 17  1  0  0  0  0
 16 18  1  0  0  0  0
 16 19  1  0  0  0  0
 20 21  1  0  0  0  0
 20 39  1  0  0  0  0
 21 22  1  0  0  0  0
 22 23  2  0  0  0  0
M  CHG  1  21  -1
M  END
> <s_m_source_file>
AV-unprocessed.smi

> <i_m_source_file_index>
1718

> <i_lp_mmshare_version>
43012

> <i_f3d_flags>
0

> <s_epik_input>
TzFbQ0gyXVtDSDJdW0NIMl1bQ0BIXTFbQ0gyXU9bQ0BASF0oW0NIM10pQyg9TylbTkhdYzJbY0hdYyhDKEYpKEYpRilbY0hdW25IXWMyPU8=

> <s_epik_cmdline>
J2VwaWtfcHl0aG9uJywgJy1waCcsICc3LjAnLCAnLXRuJywgJzgnLCAnLW1hJywgJzIwMCcsICctbWV0YWxfYmluZGluZycsICctaW1hZScsICc8aW5maWxlLm1hZT4nLCAnLW9tYWUnLCAnPG91dGZpbGUubWFlPic=

> <r_epik_Ionization_Penalty>
2.5466

> <r_epik_Ionization_Penalty_Charging>
0.0575837

> <r_epik_Ionization_Penalty_Neutral>
2.48901

> <r_epik_State_Penalty>
2.6532

> <r_epik_Charging_Adjusted_Penalty>
2.71078

> <i_epik_Tot_Q>
-1

> <i_epik_Tot_abs_Q>
1

> <r_epik_Metal_State_Penalty>
0.516196

> <b_epik_Metal_Only>
0

> <s_lp_Force_Field>
OPLS_2005

> <r_lp_Energy>
37.3435

> <b_lp_Chiralities_Consistent>
1

> <s_lp_Variant>
AV-unprocessed.smi:1718-5

> <Gold.Version>
5.8.1

> <Gold.Id.Protein>
6NUR|6NUR_protein|mol2

> <Gold.PLP.Fitness>
49.7918

> <Gold.PLP.PLP>
-44.4244

> <Gold.PLP.part.hbond>
-2.0000

> <Gold.PLP.part.metal>
0.0000

> <Gold.PLP.part.buried>
-6.8582

> <Gold.PLP.part.nonpolar>
-37.0528

> <Gold.PLP.part.repulsive>
0.1020

> <Gold.PLP.ligand.clash>
0.0000

> <Gold.PLP.ligand.torsion>
0.3823

> <Gold.PLP.Chemscore.Hbond>
2.0000

> <Gold.PLP.Chemscore.CHOScore>
0.0000

> <Gold.PLP.Chemscore.Metal>
0.0000

> <Gold.Chemscore.Hbonds>
donor molecule, donor type, donor heavy atom, donor atom, acceptor molecule, acceptor atom, score
      P1  H  6896  6908       L1     3  0.91
      P1  H  6931  6943       L1     9  1.00

> <Gold.PLP.Chemscore.Internal.Correction>
0.1319

> <Gold.Rescore>
     Score         DG    S(hbond)    S(metal)    S(lipo)     H(rot)  DE(clash)    DE(int)     intcor
     15.04     -16.69       1.79        0.00      84.98       1.85       0.03       1.62       ----

> <Gold.Chemscore.Fitness>
15.0422

> <Gold.Chemscore.DG>
-16.6883

> <Gold.Chemscore.ZeroCoef>
-5.4800

> <Gold.Chemscore.Hbond>
1.7935

> <Gold.Chemscore.Metal>
0.0000

> <Gold.Chemscore.Lipo>
84.9804

> <Gold.Chemscore.Internal_Hbond>
0.0000

> <Gold.Chemscore.DEClash>
0.0270

> <Gold.Chemscore.DEInternal>
1.6192

> <Gold.Chemscore.Rot>
1.8455

> <Gold.Chemscore.Internal.Correction>
   9.000000E+99

> <Gold.Chemscore.Hbonds>
donor molecule, donor type, donor heavy atom, donor atom, acceptor molecule, acceptor atom, score
      P1  H  6896  6908       L1     3  0.79
      P1  H  6931  6943       L1     9  0.68

> <Gold.Chemscore.Hbond.Weighted>
-5.9901

> <Gold.Chemscore.Metal.Weighted>
-0.0000

> <Gold.Chemscore.Lipo.Weighted>
-9.9427

> <Gold.Chemscore.Internal_Hbond.Weighted>
0.0000

> <Gold.Chemscore.DEClash.Weighted>
0.0270

> <Gold.Chemscore.DEInternal.Weighted>
1.6192

> <Gold.Chemscore.Rot.Weighted>
4.7245

> <Gold.Chemscore.Internal.Correction.Weighted>
   9.000000E+99

> <Gold.Protein.RotatedTorsions>
[ 6907 6896 6895 6894 ] final -177.63 input  -60.11 | X-H torsion
[ 7974 7965 7964 7962 ] final   35.52 input  175.53 | X-H torsion
[ 8008 7997 7996 7995 ] final  -72.83 input   59.86 | X-H torsion
[ 10167 10162 10161 10158 ] final  -47.22 input  -65.29 | X-H torsion
[ 10718 10713 10712 10709 ] final  170.53 input   66.30 | X-H torsion
[ 10763 10752 10751 10750 ] final -117.51 input  -60.55 | X-H torsion
[ 11005 11000 10999 10996 ] final -169.57 input  -57.11 | X-H torsion

> <Gold.Protein.ActiveResidues>
 VAL166  LYS551  ARG553  GLY616  TRP617  ASP618  TYR619  PRO620  LYS621  CYS622 
 ASP623  PHE694  ASN695  SER759  ASP760  ASP761  ALA762  ILE779  LEU786  VAL792 
 PHE793  MET794  SER795  GLU796  ALA797  LYS798  CYS799  TRP800  GLU811  SER814 

> <Gold.Protein.RotatedAtoms>
  151.6242  133.3337  159.3094 H   0  0  0  0  0  0  0  0  0  0  0  0  # atno 6907 bound_to 6896
  150.8090  134.7237  159.6682 H   0  0  0  0  0  0  0  0  0  0  0  0  # atno 6908 bound_to 6896
  152.4186  134.6000  160.0049 H   0  0  0  0  0  0  0  0  0  0  0  0  # atno 6909 bound_to 6896
  146.1277  139.6133  142.9247 H   0  0  0  0  0  0  0  0  0  0  0  0  # atno 7974 bound_to 7965
  154.5198  140.0790  156.8150 H   0  0  0  0  0  0  0  0  0  0  0  0  # atno 8008 bound_to 7997
  155.3602  140.3417  155.4222 H   0  0  0  0  0  0  0  0  0  0  0  0  # atno 8009 bound_to 7997
  156.1668  140.1606  156.8504 H   0  0  0  0  0  0  0  0  0  0  0  0  # atno 8010 bound_to 7997
  140.6784  143.2794  151.3896 H   0  0  0  0  0  0  0  0  0  0  0  0  # atno 10167 bound_to 10162
  157.0068  131.0192  151.2815 H   0  0  0  0  0  0  0  0  0  0  0  0  # atno 10718 bound_to 10713
  154.8557  135.4307  154.1991 H   0  0  0  0  0  0  0  0  0  0  0  0  # atno 10763 bound_to 10752
  153.3042  135.6971  153.7181 H   0  0  0  0  0  0  0  0  0  0  0  0  # atno 10764 bound_to 10752
  153.6299  135.3486  155.3012 H   0  0  0  0  0  0  0  0  0  0  0  0  # atno 10765 bound_to 10752
  140.5293  134.5632  157.5070 H   0  0  0  0  0  0  0  0  0  0  0  0  # atno 11005 bound_to 11000
  145.5328  141.0426  143.2373 LP  0  0  0  0  0  0  0  0  0  0  0  0  # atno 17320 bound_to 7965
  144.7659  139.6846  143.7215 LP  0  0  0  0  0  0  0  0  0  0  0  0  # atno 17321 bound_to 7965
  139.6091  144.1136  152.2280 LP  0  0  0  0  0  0  0  0  0  0  0  0  # atno 17342 bound_to 10162
  140.0544  144.5906  150.7311 LP  0  0  0  0  0  0  0  0  0  0  0  0  # atno 17343 bound_to 10162
  157.5350  130.8083  149.7961 LP  0  0  0  0  0  0  0  0  0  0  0  0  # atno 17370 bound_to 10713
  156.0151  130.3817  150.2138 LP  0  0  0  0  0  0  0  0  0  0  0  0  # atno 17371 bound_to 10713
  139.9563  134.7529  156.0335 LP  0  0  0  0  0  0  0  0  0  0  0  0  # atno 17394 bound_to 11000
  141.1290  133.6591  156.3414 LP  0  0  0  0  0  0  0  0  0  0  0  0  # atno 17395 bound_to 11000

$$$$
