AV-unprocessed.smi:81|AV-procd|sdf|792|dock10
  -GOLD-   2262017173D 1   1.00000     0.00000
 Structure written by MMmdl.
 64 67  0  0  0  0  0  0  0  0  2 V2000
  151.6135  137.8140  156.9639 C   0  0  0  0  0  0  0  0  0  0  0  0
  151.5160  138.1557  155.4679 C   0  0  0  0  0  0  0  0  0  0  0  0
  152.4199  139.3493  155.1298 C   0  0  0  0  0  0  0  0  0  0  0  0
  150.0593  138.4472  155.0389 C   0  0  0  0  0  0  0  0  0  0  0  0
  149.2112  138.9993  156.1014 N   0  0  0  0  0  0  0  0  0  0  0  0
  148.3665  138.1221  156.6963 C   0  0  0  0  0  0  0  0  0  0  0  0
  147.1875  137.8750  156.0727 N   0  0  0  0  0  0  0  0  0  0  0  0
  146.2946  137.0501  156.6265 C   0  0  0  0  0  0  0  0  0  0  0  0
  146.3776  136.3842  157.7795 N   0  0  0  0  0  0  0  0  0  0  0  0
  147.5565  136.6377  158.4161 C   0  0  0  0  0  0  0  0  0  0  0  0
  148.5979  137.4897  157.9516 C   0  0  0  0  0  0  0  0  0  0  0  0
  149.6422  137.5005  158.8686 N   0  0  0  0  0  0  0  0  0  0  0  0
  149.2412  136.7026  159.8198 C   0  0  0  0  0  0  0  0  0  0  0  0
  148.0032  136.1338  159.6251 N   0  0  0  0  0  0  0  0  0  0  0  0
  147.3225  135.2104  160.5195 C   0  0  0  0  0  0  0  0  0  0  0  0
  146.6863  135.8975  161.7518 C   0  0  1  0  0  0  0  0  0  0  0  0
  146.0982  134.9012  162.5740 O   0  0  0  0  0  0  0  0  0  0  0  0
  147.7090  136.6562  162.5840 C   0  0  0  0  0  0  0  0  0  0  0  0
  146.8503  137.6862  163.3062 C   0  0  0  0  0  0  0  0  0  0  0  0
  145.8799  138.0700  162.3429 O   0  0  0  0  0  0  0  0  0  0  0  0
  145.6642  137.0103  161.4121 C   0  0  2  0  0  0  0  0  0  0  0  0
  144.1792  136.6108  161.3991 C   0  0  0  0  0  0  0  0  0  0  0  0
  148.7713  140.3953  155.9401 C   0  0  2  0  0  0  0  0  0  0  0  0
  149.7555  141.3253  155.1903 C   0  0  0  0  0  0  0  0  0  0  0  0
  150.7702  142.0405  156.1030 C   0  0  0  0  0  0  0  0  0  0  0  0
  150.0831  142.7339  157.2166 N   0  3  2  0  0  0  0  0  0  0  0  0
  151.0014  143.5795  158.0086 C   0  0  0  0  0  0  0  0  0  0  0  0
  149.3186  141.7833  158.0567 C   0  0  0  0  0  0  0  0  0  0  0  0
  148.2372  141.0627  157.2307 C   0  0  0  0  0  0  0  0  0  0  0  0
  151.2462  138.6338  157.5821 H   0  0  0  0  0  0  0  0  0  0  0  0
  152.6456  137.6151  157.2542 H   0  0  0  0  0  0  0  0  0  0  0  0
  151.0314  136.9259  157.2096 H   0  0  0  0  0  0  0  0  0  0  0  0
  151.8976  137.3051  154.9025 H   0  0  0  0  0  0  0  0  0  0  0  0
  152.1048  140.2482  155.6607 H   0  0  0  0  0  0  0  0  0  0  0  0
  152.3981  139.5686  154.0618 H   0  0  0  0  0  0  0  0  0  0  0  0
  153.4564  139.1481  155.4019 H   0  0  0  0  0  0  0  0  0  0  0  0
  150.0763  139.1490  154.2043 H   0  0  0  0  0  0  0  0  0  0  0  0
  149.6036  137.5390  154.6465 H   0  0  0  0  0  0  0  0  0  0  0  0
  145.3822  136.9050  156.0671 H   0  0  0  0  0  0  0  0  0  0  0  0
  149.8434  136.5001  160.6939 H   0  0  0  0  0  0  0  0  0  0  0  0
  146.5577  134.6842  159.9465 H   0  0  0  0  0  0  0  0  0  0  0  0
  148.0391  134.4518  160.8369 H   0  0  0  0  0  0  0  0  0  0  0  0
  146.4521  134.9870  163.4463 H   0  0  0  0  0  0  0  0  0  0  0  0
  148.2814  136.0223  163.2629 H   0  0  0  0  0  0  0  0  0  0  0  0
  148.4170  137.1738  161.9348 H   0  0  0  0  0  0  0  0  0  0  0  0
  146.3446  137.2364  164.1618 H   0  0  0  0  0  0  0  0  0  0  0  0
  147.4247  138.5423  163.6607 H   0  0  0  0  0  0  0  0  0  0  0  0
  145.9152  137.4323  160.4387 H   0  0  0  0  0  0  0  0  0  0  0  0
  143.9929  135.7915  160.7056 H   0  0  0  0  0  0  0  0  0  0  0  0
  143.5603  137.4531  161.0890 H   0  0  0  0  0  0  0  0  0  0  0  0
  143.8373  136.3008  162.3867 H   0  0  0  0  0  0  0  0  0  0  0  0
  147.9115  140.3057  155.2747 H   0  0  0  0  0  0  0  0  0  0  0  0
  150.2656  140.7864  154.3913 H   0  0  0  0  0  0  0  0  0  0  0  0
  149.1683  142.0960  154.6897 H   0  0  0  0  0  0  0  0  0  0  0  0
  151.5036  141.3450  156.5099 H   0  0  0  0  0  0  0  0  0  0  0  0
  151.3291  142.7669  155.5117 H   0  0  0  0  0  0  0  0  0  0  0  0
  151.7698  142.9766  158.4916 H   0  0  0  0  0  0  0  0  0  0  0  0
  150.4563  144.1234  158.7808 H   0  0  0  0  0  0  0  0  0  0  0  0
  151.4947  144.3141  157.3712 H   0  0  0  0  0  0  0  0  0  0  0  0
  150.0045  141.0742  158.5165 H   0  0  0  0  0  0  0  0  0  0  0  0
  148.8405  142.3243  158.8741 H   0  0  0  0  0  0  0  0  0  0  0  0
  147.4952  141.8073  156.9401 H   0  0  0  0  0  0  0  0  0  0  0  0
  147.7007  140.3471  157.8536 H   0  0  0  0  0  0  0  0  0  0  0  0
  149.4093  143.3595  156.7984 H   0  0  0  0  0  0  0  0  0  0  0  0
  1  2  1  0  0  0  0
  1 30  1  0  0  0  0
  1 31  1  0  0  0  0
  1 32  1  0  0  0  0
  2  3  1  0  0  0  0
  2  4  1  0  0  0  0
  2 33  1  0  0  0  0
  3 34  1  0  0  0  0
  3 35  1  0  0  0  0
  3 36  1  0  0  0  0
  4  5  1  0  0  0  0
  4 37  1  0  0  0  0
  4 38  1  0  0  0  0
  5  6  1  0  0  0  0
  5 23  1  0  0  0  0
  6 11  1  0  0  0  0
  6  7  2  0  0  0  0
  7  8  1  0  0  0  0
  8  9  2  0  0  0  0
  8 39  1  0  0  0  0
  9 10  1  0  0  0  0
 10 14  1  0  0  0  0
 10 11  2  0  0  0  0
 11 12  1  0  0  0  0
 12 13  2  0  0  0  0
 13 14  1  0  0  0  0
 13 40  1  0  0  0  0
 14 15  1  0  0  0  0
 15 16  1  0  0  0  0
 15 41  1  0  0  0  0
 15 42  1  0  0  0  0
 16 21  1  0  0  0  0
 16 17  1  0  0  0  0
 16 18  1  0  0  0  0
 17 43  1  0  0  0  0
 18 19  1  0  0  0  0
 18 44  1  0  0  0  0
 18 45  1  0  0  0  0
 19 20  1  0  0  0  0
 19 46  1  0  0  0  0
 19 47  1  0  0  0  0
 20 21  1  0  0  0  0
 21 22  1  0  0  0  0
 21 48  1  0  0  0  0
 22 49  1  0  0  0  0
 22 50  1  0  0  0  0
 22 51  1  0  0  0  0
 23 29  1  0  0  0  0
 23 24  1  0  0  0  0
 23 52  1  0  0  0  0
 24 25  1  0  0  0  0
 24 53  1  0  0  0  0
 24 54  1  0  0  0  0
 25 26  1  0  0  0  0
 25 55  1  0  0  0  0
 25 56  1  0  0  0  0
 26 27  1  0  0  0  0
 26 28  1  0  0  0  0
 26 64  1  0  0  0  0
 27 57  1  0  0  0  0
 27 58  1  0  0  0  0
 27 59  1  0  0  0  0
 28 29  1  0  0  0  0
 28 60  1  0  0  0  0
 28 61  1  0  0  0  0
 29 62  1  0  0  0  0
 29 63  1  0  0  0  0
M  CHG  1  26   1
M  END
> <s_m_source_file>
AV-unprocessed.smi

> <i_m_source_file_index>
81

> <i_lp_mmshare_version>
43012

> <i_f3d_flags>
0

> <s_epik_input>
W0NIMl0xW0NIMl1OKFtDSDNdKVtDSDJdW0NIMl1bQ0hdMU4oW0NIMl1bQ0hdKFtDSDNdKVtDSDNdKWMobltjSF1uMiljKGMyMyluW2NIXW4zW0NIMl1bQ0BAXTQoW09IXSlbQ0gyXVtDSDJdT1tDQEhdNFtDSDNd

> <s_epik_cmdline>
J2VwaWtfcHl0aG9uJywgJy1waCcsICc3LjAnLCAnLXRuJywgJzgnLCAnLW1hJywgJzIwMCcsICctbWV0YWxfYmluZGluZycsICctaW1hZScsICc8aW5maWxlLm1hZT4nLCAnLW9tYWUnLCAnPG91dGZpbGUubWFlPic=

> <r_lp_tautomer_probability>
1

> <r_epik_Ionization_Penalty>
0.00272708

> <r_epik_Ionization_Penalty_Charging>
0.00158983

> <r_epik_Ionization_Penalty_Neutral>
0.00113725

> <r_epik_State_Penalty>
-0

> <r_epik_Charging_Adjusted_Penalty>
0.00158983

> <i_epik_Tot_Q>
1

> <i_epik_Tot_abs_Q>
1

> <r_epik_Metal_State_Penalty>
-0

> <b_epik_Metal_Only>
0

> <s_lp_Force_Field>
OPLS_2005

> <r_lp_Energy>
48.65

> <b_lp_Chiralities_Consistent>
1

> <s_lp_Variant>
AV-unprocessed.smi:81-7

> <Gold.Version>
5.8.1

> <Gold.Id.Protein>
6NUR|6NUR_protein|mol2

> <Gold.PLP.Fitness>
42.0339

> <Gold.PLP.PLP>
-39.1661

> <Gold.PLP.part.hbond>
-2.0000

> <Gold.PLP.part.metal>
0.0000

> <Gold.PLP.part.buried>
-5.8237

> <Gold.PLP.part.nonpolar>
-30.9607

> <Gold.PLP.part.repulsive>
0.0149

> <Gold.PLP.ligand.clash>
0.0000

> <Gold.PLP.ligand.torsion>
2.5003

> <Gold.PLP.Chemscore.Hbond>
2.1516

> <Gold.PLP.Chemscore.CHOScore>
0.0000

> <Gold.PLP.Chemscore.Metal>
0.0000

> <Gold.Chemscore.Hbonds>
donor molecule, donor type, donor heavy atom, donor atom, acceptor molecule, acceptor atom, score
      L1  H    26    64       P1  8028  2.00
      P1  H  6934  6947       L1    20  0.20

> <Gold.PLP.Chemscore.Internal.Correction>
1.4136

> <Gold.Rescore>
     Score         DG    S(hbond)    S(metal)    S(lipo)     H(rot)  DE(clash)    DE(int)     intcor
     10.95     -15.46       0.99        0.00     107.72       2.32       0.72       3.79       ----

> <Gold.Chemscore.Fitness>
10.9478

> <Gold.Chemscore.DG>
-15.4574

> <Gold.Chemscore.ZeroCoef>
-5.4800

> <Gold.Chemscore.Hbond>
0.9890

> <Gold.Chemscore.Metal>
0.0000

> <Gold.Chemscore.Lipo>
107.7242

> <Gold.Chemscore.Internal_Hbond>
0.0000

> <Gold.Chemscore.DEClash>
0.7243

> <Gold.Chemscore.DEInternal>
3.7853

> <Gold.Chemscore.Rot>
2.3163

> <Gold.Chemscore.Internal.Correction>
   9.000000E+99

> <Gold.Chemscore.Hbonds>
donor molecule, donor type, donor heavy atom, donor atom, acceptor molecule, acceptor atom, score
      L1  H    26    64       P1  8028  0.96

> <Gold.Chemscore.Hbond.Weighted>
-3.3034

> <Gold.Chemscore.Metal.Weighted>
-0.0000

> <Gold.Chemscore.Lipo.Weighted>
-12.6037

> <Gold.Chemscore.Internal_Hbond.Weighted>
0.0000

> <Gold.Chemscore.DEClash.Weighted>
0.7243

> <Gold.Chemscore.DEInternal.Weighted>
3.7853

> <Gold.Chemscore.Rot.Weighted>
5.9297

> <Gold.Chemscore.Internal.Correction.Weighted>
   9.000000E+99

> <Gold.Protein.RotatedTorsions>
[ 6907 6896 6895 6894 ] final -159.46 input  -60.11 | X-H torsion
[ 7974 7965 7964 7962 ] final   -3.03 input  175.53 | X-H torsion
[ 8008 7997 7996 7995 ] final  165.32 input   59.86 | X-H torsion
[ 10167 10162 10161 10158 ] final -140.17 input  -65.29 | X-H torsion
[ 10718 10713 10712 10709 ] final  126.42 input   66.30 | X-H torsion
[ 10763 10752 10751 10750 ] final  -20.17 input  -60.55 | X-H torsion
[ 11005 11000 10999 10996 ] final  -40.26 input  -57.11 | X-H torsion

> <Gold.Protein.ActiveResidues>
 VAL166  LYS551  ARG553  GLY616  TRP617  ASP618  TYR619  PRO620  LYS621  CYS622 
 ASP623  PHE694  ASN695  SER759  ASP760  ASP761  ALA762  ILE779  LEU786  VAL792 
 PHE793  MET794  SER795  GLU796  ALA797  LYS798  CYS799  TRP800  GLU811  SER814 

> <Gold.Protein.RotatedAtoms>
  151.3339  133.3989  159.2664 H   0  0  0  0  0  0  0  0  0  0  0  0  # atno 6907 bound_to 6896
  150.9933  134.9263  159.7922 H   0  0  0  0  0  0  0  0  0  0  0  0  # atno 6908 bound_to 6896
  152.5254  134.3304  159.9233 H   0  0  0  0  0  0  0  0  0  0  0  0  # atno 6909 bound_to 6896
  146.2396  140.1660  142.8332 H   0  0  0  0  0  0  0  0  0  0  0  0  # atno 7974 bound_to 7965
  156.1810  140.1673  156.8274 H   0  0  0  0  0  0  0  0  0  0  0  0  # atno 8008 bound_to 7997
  154.5360  140.0746  156.8461 H   0  0  0  0  0  0  0  0  0  0  0  0  # atno 8009 bound_to 7997
  155.3310  140.3379  155.4242 H   0  0  0  0  0  0  0  0  0  0  0  0  # atno 8010 bound_to 7997
  139.8307  143.7450  152.2666 H   0  0  0  0  0  0  0  0  0  0  0  0  # atno 10167 bound_to 10162
  157.5421  131.1096  150.8842 H   0  0  0  0  0  0  0  0  0  0  0  0  # atno 10718 bound_to 10713
  153.6162  135.6994  153.5328 H   0  0  0  0  0  0  0  0  0  0  0  0  # atno 10763 bound_to 10752
  153.2975  135.4138  155.1222 H   0  0  0  0  0  0  0  0  0  0  0  0  # atno 10764 bound_to 10752
  154.8553  135.3640  154.5702 H   0  0  0  0  0  0  0  0  0  0  0  0  # atno 10765 bound_to 10752
  141.0162  133.6884  156.2298 H   0  0  0  0  0  0  0  0  0  0  0  0  # atno 11005 bound_to 11000
  145.0050  140.8665  143.5259 LP  0  0  0  0  0  0  0  0  0  0  0  0  # atno 17320 bound_to 7965
  145.1685  139.2417  143.5354 LP  0  0  0  0  0  0  0  0  0  0  0  0  # atno 17321 bound_to 7965
  139.7657  144.7492  151.0298 LP  0  0  0  0  0  0  0  0  0  0  0  0  # atno 17342 bound_to 10162
  140.7807  143.4701  151.0158 LP  0  0  0  0  0  0  0  0  0  0  0  0  # atno 17343 bound_to 10162
  156.9392  130.5378  149.5280 LP  0  0  0  0  0  0  0  0  0  0  0  0  # atno 17370 bound_to 10713
  156.0505  130.5575  150.8978 LP  0  0  0  0  0  0  0  0  0  0  0  0  # atno 17371 bound_to 10713
  140.6651  134.4927  157.5585 LP  0  0  0  0  0  0  0  0  0  0  0  0  # atno 17394 bound_to 11000
  139.9118  134.8328  156.1501 LP  0  0  0  0  0  0  0  0  0  0  0  0  # atno 17395 bound_to 11000

$$$$
