#       Name:                AV-unprocessed.smi:2890
#       Creating user name   scv26
#       Creation time:       Fri Mar 27 15:58:33 2020


#       File generated by GOLD software.
#

@<TRIPOS>MOLECULE
AV-unprocessed.smi:2890
    44    45     1
SMALL
NO_CHARGES


@<TRIPOS>ATOM
      1 ****        -1.6386   2.1083   3.1103 C.3            1 S1                 0.0000
      2 ****        -1.3252   1.9547   1.6181 C.3            1 S1                 0.0000
      3 ****        -1.8810   0.6755   1.0546 C.2            1 S1                 0.0000
      4 ****        -3.1492   0.6269   0.6821 N.2            1 S1                 0.0000
      5 ****        -3.3615  -0.6720   0.2115 O.3            1 S1                 0.0000
      6 ****        -2.1997  -1.3650   0.3233 C.2            1 S1                 0.0000
      7 ****        -2.2237  -2.7867  -0.1321 C.3            1 S1                 0.0000
      8 ****        -3.0435  -3.6980   0.7866 C.3            1 S1                 0.0000
      9 ****        -1.2207  -0.5720   0.8573 C.2            1 S1                 0.0000
     10 ****         0.2121  -0.9267   1.1651 C.3            1 S1                 0.0000
     11 ****         1.0551  -0.8290  -0.1062 C.2            1 S1                 0.0000
     12 ****         1.4648  -1.8522  -0.6531 O.2            1 S1                 0.0000
     13 ****         1.3036   0.4072  -0.5665 N.am           1 S1                 0.0000
     14 ****         2.0492   0.7216  -1.7810 C.3            1 S1                 0.0000
     15 ****         1.4048   0.2287  -3.0142 C.1            1 S1                 0.0000
     16 ****         0.8991  -0.1572  -3.9805 N.1            1 S1                 0.0000
     17 ****         2.4536   2.2030  -1.8502 C.3            1 S1                 0.0000
     18 ****         3.8103   1.7393  -2.3971 C.3            1 S1                 0.0000
     19 ****         3.5530   0.4055  -1.6842 C.3            1 S1                 0.0000
     20 ****        -1.2261   3.0390   3.5000 H              1 S1                 0.0000
     21 ****        -1.2121   1.2871   3.6873 H              1 S1                 0.0000
     22 ****        -2.7142   2.1208   3.2884 H              1 S1                 0.0000
     23 ****        -1.7304   2.8091   1.0746 H              1 S1                 0.0000
     24 ****        -0.2460   1.9929   1.4697 H              1 S1                 0.0000
     25 ****        -2.6296  -2.8325  -1.1429 H              1 S1                 0.0000
     26 ****        -1.2042  -3.1668  -0.2000 H              1 S1                 0.0000
     27 ****        -3.0351  -4.7257   0.4229 H              1 S1                 0.0000
     28 ****        -4.0828  -3.3722   0.8403 H              1 S1                 0.0000
     29 ****        -2.6394  -3.6994   1.7993 H              1 S1                 0.0000
     30 ****         0.6363  -0.2690   1.9243 H              1 S1                 0.0000
     31 ****         0.2891  -1.9375   1.5677 H              1 S1                 0.0000
     32 ****         0.9243   1.1880  -0.0511 H              1 S1                 0.0000
     33 ****         1.8671   2.8086  -2.5421 H              1 S1                 0.0000
     34 ****         2.5384   2.6800  -0.8717 H              1 S1                 0.0000
     35 ****         3.8257   1.6476  -3.4846 H              1 S1                 0.0000
     36 ****         4.6699   2.2976  -2.0247 H              1 S1                 0.0000
     37 ****         3.9339   0.3966  -0.6612 H              1 S1                 0.0000
     38 ****         3.8727  -0.4771  -2.2393 H              1 S1                 0.0000
     39 ****        -3.8191   1.3679   0.7278 LP             1 S1                 0.0000
     40 ****        -3.6454  -0.6415  -0.7469 LP             1 S1                 0.0000
     41 ****        -4.0731  -1.1161   0.7559 LP             1 S1                 0.0000
     42 ****         1.2463  -2.7479  -0.2659 LP             1 S1                 0.0000
     43 ****         2.0163  -1.7881  -1.4848 LP             1 S1                 0.0000
     44 ****         0.4620  -0.4907  -4.8158 LP             1 S1                 0.0000
@<TRIPOS>BOND
    1    1    2 1     
    2    1   20 1     
    3    1   21 1     
    4    1   22 1     
    5    2    3 1     
    6    2   23 1     
    7    2   24 1     
    8    3    9 1     
    9    3    4 2     
   10    4    5 1     
   11    5    6 1     
   12    6    7 1     
   13    6    9 2     
   14    7    8 1     
   15    7   25 1     
   16    7   26 1     
   17    8   27 1     
   18    8   28 1     
   19    8   29 1     
   20    9   10 1     
   21   10   11 1     
   22   10   30 1     
   23   10   31 1     
   24   11   12 2     
   25   11   13 am    
   26   13   14 1     
   27   13   32 1     
   28   14   19 1     
   29   14   15 1     
   30   14   17 1     
   31   15   16 3     
   32   17   18 1     
   33   17   33 1     
   34   17   34 1     
   35   18   19 1     
   36   18   35 1     
   37   18   36 1     
   38   19   37 1     
   39   19   38 1     
   40    4   39 1     
   41    5   40 1     
   42    5   41 1     
   43   12   42 1     
   44   12   43 1     
   45   16   44 1     
@<TRIPOS>SUBSTRUCTURE
      1 S1             1
@<TRIPOS>SET
LONE_PAIRS      STATIC     ATOMS    <user>   **** ""
6 39 40 41 42 43 44
DONOR_HYDROGENS      STATIC     ATOMS    <user>   **** ""
1 32
ATOM$BLUE        STATIC     ATOMS    COLORGROUP SYSTEM
6 39 40 41 42 43 44
ATOM$RED        STATIC     ATOMS    COLORGROUP SYSTEM
1 32
