AV-unprocessed.smi:40|AV-procd|sdf|371|dock1
  -GOLD-   2262016213D 1   1.00000     0.00000
 Structure written by MMmdl.
 47 48  0  0  0  0  0  0  0  0  1 V2000
  153.7052  136.6344  163.7293 C   0  0  0  0  0  0  0  0  0  0  0  0
  155.0058  137.3617  164.0876 C   0  0  0  0  0  0  0  0  0  0  0  0
  155.1540  138.7018  163.3529 C   0  0  0  0  0  0  0  0  0  0  0  0
  155.3323  138.5271  161.8390 C   0  0  0  0  0  0  0  0  0  0  0  0
  155.1859  139.8539  161.0787 C   0  0  0  0  0  0  0  0  0  0  0  0
  153.8457  140.0366  160.6431 O   0  0  0  0  0  0  0  0  0  0  0  0
  153.4808  139.7461  159.3761 C   0  0  0  0  0  0  0  0  0  0  0  0
  154.0604  138.9264  158.6643 O   0  0  0  0  0  0  0  0  0  0  0  0
  152.3038  140.4953  158.9660 N   0  0  0  0  0  0  0  0  0  0  0  0
  151.6381  140.4836  157.7846 C   0  0  0  0  0  0  0  0  0  0  0  0
  151.6612  139.4531  156.9548 N   0  0  0  0  0  0  0  0  0  0  0  0
  150.9827  139.4093  155.7674 C   0  0  0  0  0  0  0  0  0  0  0  0
  151.0988  138.4404  155.0186 O   0  0  0  0  0  0  0  0  0  0  0  0
  150.1627  140.5162  155.4377 N   0  0  0  0  0  0  0  0  0  0  0  0
  149.4296  140.5050  154.1053 C   0  0  2  0  0  0  0  0  0  0  0  0
  148.7791  141.7317  153.9152 O   0  0  0  0  0  0  0  0  0  0  0  0
  147.3733  141.6055  154.1119 C   0  0  2  0  0  0  0  0  0  0  0  0
  146.9996  141.8861  155.5813 C   0  0  0  0  0  0  0  0  0  0  0  0
  147.0934  140.1829  153.6231 C   0  0  2  0  0  0  0  0  0  0  0  0
  145.9165  139.6348  154.1847 O   0  0  0  0  0  0  0  0  0  0  0  0
  148.3356  139.4093  154.0469 C   0  0  1  0  0  0  0  0  0  0  0  0
  148.6276  138.4236  153.0766 O   0  0  0  0  0  0  0  0  0  0  0  0
  150.1533  141.6211  156.2805 C   0  0  0  0  0  0  0  0  0  0  0  0
  150.8424  141.6421  157.4419 C   0  0  0  0  0  0  0  0  0  0  0  0
  150.7924  142.7154  158.2499 F   0  0  0  0  0  0  0  0  0  0  0  0
  150.2190  140.3905  153.3601 H   0  0  0  0  0  0  0  0  0  0  0  0
  146.8601  142.3317  153.4807 H   0  0  0  0  0  0  0  0  0  0  0  0
  147.0053  140.1976  152.5351 H   0  0  0  0  0  0  0  0  0  0  0  0
  148.1958  138.9608  155.0321 H   0  0  0  0  0  0  0  0  0  0  0  0
  153.6283  135.6882  164.2654 H   0  0  0  0  0  0  0  0  0  0  0  0
  153.6568  136.4173  162.6620 H   0  0  0  0  0  0  0  0  0  0  0  0
  152.8340  137.2363  163.9898 H   0  0  0  0  0  0  0  0  0  0  0  0
  155.0373  137.5294  165.1648 H   0  0  0  0  0  0  0  0  0  0  0  0
  155.8538  136.7180  163.8503 H   0  0  0  0  0  0  0  0  0  0  0  0
  154.2757  139.3198  163.5439 H   0  0  0  0  0  0  0  0  0  0  0  0
  156.0083  139.2454  163.7584 H   0  0  0  0  0  0  0  0  0  0  0  0
  156.3153  138.1016  161.6338 H   0  0  0  0  0  0  0  0  0  0  0  0
  154.6003  137.8084  161.4691 H   0  0  0  0  0  0  0  0  0  0  0  0
  155.5166  140.6936  161.6918 H   0  0  0  0  0  0  0  0  0  0  0  0
  155.8273  139.8421  160.1973 H   0  0  0  0  0  0  0  0  0  0  0  0
  151.9517  141.1225  159.6748 H   0  0  0  0  0  0  0  0  0  0  0  0
  145.9199  141.8466  155.7272 H   0  0  0  0  0  0  0  0  0  0  0  0
  147.3276  142.8814  155.8811 H   0  0  0  0  0  0  0  0  0  0  0  0
  147.4496  141.1640  156.2626 H   0  0  0  0  0  0  0  0  0  0  0  0
  145.1911  139.8409  153.6146 H   0  0  0  0  0  0  0  0  0  0  0  0
  149.0145  138.8516  152.3271 H   0  0  0  0  0  0  0  0  0  0  0  0
  149.5861  142.5050  156.0330 H   0  0  0  0  0  0  0  0  0  0  0  0
  1  2  1  0  0  0  0
  1 30  1  0  0  0  0
  1 31  1  0  0  0  0
  1 32  1  0  0  0  0
  2  3  1  0  0  0  0
  2 33  1  0  0  0  0
  2 34  1  0  0  0  0
  3  4  1  0  0  0  0
  3 35  1  0  0  0  0
  3 36  1  0  0  0  0
  4  5  1  0  0  0  0
  4 37  1  0  0  0  0
  4 38  1  0  0  0  0
  5  6  1  0  0  0  0
  5 39  1  0  0  0  0
  5 40  1  0  0  0  0
  6  7  1  0  0  0  0
  7  8  2  0  0  0  0
  7  9  1  0  0  0  0
  9 10  1  0  0  0  0
  9 41  1  0  0  0  0
 10 24  1  0  0  0  0
 10 11  2  0  0  0  0
 11 12  1  0  0  0  0
 12 13  2  0  0  0  0
 12 14  1  0  0  0  0
 14 15  1  0  0  0  0
 14 23  1  0  0  0  0
 15 26  1  0  0  0  0
 15 21  1  0  0  0  0
 15 16  1  0  0  0  0
 16 17  1  0  0  0  0
 17 27  1  0  0  0  0
 17 18  1  0  0  0  0
 17 19  1  0  0  0  0
 18 42  1  0  0  0  0
 18 43  1  0  0  0  0
 18 44  1  0  0  0  0
 19 28  1  0  0  0  0
 19 20  1  0  0  0  0
 19 21  1  0  0  0  0
 20 45  1  0  0  0  0
 21 29  1  0  0  0  0
 21 22  1  0  0  0  0
 22 46  1  0  0  0  0
 23 24  2  0  0  0  0
 23 47  1  0  0  0  0
 24 25  1  0  0  0  0
M  END
> <s_m_source_file>
AV-unprocessed.smi

> <i_m_source_file_index>
40

> <i_lp_mmshare_version>
43012

> <i_f3d_flags>
0

> <s_epik_input>
W0NIM11bQ0gyXVtDSDJdW0NIMl1bQ0gyXU9DKD1PKVtOSF1jMW5jKD1PKW4oW2NIXWMxRilbQ0BASF0yT1tDQEhdKFtDSDNdKVtDQEBIXShbT0hdKVtDQEhdMltPSF0=

> <s_epik_cmdline>
J2VwaWtfcHl0aG9uJywgJy1waCcsICc3LjAnLCAnLXRuJywgJzgnLCAnLW1hJywgJzIwMCcsICctbWV0YWxfYmluZGluZycsICctaW1hZScsICc8aW5maWxlLm1hZT4nLCAnLW9tYWUnLCAnPG91dGZpbGUubWFlPic=

> <r_lp_tautomer_probability>
1

> <r_epik_Ionization_Penalty>
2.29506e-06

> <r_epik_Ionization_Penalty_Charging>
8.26867e-09

> <r_epik_Ionization_Penalty_Neutral>
2.2868e-06

> <r_epik_State_Penalty>
-0

> <r_epik_Charging_Adjusted_Penalty>
8.26867e-09

> <i_epik_Tot_Q>
0

> <i_epik_Tot_abs_Q>
0

> <r_epik_Metal_State_Penalty>
-0

> <b_epik_Metal_Only>
0

> <s_epik_Chemistry_Notes>
This compound has an ester and may undergo hydrolysis at high or low pH. This compound contains an acetal/aminal-like group ( X-CH(R)-Y where X, Y are N, S, or O) that may be acid/base labile, releasing an aldehyde.

> <s_lp_Force_Field>
OPLS_2005

> <r_lp_Energy>
32.726

> <b_lp_Chiralities_Consistent>
1

> <s_lp_Variant>
AV-unprocessed.smi:40-5

> <Gold.Version>
5.8.1

> <Gold.Id.Protein>
6NUR|6NUR_protein|mol2

> <Gold.PLP.Fitness>
53.7612

> <Gold.PLP.PLP>
-42.0101

> <Gold.PLP.part.hbond>
-4.9813

> <Gold.PLP.part.metal>
0.0000

> <Gold.PLP.part.buried>
-2.7056

> <Gold.PLP.part.nonpolar>
-34.7534

> <Gold.PLP.part.repulsive>
0.4180

> <Gold.PLP.ligand.clash>
0.0000

> <Gold.PLP.ligand.torsion>
1.0492

> <Gold.PLP.Chemscore.Hbond>
3.5760

> <Gold.PLP.Chemscore.CHOScore>
1.0000

> <Gold.PLP.Chemscore.Metal>
0.0000

> <Gold.Chemscore.Hbonds>
donor molecule, donor type, donor heavy atom, donor atom, acceptor molecule, acceptor atom, score
      L1  H    20    45       P1 10175  1.00
      L1  H    22    46       P1  7957  1.00
      P1  H  7997  8009       L1     8  1.00
      P1  H  8011  8017       L1    16  0.58
      L1  C    23    47       P1  8028  1.00

> <Gold.PLP.Chemscore.Internal.Correction>
0.1215

> <Gold.Rescore>
     Score         DG    S(hbond)    S(metal)    S(lipo)     H(rot)  DE(clash)    DE(int)     intcor
     11.85     -13.99       2.96        0.00      69.02       3.70       0.06       2.08       ----

> <Gold.Chemscore.Fitness>
11.8500

> <Gold.Chemscore.DG>
-13.9946

> <Gold.Chemscore.ZeroCoef>
-5.4800

> <Gold.Chemscore.Hbond>
2.9641

> <Gold.Chemscore.Metal>
0.0000

> <Gold.Chemscore.Lipo>
69.0201

> <Gold.Chemscore.Internal_Hbond>
0.0000

> <Gold.Chemscore.DEClash>
0.0618

> <Gold.Chemscore.DEInternal>
2.0827

> <Gold.Chemscore.Rot>
3.6957

> <Gold.Chemscore.Internal.Correction>
   9.000000E+99

> <Gold.Chemscore.Hbonds>
donor molecule, donor type, donor heavy atom, donor atom, acceptor molecule, acceptor atom, score
      L1  H    20    45       P1 10175  0.97
      L1  H    22    46       P1  7957  0.93
      P1  H  7997  8009       L1     8  0.37
      P1  H  8011  8017       L1    16  0.17

> <Gold.Chemscore.Hbond.Weighted>
-9.9002

> <Gold.Chemscore.Metal.Weighted>
-0.0000

> <Gold.Chemscore.Lipo.Weighted>
-8.0754

> <Gold.Chemscore.Internal_Hbond.Weighted>
0.0000

> <Gold.Chemscore.DEClash.Weighted>
0.0618

> <Gold.Chemscore.DEInternal.Weighted>
2.0827

> <Gold.Chemscore.Rot.Weighted>
9.4610

> <Gold.Chemscore.Internal.Correction.Weighted>
   9.000000E+99

> <Gold.Protein.RotatedTorsions>
[ 6907 6896 6895 6894 ] final  -51.62 input  -60.11 | X-H torsion
[ 7974 7965 7964 7962 ] final  -99.26 input  175.53 | X-H torsion
[ 8008 7997 7996 7995 ] final  152.75 input   59.86 | X-H torsion
[ 10167 10162 10161 10158 ] final -149.08 input  -65.29 | X-H torsion
[ 10718 10713 10712 10709 ] final  -57.57 input   66.30 | X-H torsion
[ 10763 10752 10751 10750 ] final  -37.28 input  -60.55 | X-H torsion
[ 11005 11000 10999 10996 ] final   -6.40 input  -57.11 | X-H torsion

> <Gold.Protein.ActiveResidues>
 VAL166  LYS551  ARG553  GLY616  TRP617  ASP618  TYR619  PRO620  LYS621  CYS622 
 ASP623  PHE694  ASN695  SER759  ASP760  ASP761  ALA762  ILE779  LEU786  VAL792 
 PHE793  MET794  SER795  GLU796  ALA797  LYS798  CYS799  TRP800  GLU811  SER814 

> <Gold.Protein.RotatedAtoms>
  150.8594  134.7942  159.7070 H   0  0  0  0  0  0  0  0  0  0  0  0  # atno 6907 bound_to 6896
  152.4636  134.5125  159.9768 H   0  0  0  0  0  0  0  0  0  0  0  0  # atno 6908 bound_to 6896
  151.5231  133.3424  159.2940 H   0  0  0  0  0  0  0  0  0  0  0  0  # atno 6909 bound_to 6896
  145.3099  140.9398  143.2775 H   0  0  0  0  0  0  0  0  0  0  0  0  # atno 7974 bound_to 7965
  156.2614  140.2012  156.6382 H   0  0  0  0  0  0  0  0  0  0  0  0  # atno 8008 bound_to 7997
  154.6630  140.0558  157.0107 H   0  0  0  0  0  0  0  0  0  0  0  0  # atno 8009 bound_to 7997
  155.1248  140.3228  155.4491 H   0  0  0  0  0  0  0  0  0  0  0  0  # atno 8010 bound_to 7997
  139.7474  143.8570  152.2578 H   0  0  0  0  0  0  0  0  0  0  0  0  # atno 10167 bound_to 10162
  156.1201  130.4167  150.0458 H   0  0  0  0  0  0  0  0  0  0  0  0  # atno 10718 bound_to 10713
  153.8936  135.6809  153.4759 H   0  0  0  0  0  0  0  0  0  0  0  0  # atno 10763 bound_to 10752
  153.1167  135.4758  154.9125 H   0  0  0  0  0  0  0  0  0  0  0  0  # atno 10764 bound_to 10752
  154.7610  135.3211  154.8332 H   0  0  0  0  0  0  0  0  0  0  0  0  # atno 10765 bound_to 10752
  140.7016  133.8985  155.8687 H   0  0  0  0  0  0  0  0  0  0  0  0  # atno 11005 bound_to 11000
  144.9024  139.4632  143.6626 LP  0  0  0  0  0  0  0  0  0  0  0  0  # atno 17320 bound_to 7965
  146.3121  139.7786  142.9011 LP  0  0  0  0  0  0  0  0  0  0  0  0  # atno 17321 bound_to 7965
  139.8538  144.7151  150.9182 LP  0  0  0  0  0  0  0  0  0  0  0  0  # atno 17342 bound_to 10162
  140.7794  143.3876  151.1366 LP  0  0  0  0  0  0  0  0  0  0  0  0  # atno 17343 bound_to 10162
  156.8399  130.9422  151.3632 LP  0  0  0  0  0  0  0  0  0  0  0  0  # atno 17370 bound_to 10713
  157.6384  130.8786  149.9402 LP  0  0  0  0  0  0  0  0  0  0  0  0  # atno 17371 bound_to 10713
  141.0159  134.0956  157.4173 LP  0  0  0  0  0  0  0  0  0  0  0  0  # atno 17394 bound_to 11000
  139.8895  135.0105  156.6684 LP  0  0  0  0  0  0  0  0  0  0  0  0  # atno 17395 bound_to 11000

$$$$
