AV-unprocessed.smi:3316|AV-procd|sdf|12757|dock4
  -GOLD-   2272019 93D 1   1.00000     0.00000
 Structure written by MMmdl.
 41 43  0  0  0  0  0  0  0  0  2 V2000
  146.4133  137.9400  154.6219 C   0  0  0  0  0  0  0  0  0  0  0  0
  146.6658  139.0159  153.5539 C   0  0  2  0  0  0  0  0  0  0  0  0
  146.4952  138.4495  152.1311 C   0  0  0  0  0  0  0  0  0  0  0  0
  145.1149  137.9799  151.8932 N   0  3  0  0  0  0  0  0  0  0  0  0
  144.8592  136.6050  152.3637 C   0  0  0  0  0  0  0  0  0  0  0  0
  145.4107  135.5650  151.3715 C   0  0  2  0  0  0  0  0  0  0  0  0
  144.3045  134.7969  150.5799 C   0  0  0  0  0  0  0  0  0  0  0  0
  144.6261  133.3135  150.8739 C   0  0  1  0  0  0  0  0  0  0  0  0
  145.9713  132.9917  150.2582 C   0  0  0  0  0  0  0  0  0  0  0  0
  146.8975  133.6363  150.9703 C   0  0  0  0  0  0  0  0  0  0  0  0
  146.1755  134.4036  152.0589 C   0  0  2  0  0  0  0  0  0  0  0  0
  145.0277  133.4268  152.3470 C   0  0  0  0  0  0  0  0  0  0  0  0
  148.0234  139.6802  153.7495 C   0  0  0  0  0  0  0  0  0  0  0  0
  148.1198  141.0786  153.9103 C   0  0  0  0  0  0  0  0  0  0  0  0
  149.3953  141.6520  154.0844 C   0  0  0  0  0  0  0  0  0  0  0  0
  150.5360  140.9303  154.1023 N   0  0  0  0  0  0  0  0  0  0  0  0
  150.4396  139.5925  153.9495 C   0  0  0  0  0  0  0  0  0  0  0  0
  149.2137  138.9210  153.7684 C   0  0  0  0  0  0  0  0  0  0  0  0
  146.4803  138.3622  155.6252 H   0  0  0  0  0  0  0  0  0  0  0  0
  147.1365  137.1267  154.5549 H   0  0  0  0  0  0  0  0  0  0  0  0
  145.4186  137.5068  154.5146 H   0  0  0  0  0  0  0  0  0  0  0  0
  145.9015  139.7824  153.6924 H   0  0  0  0  0  0  0  0  0  0  0  0
  146.7539  139.2023  151.3852 H   0  0  0  0  0  0  0  0  0  0  0  0
  147.1782  137.6117  151.9853 H   0  0  0  0  0  0  0  0  0  0  0  0
  144.4764  138.6034  152.3662 H   0  0  0  0  0  0  0  0  0  0  0  0
  145.3400  136.4749  153.3341 H   0  0  0  0  0  0  0  0  0  0  0  0
  143.7886  136.4682  152.5179 H   0  0  0  0  0  0  0  0  0  0  0  0
  146.0838  136.0749  150.6794 H   0  0  0  0  0  0  0  0  0  0  0  0
  143.3055  135.0472  150.9398 H   0  0  0  0  0  0  0  0  0  0  0  0
  144.3354  135.0168  149.5120 H   0  0  0  0  0  0  0  0  0  0  0  0
  143.8367  132.5934  150.6572 H   0  0  0  0  0  0  0  0  0  0  0  0
  146.1189  132.3749  149.3840 H   0  0  0  0  0  0  0  0  0  0  0  0
  147.9638  133.6611  150.8005 H   0  0  0  0  0  0  0  0  0  0  0  0
  146.7971  134.6664  152.9154 H   0  0  0  0  0  0  0  0  0  0  0  0
  144.2431  133.8290  152.9897 H   0  0  0  0  0  0  0  0  0  0  0  0
  145.3708  132.4798  152.7690 H   0  0  0  0  0  0  0  0  0  0  0  0
  147.2396  141.7048  153.9046 H   0  0  0  0  0  0  0  0  0  0  0  0
  149.5020  142.7192  154.2110 H   0  0  0  0  0  0  0  0  0  0  0  0
  151.3671  139.0399  153.9706 H   0  0  0  0  0  0  0  0  0  0  0  0
  149.1949  137.8474  153.6508 H   0  0  0  0  0  0  0  0  0  0  0  0
  144.9291  138.0202  150.9009 H   0  0  0  0  0  0  0  0  0  0  0  0
  1  2  1  0  0  0  0
  1 19  1  0  0  0  0
  1 20  1  0  0  0  0
  1 21  1  0  0  0  0
  2  3  1  0  0  0  0
  2 13  1  0  0  0  0
  2 22  1  0  0  0  0
  3  4  1  0  0  0  0
  3 23  1  0  0  0  0
  3 24  1  0  0  0  0
  4  5  1  0  0  0  0
  4 25  1  0  0  0  0
  4 41  1  0  0  0  0
  5  6  1  0  0  0  0
  5 26  1  0  0  0  0
  5 27  1  0  0  0  0
  6 11  1  0  0  0  0
  6  7  1  0  0  0  0
  6 28  1  0  0  0  0
  7  8  1  0  0  0  0
  7 29  1  0  0  0  0
  7 30  1  0  0  0  0
  8 12  1  0  0  0  0
  8  9  1  0  0  0  0
  8 31  1  0  0  0  0
  9 10  2  0  0  0  0
  9 32  1  0  0  0  0
 10 11  1  0  0  0  0
 10 33  1  0  0  0  0
 11 12  1  0  0  0  0
 11 34  1  0  0  0  0
 12 35  1  0  0  0  0
 12 36  1  0  0  0  0
 13 18  1  0  0  0  0
 13 14  2  0  0  0  0
 14 15  1  0  0  0  0
 14 37  1  0  0  0  0
 15 16  2  0  0  0  0
 15 38  1  0  0  0  0
 16 17  1  0  0  0  0
 17 18  2  0  0  0  0
 17 39  1  0  0  0  0
 18 40  1  0  0  0  0
M  CHG  1   4   1
M  END
> <s_m_source_file>
AV-unprocessed.smi

> <i_m_source_file_index>
3316

> <i_lp_mmshare_version>
43012

> <i_f3d_flags>
0

> <s_epik_input>
W2NIXTFbY0hdbltjSF1bY0hdYzFbQ0BIXShbQ0gzXSlbQ0gyXVtOSF1bQ0gyXVtDQEhdKFtDSDJdW0NASF0yMylbQ0BIXShbQ0gyXTMpW0NIXT1bQ0hdMg==

> <s_epik_cmdline>
J2VwaWtfcHl0aG9uJywgJy1waCcsICc3LjAnLCAnLXRuJywgJzgnLCAnLW1hJywgJzIwMCcsICctbWV0YWxfYmluZGluZycsICctaW1hZScsICc8aW5maWxlLm1hZT4nLCAnLW9tYWUnLCAnPG91dGZpbGUubWFlPic=

> <r_lp_tautomer_probability>
1

> <r_epik_Ionization_Penalty>
0.00280406

> <r_epik_Ionization_Penalty_Charging>
0.000446589

> <r_epik_Ionization_Penalty_Neutral>
0.00235747

> <r_epik_State_Penalty>
-0

> <r_epik_Charging_Adjusted_Penalty>
0.000446589

> <i_epik_Tot_Q>
1

> <i_epik_Tot_abs_Q>
1

> <r_epik_Metal_State_Penalty>
-0

> <b_epik_Metal_Only>
0

> <s_lp_Force_Field>
OPLS_2005

> <r_lp_Energy>
65.5539

> <b_lp_Chiralities_Consistent>
1

> <s_lp_Variant>
AV-unprocessed.smi:3316-5

> <Gold.Version>
5.8.1

> <Gold.Id.Protein>
6NUR|6NUR_protein|mol2

> <Gold.PLP.Fitness>
48.6950

> <Gold.PLP.PLP>
-37.1151

> <Gold.PLP.part.hbond>
-2.3623

> <Gold.PLP.part.metal>
0.0000

> <Gold.PLP.part.buried>
-1.9200

> <Gold.PLP.part.nonpolar>
-31.9722

> <Gold.PLP.part.repulsive>
0.1586

> <Gold.PLP.ligand.clash>
0.0000

> <Gold.PLP.ligand.torsion>
0.9838

> <Gold.PLP.Chemscore.Hbond>
3.4720

> <Gold.PLP.Chemscore.CHOScore>
1.0000

> <Gold.PLP.Chemscore.Metal>
0.0000

> <Gold.Chemscore.Hbonds>
donor molecule, donor type, donor heavy atom, donor atom, acceptor molecule, acceptor atom, score
      L1  H     4    25       P1 10175  1.89
      L1  H     4    41       P1 10171  0.85
      P1  H  7989  7998       L1    16  0.07
      L1  C    15    38       P1  8028  1.00

> <Gold.PLP.Chemscore.Internal.Correction>
0.1316

> <Gold.Rescore>
     Score         DG    S(hbond)    S(metal)    S(lipo)     H(rot)  DE(clash)    DE(int)     intcor
     18.72     -20.00       2.04        0.00      95.71       1.36       0.10       1.19       ----

> <Gold.Chemscore.Fitness>
18.7174

> <Gold.Chemscore.DG>
-19.9999

> <Gold.Chemscore.ZeroCoef>
-5.4800

> <Gold.Chemscore.Hbond>
2.0400

> <Gold.Chemscore.Metal>
0.0000

> <Gold.Chemscore.Lipo>
95.7112

> <Gold.Chemscore.Internal_Hbond>
0.0000

> <Gold.Chemscore.DEClash>
0.0952

> <Gold.Chemscore.DEInternal>
1.1872

> <Gold.Chemscore.Rot>
1.3640

> <Gold.Chemscore.Internal.Correction>
   9.000000E+99

> <Gold.Chemscore.Hbonds>
donor molecule, donor type, donor heavy atom, donor atom, acceptor molecule, acceptor atom, score
      L1  H     4    25       P1 10175  0.87
      L1  H     4    41       P1 10171  0.84

> <Gold.Chemscore.Hbond.Weighted>
-6.8136

> <Gold.Chemscore.Metal.Weighted>
-0.0000

> <Gold.Chemscore.Lipo.Weighted>
-11.1982

> <Gold.Chemscore.Internal_Hbond.Weighted>
0.0000

> <Gold.Chemscore.DEClash.Weighted>
0.0952

> <Gold.Chemscore.DEInternal.Weighted>
1.1872

> <Gold.Chemscore.Rot.Weighted>
3.4919

> <Gold.Chemscore.Internal.Correction.Weighted>
   9.000000E+99

> <Gold.Protein.RotatedTorsions>
[ 6907 6896 6895 6894 ] final  141.08 input  -60.11 | X-H torsion
[ 7974 7965 7964 7962 ] final -103.27 input  175.53 | X-H torsion
[ 8008 7997 7996 7995 ] final   39.02 input   59.86 | X-H torsion
[ 10167 10162 10161 10158 ] final   57.34 input  -65.29 | X-H torsion
[ 10718 10713 10712 10709 ] final   75.49 input   66.30 | X-H torsion
[ 10763 10752 10751 10750 ] final -171.33 input  -60.55 | X-H torsion
[ 11005 11000 10999 10996 ] final   70.73 input  -57.11 | X-H torsion

> <Gold.Protein.ActiveResidues>
 VAL166  LYS551  ARG553  GLY616  TRP617  ASP618  TYR619  PRO620  LYS621  CYS622 
 ASP623  PHE694  ASN695  SER759  ASP760  ASP761  ALA762  ILE779  LEU786  VAL792 
 PHE793  MET794  SER795  GLU796  ALA797  LYS798  CYS799  TRP800  GLU811  SER814 

> <Gold.Protein.RotatedAtoms>
  152.2353  133.5091  159.5238 H   0  0  0  0  0  0  0  0  0  0  0  0  # atno 6907 bound_to 6896
  150.7048  134.1162  159.4027 H   0  0  0  0  0  0  0  0  0  0  0  0  # atno 6908 bound_to 6896
  151.9083  135.0349  160.0563 H   0  0  0  0  0  0  0  0  0  0  0  0  # atno 6909 bound_to 6896
  145.2581  140.9260  143.3057 H   0  0  0  0  0  0  0  0  0  0  0  0  # atno 7974 bound_to 7965
  155.2298  140.3337  155.4305 H   0  0  0  0  0  0  0  0  0  0  0  0  # atno 8008 bound_to 7997
  156.2300  140.1846  156.7314 H   0  0  0  0  0  0  0  0  0  0  0  0  # atno 8009 bound_to 7997
  154.5961  140.0630  156.9291 H   0  0  0  0  0  0  0  0  0  0  0  0  # atno 8010 bound_to 7997
  140.1991  144.4007  150.6537 H   0  0  0  0  0  0  0  0  0  0  0  0  # atno 10167 bound_to 10162
  157.6636  130.9729  150.1361 H   0  0  0  0  0  0  0  0  0  0  0  0  # atno 10718 bound_to 10713
  154.6317  135.2887  155.0208 H   0  0  0  0  0  0  0  0  0  0  0  0  # atno 10763 bound_to 10752
  154.1367  135.6525  153.4937 H   0  0  0  0  0  0  0  0  0  0  0  0  # atno 10764 bound_to 10752
  153.0283  135.5323  154.7147 H   0  0  0  0  0  0  0  0  0  0  0  0  # atno 10765 bound_to 10752
  139.9582  134.7107  156.0706 H   0  0  0  0  0  0  0  0  0  0  0  0  # atno 11005 bound_to 11000
  144.9443  139.4154  143.6433 LP  0  0  0  0  0  0  0  0  0  0  0  0  # atno 17320 bound_to 7965
  146.3283  139.8419  142.8889 LP  0  0  0  0  0  0  0  0  0  0  0  0  # atno 17321 bound_to 7965
  140.6403  143.2202  151.6305 LP  0  0  0  0  0  0  0  0  0  0  0  0  # atno 17342 bound_to 10162
  139.5224  144.3162  152.0950 LP  0  0  0  0  0  0  0  0  0  0  0  0  # atno 17343 bound_to 10162
  156.2196  130.3673  149.8572 LP  0  0  0  0  0  0  0  0  0  0  0  0  # atno 17370 bound_to 10713
  156.6429  130.8712  151.3517 LP  0  0  0  0  0  0  0  0  0  0  0  0  # atno 17371 bound_to 10713
  141.1256  133.6600  156.3327 LP  0  0  0  0  0  0  0  0  0  0  0  0  # atno 17394 bound_to 11000
  140.5561  134.5980  157.5421 LP  0  0  0  0  0  0  0  0  0  0  0  0  # atno 17395 bound_to 11000

$$$$
