AV-unprocessed.smi:2546|AV-procd|sdf|9998|dock1
  -GOLD-   2272014 43D 1   1.00000     0.00000
 Structure written by MMmdl.
 17 17  0  0  0  0  0  0  0  0  2 V2000
  143.5174  133.6433  147.9899 N   0  3  0  0  0  0  0  0  0  0  0  0
  143.9750  132.4000  148.6326 C   0  0  0  0  0  0  0  0  0  0  0  0
  143.7453  132.4356  150.1499 C   0  0  0  0  0  0  0  0  0  0  0  0
  144.4240  133.5951  150.8029 C   0  0  0  0  0  0  0  0  0  0  0  0
  145.2189  134.4310  150.1318 N   0  0  0  0  0  0  0  0  0  0  0  0
  145.6982  135.3656  150.9790 N   0  0  0  0  0  0  0  0  0  0  0  0
  145.1388  135.0096  152.1338 C   0  0  0  0  0  0  0  0  0  0  0  0
  144.3325  133.9064  152.0911 N   0  0  0  0  0  0  0  0  0  0  0  0
  145.4513  134.4079  149.1490 H   0  0  0  0  0  0  0  0  0  0  0  0
  143.0635  133.4220  147.1151 H   0  0  0  0  0  0  0  0  0  0  0  0
  144.3087  134.2460  147.8146 H   0  0  0  0  0  0  0  0  0  0  0  0
  143.4393  131.5608  148.1873 H   0  0  0  0  0  0  0  0  0  0  0  0
  145.0338  132.2605  148.4121 H   0  0  0  0  0  0  0  0  0  0  0  0
  142.6772  132.4822  150.3678 H   0  0  0  0  0  0  0  0  0  0  0  0
  144.1164  131.5175  150.6075 H   0  0  0  0  0  0  0  0  0  0  0  0
  145.3201  135.5637  153.0431 H   0  0  0  0  0  0  0  0  0  0  0  0
  142.8624  134.1151  148.5972 H   0  0  0  0  0  0  0  0  0  0  0  0
  1  2  1  0  0  0  0
  1 10  1  0  0  0  0
  1 11  1  0  0  0  0
  1 17  1  0  0  0  0
  2  3  1  0  0  0  0
  2 12  1  0  0  0  0
  2 13  1  0  0  0  0
  3 14  1  0  0  0  0
  3 15  1  0  0  0  0
  3  4  1  0  0  0  0
  4  8  2  0  0  0  0
  4  5  1  0  0  0  0
  5  9  1  0  0  0  0
  5  6  1  0  0  0  0
  6  7  2  0  0  0  0
  7  8  1  0  0  0  0
  7 16  1  0  0  0  0
M  CHG  1   1   1
M  END
> <s_m_source_file>
AV-unprocessed.smi

> <i_m_source_file_index>
2546

> <i_lp_mmshare_version>
43012

> <i_f3d_flags>
0

> <s_epik_input>
W05IMl1bQ0gyXVtDSDJdYzFubltjSF1bbkhdMQ==

> <s_epik_cmdline>
J2VwaWtfcHl0aG9uJywgJy1waCcsICc3LjAnLCAnLXRuJywgJzgnLCAnLW1hJywgJzIwMCcsICctbWV0YWxfYmluZGluZycsICctaW1hZScsICc8aW5maWxlLm1hZT4nLCAnLW9tYWUnLCAnPG91dGZpbGUubWFlPic=

> <r_epik_Ionization_Penalty>
0.0150954

> <r_epik_Ionization_Penalty_Charging>
0.00465044

> <r_epik_Ionization_Penalty_Neutral>
0.0104449

> <r_epik_State_Penalty>
0.423825

> <r_epik_Charging_Adjusted_Penalty>
0.428475

> <i_epik_Tot_Q>
1

> <i_epik_Tot_abs_Q>
1

> <r_epik_Metal_State_Penalty>
0.652581

> <b_epik_Metal_Only>
0

> <s_lp_Force_Field>
OPLS_2005

> <r_lp_Energy>
2.95298

> <b_lp_Chiralities_Consistent>
1

> <s_lp_Variant>
AV-unprocessed.smi:2546-2

> <Gold.Version>
5.8.1

> <Gold.Id.Protein>
6NUR|6NUR_protein|mol2

> <Gold.PLP.Fitness>
31.4367

> <Gold.PLP.PLP>
-16.4780

> <Gold.PLP.part.hbond>
-4.0000

> <Gold.PLP.part.metal>
0.0000

> <Gold.PLP.part.buried>
-3.8909

> <Gold.PLP.part.nonpolar>
-9.8942

> <Gold.PLP.part.repulsive>
0.6114

> <Gold.PLP.ligand.clash>
0.0000

> <Gold.PLP.ligand.torsion>
0.0209

> <Gold.PLP.Chemscore.Hbond>
5.0000

> <Gold.PLP.Chemscore.CHOScore>
0.0000

> <Gold.PLP.Chemscore.Metal>
0.0000

> <Gold.Chemscore.Hbonds>
donor molecule, donor type, donor heavy atom, donor atom, acceptor molecule, acceptor atom, score
      L1  H     1    10       P1 10195  0.99
      L1  H     1    11       P1  7921  1.00
      L1  H     1    17       P1 10186  1.69
      L1  H     5     9       P1  7921  1.00

> <Gold.PLP.Chemscore.Internal.Correction>
0.0005

> <Gold.Rescore>
     Score         DG    S(hbond)    S(metal)    S(lipo)     H(rot)  DE(clash)    DE(int)     intcor
     15.86     -17.20       3.91        0.00      25.04       1.67       0.08       1.25       ----

> <Gold.Chemscore.Fitness>
15.8640

> <Gold.Chemscore.DG>
-17.1951

> <Gold.Chemscore.ZeroCoef>
-5.4800

> <Gold.Chemscore.Hbond>
3.9086

> <Gold.Chemscore.Metal>
0.0000

> <Gold.Chemscore.Lipo>
25.0445

> <Gold.Chemscore.Internal_Hbond>
0.0000

> <Gold.Chemscore.DEClash>
0.0811

> <Gold.Chemscore.DEInternal>
1.2501

> <Gold.Chemscore.Rot>
1.6679

> <Gold.Chemscore.Internal.Correction>
   9.000000E+99

> <Gold.Chemscore.Hbonds>
donor molecule, donor type, donor heavy atom, donor atom, acceptor molecule, acceptor atom, score
      L1  H     1    10       P1 10195  0.92
      L1  H     1    11       P1  7921  0.99
      L1  H     1    17       P1 10186  0.82
      L1  H     5     9       P1  7921  0.97

> <Gold.Chemscore.Hbond.Weighted>
-13.0546

> <Gold.Chemscore.Metal.Weighted>
-0.0000

> <Gold.Chemscore.Lipo.Weighted>
-2.9302

> <Gold.Chemscore.Internal_Hbond.Weighted>
0.0000

> <Gold.Chemscore.DEClash.Weighted>
0.0811

> <Gold.Chemscore.DEInternal.Weighted>
1.2501

> <Gold.Chemscore.Rot.Weighted>
4.2697

> <Gold.Chemscore.Internal.Correction.Weighted>
   9.000000E+99

> <Gold.Protein.RotatedTorsions>
[ 6907 6896 6895 6894 ] final -121.07 input  -60.11 | X-H torsion
[ 7974 7965 7964 7962 ] final  -15.01 input  175.53 | X-H torsion
[ 8008 7997 7996 7995 ] final  -85.87 input   59.86 | X-H torsion
[ 10167 10162 10161 10158 ] final  -47.57 input  -65.29 | X-H torsion
[ 10718 10713 10712 10709 ] final   92.60 input   66.30 | X-H torsion
[ 10763 10752 10751 10750 ] final -137.03 input  -60.55 | X-H torsion
[ 11005 11000 10999 10996 ] final   83.61 input  -57.11 | X-H torsion

> <Gold.Protein.ActiveResidues>
 VAL166  LYS551  ARG553  GLY616  TRP617  ASP618  TYR619  PRO620  LYS621  CYS622 
 ASP623  PHE694  ASN695  SER759  ASP760  ASP761  ALA762  ILE779  LEU786  VAL792 
 PHE793  MET794  SER795  GLU796  ALA797  LYS798  CYS799  TRP800  GLU811  SER814 

> <Gold.Protein.RotatedAtoms>
  150.8450  133.7876  159.3046 H   0  0  0  0  0  0  0  0  0  0  0  0  # atno 6907 bound_to 6896
  151.5566  135.1065  159.9972 H   0  0  0  0  0  0  0  0  0  0  0  0  # atno 6908 bound_to 6896
  152.4505  133.7578  159.6786 H   0  0  0  0  0  0  0  0  0  0  0  0  # atno 6909 bound_to 6896
  146.2050  140.3432  142.8410 H   0  0  0  0  0  0  0  0  0  0  0  0  # atno 7974 bound_to 7965
  154.6456  140.0586  156.9896 H   0  0  0  0  0  0  0  0  0  0  0  0  # atno 8008 bound_to 7997
  155.1450  140.3269  155.4425 H   0  0  0  0  0  0  0  0  0  0  0  0  # atno 8009 bound_to 7997
  156.2552  140.1957  156.6564 H   0  0  0  0  0  0  0  0  0  0  0  0  # atno 8010 bound_to 7997
  140.6769  143.2778  151.3946 H   0  0  0  0  0  0  0  0  0  0  0  0  # atno 10167 bound_to 10162
  157.6958  131.0449  150.3907 H   0  0  0  0  0  0  0  0  0  0  0  0  # atno 10718 bound_to 10713
  154.8671  135.3654  154.5157 H   0  0  0  0  0  0  0  0  0  0  0  0  # atno 10763 bound_to 10752
  153.5789  135.7019  153.5476 H   0  0  0  0  0  0  0  0  0  0  0  0  # atno 10764 bound_to 10752
  153.3474  135.4081  155.1582 H   0  0  0  0  0  0  0  0  0  0  0  0  # atno 10765 bound_to 10752
  139.9026  134.8157  156.2332 H   0  0  0  0  0  0  0  0  0  0  0  0  # atno 11005 bound_to 11000
  144.8771  140.7351  143.6010 LP  0  0  0  0  0  0  0  0  0  0  0  0  # atno 17320 bound_to 7965
  145.3351  139.1748  143.4516 LP  0  0  0  0  0  0  0  0  0  0  0  0  # atno 17321 bound_to 7965
  139.6067  144.1183  152.2256 LP  0  0  0  0  0  0  0  0  0  0  0  0  # atno 17342 bound_to 10162
  140.0584  144.5876  150.7282 LP  0  0  0  0  0  0  0  0  0  0  0  0  # atno 17343 bound_to 10162
  156.4310  130.3972  149.6760 LP  0  0  0  0  0  0  0  0  0  0  0  0  # atno 17370 bound_to 10713
  156.3977  130.7659  151.2665 LP  0  0  0  0  0  0  0  0  0  0  0  0  # atno 17371 bound_to 10713
  141.0332  133.6977  156.1466 LP  0  0  0  0  0  0  0  0  0  0  0  0  # atno 17394 bound_to 11000
  140.7066  134.4507  157.5584 LP  0  0  0  0  0  0  0  0  0  0  0  0  # atno 17395 bound_to 11000

$$$$
