#       Name:                AV-unprocessed.smi:1240
#       Creating user name   scv26
#       Creation time:       Fri Mar 27 04:29:40 2020


#       File generated by GOLD software.
#

@<TRIPOS>MOLECULE
AV-unprocessed.smi:1240
    55    57     1
SMALL
NO_CHARGES


@<TRIPOS>ATOM
      1 ****        -0.8514   0.9145  -2.1056 O.2            1 S1                 0.0000
      2 ****        -1.4261   1.1462  -1.0423 C.2            1 S1                 0.0000
      3 ****        -1.4730   0.2763  -0.0236 N.am           1 S1                 0.0000
      4 ****        -0.8567  -1.0472  -0.0241 C.3            1 S1                 0.0000
      5 ****         0.6814  -0.9981   0.2033 C.3            1 S1                 0.0000
      6 ****         1.0760  -0.1469   1.4482 C.3            1 S1                 0.0000
      7 ****         0.3396  -0.4090   2.7644 C.3            1 S1                 0.0000
      8 ****         1.4456  -0.3686   3.8218 C.3            1 S1                 0.0000
      9 ****         2.5263   0.2971   3.1859 O.3            1 S1                 0.0000
     10 ****         2.5567  -0.1633   1.8453 C.3            1 S1                 0.0000
     11 ****         1.3660  -2.3014   0.0984 N.3            1 S1                 0.0000
     12 ****         0.9771  -3.3001   1.0922 C.3            1 S1                 0.0000
     13 ****         1.8079  -4.5888   0.9615 C.3            1 S1                 0.0000
     14 ****         1.7079  -5.0996  -0.3636 O.3            1 S1                 0.0000
     15 ****         2.1457  -4.1652  -1.3445 C.3            1 S1                 0.0000
     16 ****         1.3021  -2.8841  -1.2401 C.3            1 S1                 0.0000
     17 ****        -2.0612   2.2906  -0.7356 N.am           1 S1                 0.0000
     18 ****        -2.2364   3.4490  -1.5409 C.ar           1 S1                 0.0000
     19 ****        -2.5181   4.6666  -0.8821 C.ar           1 S1                 0.0000
     20 ****        -2.7141   5.8390  -1.6401 C.ar           1 S1                 0.0000
     21 ****        -2.6422   5.7885  -2.9874 N.pl3          1 S1                 1.0000
     22 ****        -2.3904   4.6466  -3.6624 C.ar           1 S1                 0.0000
     23 ****        -2.1853   3.4423  -2.9584 C.ar           1 S1                 0.0000
     24 ****        -1.9621   0.5476   0.8168 H              1 S1                 0.0000
     25 ****        -1.3429  -1.6342   0.7542 H              1 S1                 0.0000
     26 ****        -1.1028  -1.5379  -0.9657 H              1 S1                 0.0000
     27 ****         1.0733  -0.4122  -0.6294 H              1 S1                 0.0000
     28 ****         0.8599   0.8928   1.1974 H              1 S1                 0.0000
     29 ****        -0.3921   0.3798   2.9426 H              1 S1                 0.0000
     30 ****        -0.1987  -1.3547   2.7958 H              1 S1                 0.0000
     31 ****         1.1387   0.1459   4.7325 H              1 S1                 0.0000
     32 ****         1.7568  -1.3792   4.0903 H              1 S1                 0.0000
     33 ****         2.9859  -1.1657   1.8303 H              1 S1                 0.0000
     34 ****         3.1682   0.4805   1.2128 H              1 S1                 0.0000
     35 ****         1.1219  -2.9115   2.0976 H              1 S1                 0.0000
     36 ****        -0.0806  -3.5430   0.9883 H              1 S1                 0.0000
     37 ****         2.8542  -4.3973   1.2043 H              1 S1                 0.0000
     38 ****         1.4502  -5.3427   1.6628 H              1 S1                 0.0000
     39 ****         3.2051  -3.9451  -1.2033 H              1 S1                 0.0000
     40 ****         2.0392  -4.6103  -2.3337 H              1 S1                 0.0000
     41 ****         0.2723  -3.1290  -1.4992 H              1 S1                 0.0000
     42 ****         1.6504  -2.1615  -1.9789 H              1 S1                 0.0000
     43 ****        -2.4113   2.3619   0.2085 H              1 S1                 0.0000
     44 ****        -2.5776   4.7073   0.1959 H              1 S1                 0.0000
     45 ****        -2.9262   6.8080  -1.2123 H              1 S1                 0.0000
     46 ****        -2.3664   4.7279  -4.7392 H              1 S1                 0.0000
     47 ****        -2.0055   2.5382  -3.5193 H              1 S1                 0.0000
     48 ****        -2.7887   6.6480  -3.5178 H              1 S1                 0.0000
     49 ****        -0.3873   0.0394  -2.2428 LP             1 S1                 0.0000
     50 ****        -0.8485   1.6014  -2.8324 LP             1 S1                 0.0000
     51 ****         3.3862   0.0756   3.6459 LP             1 S1                 0.0000
     52 ****         2.3822   1.2865   3.2073 LP             1 S1                 0.0000
     53 ****         2.3145  -2.0574   0.3006 LP             1 S1                 0.0000
     54 ****         0.7526  -5.3317  -0.5462 LP             1 S1                 0.0000
     55 ****         2.2703  -5.9236  -0.4326 LP             1 S1                 0.0000
@<TRIPOS>BOND
    1    1    2 2     
    2    2    3 am    
    3    2   17 am    
    4    3    4 1     
    5    3   24 1     
    6    4    5 1     
    7    4   25 1     
    8    4   26 1     
    9    5    6 1     
   10    5   11 1     
   11    5   27 1     
   12    6   10 1     
   13    6    7 1     
   14    6   28 1     
   15    7    8 1     
   16    7   29 1     
   17    7   30 1     
   18    8    9 1     
   19    8   31 1     
   20    8   32 1     
   21    9   10 1     
   22   10   33 1     
   23   10   34 1     
   24   11   16 1     
   25   11   12 1     
   26   12   13 1     
   27   12   35 1     
   28   12   36 1     
   29   13   14 1     
   30   13   37 1     
   31   13   38 1     
   32   14   15 1     
   33   15   16 1     
   34   15   39 1     
   35   15   40 1     
   36   16   41 1     
   37   16   42 1     
   38   17   18 1     
   39   17   43 1     
   40   18   23 ar    
   41   18   19 ar    
   42   19   20 ar    
   43   19   44 1     
   44   20   21 ar    
   45   20   45 1     
   46   21   22 ar    
   47   21   48 1     
   48   22   23 ar    
   49   22   46 1     
   50   23   47 1     
   51    1   49 1     
   52    1   50 1     
   53    9   51 1     
   54    9   52 1     
   55   11   53 1     
   56   14   54 1     
   57   14   55 1     
@<TRIPOS>SUBSTRUCTURE
      1 S1             1
@<TRIPOS>SET
LONE_PAIRS      STATIC     ATOMS    <user>   **** ""
7 49 50 51 52 53 54 55
DONOR_HYDROGENS      STATIC     ATOMS    <user>   **** ""
3 24 43 48
ATOM$BLUE        STATIC     ATOMS    COLORGROUP SYSTEM
7 49 50 51 52 53 54 55
ATOM$RED        STATIC     ATOMS    COLORGROUP SYSTEM
3 24 43 48
