AV-unprocessed.smi:218|AV-procd|sdf|1662|dock1
  -GOLD-   2262020 63D 1   1.00000     0.00000
 Structure written by MMmdl.
 54 57  0  0  0  0  0  0  0  0  1 V2000
  152.7981  142.4074  161.8986 C   0  0  0  0  0  0  0  0  0  0  0  0
  152.5078  142.6444  160.4117 C   0  0  0  0  0  0  0  0  0  0  0  0
  151.7142  143.9453  160.2000 C   0  0  0  0  0  0  0  0  0  0  0  0
  151.7533  141.5207  159.9529 O   0  0  0  0  0  0  0  0  0  0  0  0
  151.2833  141.4823  158.6542 C   0  0  0  0  0  0  0  0  0  0  0  0
  150.5947  140.3284  158.2272 C   0  0  0  0  0  0  0  0  0  0  0  0
  150.1117  140.2695  156.9041 C   0  0  0  0  0  0  0  0  0  0  0  0
  149.3801  139.0335  156.4140 C   0  0  0  0  0  0  0  0  0  0  0  0
  148.4006  139.2988  155.3680 N   0  0  0  0  0  0  0  0  0  0  0  0
  147.5245  138.3384  155.0040 C   0  0  0  0  0  0  0  0  0  0  0  0
  146.9350  137.5395  155.9320 N   0  0  0  0  0  0  0  0  0  0  0  0
  146.0736  136.5918  155.5483 C   0  0  0  0  0  0  0  0  0  0  0  0
  145.6721  136.2789  154.3138 N   0  0  0  0  0  0  0  0  0  0  0  0
  146.2640  137.0791  153.3806 C   0  0  0  0  0  0  0  0  0  0  0  0
  147.1900  138.1259  153.6419 C   0  0  0  0  0  0  0  0  0  0  0  0
  147.5716  138.7243  152.4480 N   0  0  0  0  0  0  0  0  0  0  0  0
  146.9082  138.0634  151.5368 C   0  0  0  0  0  0  0  0  0  0  0  0
  146.1005  137.0525  152.0136 N   0  0  0  0  0  0  0  0  0  0  0  0
  145.2186  136.1107  151.2599 C   0  0  2  0  0  0  0  0  0  0  0  0
  143.9330  136.2050  151.8016 O   0  0  0  0  0  0  0  0  0  0  0  0
  143.5030  134.9476  152.3216 C   0  0  2  0  0  0  0  0  0  0  0  0
  142.6281  135.1653  153.5656 C   0  0  0  0  0  0  0  0  0  0  0  0
  141.2679  135.2288  153.1950 O   0  0  0  0  0  0  0  0  0  0  0  0
  144.8135  134.2174  152.6166 C   0  0  1  0  0  0  0  0  0  0  0  0
  144.6741  132.8108  152.6741 O   0  0  0  0  0  0  0  0  0  0  0  0
  145.7078  134.6734  151.4736 C   0  0  1  0  0  0  0  0  0  0  0  0
  145.5425  133.9035  150.2963 O   0  0  0  0  0  0  0  0  0  0  0  0
  150.3477  141.3700  156.0531 C   0  0  0  0  0  0  0  0  0  0  0  0
  151.0457  142.4788  156.5689 C   0  0  0  0  0  0  0  0  0  0  0  0
  151.5051  142.5413  157.8364 N   0  0  0  0  0  0  0  0  0  0  0  0
  145.2572  136.4595  150.2270 H   0  0  0  0  0  0  0  0  0  0  0  0
  142.9564  134.4121  151.5429 H   0  0  0  0  0  0  0  0  0  0  0  0
  145.2276  134.5730  153.5615 H   0  0  0  0  0  0  0  0  0  0  0  0
  146.7640  134.6521  151.7467 H   0  0  0  0  0  0  0  0  0  0  0  0
  153.3794  143.2271  162.3218 H   0  0  0  0  0  0  0  0  0  0  0  0
  153.3678  141.4891  162.0423 H   0  0  0  0  0  0  0  0  0  0  0  0
  151.8753  142.3201  162.4729 H   0  0  0  0  0  0  0  0  0  0  0  0
  153.4702  142.7071  159.9018 H   0  0  0  0  0  0  0  0  0  0  0  0
  152.2660  144.8048  160.5813 H   0  0  0  0  0  0  0  0  0  0  0  0
  150.7555  143.9095  160.7182 H   0  0  0  0  0  0  0  0  0  0  0  0
  151.5129  144.1303  159.1452 H   0  0  0  0  0  0  0  0  0  0  0  0
  150.4426  139.5028  158.9072 H   0  0  0  0  0  0  0  0  0  0  0  0
  150.1232  138.3261  156.0432 H   0  0  0  0  0  0  0  0  0  0  0  0
  148.8772  138.5603  157.2585 H   0  0  0  0  0  0  0  0  0  0  0  0
  148.4539  140.2047  154.9246 H   0  0  0  0  0  0  0  0  0  0  0  0
  145.6467  135.9986  156.3436 H   0  0  0  0  0  0  0  0  0  0  0  0
  146.9955  138.2989  150.4864 H   0  0  0  0  0  0  0  0  0  0  0  0
  142.7399  134.3268  154.2537 H   0  0  0  0  0  0  0  0  0  0  0  0
  142.9174  136.0674  154.1051 H   0  0  0  0  0  0  0  0  0  0  0  0
  141.1689  134.8295  152.3443 H   0  0  0  0  0  0  0  0  0  0  0  0
  145.4529  132.4215  152.3055 H   0  0  0  0  0  0  0  0  0  0  0  0
  146.2365  134.1242  149.6939 H   0  0  0  0  0  0  0  0  0  0  0  0
  150.0102  141.3692  155.0271 H   0  0  0  0  0  0  0  0  0  0  0  0
  151.2439  143.3379  155.9450 H   0  0  0  0  0  0  0  0  0  0  0  0
  1  2  1  0  0  0  0
  1 35  1  0  0  0  0
  1 36  1  0  0  0  0
  1 37  1  0  0  0  0
  2  3  1  0  0  0  0
  2  4  1  0  0  0  0
  2 38  1  0  0  0  0
  3 39  1  0  0  0  0
  3 40  1  0  0  0  0
  3 41  1  0  0  0  0
  4  5  1  0  0  0  0
  5 30  1  0  0  0  0
  5  6  2  0  0  0  0
  6  7  1  0  0  0  0
  6 42  1  0  0  0  0
  7  8  1  0  0  0  0
  7 28  2  0  0  0  0
  8  9  1  0  0  0  0
  8 43  1  0  0  0  0
  8 44  1  0  0  0  0
  9 10  1  0  0  0  0
  9 45  1  0  0  0  0
 10 15  1  0  0  0  0
 10 11  2  0  0  0  0
 11 12  1  0  0  0  0
 12 13  2  0  0  0  0
 12 46  1  0  0  0  0
 13 14  1  0  0  0  0
 14 18  1  0  0  0  0
 14 15  2  0  0  0  0
 15 16  1  0  0  0  0
 16 17  2  0  0  0  0
 17 18  1  0  0  0  0
 17 47  1  0  0  0  0
 18 19  1  0  0  0  0
 19 31  1  0  0  0  0
 19 26  1  0  0  0  0
 19 20  1  0  0  0  0
 20 21  1  0  0  0  0
 21 32  1  0  0  0  0
 21 22  1  0  0  0  0
 21 24  1  0  0  0  0
 22 23  1  0  0  0  0
 22 48  1  0  0  0  0
 22 49  1  0  0  0  0
 23 50  1  0  0  0  0
 24 33  1  0  0  0  0
 24 25  1  0  0  0  0
 24 26  1  0  0  0  0
 25 51  1  0  0  0  0
 26 34  1  0  0  0  0
 26 27  1  0  0  0  0
 27 52  1  0  0  0  0
 28 29  1  0  0  0  0
 28 53  1  0  0  0  0
 29 30  2  0  0  0  0
 29 54  1  0  0  0  0
M  END
> <s_m_source_file>
AV-unprocessed.smi

> <i_m_source_file_index>
218

> <i_lp_mmshare_version>
43012

> <i_f3d_flags>
0

> <s_epik_input>
W0NIM11bQ0hdKFtDSDNdKU9jMVtjSF1jKFtjSF1bY0hdbjEpW0NIMl1bTkhdYyhuW2NIXW4yKWMoYzIzKW5bY0hdbjNbQ0BASF00T1tDQEhdKFtDSDJdW09IXSlbQ0BASF0oW09IXSlbQ0BIXTRbT0hd

> <s_epik_cmdline>
J2VwaWtfcHl0aG9uJywgJy1waCcsICc3LjAnLCAnLXRuJywgJzgnLCAnLW1hJywgJzIwMCcsICctbWV0YWxfYmluZGluZycsICctaW1hZScsICc8aW5maWxlLm1hZT4nLCAnLW9tYWUnLCAnPG91dGZpbGUubWFlPic=

> <r_lp_tautomer_probability>
1

> <r_epik_Ionization_Penalty>
0.00457014

> <r_epik_Ionization_Penalty_Charging>
0

> <r_epik_Ionization_Penalty_Neutral>
0.00457014

> <r_epik_State_Penalty>
-0

> <r_epik_Charging_Adjusted_Penalty>
0

> <i_epik_Tot_Q>
0

> <i_epik_Tot_abs_Q>
0

> <r_epik_Metal_State_Penalty>
-0

> <b_epik_Metal_Only>
0

> <s_epik_Chemistry_Notes>
This compound contains an acetal/aminal-like group ( X-CH(R)-Y where X, Y are N, S, or O) that may be acid/base labile, releasing an aldehyde.

> <s_lp_Force_Field>
OPLS_2005

> <r_lp_Energy>
38.2737

> <b_lp_Chiralities_Consistent>
1

> <s_lp_Variant>
AV-unprocessed.smi:218-1

> <Gold.Version>
5.8.1

> <Gold.Id.Protein>
6NUR|6NUR_protein|mol2

> <Gold.PLP.Fitness>
48.7538

> <Gold.PLP.PLP>
-39.9665

> <Gold.PLP.part.hbond>
-2.5225

> <Gold.PLP.part.metal>
0.0000

> <Gold.PLP.part.buried>
-4.4752

> <Gold.PLP.part.nonpolar>
-34.1408

> <Gold.PLP.part.repulsive>
0.8043

> <Gold.PLP.ligand.clash>
0.0000

> <Gold.PLP.ligand.torsion>
1.1830

> <Gold.PLP.Chemscore.Hbond>
2.0000

> <Gold.PLP.Chemscore.CHOScore>
1.5716

> <Gold.PLP.Chemscore.Metal>
0.0000

> <Gold.Chemscore.Hbonds>
donor molecule, donor type, donor heavy atom, donor atom, acceptor molecule, acceptor atom, score
      L1  H    27    52       P1  7921  0.31
      L1  C    29    54       P1  8028  0.28

> <Gold.PLP.Chemscore.Internal.Correction>
0.4383

> <Gold.Rescore>
     Score         DG    S(hbond)    S(metal)    S(lipo)     H(rot)  DE(clash)    DE(int)     intcor
      2.98      -7.97       1.65        0.00      81.44       4.90       0.35       4.64       ----

> <Gold.Chemscore.Fitness>
2.9754

> <Gold.Chemscore.DG>
-7.9727

> <Gold.Chemscore.ZeroCoef>
-5.4800

> <Gold.Chemscore.Hbond>
1.6515

> <Gold.Chemscore.Metal>
0.0000

> <Gold.Chemscore.Lipo>
81.4387

> <Gold.Chemscore.Internal_Hbond>
0.0000

> <Gold.Chemscore.DEClash>
0.3546

> <Gold.Chemscore.DEInternal>
4.6427

> <Gold.Chemscore.Rot>
4.9029

> <Gold.Chemscore.Internal.Correction>
   9.000000E+99

> <Gold.Chemscore.Hbonds>
donor molecule, donor type, donor heavy atom, donor atom, acceptor molecule, acceptor atom, score
      L1  H    27    52       P1  7921  0.04

> <Gold.Chemscore.Hbond.Weighted>
-5.5160

> <Gold.Chemscore.Metal.Weighted>
-0.0000

> <Gold.Chemscore.Lipo.Weighted>
-9.5283

> <Gold.Chemscore.Internal_Hbond.Weighted>
0.0000

> <Gold.Chemscore.DEClash.Weighted>
0.3546

> <Gold.Chemscore.DEInternal.Weighted>
4.6427

> <Gold.Chemscore.Rot.Weighted>
12.5515

> <Gold.Chemscore.Internal.Correction.Weighted>
   9.000000E+99

> <Gold.Protein.RotatedTorsions>
[ 6907 6896 6895 6894 ] final  -55.06 input  -60.11 | X-H torsion
[ 7974 7965 7964 7962 ] final  -43.06 input  175.53 | X-H torsion
[ 8008 7997 7996 7995 ] final  105.92 input   59.86 | X-H torsion
[ 10167 10162 10161 10158 ] final   73.87 input  -65.29 | X-H torsion
[ 10718 10713 10712 10709 ] final -105.39 input   66.30 | X-H torsion
[ 10763 10752 10751 10750 ] final  -98.40 input  -60.55 | X-H torsion
[ 11005 11000 10999 10996 ] final   20.21 input  -57.11 | X-H torsion

> <Gold.Protein.ActiveResidues>
 VAL166  LYS551  ARG553  GLY616  TRP617  ASP618  TYR619  PRO620  LYS621  CYS622 
 ASP623  PHE694  ASN695  SER759  ASP760  ASP761  ALA762  ILE779  LEU786  VAL792 
 PHE793  MET794  SER795  GLU796  ALA797  LYS798  CYS799  TRP800  GLU811  SER814 

> <Gold.Protein.RotatedAtoms>
  150.8284  134.7526  159.6832 H   0  0  0  0  0  0  0  0  0  0  0  0  # atno 6907 bound_to 6896
  152.4392  134.5622  159.9907 H   0  0  0  0  0  0  0  0  0  0  0  0  # atno 6908 bound_to 6896
  151.5789  133.3343  159.3040 H   0  0  0  0  0  0  0  0  0  0  0  0  # atno 6909 bound_to 6896
  146.0055  140.7024  142.9249 H   0  0  0  0  0  0  0  0  0  0  0  0  # atno 7974 bound_to 7965
  156.1700  140.3122  155.8957 H   0  0  0  0  0  0  0  0  0  0  0  0  # atno 8008 bound_to 7997
  155.3607  140.0476  157.3063 H   0  0  0  0  0  0  0  0  0  0  0  0  # atno 8009 bound_to 7997
  154.5231  140.2205  155.8950 H   0  0  0  0  0  0  0  0  0  0  0  0  # atno 8010 bound_to 7997
  140.0198  144.5549  150.7591 H   0  0  0  0  0  0  0  0  0  0  0  0  # atno 10167 bound_to 10162
  156.0344  130.5561  150.7532 H   0  0  0  0  0  0  0  0  0  0  0  0  # atno 10718 bound_to 10713
  154.7411  135.5011  153.9124 H   0  0  0  0  0  0  0  0  0  0  0  0  # atno 10763 bound_to 10752
  153.1044  135.6693  153.9621 H   0  0  0  0  0  0  0  0  0  0  0  0  # atno 10764 bound_to 10752
  153.9398  135.3069  155.3422 H   0  0  0  0  0  0  0  0  0  0  0  0  # atno 10765 bound_to 10752
  140.4052  134.1676  155.7665 H   0  0  0  0  0  0  0  0  0  0  0  0  # atno 11005 bound_to 11000
  144.6934  140.3308  143.7216 LP  0  0  0  0  0  0  0  0  0  0  0  0  # atno 17320 bound_to 7965
  145.7422  139.1767  143.2370 LP  0  0  0  0  0  0  0  0  0  0  0  0  # atno 17321 bound_to 7965
  140.7347  143.2732  151.3822 LP  0  0  0  0  0  0  0  0  0  0  0  0  # atno 17342 bound_to 10162
  139.6148  144.1026  152.2334 LP  0  0  0  0  0  0  0  0  0  0  0  0  # atno 17343 bound_to 10162
  157.5071  131.0923  151.0243 LP  0  0  0  0  0  0  0  0  0  0  0  0  # atno 17370 bound_to 10713
  157.0609  130.5825  149.5385 LP  0  0  0  0  0  0  0  0  0  0  0  0  # atno 17371 bound_to 10713
  141.1842  133.8349  157.1148 LP  0  0  0  0  0  0  0  0  0  0  0  0  # atno 17394 bound_to 11000
  140.0307  134.9902  157.0775 LP  0  0  0  0  0  0  0  0  0  0  0  0  # atno 17395 bound_to 11000

$$$$
