AV-unprocessed.smi:2726|AV-procd|sdf|10519|dock10
  -GOLD-   2272014563D 1   1.00000     0.00000
 Structure written by MMmdl.
 41 42  0  0  0  0  0  0  0  0  1 V2000
  144.8851  134.9360  153.4892 C   0  0  0  0  0  0  0  0  0  0  0  0
  145.1451  136.1388  152.5647 C   0  0  0  0  0  0  0  0  0  0  0  0
  145.1000  135.6618  151.0978 C   0  0  0  0  0  0  0  0  0  0  0  0
  144.0635  137.2092  152.8212 C   0  0  0  0  0  0  0  0  0  0  0  0
  146.4778  136.6554  152.9004 N   0  0  0  0  0  0  0  0  0  0  0  0
  146.8099  137.5696  153.8276 C   0  0  0  0  0  0  0  0  0  0  0  0
  145.9999  138.1278  154.5670 O   0  0  0  0  0  0  0  0  0  0  0  0
  148.1336  137.8014  153.8180 N   0  0  0  0  0  0  0  0  0  0  0  0
  148.8790  138.6912  154.6369 C   0  0  0  0  0  0  0  0  0  0  0  0
  148.5460  139.0072  155.9754 C   0  0  0  0  0  0  0  0  0  0  0  0
  149.3761  139.8898  156.6926 C   0  0  0  0  0  0  0  0  0  0  0  0
  150.5153  140.4240  156.0563 C   0  0  0  0  0  0  0  0  0  0  0  0
  151.3377  141.3064  156.7731 N   0  0  0  0  0  0  0  0  0  0  0  0
  150.7130  142.5600  157.1621 C   0  0  0  0  0  0  0  0  0  0  0  0
  151.6315  143.1591  158.2299 C   0  0  0  0  0  0  0  0  0  0  0  0
  152.4242  141.9675  158.7811 C   0  0  0  0  0  0  0  0  0  0  0  0
  151.9227  140.7590  157.9861 C   0  0  0  0  0  0  0  0  0  0  0  0
  150.8468  140.1143  154.7800 N   0  0  0  0  0  0  0  0  0  0  0  0
  150.0480  139.2665  154.0983 C   0  0  0  0  0  0  0  0  0  0  0  0
  143.9083  134.4908  153.2960 H   0  0  0  0  0  0  0  0  0  0  0  0
  144.9092  135.2283  154.5398 H   0  0  0  0  0  0  0  0  0  0  0  0
  145.6339  134.1554  153.3481 H   0  0  0  0  0  0  0  0  0  0  0  0
  145.8803  134.9274  150.8944 H   0  0  0  0  0  0  0  0  0  0  0  0
  145.2298  136.4842  150.3943 H   0  0  0  0  0  0  0  0  0  0  0  0
  144.1422  135.1941  150.8672 H   0  0  0  0  0  0  0  0  0  0  0  0
  143.0645  136.8018  152.6628 H   0  0  0  0  0  0  0  0  0  0  0  0
  144.1665  138.0655  152.1548 H   0  0  0  0  0  0  0  0  0  0  0  0
  144.1067  137.5808  153.8455 H   0  0  0  0  0  0  0  0  0  0  0  0
  147.2364  136.2733  152.3550 H   0  0  0  0  0  0  0  0  0  0  0  0
  148.6613  137.3327  153.0960 H   0  0  0  0  0  0  0  0  0  0  0  0
  147.6852  138.5828  156.4681 H   0  0  0  0  0  0  0  0  0  0  0  0
  149.1420  140.1470  157.7154 H   0  0  0  0  0  0  0  0  0  0  0  0
  150.6037  143.2267  156.3062 H   0  0  0  0  0  0  0  0  0  0  0  0
  149.7208  142.3821  157.5794 H   0  0  0  0  0  0  0  0  0  0  0  0
  152.3134  143.8816  157.7800 H   0  0  0  0  0  0  0  0  0  0  0  0
  151.0637  143.6750  159.0048 H   0  0  0  0  0  0  0  0  0  0  0  0
  153.4905  142.1190  158.6089 H   0  0  0  0  0  0  0  0  0  0  0  0
  152.2763  141.8307  159.8528 H   0  0  0  0  0  0  0  0  0  0  0  0
  151.1731  140.2166  158.5640 H   0  0  0  0  0  0  0  0  0  0  0  0
  152.7332  140.0676  157.7532 H   0  0  0  0  0  0  0  0  0  0  0  0
  150.3510  139.0451  153.0850 H   0  0  0  0  0  0  0  0  0  0  0  0
  1  2  1  0  0  0  0
  1 20  1  0  0  0  0
  1 21  1  0  0  0  0
  1 22  1  0  0  0  0
  2  3  1  0  0  0  0
  2  4  1  0  0  0  0
  2  5  1  0  0  0  0
  3 23  1  0  0  0  0
  3 24  1  0  0  0  0
  3 25  1  0  0  0  0
  4 26  1  0  0  0  0
  4 27  1  0  0  0  0
  4 28  1  0  0  0  0
  5  6  1  0  0  0  0
  5 29  1  0  0  0  0
  6  7  2  0  0  0  0
  6  8  1  0  0  0  0
  8  9  1  0  0  0  0
  8 30  1  0  0  0  0
  9 19  1  0  0  0  0
  9 10  2  0  0  0  0
 10 11  1  0  0  0  0
 10 31  1  0  0  0  0
 11 12  2  0  0  0  0
 11 32  1  0  0  0  0
 12 13  1  0  0  0  0
 12 18  1  0  0  0  0
 13 17  1  0  0  0  0
 13 14  1  0  0  0  0
 14 15  1  0  0  0  0
 14 33  1  0  0  0  0
 14 34  1  0  0  0  0
 15 16  1  0  0  0  0
 15 35  1  0  0  0  0
 15 36  1  0  0  0  0
 16 17  1  0  0  0  0
 16 37  1  0  0  0  0
 16 38  1  0  0  0  0
 17 39  1  0  0  0  0
 17 40  1  0  0  0  0
 18 19  2  0  0  0  0
 19 41  1  0  0  0  0
M  END
> <s_m_source_file>
AV-unprocessed.smi

> <i_m_source_file_index>
2726

> <i_lp_mmshare_version>
43012

> <i_f3d_flags>
0

> <s_epik_input>
W0NIM11DKFtDSDNdKShbQ0gzXSlbTkhdQyg9TylbTkhdYzFbY0hdW2NIXWMobltjSF0xKU4yW0NIMl1bQ0gyXVtDSDJdW0NIMl0y

> <s_epik_cmdline>
J2VwaWtfcHl0aG9uJywgJy1waCcsICc3LjAnLCAnLXRuJywgJzgnLCAnLW1hJywgJzIwMCcsICctbWV0YWxfYmluZGluZycsICctaW1hZScsICc8aW5maWxlLm1hZT4nLCAnLW9tYWUnLCAnPG91dGZpbGUubWFlPic=

> <r_lp_tautomer_probability>
1

> <r_epik_Ionization_Penalty>
0.105331

> <r_epik_Ionization_Penalty_Charging>
0

> <r_epik_Ionization_Penalty_Neutral>
0.105331

> <r_epik_State_Penalty>
0.0946433

> <r_epik_Charging_Adjusted_Penalty>
0.0946433

> <i_epik_Tot_Q>
0

> <i_epik_Tot_abs_Q>
0

> <r_epik_Metal_State_Penalty>
0.0802816

> <b_epik_Metal_Only>
0

> <s_lp_Force_Field>
OPLS_2005

> <r_lp_Energy>
34.5725

> <b_lp_Chiralities_Consistent>
1

> <s_lp_Variant>
AV-unprocessed.smi:2726-1

> <Gold.Version>
5.8.1

> <Gold.Id.Protein>
6NUR|6NUR_protein|mol2

> <Gold.PLP.Fitness>
36.2183

> <Gold.PLP.PLP>
-25.7444

> <Gold.PLP.part.hbond>
-3.0000

> <Gold.PLP.part.metal>
0.0000

> <Gold.PLP.part.buried>
-2.0209

> <Gold.PLP.part.nonpolar>
-20.8232

> <Gold.PLP.part.repulsive>
0.2073

> <Gold.PLP.ligand.clash>
0.0000

> <Gold.PLP.ligand.torsion>
0.7735

> <Gold.PLP.Chemscore.Hbond>
3.0000

> <Gold.PLP.Chemscore.CHOScore>
1.0000

> <Gold.PLP.Chemscore.Metal>
0.0000

> <Gold.Chemscore.Hbonds>
donor molecule, donor type, donor heavy atom, donor atom, acceptor molecule, acceptor atom, score
      L1  H     5    29       P1  7948  1.00
      L1  H     8    30       P1  7948  1.00
      P1  H  7989  7998       L1    18  1.00
      L1  C    19    41       P1  7957  0.97

> <Gold.PLP.Chemscore.Internal.Correction>
0.0209

> <Gold.Rescore>
     Score         DG    S(hbond)    S(metal)    S(lipo)     H(rot)  DE(clash)    DE(int)     intcor
     15.63     -18.53       2.47        0.00      66.49       1.17       0.07       2.82       ----

> <Gold.Chemscore.Fitness>
15.6320

> <Gold.Chemscore.DG>
-18.5277

> <Gold.Chemscore.ZeroCoef>
-5.4800

> <Gold.Chemscore.Hbond>
2.4749

> <Gold.Chemscore.Metal>
0.0000

> <Gold.Chemscore.Lipo>
66.4908

> <Gold.Chemscore.Internal_Hbond>
0.0000

> <Gold.Chemscore.DEClash>
0.0715

> <Gold.Chemscore.DEInternal>
2.8242

> <Gold.Chemscore.Rot>
1.1710

> <Gold.Chemscore.Internal.Correction>
   9.000000E+99

> <Gold.Chemscore.Hbonds>
donor molecule, donor type, donor heavy atom, donor atom, acceptor molecule, acceptor atom, score
      L1  H     5    29       P1  7948  0.97
      L1  H     8    30       P1  7948  0.99
      P1  H  7989  7998       L1    18  0.26

> <Gold.Chemscore.Hbond.Weighted>
-8.2660

> <Gold.Chemscore.Metal.Weighted>
-0.0000

> <Gold.Chemscore.Lipo.Weighted>
-7.7794

> <Gold.Chemscore.Internal_Hbond.Weighted>
0.0000

> <Gold.Chemscore.DEClash.Weighted>
0.0715

> <Gold.Chemscore.DEInternal.Weighted>
2.8242

> <Gold.Chemscore.Rot.Weighted>
2.9978

> <Gold.Chemscore.Internal.Correction.Weighted>
   9.000000E+99

> <Gold.Protein.RotatedTorsions>
[ 6907 6896 6895 6894 ] final   89.56 input  -60.11 | X-H torsion
[ 7974 7965 7964 7962 ] final   89.34 input  175.53 | X-H torsion
[ 8008 7997 7996 7995 ] final -118.80 input   59.86 | X-H torsion
[ 10167 10162 10161 10158 ] final  -35.47 input  -65.29 | X-H torsion
[ 10718 10713 10712 10709 ] final -159.69 input   66.30 | X-H torsion
[ 10763 10752 10751 10750 ] final   98.37 input  -60.55 | X-H torsion
[ 11005 11000 10999 10996 ] final -161.78 input  -57.11 | X-H torsion

> <Gold.Protein.ActiveResidues>
 VAL166  LYS551  ARG553  GLY616  TRP617  ASP618  TYR619  PRO620  LYS621  CYS622 
 ASP623  PHE694  ASN695  SER759  ASP760  ASP761  ALA762  ILE779  LEU786  VAL792 
 PHE793  MET794  SER795  GLU796  ALA797  LYS798  CYS799  TRP800  GLU811  SER814 

> <Gold.Protein.RotatedAtoms>
  152.5437  134.1948  159.8688 H   0  0  0  0  0  0  0  0  0  0  0  0  # atno 6907 bound_to 6896
  151.1941  133.4643  159.2603 H   0  0  0  0  0  0  0  0  0  0  0  0  # atno 6908 bound_to 6896
  151.1054  135.0008  159.8524 H   0  0  0  0  0  0  0  0  0  0  0  0  # atno 6909 bound_to 6896
  145.5336  139.2284  143.2605 H   0  0  0  0  0  0  0  0  0  0  0  0  # atno 7974 bound_to 7965
  155.1055  140.0396  157.2709 H   0  0  0  0  0  0  0  0  0  0  0  0  # atno 8008 bound_to 7997
  154.6725  140.2615  155.6966 H   0  0  0  0  0  0  0  0  0  0  0  0  # atno 8009 bound_to 7997
  156.2664  140.2795  156.1240 H   0  0  0  0  0  0  0  0  0  0  0  0  # atno 8010 bound_to 7997
  140.7164  143.3475  151.2225 H   0  0  0  0  0  0  0  0  0  0  0  0  # atno 10167 bound_to 10162
  156.5717  130.8691  151.2839 H   0  0  0  0  0  0  0  0  0  0  0  0  # atno 10718 bound_to 10713
  153.2883  135.4150  155.1143 H   0  0  0  0  0  0  0  0  0  0  0  0  # atno 10763 bound_to 10752
  154.8512  135.3512  154.6017 H   0  0  0  0  0  0  0  0  0  0  0  0  # atno 10764 bound_to 10752
  153.6438  135.7055  153.5290 H   0  0  0  0  0  0  0  0  0  0  0  0  # atno 10765 bound_to 10752
  140.6166  134.4794  157.5220 H   0  0  0  0  0  0  0  0  0  0  0  0  # atno 11005 bound_to 11000
  146.2028  140.6153  142.9095 LP  0  0  0  0  0  0  0  0  0  0  0  0  # atno 17320 bound_to 7965
  144.7613  140.5428  143.6733 LP  0  0  0  0  0  0  0  0  0  0  0  0  # atno 17321 bound_to 7965
  139.6998  143.9552  152.2900 LP  0  0  0  0  0  0  0  0  0  0  0  0  # atno 17342 bound_to 10162
  139.9241  144.6781  150.8430 LP  0  0  0  0  0  0  0  0  0  0  0  0  # atno 17343 bound_to 10162
  157.7346  130.9750  150.2040 LP  0  0  0  0  0  0  0  0  0  0  0  0  # atno 17370 bound_to 10713
  156.2709  130.3721  149.8033 LP  0  0  0  0  0  0  0  0  0  0  0  0  # atno 17371 bound_to 10713
  139.9170  134.8226  156.1333 LP  0  0  0  0  0  0  0  0  0  0  0  0  # atno 17394 bound_to 11000
  141.0771  133.6770  156.2259 LP  0  0  0  0  0  0  0  0  0  0  0  0  # atno 17395 bound_to 11000

$$$$
