AV-unprocessed.smi:3060|AV-procd|sdf|11678|dock6
  -GOLD-   2272017 83D 1   1.00000     0.00000
 Structure written by MMmdl.
 42 43  0  0  0  0  0  0  0  0  1 V2000
  149.8358  135.6783  155.5232 C   0  0  0  0  0  0  0  0  0  0  0  0
  150.7262  135.6157  156.7686 C   0  0  0  0  0  0  0  0  0  0  0  0
  150.2775  136.5533  157.8449 C   0  0  0  0  0  0  0  0  0  0  0  0
  149.9112  136.1912  159.0676 N   0  0  0  0  0  0  0  0  0  0  0  0
  149.5727  137.3843  159.6775 N   0  0  0  0  0  0  0  0  0  0  0  0
  149.7196  138.3905  158.8645 N   0  0  0  0  0  0  0  0  0  0  0  0
  150.1642  137.8808  157.6890 N   0  0  0  0  0  0  0  0  0  0  0  0
  150.4312  138.7508  156.5524 C   0  0  0  0  0  0  0  0  0  0  0  0
  151.4500  139.8494  156.8782 C   0  0  0  0  0  0  0  0  0  0  0  0
  152.4930  139.9211  156.2293 O   0  0  0  0  0  0  0  0  0  0  0  0
  151.1539  140.6804  157.8923 N   0  0  0  0  0  0  0  0  0  0  0  0
  151.9793  141.7868  158.3698 C   0  0  0  0  0  0  0  0  0  0  0  0
  152.1587  141.6373  159.9007 C   0  0  0  0  0  0  0  0  0  0  0  0
  153.1809  142.5975  160.5415 C   0  0  0  0  0  0  0  0  0  0  0  0
  152.5807  143.8045  161.2887 C   0  0  0  0  0  0  0  0  0  0  0  0
  151.4224  144.5458  160.5974 C   0  0  0  0  0  0  0  0  0  0  0  0
  151.7572  145.2623  159.2769 C   0  0  0  0  0  0  0  0  0  0  0  0
  152.1718  144.3742  158.0876 C   0  0  0  0  0  0  0  0  0  0  0  0
  151.3259  143.1015  157.8811 C   0  0  0  0  0  0  0  0  0  0  0  0
  150.1859  134.9826  154.7604 H   0  0  0  0  0  0  0  0  0  0  0  0
  149.8372  136.6783  155.0885 H   0  0  0  0  0  0  0  0  0  0  0  0
  148.8044  135.4180  155.7637 H   0  0  0  0  0  0  0  0  0  0  0  0
  150.7238  134.6017  157.1697 H   0  0  0  0  0  0  0  0  0  0  0  0
  151.7602  135.8340  156.5014 H   0  0  0  0  0  0  0  0  0  0  0  0
  150.7959  138.1526  155.7174 H   0  0  0  0  0  0  0  0  0  0  0  0
  149.4921  139.2026  156.2291 H   0  0  0  0  0  0  0  0  0  0  0  0
  150.2752  140.5410  158.3695 H   0  0  0  0  0  0  0  0  0  0  0  0
  152.9624  141.7167  157.9008 H   0  0  0  0  0  0  0  0  0  0  0  0
  151.1983  141.6871  160.4145 H   0  0  0  0  0  0  0  0  0  0  0  0
  152.5203  140.6249  160.0874 H   0  0  0  0  0  0  0  0  0  0  0  0
  153.7652  142.0335  161.2696 H   0  0  0  0  0  0  0  0  0  0  0  0
  153.9168  142.9210  159.8075 H   0  0  0  0  0  0  0  0  0  0  0  0
  152.2117  143.4512  162.2524 H   0  0  0  0  0  0  0  0  0  0  0  0
  153.3778  144.5107  161.5230 H   0  0  0  0  0  0  0  0  0  0  0  0
  150.5714  143.8799  160.4632 H   0  0  0  0  0  0  0  0  0  0  0  0
  151.0631  145.3040  161.2939 H   0  0  0  0  0  0  0  0  0  0  0  0
  150.8727  145.8271  158.9798 H   0  0  0  0  0  0  0  0  0  0  0  0
  152.5334  146.0079  159.4526 H   0  0  0  0  0  0  0  0  0  0  0  0
  152.0864  144.9875  157.1898 H   0  0  0  0  0  0  0  0  0  0  0  0
  153.2306  144.1273  158.1377 H   0  0  0  0  0  0  0  0  0  0  0  0
  151.1670  143.0008  156.8060 H   0  0  0  0  0  0  0  0  0  0  0  0
  150.3258  143.2222  158.2982 H   0  0  0  0  0  0  0  0  0  0  0  0
  1  2  1  0  0  0  0
  1 20  1  0  0  0  0
  1 21  1  0  0  0  0
  1 22  1  0  0  0  0
  2  3  1  0  0  0  0
  2 23  1  0  0  0  0
  2 24  1  0  0  0  0
  3  7  1  0  0  0  0
  3  4  2  0  0  0  0
  4  5  1  0  0  0  0
  5  6  2  0  0  0  0
  6  7  1  0  0  0  0
  7  8  1  0  0  0  0
  8  9  1  0  0  0  0
  8 25  1  0  0  0  0
  8 26  1  0  0  0  0
  9 10  2  0  0  0  0
  9 11  1  0  0  0  0
 11 12  1  0  0  0  0
 11 27  1  0  0  0  0
 12 19  1  0  0  0  0
 12 13  1  0  0  0  0
 12 28  1  0  0  0  0
 13 14  1  0  0  0  0
 13 29  1  0  0  0  0
 13 30  1  0  0  0  0
 14 15  1  0  0  0  0
 14 31  1  0  0  0  0
 14 32  1  0  0  0  0
 15 16  1  0  0  0  0
 15 33  1  0  0  0  0
 15 34  1  0  0  0  0
 16 17  1  0  0  0  0
 16 35  1  0  0  0  0
 16 36  1  0  0  0  0
 17 18  1  0  0  0  0
 17 37  1  0  0  0  0
 17 38  1  0  0  0  0
 18 19  1  0  0  0  0
 18 39  1  0  0  0  0
 18 40  1  0  0  0  0
 19 41  1  0  0  0  0
 19 42  1  0  0  0  0
M  END
> <s_m_source_file>
AV-unprocessed.smi

> <i_m_source_file_index>
3060

> <i_lp_mmshare_version>
43012

> <i_f3d_flags>
0

> <s_epik_input>
W0NIM11bQ0gyXWMxbm5ubjFbQ0gyXUMoPU8pW05IXVtDSF0yW0NIMl1bQ0gyXVtDSDJdW0NIMl1bQ0gyXVtDSDJdW0NIMl0y

> <s_epik_cmdline>
J2VwaWtfcHl0aG9uJywgJy1waCcsICc3LjAnLCAnLXRuJywgJzgnLCAnLW1hJywgJzIwMCcsICctbWV0YWxfYmluZGluZycsICctaW1hZScsICc8aW5maWxlLm1hZT4nLCAnLW9tYWUnLCAnPG91dGZpbGUubWFlPic=

> <r_lp_tautomer_probability>
1

> <r_epik_Ionization_Penalty>
4.54698e-07

> <r_epik_Ionization_Penalty_Charging>
0

> <r_epik_Ionization_Penalty_Neutral>
4.54698e-07

> <r_epik_State_Penalty>
-0

> <r_epik_Charging_Adjusted_Penalty>
0

> <i_epik_Tot_Q>
0

> <i_epik_Tot_abs_Q>
0

> <r_epik_Metal_State_Penalty>
-0

> <b_epik_Metal_Only>
0

> <s_lp_Force_Field>
OPLS_2005

> <r_lp_Energy>
19.51

> <b_lp_Chiralities_Consistent>
1

> <s_lp_Variant>
AV-unprocessed.smi:3060-1

> <Gold.Version>
5.8.1

> <Gold.Id.Protein>
6NUR|6NUR_protein|mol2

> <Gold.PLP.Fitness>
43.5653

> <Gold.PLP.PLP>
-37.7419

> <Gold.PLP.part.hbond>
-3.3322

> <Gold.PLP.part.metal>
0.0000

> <Gold.PLP.part.buried>
-5.4656

> <Gold.PLP.part.nonpolar>
-28.3597

> <Gold.PLP.part.repulsive>
0.0795

> <Gold.PLP.ligand.clash>
0.0000

> <Gold.PLP.ligand.torsion>
0.1375

> <Gold.PLP.Chemscore.Hbond>
2.0237

> <Gold.PLP.Chemscore.CHOScore>
0.0000

> <Gold.PLP.Chemscore.Metal>
0.0000

> <Gold.Chemscore.Hbonds>
donor molecule, donor type, donor heavy atom, donor atom, acceptor molecule, acceptor atom, score
      P1  H  6896  6909       L1     4  1.00
      P1  H  6931  6943       L1     5  0.01
      P1  H  7997  8010       L1    10  1.00

> <Gold.PLP.Chemscore.Internal.Correction>
0.0274

> <Gold.Rescore>
     Score         DG    S(hbond)    S(metal)    S(lipo)     H(rot)  DE(clash)    DE(int)     intcor
     19.38     -19.47       1.97        0.00      99.61       1.66       0.04       0.05       ----

> <Gold.Chemscore.Fitness>
19.3827

> <Gold.Chemscore.DG>
-19.4746

> <Gold.Chemscore.ZeroCoef>
-5.4800

> <Gold.Chemscore.Hbond>
1.9738

> <Gold.Chemscore.Metal>
0.0000

> <Gold.Chemscore.Lipo>
99.6066

> <Gold.Chemscore.Internal_Hbond>
0.0000

> <Gold.Chemscore.DEClash>
0.0401

> <Gold.Chemscore.DEInternal>
0.0518

> <Gold.Chemscore.Rot>
1.6609

> <Gold.Chemscore.Internal.Correction>
   9.000000E+99

> <Gold.Chemscore.Hbonds>
donor molecule, donor type, donor heavy atom, donor atom, acceptor molecule, acceptor atom, score
      P1  H  6896  6909       L1     4  0.85
      P1  H  6931  6943       L1     5  0.01
      P1  H  7997  8010       L1    10  1.00

> <Gold.Chemscore.Hbond.Weighted>
-6.5924

> <Gold.Chemscore.Metal.Weighted>
-0.0000

> <Gold.Chemscore.Lipo.Weighted>
-11.6540

> <Gold.Chemscore.Internal_Hbond.Weighted>
0.0000

> <Gold.Chemscore.DEClash.Weighted>
0.0401

> <Gold.Chemscore.DEInternal.Weighted>
0.0518

> <Gold.Chemscore.Rot.Weighted>
4.2518

> <Gold.Chemscore.Internal.Correction.Weighted>
   9.000000E+99

> <Gold.Protein.RotatedTorsions>
[ 6907 6896 6895 6894 ] final   60.31 input  -60.11 | X-H torsion
[ 7974 7965 7964 7962 ] final    5.47 input  175.53 | X-H torsion
[ 8008 7997 7996 7995 ] final   79.21 input   59.86 | X-H torsion
[ 10167 10162 10161 10158 ] final  -59.25 input  -65.29 | X-H torsion
[ 10718 10713 10712 10709 ] final  -33.93 input   66.30 | X-H torsion
[ 10763 10752 10751 10750 ] final  147.41 input  -60.55 | X-H torsion
[ 11005 11000 10999 10996 ] final  169.33 input  -57.11 | X-H torsion

> <Gold.Protein.ActiveResidues>
 VAL166  LYS551  ARG553  GLY616  TRP617  ASP618  TYR619  PRO620  LYS621  CYS622 
 ASP623  PHE694  ASN695  SER759  ASP760  ASP761  ALA762  ILE779  LEU786  VAL792 
 PHE793  MET794  SER795  GLU796  ALA797  LYS798  CYS799  TRP800  GLU811  SER814 

> <Gold.Protein.RotatedAtoms>
  152.3992  134.6314  160.0076 H   0  0  0  0  0  0  0  0  0  0  0  0  # atno 6907 bound_to 6896
  151.6525  133.3315  159.3163 H   0  0  0  0  0  0  0  0  0  0  0  0  # atno 6908 bound_to 6896
  150.7895  134.6950  159.6563 H   0  0  0  0  0  0  0  0  0  0  0  0  # atno 6909 bound_to 6896
  146.2440  140.0379  142.8384 H   0  0  0  0  0  0  0  0  0  0  0  0  # atno 7974 bound_to 7965
  155.8665  140.3451  155.5792 H   0  0  0  0  0  0  0  0  0  0  0  0  # atno 8008 bound_to 7997
  155.7875  140.0867  157.2046 H   0  0  0  0  0  0  0  0  0  0  0  0  # atno 8009 bound_to 7997
  154.4014  140.1489  156.3111 H   0  0  0  0  0  0  0  0  0  0  0  0  # atno 8010 bound_to 7997
  140.6147  143.2398  151.5627 H   0  0  0  0  0  0  0  0  0  0  0  0  # atno 10167 bound_to 10162
  156.3567  130.4317  149.7658 H   0  0  0  0  0  0  0  0  0  0  0  0  # atno 10718 bound_to 10713
  154.0378  135.2892  155.3359 H   0  0  0  0  0  0  0  0  0  0  0  0  # atno 10763 bound_to 10752
  154.6948  135.5212  153.8446 H   0  0  0  0  0  0  0  0  0  0  0  0  # atno 10764 bound_to 10752
  153.0612  135.6614  154.0585 H   0  0  0  0  0  0  0  0  0  0  0  0  # atno 10765 bound_to 10752
  140.2966  134.7630  157.3882 H   0  0  0  0  0  0  0  0  0  0  0  0  # atno 11005 bound_to 11000
  145.1096  140.9397  143.4664 LP  0  0  0  0  0  0  0  0  0  0  0  0  # atno 17320 bound_to 7965
  145.0590  139.3121  143.5890 LP  0  0  0  0  0  0  0  0  0  0  0  0  # atno 17321 bound_to 7965
  139.5389  144.2704  152.1309 LP  0  0  0  0  0  0  0  0  0  0  0  0  # atno 17342 bound_to 10162
  140.1910  144.4751  150.6479 LP  0  0  0  0  0  0  0  0  0  0  0  0  # atno 17343 bound_to 10162
  156.4838  130.8053  151.3066 LP  0  0  0  0  0  0  0  0  0  0  0  0  # atno 17370 bound_to 10713
  157.7468  130.9997  150.2900 LP  0  0  0  0  0  0  0  0  0  0  0  0  # atno 17371 bound_to 10713
  140.1147  134.5299  155.8235 LP  0  0  0  0  0  0  0  0  0  0  0  0  # atno 17394 bound_to 11000
  141.2136  133.6736  156.6754 LP  0  0  0  0  0  0  0  0  0  0  0  0  # atno 17395 bound_to 11000

$$$$
