AV-unprocessed.smi:157|AV-procd|sdf|1301|dock9
  -GOLD-   2262018593D 1   1.00000     0.00000
 Structure written by MMmdl.
 35 37  0  0  0  0  0  0  0  0  1 V2000
  151.8993  142.6067  162.1991 O   0  0  0  0  0  0  0  0  0  0  0  0
  152.8513  142.3861  161.1804 C   0  0  0  0  0  0  0  0  0  0  0  0
  152.2772  142.8033  159.8157 C   0  0  1  0  0  0  0  0  0  0  0  0
  150.9512  142.3185  159.6459 O   0  0  0  0  0  0  0  0  0  0  0  0
  150.3155  143.0374  158.6298 C   0  0  2  0  0  0  0  0  0  0  0  0
  150.3504  142.2303  157.3634 N   0  0  0  0  0  0  0  0  0  0  0  0
  151.4359  141.7903  156.7105 C   0  0  0  0  0  0  0  0  0  0  0  0
  151.1764  141.0926  155.6178 N   0  0  0  0  0  0  0  0  0  0  0  0
  149.7848  141.0727  155.5545 C   0  0  0  0  0  0  0  0  0  0  0  0
  149.2530  141.7686  156.6302 C   0  0  0  0  0  0  0  0  0  0  0  0
  147.9859  142.0671  157.0944 N   0  0  0  0  0  0  0  0  0  0  0  0
  146.9966  141.9729  156.2629 C   0  0  0  0  0  0  0  0  0  0  0  0
  146.9689  141.5169  154.9527 N   0  0  0  0  0  0  0  0  0  0  0  0
  147.5773  140.2663  154.5320 C   0  0  0  0  0  0  0  0  0  0  0  0
  149.1071  140.3290  154.4402 C   0  0  1  0  0  0  0  0  0  0  0  0
  149.4759  140.9674  153.2348 O   0  0  0  0  0  0  0  0  0  0  0  0
  151.0970  144.3498  158.4402 C   0  0  0  0  0  0  0  0  0  0  0  0
  152.1334  144.3068  159.5505 C   0  0  1  0  0  0  0  0  0  0  0  0
  151.6726  145.0079  160.6900 O   0  0  0  0  0  0  0  0  0  0  0  0
  152.8895  142.3667  159.0245 H   0  0  0  0  0  0  0  0  0  0  0  0
  149.2559  143.1710  158.8500 H   0  0  0  0  0  0  0  0  0  0  0  0
  149.4917  139.3100  154.3880 H   0  0  0  0  0  0  0  0  0  0  0  0
  153.0787  144.7503  159.2363 H   0  0  0  0  0  0  0  0  0  0  0  0
  152.1273  143.4026  162.6551 H   0  0  0  0  0  0  0  0  0  0  0  0
  153.7374  142.9801  161.4053 H   0  0  0  0  0  0  0  0  0  0  0  0
  153.1618  141.3413  161.1848 H   0  0  0  0  0  0  0  0  0  0  0  0
  152.4463  141.9809  157.0405 H   0  0  0  0  0  0  0  0  0  0  0  0
  146.0059  142.2818  156.5996 H   0  0  0  0  0  0  0  0  0  0  0  0
  146.1676  141.7437  154.3816 H   0  0  0  0  0  0  0  0  0  0  0  0
  147.3011  139.5094  155.2678 H   0  0  0  0  0  0  0  0  0  0  0  0
  147.1442  139.9422  153.5853 H   0  0  0  0  0  0  0  0  0  0  0  0
  149.5684  140.3045  152.5671 H   0  0  0  0  0  0  0  0  0  0  0  0
  151.5865  144.3568  157.4649 H   0  0  0  0  0  0  0  0  0  0  0  0
  150.4306  145.2116  158.4961 H   0  0  0  0  0  0  0  0  0  0  0  0
  152.3574  145.0002  161.3414 H   0  0  0  0  0  0  0  0  0  0  0  0
  1  2  1  0  0  0  0
  1 24  1  0  0  0  0
  2  3  1  0  0  0  0
  2 25  1  0  0  0  0
  2 26  1  0  0  0  0
  3 20  1  0  0  0  0
  3 18  1  0  0  0  0
  3  4  1  0  0  0  0
  4  5  1  0  0  0  0
  5 21  1  0  0  0  0
  5  6  1  0  0  0  0
  5 17  1  0  0  0  0
  6 10  1  0  0  0  0
  6  7  1  0  0  0  0
  7  8  2  0  0  0  0
  7 27  1  0  0  0  0
  8  9  1  0  0  0  0
  9 15  1  0  0  0  0
  9 10  2  0  0  0  0
 10 11  1  0  0  0  0
 11 12  2  0  0  0  0
 12 13  1  0  0  0  0
 12 28  1  0  0  0  0
 13 14  1  0  0  0  0
 13 29  1  0  0  0  0
 14 15  1  0  0  0  0
 14 30  1  0  0  0  0
 14 31  1  0  0  0  0
 15 22  1  0  0  0  0
 15 16  1  0  0  0  0
 16 32  1  0  0  0  0
 17 18  1  0  0  0  0
 17 33  1  0  0  0  0
 17 34  1  0  0  0  0
 18 23  1  0  0  0  0
 18 19  1  0  0  0  0
 19 35  1  0  0  0  0
M  END
> <s_m_source_file>
AV-unprocessed.smi

> <i_m_source_file_index>
157

> <i_lp_mmshare_version>
43012

> <i_f3d_flags>
0

> <s_epik_input>
W09IXVtDSDJdW0NASF0xT1tDQEhdKFtDSDJdW0NAQEhdMVtPSF0pbihbY0hdbjIpYyhjMjMpTj1bQ0hdW05IXVtDSDJdW0NASF0zW09IXQ==

> <s_epik_cmdline>
J2VwaWtfcHl0aG9uJywgJy1waCcsICc3LjAnLCAnLXRuJywgJzgnLCAnLW1hJywgJzIwMCcsICctbWV0YWxfYmluZGluZycsICctaW1hZScsICc8aW5maWxlLm1hZT4nLCAnLW9tYWUnLCAnPG91dGZpbGUubWFlPic=

> <r_lp_tautomer_probability>
1

> <r_epik_Ionization_Penalty>
0.0357149

> <r_epik_Ionization_Penalty_Charging>
0.0355056

> <r_epik_Ionization_Penalty_Neutral>
0.000209255

> <r_epik_State_Penalty>
0.0296046

> <r_epik_Charging_Adjusted_Penalty>
0.0651102

> <i_epik_Tot_Q>
0

> <i_epik_Tot_abs_Q>
0

> <r_epik_Metal_State_Penalty>
3.03559e-05

> <b_epik_Metal_Only>
0

> <s_epik_Chemistry_Notes>
This compound has an imine and may undergo hydrolysis. This compound contains an acetal/aminal-like group ( X-CH(R)-Y where X, Y are N, S, or O) that may be acid/base labile, releasing an aldehyde.

> <s_lp_Force_Field>
OPLS_2005

> <r_lp_Energy>
44.137

> <b_lp_Chiralities_Consistent>
1

> <s_lp_Variant>
AV-unprocessed.smi:157-11

> <Gold.Version>
5.8.1

> <Gold.Id.Protein>
6NUR|6NUR_protein|mol2

> <Gold.PLP.Fitness>
45.9967

> <Gold.PLP.PLP>
-36.9706

> <Gold.PLP.part.hbond>
-6.5800

> <Gold.PLP.part.metal>
0.0000

> <Gold.PLP.part.buried>
-5.6834

> <Gold.PLP.part.nonpolar>
-25.1775

> <Gold.PLP.part.repulsive>
0.2337

> <Gold.PLP.ligand.clash>
0.0000

> <Gold.PLP.ligand.torsion>
0.1005

> <Gold.PLP.Chemscore.Hbond>
3.0727

> <Gold.PLP.Chemscore.CHOScore>
0.0000

> <Gold.PLP.Chemscore.Metal>
0.0000

> <Gold.Chemscore.Hbonds>
donor molecule, donor type, donor heavy atom, donor atom, acceptor molecule, acceptor atom, score
      L1  H    16    32       P1  7957  0.68
      P1  H  6933  6945       L1     1  0.98
      P1  H  7989  7998       L1     8  0.41
      P1  H  8011  8017       L1    16  1.00

> <Gold.PLP.Chemscore.Internal.Correction>
0.0089

> <Gold.Rescore>
     Score         DG    S(hbond)    S(metal)    S(lipo)     H(rot)  DE(clash)    DE(int)     intcor
     10.86     -11.11       2.31        0.00      61.72       3.64       0.15       0.09       ----

> <Gold.Chemscore.Fitness>
10.8608

> <Gold.Chemscore.DG>
-11.1091

> <Gold.Chemscore.ZeroCoef>
-5.4800

> <Gold.Chemscore.Hbond>
2.3102

> <Gold.Chemscore.Metal>
0.0000

> <Gold.Chemscore.Lipo>
61.7238

> <Gold.Chemscore.Internal_Hbond>
0.0000

> <Gold.Chemscore.DEClash>
0.1547

> <Gold.Chemscore.DEInternal>
0.0935

> <Gold.Chemscore.Rot>
3.6362

> <Gold.Chemscore.Internal.Correction>
   9.000000E+99

> <Gold.Chemscore.Hbonds>
donor molecule, donor type, donor heavy atom, donor atom, acceptor molecule, acceptor atom, score
      L1  H    16    32       P1  7957  0.66
      P1  H  6933  6945       L1     1  0.86
      P1  H  7989  7998       L1     8  0.10
      P1  H  8011  8017       L1    16  0.30

> <Gold.Chemscore.Hbond.Weighted>
-7.7161

> <Gold.Chemscore.Metal.Weighted>
-0.0000

> <Gold.Chemscore.Lipo.Weighted>
-7.2217

> <Gold.Chemscore.Internal_Hbond.Weighted>
0.0000

> <Gold.Chemscore.DEClash.Weighted>
0.1547

> <Gold.Chemscore.DEInternal.Weighted>
0.0935

> <Gold.Chemscore.Rot.Weighted>
9.3087

> <Gold.Chemscore.Internal.Correction.Weighted>
   9.000000E+99

> <Gold.Protein.RotatedTorsions>
[ 6907 6896 6895 6894 ] final  143.04 input  -60.11 | X-H torsion
[ 7974 7965 7964 7962 ] final   49.06 input  175.53 | X-H torsion
[ 8008 7997 7996 7995 ] final -131.97 input   59.86 | X-H torsion
[ 10167 10162 10161 10158 ] final   25.00 input  -65.29 | X-H torsion
[ 10718 10713 10712 10709 ] final  159.83 input   66.30 | X-H torsion
[ 10763 10752 10751 10750 ] final -165.54 input  -60.55 | X-H torsion
[ 11005 11000 10999 10996 ] final  -16.74 input  -57.11 | X-H torsion

> <Gold.Protein.ActiveResidues>
 VAL166  LYS551  ARG553  GLY616  TRP617  ASP618  TYR619  PRO620  LYS621  CYS622 
 ASP623  PHE694  ASN695  SER759  ASP760  ASP761  ALA762  ILE779  LEU786  VAL792 
 PHE793  MET794  SER795  GLU796  ALA797  LYS798  CYS799  TRP800  GLU811  SER814 

> <Gold.Protein.RotatedAtoms>
  152.2112  133.4912  159.5110 H   0  0  0  0  0  0  0  0  0  0  0  0  # atno 6907 bound_to 6896
  150.6990  134.1464  159.4133 H   0  0  0  0  0  0  0  0  0  0  0  0  # atno 6908 bound_to 6896
  151.9384  135.0224  160.0585 H   0  0  0  0  0  0  0  0  0  0  0  0  # atno 6909 bound_to 6896
  146.0145  139.4580  142.9936 H   0  0  0  0  0  0  0  0  0  0  0  0  # atno 7974 bound_to 7965
  155.3212  140.0462  157.3039 H   0  0  0  0  0  0  0  0  0  0  0  0  # atno 8008 bound_to 7997
  154.5379  140.2278  155.8657 H   0  0  0  0  0  0  0  0  0  0  0  0  # atno 8009 bound_to 7997
  156.1853  140.3064  155.9232 H   0  0  0  0  0  0  0  0  0  0  0  0  # atno 8010 bound_to 7997
  140.5142  144.0110  150.6386 H   0  0  0  0  0  0  0  0  0  0  0  0  # atno 10167 bound_to 10162
  157.1588  131.0582  151.2243 H   0  0  0  0  0  0  0  0  0  0  0  0  # atno 10718 bound_to 10713
  154.6921  135.2972  154.9464 H   0  0  0  0  0  0  0  0  0  0  0  0  # atno 10763 bound_to 10752
  154.0423  135.6655  153.4795 H   0  0  0  0  0  0  0  0  0  0  0  0  # atno 10764 bound_to 10752
  153.0620  135.5110  154.8020 H   0  0  0  0  0  0  0  0  0  0  0  0  # atno 10765 bound_to 10752
  140.8098  133.8149  155.9552 H   0  0  0  0  0  0  0  0  0  0  0  0  # atno 11005 bound_to 11000
  145.7291  141.0049  143.1361 LP  0  0  0  0  0  0  0  0  0  0  0  0  # atno 17320 bound_to 7965
  144.6965  139.8962  143.7456 LP  0  0  0  0  0  0  0  0  0  0  0  0  # atno 17321 bound_to 7965
  140.3441  143.3002  152.0557 LP  0  0  0  0  0  0  0  0  0  0  0  0  # atno 17342 bound_to 10162
  139.4904  144.6421  151.6854 LP  0  0  0  0  0  0  0  0  0  0  0  0  # atno 17343 bound_to 10162
  157.4152  130.7407  149.6870 LP  0  0  0  0  0  0  0  0  0  0  0  0  # atno 17370 bound_to 10713
  155.9757  130.4085  150.3828 LP  0  0  0  0  0  0  0  0  0  0  0  0  # atno 17371 bound_to 10713
  140.9209  134.2143  157.4927 LP  0  0  0  0  0  0  0  0  0  0  0  0  # atno 17394 bound_to 11000
  139.8715  134.9792  156.5026 LP  0  0  0  0  0  0  0  0  0  0  0  0  # atno 17395 bound_to 11000

$$$$
