AV-unprocessed.smi:601|AV-procd|sdf|3034|dock8
  -GOLD-   2262023553D 1   1.00000     0.00000
 Structure written by MMmdl.
 49 50  0  0  0  0  0  0  0  0  2 V2000
  145.7058  137.4390  152.3315 C   0  0  0  0  0  0  0  0  0  0  0  0
  146.5195  138.6610  151.8845 C   0  0  0  0  0  0  0  0  0  0  0  0
  146.9477  139.5760  153.0429 C   0  0  0  0  0  0  0  0  0  0  0  0
  148.1615  139.0464  153.8307 C   0  0  0  0  0  0  0  0  0  0  0  0
  148.4406  139.8562  155.0267 N   0  0  0  0  0  0  0  0  0  0  0  0
  149.7185  140.1292  155.4048 C   0  0  0  0  0  0  0  0  0  0  0  0
  150.6863  139.6715  154.7936 O   0  0  0  0  0  0  0  0  0  0  0  0
  149.9694  141.0186  156.6430 C   0  0  1  0  0  0  0  0  0  0  0  0
  150.8364  140.4051  157.7549 C   0  0  0  0  0  0  0  0  0  0  0  0
  151.5773  141.5990  158.3455 C   0  0  0  0  0  0  0  0  0  0  0  0
  151.1644  142.7761  157.4614 C   0  0  0  0  0  0  0  0  0  0  0  0
  150.7196  142.1625  156.2644 O   0  0  0  0  0  0  0  0  0  0  0  0
  147.3253  140.3710  155.7148 C   0  0  0  0  0  0  0  0  0  0  0  0
  146.9557  141.6771  155.6335 C   0  0  0  0  0  0  0  0  0  0  0  0
  147.6807  142.5766  154.8645 N   0  0  0  0  0  0  0  0  0  0  0  0
  145.8140  142.1381  156.3428 N   0  0  0  0  0  0  0  0  0  0  0  0
  145.4258  143.5623  156.2223 C   0  0  0  0  0  0  0  0  0  0  0  0
  144.0323  143.7570  155.5878 C   0  0  0  0  0  0  0  0  0  0  0  0
  143.7518  145.1852  155.1015 C   0  0  0  0  0  0  0  0  0  0  0  0
  145.0813  141.2801  157.1193 C   0  0  0  0  0  0  0  0  0  0  0  0
  144.1008  141.7054  157.7317 O   0  0  0  0  0  0  0  0  0  0  0  0
  145.4588  139.9723  157.2004 N   0  5  0  0  0  0  0  0  0  0  0  0
  146.5351  139.4592  156.5490 C   0  0  0  0  0  0  0  0  0  0  0  0
  146.8541  138.2735  156.6422 O   0  0  0  0  0  0  0  0  0  0  0  0
  145.4848  136.7913  151.4831 H   0  0  0  0  0  0  0  0  0  0  0  0
  144.7546  137.7302  152.7767 H   0  0  0  0  0  0  0  0  0  0  0  0
  146.2543  136.8480  153.0657 H   0  0  0  0  0  0  0  0  0  0  0  0
  147.4138  138.3092  151.3693 H   0  0  0  0  0  0  0  0  0  0  0  0
  145.9531  139.2337  151.1494 H   0  0  0  0  0  0  0  0  0  0  0  0
  147.1612  140.5722  152.6552 H   0  0  0  0  0  0  0  0  0  0  0  0
  146.1016  139.6904  153.7212 H   0  0  0  0  0  0  0  0  0  0  0  0
  148.0051  138.0031  154.1104 H   0  0  0  0  0  0  0  0  0  0  0  0
  149.0402  139.0406  153.1849 H   0  0  0  0  0  0  0  0  0  0  0  0
  149.0213  141.3392  157.0769 H   0  0  0  0  0  0  0  0  0  0  0  0
  150.2278  139.8929  158.5006 H   0  0  0  0  0  0  0  0  0  0  0  0
  151.5649  139.6891  157.3729 H   0  0  0  0  0  0  0  0  0  0  0  0
  151.3159  141.7748  159.3894 H   0  0  0  0  0  0  0  0  0  0  0  0
  152.6544  141.4363  158.2919 H   0  0  0  0  0  0  0  0  0  0  0  0
  150.3384  143.3302  157.9106 H   0  0  0  0  0  0  0  0  0  0  0  0
  151.9829  143.4715  157.2749 H   0  0  0  0  0  0  0  0  0  0  0  0
  148.4987  142.2918  154.3454 H   0  0  0  0  0  0  0  0  0  0  0  0
  147.5053  143.5701  154.9126 H   0  0  0  0  0  0  0  0  0  0  0  0
  145.4469  144.0336  157.2052 H   0  0  0  0  0  0  0  0  0  0  0  0
  146.1584  144.1388  155.6557 H   0  0  0  0  0  0  0  0  0  0  0  0
  143.8980  143.0651  154.7565 H   0  0  0  0  0  0  0  0  0  0  0  0
  143.2763  143.4865  156.3251 H   0  0  0  0  0  0  0  0  0  0  0  0
  142.7318  145.2733  154.7278 H   0  0  0  0  0  0  0  0  0  0  0  0
  144.4230  145.4700  154.2912 H   0  0  0  0  0  0  0  0  0  0  0  0
  143.8741  145.9068  155.9095 H   0  0  0  0  0  0  0  0  0  0  0  0
  1  2  1  0  0  0  0
  1 25  1  0  0  0  0
  1 26  1  0  0  0  0
  1 27  1  0  0  0  0
  2  3  1  0  0  0  0
  2 28  1  0  0  0  0
  2 29  1  0  0  0  0
  3  4  1  0  0  0  0
  3 30  1  0  0  0  0
  3 31  1  0  0  0  0
  4  5  1  0  0  0  0
  4 32  1  0  0  0  0
  4 33  1  0  0  0  0
  5  6  1  0  0  0  0
  5 13  1  0  0  0  0
  6  7  2  0  0  0  0
  6  8  1  0  0  0  0
  8 12  1  0  0  0  0
  8  9  1  0  0  0  0
  8 34  1  0  0  0  0
  9 10  1  0  0  0  0
  9 35  1  0  0  0  0
  9 36  1  0  0  0  0
 10 11  1  0  0  0  0
 10 37  1  0  0  0  0
 10 38  1  0  0  0  0
 11 12  1  0  0  0  0
 11 39  1  0  0  0  0
 11 40  1  0  0  0  0
 13 23  1  0  0  0  0
 13 14  2  0  0  0  0
 14 15  1  0  0  0  0
 14 16  1  0  0  0  0
 15 41  1  0  0  0  0
 15 42  1  0  0  0  0
 16 17  1  0  0  0  0
 16 20  1  0  0  0  0
 17 18  1  0  0  0  0
 17 43  1  0  0  0  0
 17 44  1  0  0  0  0
 18 19  1  0  0  0  0
 18 45  1  0  0  0  0
 18 46  1  0  0  0  0
 19 47  1  0  0  0  0
 19 48  1  0  0  0  0
 19 49  1  0  0  0  0
 20 21  2  0  0  0  0
 20 22  1  0  0  0  0
 22 23  1  0  0  0  0
 23 24  2  0  0  0  0
M  CHG  1  22  -1
M  END
> <s_m_source_file>
AV-unprocessed.smi

> <i_m_source_file_index>
601

> <i_lp_mmshare_version>
43012

> <i_f3d_flags>
0

> <s_epik_input>
TzFbQ0gyXVtDSDJdW0NIMl1bQ0BIXTFDKD1PKU4oW0NIMl1bQ0gyXVtDSDJdW0NIM10pYzJjKFtOSDJdKW4oW0NIMl1bQ0gyXVtDSDNdKWMoPU8pW25IXWMyPU8=

> <s_epik_cmdline>
J2VwaWtfcHl0aG9uJywgJy1waCcsICc3LjAnLCAnLXRuJywgJzgnLCAnLW1hJywgJzIwMCcsICctbWV0YWxfYmluZGluZycsICctaW1hZScsICc8aW5maWxlLm1hZT4nLCAnLW9tYWUnLCAnPG91dGZpbGUubWFlPic=

> <r_lp_tautomer_probability>
1

> <r_epik_Ionization_Penalty>
5.90608

> <r_epik_Ionization_Penalty_Charging>
4.55687e-07

> <r_epik_Ionization_Penalty_Neutral>
5.90608

> <r_epik_State_Penalty>
5.90604

> <r_epik_Charging_Adjusted_Penalty>
5.90604

> <i_epik_Tot_Q>
-1

> <i_epik_Tot_abs_Q>
1

> <r_epik_Metal_State_Penalty>
1.84043

> <b_epik_Metal_Only>
1

> <s_lp_Force_Field>
OPLS_2005

> <r_lp_Energy>
54.0415

> <b_lp_Chiralities_Consistent>
1

> <s_lp_Variant>
AV-unprocessed.smi:601-4

> <Gold.Version>
5.8.1

> <Gold.Id.Protein>
6NUR|6NUR_protein|mol2

> <Gold.PLP.Fitness>
32.8424

> <Gold.PLP.PLP>
-30.3170

> <Gold.PLP.part.hbond>
-2.0000

> <Gold.PLP.part.metal>
0.0000

> <Gold.PLP.part.buried>
-2.1942

> <Gold.PLP.part.nonpolar>
-26.9491

> <Gold.PLP.part.repulsive>
0.3525

> <Gold.PLP.ligand.clash>
0.0000

> <Gold.PLP.ligand.torsion>
1.8857

> <Gold.PLP.Chemscore.Hbond>
1.3800

> <Gold.PLP.Chemscore.CHOScore>
0.0000

> <Gold.PLP.Chemscore.Metal>
0.0000

> <Gold.Chemscore.Hbonds>
donor molecule, donor type, donor heavy atom, donor atom, acceptor molecule, acceptor atom, score
      L1  H    15    42       P1  8028  0.33
      P1  H  7989  7998       L1     7  1.00

> <Gold.PLP.Chemscore.Internal.Correction>
2.1568

> <Gold.Rescore>
     Score         DG    S(hbond)    S(metal)    S(lipo)     H(rot)  DE(clash)    DE(int)     intcor
     10.54     -12.57       0.99        0.00      74.33       1.92       0.04       2.00       ----

> <Gold.Chemscore.Fitness>
10.5396

> <Gold.Chemscore.DG>
-12.5747

> <Gold.Chemscore.ZeroCoef>
-5.4800

> <Gold.Chemscore.Hbond>
0.9919

> <Gold.Chemscore.Metal>
0.0000

> <Gold.Chemscore.Lipo>
74.3349

> <Gold.Chemscore.Internal_Hbond>
0.0000

> <Gold.Chemscore.DEClash>
0.0356

> <Gold.Chemscore.DEInternal>
1.9995

> <Gold.Chemscore.Rot>
1.9201

> <Gold.Chemscore.Internal.Correction>
   9.000000E+99

> <Gold.Chemscore.Hbonds>
donor molecule, donor type, donor heavy atom, donor atom, acceptor molecule, acceptor atom, score
      L1  H    15    42       P1  8028  0.05
      P1  H  7989  7998       L1     7  0.92

> <Gold.Chemscore.Hbond.Weighted>
-3.3129

> <Gold.Chemscore.Metal.Weighted>
-0.0000

> <Gold.Chemscore.Lipo.Weighted>
-8.6972

> <Gold.Chemscore.Internal_Hbond.Weighted>
0.0000

> <Gold.Chemscore.DEClash.Weighted>
0.0356

> <Gold.Chemscore.DEInternal.Weighted>
1.9995

> <Gold.Chemscore.Rot.Weighted>
4.9154

> <Gold.Chemscore.Internal.Correction.Weighted>
   9.000000E+99

> <Gold.Protein.RotatedTorsions>
[ 6907 6896 6895 6894 ] final  105.69 input  -60.11 | X-H torsion
[ 7974 7965 7964 7962 ] final -101.83 input  175.53 | X-H torsion
[ 8008 7997 7996 7995 ] final  -82.04 input   59.86 | X-H torsion
[ 10167 10162 10161 10158 ] final  118.66 input  -65.29 | X-H torsion
[ 10718 10713 10712 10709 ] final   37.58 input   66.30 | X-H torsion
[ 10763 10752 10751 10750 ] final  -43.30 input  -60.55 | X-H torsion
[ 11005 11000 10999 10996 ] final   -8.71 input  -57.11 | X-H torsion

> <Gold.Protein.ActiveResidues>
 VAL166  LYS551  ARG553  GLY616  TRP617  ASP618  TYR619  PRO620  LYS621  CYS622 
 ASP623  PHE694  ASN695  SER759  ASP760  ASP761  ALA762  ILE779  LEU786  VAL792 
 PHE793  MET794  SER795  GLU796  ALA797  LYS798  CYS799  TRP800  GLU811  SER814 

> <Gold.Protein.RotatedAtoms>
  152.5221  133.9490  159.7662 H   0  0  0  0  0  0  0  0  0  0  0  0  # atno 6907 bound_to 6896
  150.9804  133.6243  159.2730 H   0  0  0  0  0  0  0  0  0  0  0  0  # atno 6908 bound_to 6896
  151.3422  135.0872  159.9428 H   0  0  0  0  0  0  0  0  0  0  0  0  # atno 6909 bound_to 6896
  145.2765  140.9314  143.2956 H   0  0  0  0  0  0  0  0  0  0  0  0  # atno 7974 bound_to 7965
  154.6045  140.0639  156.9412 H   0  0  0  0  0  0  0  0  0  0  0  0  # atno 8008 bound_to 7997
  155.2077  140.3320  155.4315 H   0  0  0  0  0  0  0  0  0  0  0  0  # atno 8009 bound_to 7997
  156.2339  140.1853  156.7155 H   0  0  0  0  0  0  0  0  0  0  0  0  # atno 8010 bound_to 7997
  139.6097  144.7079  151.2872 H   0  0  0  0  0  0  0  0  0  0  0  0  # atno 10167 bound_to 10162
  157.3487  130.7586  149.6963 H   0  0  0  0  0  0  0  0  0  0  0  0  # atno 10718 bound_to 10713
  153.9932  135.6703  153.4755 H   0  0  0  0  0  0  0  0  0  0  0  0  # atno 10763 bound_to 10752
  153.0695  135.4982  154.8271 H   0  0  0  0  0  0  0  0  0  0  0  0  # atno 10764 bound_to 10752
  154.7097  135.3095  154.9179 H   0  0  0  0  0  0  0  0  0  0  0  0  # atno 10765 bound_to 10752
  140.7264  133.8785  155.8860 H   0  0  0  0  0  0  0  0  0  0  0  0  # atno 11005 bound_to 11000
  144.9290  139.4321  143.6504 LP  0  0  0  0  0  0  0  0  0  0  0  0  # atno 17320 bound_to 7965
  146.3230  139.8191  142.8930 LP  0  0  0  0  0  0  0  0  0  0  0  0  # atno 17321 bound_to 7965
  140.7310  143.6863  150.7959 LP  0  0  0  0  0  0  0  0  0  0  0  0  # atno 17342 bound_to 10162
  140.0455  143.5302  152.2698 LP  0  0  0  0  0  0  0  0  0  0  0  0  # atno 17343 bound_to 10162
  155.9718  130.4147  150.4144 LP  0  0  0  0  0  0  0  0  0  0  0  0  # atno 17370 bound_to 10713
  157.2204  131.0481  151.2550 LP  0  0  0  0  0  0  0  0  0  0  0  0  # atno 17371 bound_to 10713
  140.9959  134.1216  157.4364 LP  0  0  0  0  0  0  0  0  0  0  0  0  # atno 17394 bound_to 11000
  139.8836  135.0054  156.6312 LP  0  0  0  0  0  0  0  0  0  0  0  0  # atno 17395 bound_to 11000

$$$$
