AV-unprocessed.smi:3044|AV-procd|sdf|11606|dock3
  -GOLD-   2272016583D 1   1.00000     0.00000
 Structure written by MMmdl.
 41 42  0  0  0  0  0  0  0  0  1 V2000
  152.7527  138.6818  154.7101 C   0  0  0  0  0  0  0  0  0  0  0  0
  151.6393  137.7536  155.1643 C   0  0  0  0  0  0  0  0  0  0  0  0
  151.6487  136.5224  154.6061 N   0  0  0  0  0  0  0  0  0  0  0  0
  150.6877  135.6483  154.9705 C   0  0  0  0  0  0  0  0  0  0  0  0
  149.6836  135.9535  155.9080 C   0  0  0  0  0  0  0  0  0  0  0  0
  149.6739  137.2360  156.4874 C   0  0  0  0  0  0  0  0  0  0  0  0
  150.6641  138.1725  156.1031 C   0  0  0  0  0  0  0  0  0  0  0  0
  150.7446  139.4852  156.6447 N   0  0  0  0  0  0  0  0  0  0  0  0
  150.0386  140.0167  157.6594 C   0  0  0  0  0  0  0  0  0  0  0  0
  149.1963  139.4134  158.3230 O   0  0  0  0  0  0  0  0  0  0  0  0
  150.3257  141.4899  157.9646 C   0  0  0  0  0  0  0  0  0  0  0  0
  151.7057  141.7912  157.7717 O   0  0  0  0  0  0  0  0  0  0  0  0
  152.2641  142.7503  158.6669 C   0  0  1  0  0  0  0  0  0  0  0  0
  151.3178  143.9609  158.7175 C   0  0  0  0  0  0  0  0  0  0  0  0
  151.7902  144.9919  159.7538 C   0  0  0  0  0  0  0  0  0  0  0  0
  151.9391  144.3536  161.1442 C   0  0  0  0  0  0  0  0  0  0  0  0
  152.8867  143.1388  161.1101 C   0  0  1  0  0  0  0  0  0  0  0  0
  153.0283  142.4954  162.4969 C   0  0  0  0  0  0  0  0  0  0  0  0
  152.4124  142.1140  160.0618 C   0  0  0  0  0  0  0  0  0  0  0  0
  152.3385  139.5437  154.1878 H   0  0  0  0  0  0  0  0  0  0  0  0
  153.4431  138.1783  154.0323 H   0  0  0  0  0  0  0  0  0  0  0  0
  153.3250  139.0388  155.5665 H   0  0  0  0  0  0  0  0  0  0  0  0
  150.7244  134.6739  154.5059 H   0  0  0  0  0  0  0  0  0  0  0  0
  148.9403  135.2188  156.1800 H   0  0  0  0  0  0  0  0  0  0  0  0
  148.9199  137.4710  157.2228 H   0  0  0  0  0  0  0  0  0  0  0  0
  151.3376  140.1284  156.1400 H   0  0  0  0  0  0  0  0  0  0  0  0
  149.6998  142.1449  157.3564 H   0  0  0  0  0  0  0  0  0  0  0  0
  150.0702  141.6852  159.0064 H   0  0  0  0  0  0  0  0  0  0  0  0
  153.2433  143.0932  158.3261 H   0  0  0  0  0  0  0  0  0  0  0  0
  151.2555  144.4256  157.7330 H   0  0  0  0  0  0  0  0  0  0  0  0
  150.3092  143.6298  158.9684 H   0  0  0  0  0  0  0  0  0  0  0  0
  152.7460  145.4137  159.4403 H   0  0  0  0  0  0  0  0  0  0  0  0
  151.0854  145.8226  159.7995 H   0  0  0  0  0  0  0  0  0  0  0  0
  152.3107  145.0978  161.8497 H   0  0  0  0  0  0  0  0  0  0  0  0
  150.9581  144.0460  161.5090 H   0  0  0  0  0  0  0  0  0  0  0  0
  153.8743  143.4922  160.8104 H   0  0  0  0  0  0  0  0  0  0  0  0
  152.0729  142.1103  162.8548 H   0  0  0  0  0  0  0  0  0  0  0  0
  153.3917  143.2165  163.2294 H   0  0  0  0  0  0  0  0  0  0  0  0
  153.7347  141.6649  162.4739 H   0  0  0  0  0  0  0  0  0  0  0  0
  151.4577  141.6864  160.3710 H   0  0  0  0  0  0  0  0  0  0  0  0
  153.1208  141.2872  160.0165 H   0  0  0  0  0  0  0  0  0  0  0  0
  1  2  1  0  0  0  0
  1 20  1  0  0  0  0
  1 21  1  0  0  0  0
  1 22  1  0  0  0  0
  2  7  1  0  0  0  0
  2  3  2  0  0  0  0
  3  4  1  0  0  0  0
  4  5  2  0  0  0  0
  4 23  1  0  0  0  0
  5  6  1  0  0  0  0
  5 24  1  0  0  0  0
  6  7  2  0  0  0  0
  6 25  1  0  0  0  0
  7  8  1  0  0  0  0
  8  9  1  0  0  0  0
  8 26  1  0  0  0  0
  9 10  2  0  0  0  0
  9 11  1  0  0  0  0
 11 12  1  0  0  0  0
 11 27  1  0  0  0  0
 11 28  1  0  0  0  0
 12 13  1  0  0  0  0
 13 19  1  0  0  0  0
 13 14  1  0  0  0  0
 13 29  1  0  0  0  0
 14 15  1  0  0  0  0
 14 30  1  0  0  0  0
 14 31  1  0  0  0  0
 15 16  1  0  0  0  0
 15 32  1  0  0  0  0
 15 33  1  0  0  0  0
 16 17  1  0  0  0  0
 16 34  1  0  0  0  0
 16 35  1  0  0  0  0
 17 18  1  0  0  0  0
 17 19  1  0  0  0  0
 17 36  1  0  0  0  0
 18 37  1  0  0  0  0
 18 38  1  0  0  0  0
 18 39  1  0  0  0  0
 19 40  1  0  0  0  0
 19 41  1  0  0  0  0
M  END
> <s_m_source_file>
AV-unprocessed.smi

> <i_m_source_file_index>
3044

> <i_lp_mmshare_version>
43012

> <i_f3d_flags>
0

> <s_epik_input>
W0NIM11jMW5bY0hdW2NIXVtjSF1jMVtOSF1DKD1PKVtDSDJdT1tDQEBIXTJbQ0gyXVtDSDJdW0NIMl1bQ0BASF0oW0NIM10pW0NIMl0y

> <s_epik_cmdline>
J2VwaWtfcHl0aG9uJywgJy1waCcsICc3LjAnLCAnLXRuJywgJzgnLCAnLW1hJywgJzIwMCcsICctbWV0YWxfYmluZGluZycsICctaW1hZScsICc8aW5maWxlLm1hZT4nLCAnLW9tYWUnLCAnPG91dGZpbGUubWFlPic=

> <r_epik_Ionization_Penalty>
0.0077122

> <r_epik_Ionization_Penalty_Charging>
0

> <r_epik_Ionization_Penalty_Neutral>
0.0077122

> <r_epik_State_Penalty>
0.00577497

> <r_epik_Charging_Adjusted_Penalty>
0.00577497

> <i_epik_Tot_Q>
0

> <i_epik_Tot_abs_Q>
0

> <r_epik_Metal_State_Penalty>
-0

> <b_epik_Metal_Only>
0

> <s_lp_Force_Field>
OPLS_2005

> <r_lp_Energy>
17.5643

> <b_lp_Chiralities_Consistent>
1

> <s_lp_Variant>
AV-unprocessed.smi:3044-2

> <Gold.Version>
5.8.1

> <Gold.Id.Protein>
6NUR|6NUR_protein|mol2

> <Gold.PLP.Fitness>
41.3742

> <Gold.PLP.PLP>
-39.6924

> <Gold.PLP.part.hbond>
-1.3282

> <Gold.PLP.part.metal>
0.0000

> <Gold.PLP.part.buried>
-5.9501

> <Gold.PLP.part.nonpolar>
-33.4330

> <Gold.PLP.part.repulsive>
0.2302

> <Gold.PLP.ligand.clash>
0.0000

> <Gold.PLP.ligand.torsion>
0.6640

> <Gold.PLP.Chemscore.Hbond>
1.0000

> <Gold.PLP.Chemscore.CHOScore>
0.0000

> <Gold.PLP.Chemscore.Metal>
0.0000

> <Gold.Chemscore.Hbonds>
donor molecule, donor type, donor heavy atom, donor atom, acceptor molecule, acceptor atom, score
      P1  H 10752 10765       L1     3  1.00

> <Gold.PLP.Chemscore.Internal.Correction>
0.0097

> <Gold.Rescore>
     Score         DG    S(hbond)    S(metal)    S(lipo)     H(rot)  DE(clash)    DE(int)     intcor
     16.77     -18.79       0.95        0.00     115.09       1.31       0.04       1.98       ----

> <Gold.Chemscore.Fitness>
16.7695

> <Gold.Chemscore.DG>
-18.7864

> <Gold.Chemscore.ZeroCoef>
-5.4800

> <Gold.Chemscore.Hbond>
0.9537

> <Gold.Chemscore.Metal>
0.0000

> <Gold.Chemscore.Lipo>
115.0894

> <Gold.Chemscore.Internal_Hbond>
0.0000

> <Gold.Chemscore.DEClash>
0.0387

> <Gold.Chemscore.DEInternal>
1.9782

> <Gold.Chemscore.Rot>
1.3064

> <Gold.Chemscore.Internal.Correction>
   9.000000E+99

> <Gold.Chemscore.Hbonds>
donor molecule, donor type, donor heavy atom, donor atom, acceptor molecule, acceptor atom, score
      P1  H 10752 10765       L1     3  0.48

> <Gold.Chemscore.Hbond.Weighted>
-3.1852

> <Gold.Chemscore.Metal.Weighted>
-0.0000

> <Gold.Chemscore.Lipo.Weighted>
-13.4655

> <Gold.Chemscore.Internal_Hbond.Weighted>
0.0000

> <Gold.Chemscore.DEClash.Weighted>
0.0387

> <Gold.Chemscore.DEInternal.Weighted>
1.9782

> <Gold.Chemscore.Rot.Weighted>
3.3443

> <Gold.Chemscore.Internal.Correction.Weighted>
   9.000000E+99

> <Gold.Protein.RotatedTorsions>
[ 6907 6896 6895 6894 ] final  -98.00 input  -60.11 | X-H torsion
[ 7974 7965 7964 7962 ] final   14.97 input  175.53 | X-H torsion
[ 8008 7997 7996 7995 ] final   72.80 input   59.86 | X-H torsion
[ 10167 10162 10161 10158 ] final -113.88 input  -65.29 | X-H torsion
[ 10718 10713 10712 10709 ] final  103.70 input   66.30 | X-H torsion
[ 10763 10752 10751 10750 ] final  165.66 input  -60.55 | X-H torsion
[ 11005 11000 10999 10996 ] final  174.28 input  -57.11 | X-H torsion

> <Gold.Protein.ActiveResidues>
 VAL166  LYS551  ARG553  GLY616  TRP617  ASP618  TYR619  PRO620  LYS621  CYS622 
 ASP623  PHE694  ASN695  SER759  ASP760  ASP761  ALA762  ILE779  LEU786  VAL792 
 PHE793  MET794  SER795  GLU796  ALA797  LYS798  CYS799  TRP800  GLU811  SER814 

> <Gold.Protein.RotatedAtoms>
  150.7033  134.1262  159.4052 H   0  0  0  0  0  0  0  0  0  0  0  0  # atno 6907 bound_to 6896
  151.9248  135.0280  160.0534 H   0  0  0  0  0  0  0  0  0  0  0  0  # atno 6908 bound_to 6896
  152.2225  133.4959  159.5207 H   0  0  0  0  0  0  0  0  0  0  0  0  # atno 6909 bound_to 6896
  146.2291  139.8963  142.8546 H   0  0  0  0  0  0  0  0  0  0  0  0  # atno 7974 bound_to 7965
  155.7742  140.3483  155.5263 H   0  0  0  0  0  0  0  0  0  0  0  0  # atno 8008 bound_to 7997
  155.8792  140.0999  157.1518 H   0  0  0  0  0  0  0  0  0  0  0  0  # atno 8009 bound_to 7997
  154.4023  140.1325  156.4162 H   0  0  0  0  0  0  0  0  0  0  0  0  # atno 8010 bound_to 7997
  140.1071  143.4561  152.1776 H   0  0  0  0  0  0  0  0  0  0  0  0  # atno 10167 bound_to 10162
  157.6764  131.0785  150.5594 H   0  0  0  0  0  0  0  0  0  0  0  0  # atno 10718 bound_to 10713
  154.3273  135.2755  155.2489 H   0  0  0  0  0  0  0  0  0  0  0  0  # atno 10763 bound_to 10752
  154.4816  135.5857  153.6397 H   0  0  0  0  0  0  0  0  0  0  0  0  # atno 10764 bound_to 10752
  152.9870  135.6113  154.3463 H   0  0  0  0  0  0  0  0  0  0  0  0  # atno 10765 bound_to 10752
  140.3496  134.7206  157.4259 H   0  0  0  0  0  0  0  0  0  0  0  0  # atno 11005 bound_to 11000
  145.2367  140.9994  143.3959 LP  0  0  0  0  0  0  0  0  0  0  0  0  # atno 17320 bound_to 7965
  144.9485  139.4109  143.6414 LP  0  0  0  0  0  0  0  0  0  0  0  0  # atno 17321 bound_to 7965
  139.5639  144.7423  151.4076 LP  0  0  0  0  0  0  0  0  0  0  0  0  # atno 17342 bound_to 10162
  140.6946  143.7779  150.7307 LP  0  0  0  0  0  0  0  0  0  0  0  0  # atno 17343 bound_to 10162
  156.5897  130.4326  149.5942 LP  0  0  0  0  0  0  0  0  0  0  0  0  # atno 17370 bound_to 10713
  156.2593  130.6953  151.1716 LP  0  0  0  0  0  0  0  0  0  0  0  0  # atno 17371 bound_to 10713
  140.0714  134.5858  155.8638 LP  0  0  0  0  0  0  0  0  0  0  0  0  # atno 17394 bound_to 11000
  141.2016  133.6619  156.5958 LP  0  0  0  0  0  0  0  0  0  0  0  0  # atno 17395 bound_to 11000

$$$$
