#       Name:                AV-unprocessed.smi:1543
#       Creating user name   scv26
#       Creation time:       Fri Mar 27 06:38:17 2020


#       File generated by GOLD software.
#

@<TRIPOS>MOLECULE
AV-unprocessed.smi:1543
    54    55     1
SMALL
NO_CHARGES


@<TRIPOS>ATOM
      1 ****        -4.5303   1.3492  -2.2944 C.3            1 S1                 0.0000
      2 ****        -4.0125  -0.0725  -2.0106 C.3            1 S1                 0.0000
      3 ****        -2.4748  -0.1689  -1.9642 C.3            1 S1                 0.0000
      4 ****        -1.9347   0.4459  -0.7188 N.4            1 S1                 1.0000
      5 ****        -0.4356   0.5920  -0.6513 C.3            1 S1                 0.0000
      6 ****         0.0749   1.3750  -1.8871 C.3            1 S1                 0.0000
      7 ****        -0.0607   1.4516   0.5823 C.3            1 S1                 0.0000
      8 ****         0.2651  -0.7987  -0.5847 C.3            1 S1                 0.0000
      9 ****         1.7254  -0.7172  -0.5590 N.am           1 S1                 0.0000
     10 ****         2.4930  -0.8093   0.5367 C.2            1 S1                 0.0000
     11 ****         2.0406  -0.9681   1.6701 O.2            1 S1                 0.0000
     12 ****         3.7970  -0.7186   0.2250 N.am           1 S1                 0.0000
     13 ****         4.9186  -0.7433   1.0975 C.ar           1 S1                 0.0000
     14 ****         4.8637  -0.4242   2.4761 C.ar           1 S1                 0.0000
     15 ****         6.0514  -0.4678   3.2315 C.ar           1 S1                 0.0000
     16 ****         7.2501  -0.8198   2.5813 C.ar           1 S1                 0.0000
     17 ****         7.3198  -1.1118   1.2656 N.ar           1 S1                 0.0000
     18 ****         6.1771  -1.0681   0.5477 C.ar           1 S1                 0.0000
     19 ****        -2.5780  -0.1927   0.4626 C.3            1 S1                 0.0000
     20 ****        -4.1084  -0.0516   0.3866 C.3            1 S1                 0.0000
     21 ****        -4.8081  -0.7648   1.5490 C.3            1 S1                 0.0000
     22 ****        -4.5792  -0.6295  -0.8265 O.3            1 S1                 0.0000
     23 ****        -4.1900   1.6962  -3.2704 H              1 S1                 0.0000
     24 ****        -4.1840   2.0728  -1.5570 H              1 S1                 0.0000
     25 ****        -5.6203   1.3717  -2.3002 H              1 S1                 0.0000
     26 ****        -4.3586  -0.7007  -2.8321 H              1 S1                 0.0000
     27 ****        -2.1829  -1.2185  -2.0103 H              1 S1                 0.0000
     28 ****        -2.0821   0.3071  -2.8604 H              1 S1                 0.0000
     29 ****         1.1136   1.6854  -1.7673 H              1 S1                 0.0000
     30 ****        -0.5105   2.2799  -2.0550 H              1 S1                 0.0000
     31 ****         0.0429   0.7785  -2.7987 H              1 S1                 0.0000
     32 ****         0.9836   1.7645   0.5554 H              1 S1                 0.0000
     33 ****        -0.1883   0.9122   1.5205 H              1 S1                 0.0000
     34 ****        -0.6617   2.3602   0.6316 H              1 S1                 0.0000
     35 ****        -0.0826  -1.3723   0.2749 H              1 S1                 0.0000
     36 ****         0.0085  -1.3943  -1.4600 H              1 S1                 0.0000
     37 ****         2.1863  -0.5899  -1.4483 H              1 S1                 0.0000
     38 ****         4.0175  -0.6785  -0.7593 H              1 S1                 0.0000
     39 ****         3.9457  -0.1352   2.9639 H              1 S1                 0.0000
     40 ****         6.0442  -0.2316   4.2854 H              1 S1                 0.0000
     41 ****         8.1785  -0.8611   3.1317 H              1 S1                 0.0000
     42 ****         6.2716  -1.3052  -0.5022 H              1 S1                 0.0000
     43 ****        -2.3115  -1.2492   0.5095 H              1 S1                 0.0000
     44 ****        -2.2476   0.2625   1.3938 H              1 S1                 0.0000
     45 ****        -4.3821   1.0029   0.4251 H              1 S1                 0.0000
     46 ****        -4.4895  -0.3574   2.5089 H              1 S1                 0.0000
     47 ****        -4.5867  -1.8324   1.5490 H              1 S1                 0.0000
     48 ****        -5.8903  -0.6495   1.4826 H              1 S1                 0.0000
     49 ****        -2.2794   1.3954  -0.7253 H              1 S1                 0.0000
     50 ****         1.0526  -1.0351   1.8092 LP             1 S1                 0.0000
     51 ****         2.6610  -1.0301   2.4519 LP             1 S1                 0.0000
     52 ****         8.1901  -1.3529   0.8360 LP             1 S1                 0.0000
     53 ****        -4.3668  -1.6065  -0.8092 LP             1 S1                 0.0000
     54 ****        -5.5705  -0.5046  -0.8670 LP             1 S1                 0.0000
@<TRIPOS>BOND
    1    1    2 1     
    2    1   23 1     
    3    1   24 1     
    4    1   25 1     
    5    2   22 1     
    6    2    3 1     
    7    2   26 1     
    8    3    4 1     
    9    3   27 1     
   10    3   28 1     
   11    4    5 1     
   12    4   19 1     
   13    4   49 1     
   14    5    6 1     
   15    5    7 1     
   16    5    8 1     
   17    6   29 1     
   18    6   30 1     
   19    6   31 1     
   20    7   32 1     
   21    7   33 1     
   22    7   34 1     
   23    8    9 1     
   24    8   35 1     
   25    8   36 1     
   26    9   10 am    
   27    9   37 1     
   28   10   11 2     
   29   10   12 am    
   30   12   13 1     
   31   12   38 1     
   32   13   18 ar    
   33   13   14 ar    
   34   14   15 ar    
   35   14   39 1     
   36   15   16 ar    
   37   15   40 1     
   38   16   17 ar    
   39   16   41 1     
   40   17   18 ar    
   41   18   42 1     
   42   19   20 1     
   43   19   43 1     
   44   19   44 1     
   45   20   21 1     
   46   20   22 1     
   47   20   45 1     
   48   21   46 1     
   49   21   47 1     
   50   21   48 1     
   51   11   50 1     
   52   11   51 1     
   53   17   52 1     
   54   22   53 1     
   55   22   54 1     
@<TRIPOS>SUBSTRUCTURE
      1 S1             1
@<TRIPOS>SET
LONE_PAIRS      STATIC     ATOMS    <user>   **** ""
5 50 51 52 53 54
DONOR_HYDROGENS      STATIC     ATOMS    <user>   **** ""
3 49 37 38
ATOM$BLUE        STATIC     ATOMS    COLORGROUP SYSTEM
5 50 51 52 53 54
ATOM$RED        STATIC     ATOMS    COLORGROUP SYSTEM
3 49 37 38
