AV-unprocessed.smi:2718|AV-procd|sdf|10490|dock6
  -GOLD-   2272014533D 1   1.00000     0.00000
 Structure written by MMmdl.
 47 48  0  0  0  0  0  0  0  0  1 V2000
  151.8046  144.7956  160.7195 C   0  0  0  0  0  0  0  0  0  0  0  0
  152.3428  143.7258  159.7903 C   0  0  0  0  0  0  0  0  0  0  0  0
  152.2548  144.0648  158.3126 C   0  0  0  0  0  0  0  0  0  0  0  0
  152.8559  142.5730  160.2607 C   0  0  0  0  0  0  0  0  0  0  0  0
  153.4154  141.4581  159.4524 C   0  0  2  0  0  0  0  0  0  0  0  0
  152.8243  140.0635  159.5427 C   0  0  1  0  0  0  0  0  0  0  0  0
  152.6849  139.2632  158.2849 C   0  0  0  0  0  0  0  0  0  0  0  0
  153.6259  138.9975  157.5360 O   0  0  0  0  0  0  0  0  0  0  0  0
  151.4253  138.8799  158.0299 N   0  0  0  0  0  0  0  0  0  0  0  0
  150.9943  138.1352  156.8500 C   0  0  0  0  0  0  0  0  0  0  0  0
  150.4091  136.7478  157.1966 C   0  0  1  0  0  0  0  0  0  0  0  0
  151.4713  135.6424  157.1039 C   0  0  0  0  0  0  0  0  0  0  0  0
  149.7061  136.7322  158.5283 C   0  0  0  0  0  0  0  0  0  0  0  0
  150.3489  136.7956  159.7025 N   0  0  0  0  0  0  0  0  0  0  0  0
  149.3653  136.7748  160.6702 N   0  0  0  0  0  0  0  0  0  0  0  0
  148.2246  136.7028  159.9860 C   0  0  0  0  0  0  0  0  0  0  0  0
  148.3624  136.6743  158.6521 N   0  0  0  0  0  0  0  0  0  0  0  0
  147.3234  136.6031  157.6435 C   0  0  0  0  0  0  0  0  0  0  0  0
  154.2150  140.3411  160.1041 C   0  0  0  0  0  0  0  0  0  0  0  0
  155.4992  139.8722  159.4296 C   0  0  0  0  0  0  0  0  0  0  0  0
  154.3868  140.2698  161.6142 C   0  0  0  0  0  0  0  0  0  0  0  0
  152.3487  145.7292  160.5749 H   0  0  0  0  0  0  0  0  0  0  0  0
  151.9028  144.5053  161.7661 H   0  0  0  0  0  0  0  0  0  0  0  0
  150.7494  144.9778  160.5156 H   0  0  0  0  0  0  0  0  0  0  0  0
  152.8341  144.9633  158.0992 H   0  0  0  0  0  0  0  0  0  0  0  0
  151.2180  144.2532  158.0329 H   0  0  0  0  0  0  0  0  0  0  0  0
  152.6321  143.2649  157.6761 H   0  0  0  0  0  0  0  0  0  0  0  0
  152.8729  142.4162  161.3297 H   0  0  0  0  0  0  0  0  0  0  0  0
  153.7402  141.8005  158.4708 H   0  0  0  0  0  0  0  0  0  0  0  0
  152.0362  139.9113  160.2796 H   0  0  0  0  0  0  0  0  0  0  0  0
  150.7070  139.1417  158.6899 H   0  0  0  0  0  0  0  0  0  0  0  0
  150.2744  138.7240  156.2791 H   0  0  0  0  0  0  0  0  0  0  0  0
  151.8679  138.0139  156.2087 H   0  0  0  0  0  0  0  0  0  0  0  0
  149.6735  136.5178  156.4263 H   0  0  0  0  0  0  0  0  0  0  0  0
  151.0302  134.6601  157.2758 H   0  0  0  0  0  0  0  0  0  0  0  0
  152.2618  135.7868  157.8410 H   0  0  0  0  0  0  0  0  0  0  0  0
  151.9361  135.6272  156.1178 H   0  0  0  0  0  0  0  0  0  0  0  0
  147.2609  136.6714  160.4730 H   0  0  0  0  0  0  0  0  0  0  0  0
  146.3448  136.5215  158.1176 H   0  0  0  0  0  0  0  0  0  0  0  0
  147.4820  135.7298  157.0105 H   0  0  0  0  0  0  0  0  0  0  0  0
  147.3427  137.5030  157.0286 H   0  0  0  0  0  0  0  0  0  0  0  0
  155.6105  138.7931  159.5374 H   0  0  0  0  0  0  0  0  0  0  0  0
  156.3647  140.3557  159.8833 H   0  0  0  0  0  0  0  0  0  0  0  0
  155.5110  140.1197  158.3688 H   0  0  0  0  0  0  0  0  0  0  0  0
  154.6456  139.2553  161.9185 H   0  0  0  0  0  0  0  0  0  0  0  0
  153.4680  140.5531  162.1287 H   0  0  0  0  0  0  0  0  0  0  0  0
  155.1796  140.9442  161.9390 H   0  0  0  0  0  0  0  0  0  0  0  0
  1  2  1  0  0  0  0
  1 22  1  0  0  0  0
  1 23  1  0  0  0  0
  1 24  1  0  0  0  0
  2  3  1  0  0  0  0
  2  4  2  0  0  0  0
  3 25  1  0  0  0  0
  3 26  1  0  0  0  0
  3 27  1  0  0  0  0
  4  5  1  0  0  0  0
  4 28  1  0  0  0  0
  5 19  1  0  0  0  0
  5  6  1  0  0  0  0
  5 29  1  0  0  0  0
  6  7  1  0  0  0  0
  6 19  1  0  0  0  0
  6 30  1  0  0  0  0
  7  8  2  0  0  0  0
  7  9  1  0  0  0  0
  9 10  1  0  0  0  0
  9 31  1  0  0  0  0
 10 11  1  0  0  0  0
 10 32  1  0  0  0  0
 10 33  1  0  0  0  0
 11 12  1  0  0  0  0
 11 13  1  0  0  0  0
 11 34  1  0  0  0  0
 12 35  1  0  0  0  0
 12 36  1  0  0  0  0
 12 37  1  0  0  0  0
 13 17  1  0  0  0  0
 13 14  2  0  0  0  0
 14 15  1  0  0  0  0
 15 16  2  0  0  0  0
 16 17  1  0  0  0  0
 16 38  1  0  0  0  0
 17 18  1  0  0  0  0
 18 39  1  0  0  0  0
 18 40  1  0  0  0  0
 18 41  1  0  0  0  0
 19 20  1  0  0  0  0
 19 21  1  0  0  0  0
 20 42  1  0  0  0  0
 20 43  1  0  0  0  0
 20 44  1  0  0  0  0
 21 45  1  0  0  0  0
 21 46  1  0  0  0  0
 21 47  1  0  0  0  0
M  END
> <s_m_source_file>
AV-unprocessed.smi

> <i_m_source_file_index>
2718

> <i_lp_mmshare_version>
43012

> <i_f3d_flags>
0

> <s_epik_input>
W0NIM11DKFtDSDNdKT1bQ0hdW0NAQEhdKEMxKFtDSDNdKVtDSDNdKVtDQEhdMUMoPU8pW05IXVtDSDJdW0NASF0oW0NIM10pYzJubltjSF1uMltDSDNd

> <s_epik_cmdline>
J2VwaWtfcHl0aG9uJywgJy1waCcsICc3LjAnLCAnLXRuJywgJzgnLCAnLW1hJywgJzIwMCcsICctbWV0YWxfYmluZGluZycsICctaW1hZScsICc8aW5maWxlLm1hZT4nLCAnLW9tYWUnLCAnPG91dGZpbGUubWFlPic=

> <r_lp_tautomer_probability>
1

> <r_epik_Ionization_Penalty>
0.000449586

> <r_epik_Ionization_Penalty_Charging>
0

> <r_epik_Ionization_Penalty_Neutral>
0.000449586

> <r_epik_State_Penalty>
0.000243372

> <r_epik_Charging_Adjusted_Penalty>
0.000243372

> <i_epik_Tot_Q>
0

> <i_epik_Tot_abs_Q>
0

> <r_epik_Metal_State_Penalty>
-0

> <b_epik_Metal_Only>
0

> <s_lp_Force_Field>
OPLS_2005

> <r_lp_Energy>
15.9496

> <b_lp_Chiralities_Consistent>
1

> <s_lp_Variant>
AV-unprocessed.smi:2718-5

> <Gold.Version>
5.8.1

> <Gold.Id.Protein>
6NUR|6NUR_protein|mol2

> <Gold.PLP.Fitness>
43.7524

> <Gold.PLP.PLP>
-37.0878

> <Gold.PLP.part.hbond>
-2.7196

> <Gold.PLP.part.metal>
0.0000

> <Gold.PLP.part.buried>
-4.2135

> <Gold.PLP.part.nonpolar>
-30.8459

> <Gold.PLP.part.repulsive>
0.0547

> <Gold.PLP.ligand.clash>
0.0000

> <Gold.PLP.ligand.torsion>
0.7865

> <Gold.PLP.Chemscore.Hbond>
2.6633

> <Gold.PLP.Chemscore.CHOScore>
0.0000

> <Gold.PLP.Chemscore.Metal>
0.0000

> <Gold.Chemscore.Hbonds>
donor molecule, donor type, donor heavy atom, donor atom, acceptor molecule, acceptor atom, score
      P1  H  6896  6907       L1    14  1.00
      P1  H  6931  6943       L1    15  0.70
      P1  H  7997  8009       L1     8  0.99

> <Gold.PLP.Chemscore.Internal.Correction>
0.2478

> <Gold.Rescore>
     Score         DG    S(hbond)    S(metal)    S(lipo)     H(rot)  DE(clash)    DE(int)     intcor
     15.86     -19.52       2.25        0.00      98.50       1.95       0.16       3.49       ----

> <Gold.Chemscore.Fitness>
15.8643

> <Gold.Chemscore.DG>
-19.5162

> <Gold.Chemscore.ZeroCoef>
-5.4800

> <Gold.Chemscore.Hbond>
2.2493

> <Gold.Chemscore.Metal>
0.0000

> <Gold.Chemscore.Lipo>
98.4974

> <Gold.Chemscore.Internal_Hbond>
0.0000

> <Gold.Chemscore.DEClash>
0.1596

> <Gold.Chemscore.DEInternal>
3.4923

> <Gold.Chemscore.Rot>
1.9533

> <Gold.Chemscore.Internal.Correction>
   9.000000E+99

> <Gold.Chemscore.Hbonds>
donor molecule, donor type, donor heavy atom, donor atom, acceptor molecule, acceptor atom, score
      P1  H  6896  6907       L1    14  0.10
      P1  H  6931  6943       L1    15  0.31
      P1  H  7997  8009       L1     8  0.90

> <Gold.Chemscore.Hbond.Weighted>
-7.5125

> <Gold.Chemscore.Metal.Weighted>
-0.0000

> <Gold.Chemscore.Lipo.Weighted>
-11.5242

> <Gold.Chemscore.Internal_Hbond.Weighted>
0.0000

> <Gold.Chemscore.DEClash.Weighted>
0.1596

> <Gold.Chemscore.DEInternal.Weighted>
3.4923

> <Gold.Chemscore.Rot.Weighted>
5.0005

> <Gold.Chemscore.Internal.Correction.Weighted>
   9.000000E+99

> <Gold.Protein.RotatedTorsions>
[ 6907 6896 6895 6894 ] final  -33.13 input  -60.11 | X-H torsion
[ 7974 7965 7964 7962 ] final   52.49 input  175.53 | X-H torsion
[ 8008 7997 7996 7995 ] final  141.85 input   59.86 | X-H torsion
[ 10167 10162 10161 10158 ] final   24.74 input  -65.29 | X-H torsion
[ 10718 10713 10712 10709 ] final  -49.86 input   66.30 | X-H torsion
[ 10763 10752 10751 10750 ] final   53.77 input  -60.55 | X-H torsion
[ 11005 11000 10999 10996 ] final  -68.42 input  -57.11 | X-H torsion

> <Gold.Protein.ActiveResidues>
 VAL166  LYS551  ARG553  GLY616  TRP617  ASP618  TYR619  PRO620  LYS621  CYS622 
 ASP623  PHE694  ASN695  SER759  ASP760  ASP761  ALA762  ILE779  LEU786  VAL792 
 PHE793  MET794  SER795  GLU796  ALA797  LYS798  CYS799  TRP800  GLU811  SER814 

> <Gold.Protein.RotatedAtoms>
  151.0696  134.9790  159.8301 H   0  0  0  0  0  0  0  0  0  0  0  0  # atno 6907 bound_to 6896
  152.5406  134.2316  159.8837 H   0  0  0  0  0  0  0  0  0  0  0  0  # atno 6908 bound_to 6896
  151.2340  133.4392  159.2638 H   0  0  0  0  0  0  0  0  0  0  0  0  # atno 6909 bound_to 6896
  145.9808  139.4240  143.0133 H   0  0  0  0  0  0  0  0  0  0  0  0  # atno 7974 bound_to 7965
  156.2959  140.2304  156.4632 H   0  0  0  0  0  0  0  0  0  0  0  0  # atno 8008 bound_to 7997
  154.8000  140.0449  157.1286 H   0  0  0  0  0  0  0  0  0  0  0  0  # atno 8009 bound_to 7997
  154.9544  140.3046  155.5063 H   0  0  0  0  0  0  0  0  0  0  0  0  # atno 8010 bound_to 7997
  140.5163  144.0076  150.6396 H   0  0  0  0  0  0  0  0  0  0  0  0  # atno 10167 bound_to 10162
  156.1854  130.4151  149.9447 H   0  0  0  0  0  0  0  0  0  0  0  0  # atno 10718 bound_to 10713
  152.9798  135.5767  154.4796 H   0  0  0  0  0  0  0  0  0  0  0  0  # atno 10763 bound_to 10752
  154.4346  135.2774  155.1891 H   0  0  0  0  0  0  0  0  0  0  0  0  # atno 10764 bound_to 10752
  154.3585  135.6194  153.5732 H   0  0  0  0  0  0  0  0  0  0  0  0  # atno 10765 bound_to 10752
  141.1531  133.6740  156.6443 H   0  0  0  0  0  0  0  0  0  0  0  0  # atno 11005 bound_to 11000
  145.7773  140.9871  143.1118 LP  0  0  0  0  0  0  0  0  0  0  0  0  # atno 17320 bound_to 7965
  144.6861  139.9520  143.7478 LP  0  0  0  0  0  0  0  0  0  0  0  0  # atno 17321 bound_to 7965
  140.3413  143.3018  152.0585 LP  0  0  0  0  0  0  0  0  0  0  0  0  # atno 17342 bound_to 10162
  139.4910  144.6440  151.6817 LP  0  0  0  0  0  0  0  0  0  0  0  0  # atno 17343 bound_to 10162
  156.7204  130.9004  151.3617 LP  0  0  0  0  0  0  0  0  0  0  0  0  # atno 17370 bound_to 10713
  157.6895  130.9219  150.0476 LP  0  0  0  0  0  0  0  0  0  0  0  0  # atno 17371 bound_to 10713
  140.3369  134.7882  157.4368 LP  0  0  0  0  0  0  0  0  0  0  0  0  # atno 17394 bound_to 11000
  140.0970  134.5524  155.8389 LP  0  0  0  0  0  0  0  0  0  0  0  0  # atno 17395 bound_to 11000

$$$$
