AV-unprocessed.smi:1534|AV-procd|sdf|6167|dock3
  -GOLD-   22720 6313D 1   1.00000     0.00000
 Structure written by MMmdl.
 36 37  0  0  0  0  0  0  0  0  1 V2000
  146.7673  137.1445  152.7517 O   0  0  0  0  0  0  0  0  0  0  0  0
  145.9034  138.0013  152.5748 C   0  0  0  0  0  0  0  0  0  0  0  0
  144.6456  137.7174  152.1969 N   0  0  0  0  0  0  0  0  0  0  0  0
  144.1445  136.3830  151.8911 C   0  0  0  0  0  0  0  0  0  0  0  0
  145.0054  135.6971  150.8175 C   0  0  0  0  0  0  0  0  0  0  0  0
  144.9311  134.1844  150.8968 C   0  0  0  0  0  0  0  0  0  0  0  0
  146.0623  133.4256  151.2665 C   0  0  0  0  0  0  0  0  0  0  0  0
  145.9401  132.0239  151.3242 C   0  0  0  0  0  0  0  0  0  0  0  0
  144.6978  131.4380  151.0138 C   0  0  0  0  0  0  0  0  0  0  0  0
  143.6281  132.2838  150.6582 C   0  0  0  0  0  0  0  0  0  0  0  0
  143.7348  133.6289  150.5988 N   0  0  0  0  0  0  0  0  0  0  0  0
  146.1586  139.3109  152.7444 N   0  0  0  0  0  0  0  0  0  0  0  0
  147.4159  139.9422  153.1480 C   0  0  1  0  0  0  0  0  0  0  0  0
  147.1601  141.3369  153.7496 C   0  0  0  0  0  0  0  0  0  0  0  0
  148.4259  141.8015  154.4805 C   0  0  0  0  0  0  0  0  0  0  0  0
  149.2480  140.2828  155.0942 S   0  0  0  0  0  0  0  0  0  0  0  0
  150.6059  140.2174  154.5333 O   0  0  0  0  0  0  0  0  0  0  0  0
  149.0177  140.1444  156.5401 O   0  0  0  0  0  0  0  0  0  0  0  0
  148.1636  139.1074  154.2019 C   0  0  0  0  0  0  0  0  0  0  0  0
  143.9979  138.4835  152.0849 H   0  0  0  0  0  0  0  0  0  0  0  0
  144.1068  135.7765  152.7977 H   0  0  0  0  0  0  0  0  0  0  0  0
  143.1170  136.4813  151.5393 H   0  0  0  0  0  0  0  0  0  0  0  0
  144.6853  136.0140  149.8237 H   0  0  0  0  0  0  0  0  0  0  0  0
  146.0469  136.0066  150.9159 H   0  0  0  0  0  0  0  0  0  0  0  0
  147.0018  133.9046  151.5002 H   0  0  0  0  0  0  0  0  0  0  0  0
  146.7839  131.4096  151.6016 H   0  0  0  0  0  0  0  0  0  0  0  0
  144.5673  130.3666  151.0477 H   0  0  0  0  0  0  0  0  0  0  0  0
  142.6612  131.8687  150.4150 H   0  0  0  0  0  0  0  0  0  0  0  0
  145.3819  139.9396  152.5977 H   0  0  0  0  0  0  0  0  0  0  0  0
  148.0608  140.0738  152.2771 H   0  0  0  0  0  0  0  0  0  0  0  0
  146.8514  142.0559  152.9901 H   0  0  0  0  0  0  0  0  0  0  0  0
  146.3467  141.2716  154.4738 H   0  0  0  0  0  0  0  0  0  0  0  0
  149.1096  142.2984  153.7920 H   0  0  0  0  0  0  0  0  0  0  0  0
  148.2145  142.4774  155.3091 H   0  0  0  0  0  0  0  0  0  0  0  0
  147.4721  138.6783  154.9281 H   0  0  0  0  0  0  0  0  0  0  0  0
  148.7599  138.3019  153.7727 H   0  0  0  0  0  0  0  0  0  0  0  0
  1  2  2  0  0  0  0
  2  3  1  0  0  0  0
  2 12  1  0  0  0  0
  3  4  1  0  0  0  0
  3 20  1  0  0  0  0
  4  5  1  0  0  0  0
  4 21  1  0  0  0  0
  4 22  1  0  0  0  0
  5  6  1  0  0  0  0
  5 23  1  0  0  0  0
  5 24  1  0  0  0  0
  6 11  1  0  0  0  0
  6  7  2  0  0  0  0
  7  8  1  0  0  0  0
  7 25  1  0  0  0  0
  8  9  2  0  0  0  0
  8 26  1  0  0  0  0
  9 10  1  0  0  0  0
  9 27  1  0  0  0  0
 10 11  2  0  0  0  0
 10 28  1  0  0  0  0
 12 13  1  0  0  0  0
 12 29  1  0  0  0  0
 13 19  1  0  0  0  0
 13 14  1  0  0  0  0
 13 30  1  0  0  0  0
 14 15  1  0  0  0  0
 14 31  1  0  0  0  0
 14 32  1  0  0  0  0
 15 16  1  0  0  0  0
 15 33  1  0  0  0  0
 15 34  1  0  0  0  0
 16 17  2  0  0  0  0
 16 18  2  0  0  0  0
 16 19  1  0  0  0  0
 19 35  1  0  0  0  0
 19 36  1  0  0  0  0
M  END
> <s_m_source_file>
AV-unprocessed.smi

> <i_m_source_file_index>
1534

> <i_lp_mmshare_version>
43012

> <i_f3d_flags>
0

> <s_epik_input>
Tz1TMSg9TylbQ0gyXVtDSDJdW0NASF0oW0NIMl0xKVtOSF1DKD1PKVtOSF1bQ0gyXVtDSDJdYzJbY0hdW2NIXVtjSF1bY0hdbjI=

> <s_epik_cmdline>
J2VwaWtfcHl0aG9uJywgJy1waCcsICc3LjAnLCAnLXRuJywgJzgnLCAnLW1hJywgJzIwMCcsICctbWV0YWxfYmluZGluZycsICctaW1hZScsICc8aW5maWxlLm1hZT4nLCAnLW9tYWUnLCAnPG91dGZpbGUubWFlPic=

> <r_epik_Ionization_Penalty>
0.0423605

> <r_epik_Ionization_Penalty_Charging>
0

> <r_epik_Ionization_Penalty_Neutral>
0.0423605

> <r_epik_State_Penalty>
0.0357408

> <r_epik_Charging_Adjusted_Penalty>
0.0357408

> <i_epik_Tot_Q>
0

> <i_epik_Tot_abs_Q>
0

> <r_epik_Metal_State_Penalty>
0.033344

> <b_epik_Metal_Only>
0

> <s_lp_Force_Field>
OPLS_2005

> <r_lp_Energy>
9.82399

> <b_lp_Chiralities_Consistent>
1

> <s_lp_Variant>
AV-unprocessed.smi:1534-2

> <Gold.Version>
5.8.1

> <Gold.Id.Protein>
6NUR|6NUR_protein|mol2

> <Gold.PLP.Fitness>
42.8714

> <Gold.PLP.PLP>
-32.0510

> <Gold.PLP.part.hbond>
-3.9394

> <Gold.PLP.part.metal>
0.0000

> <Gold.PLP.part.buried>
-4.0534

> <Gold.PLP.part.nonpolar>
-28.4205

> <Gold.PLP.part.repulsive>
4.8748

> <Gold.PLP.ligand.clash>
0.0000

> <Gold.PLP.ligand.torsion>
0.5191

> <Gold.PLP.Chemscore.Hbond>
2.9440

> <Gold.PLP.Chemscore.CHOScore>
0.9986

> <Gold.PLP.Chemscore.Metal>
0.0000

> <Gold.Chemscore.Hbonds>
donor molecule, donor type, donor heavy atom, donor atom, acceptor molecule, acceptor atom, score
      L1  H     3    20       P1 10175  0.93
      L1  H    12    29       P1 10175  1.00
      P1  H  7989  7998       L1    17  1.00
      L1  C    10    28       P1 10952  1.00

> <Gold.PLP.Chemscore.Internal.Correction>
0.0308

> <Gold.Rescore>
     Score         DG    S(hbond)    S(metal)    S(lipo)     H(rot)  DE(clash)    DE(int)     intcor
     15.73     -19.69       2.87        0.00      77.48       1.73       2.15       1.81       ----

> <Gold.Chemscore.Fitness>
15.7292

> <Gold.Chemscore.DG>
-19.6949

> <Gold.Chemscore.ZeroCoef>
-5.4800

> <Gold.Chemscore.Hbond>
2.8716

> <Gold.Chemscore.Metal>
0.0000

> <Gold.Chemscore.Lipo>
77.4755

> <Gold.Chemscore.Internal_Hbond>
0.0000

> <Gold.Chemscore.DEClash>
2.1542

> <Gold.Chemscore.DEInternal>
1.8115

> <Gold.Chemscore.Rot>
1.7348

> <Gold.Chemscore.Internal.Correction>
   9.000000E+99

> <Gold.Chemscore.Hbonds>
donor molecule, donor type, donor heavy atom, donor atom, acceptor molecule, acceptor atom, score
      L1  H     3    20       P1 10175  0.85
      L1  H    12    29       P1 10175  0.98
      P1  H  7989  7998       L1    17  0.98

> <Gold.Chemscore.Hbond.Weighted>
-9.5912

> <Gold.Chemscore.Metal.Weighted>
-0.0000

> <Gold.Chemscore.Lipo.Weighted>
-9.0646

> <Gold.Chemscore.Internal_Hbond.Weighted>
0.0000

> <Gold.Chemscore.DEClash.Weighted>
2.1542

> <Gold.Chemscore.DEInternal.Weighted>
1.8115

> <Gold.Chemscore.Rot.Weighted>
4.4410

> <Gold.Chemscore.Internal.Correction.Weighted>
   9.000000E+99

> <Gold.Protein.RotatedTorsions>
[ 6907 6896 6895 6894 ] final  -20.50 input  -60.11 | X-H torsion
[ 7974 7965 7964 7962 ] final  -46.21 input  175.53 | X-H torsion
[ 8008 7997 7996 7995 ] final -177.20 input   59.86 | X-H torsion
[ 10167 10162 10161 10158 ] final -151.73 input  -65.29 | X-H torsion
[ 10718 10713 10712 10709 ] final    8.87 input   66.30 | X-H torsion
[ 10763 10752 10751 10750 ] final -108.71 input  -60.55 | X-H torsion
[ 11005 11000 10999 10996 ] final -138.26 input  -57.11 | X-H torsion

> <Gold.Protein.ActiveResidues>
 VAL166  LYS551  ARG553  GLY616  TRP617  ASP618  TYR619  PRO620  LYS621  CYS622 
 ASP623  PHE694  ASN695  SER759  ASP760  ASP761  ALA762  ILE779  LEU786  VAL792 
 PHE793  MET794  SER795  GLU796  ALA797  LYS798  CYS799  TRP800  GLU811  SER814 

> <Gold.Protein.RotatedAtoms>
  151.2473  135.0610  159.9047 H   0  0  0  0  0  0  0  0  0  0  0  0  # atno 6907 bound_to 6896
  152.5385  134.0370  159.8060 H   0  0  0  0  0  0  0  0  0  0  0  0  # atno 6908 bound_to 6896
  151.0573  133.5525  159.2668 H   0  0  0  0  0  0  0  0  0  0  0  0  # atno 6909 bound_to 6896
  145.9742  140.7351  142.9395 H   0  0  0  0  0  0  0  0  0  0  0  0  # atno 7974 bound_to 7965
  156.0040  140.1226  157.0519 H   0  0  0  0  0  0  0  0  0  0  0  0  # atno 8008 bound_to 7997
  154.4252  140.1101  156.5806 H   0  0  0  0  0  0  0  0  0  0  0  0  # atno 8009 bound_to 7997
  155.6172  140.3472  155.4643 H   0  0  0  0  0  0  0  0  0  0  0  0  # atno 8010 bound_to 7997
  139.7242  143.8909  152.2514 H   0  0  0  0  0  0  0  0  0  0  0  0  # atno 10167 bound_to 10162
  156.9580  130.5922  149.5660 H   0  0  0  0  0  0  0  0  0  0  0  0  # atno 10718 bound_to 10713
  154.8151  135.4628  154.0622 H   0  0  0  0  0  0  0  0  0  0  0  0  # atno 10763 bound_to 10752
  153.2021  135.6870  153.8225 H   0  0  0  0  0  0  0  0  0  0  0  0  # atno 10764 bound_to 10752
  153.7706  135.3271  155.3328 H   0  0  0  0  0  0  0  0  0  0  0  0  # atno 10765 bound_to 10752
  140.8633  134.2142  157.4694 H   0  0  0  0  0  0  0  0  0  0  0  0  # atno 11005 bound_to 11000
  144.6844  140.2800  143.7293 LP  0  0  0  0  0  0  0  0  0  0  0  0  # atno 17320 bound_to 7965
  145.7862  139.1910  143.2129 LP  0  0  0  0  0  0  0  0  0  0  0  0  # atno 17321 bound_to 7965
  139.8814  144.7016  150.8874 LP  0  0  0  0  0  0  0  0  0  0  0  0  # atno 17342 bound_to 10162
  140.7759  143.3658  151.1741 LP  0  0  0  0  0  0  0  0  0  0  0  0  # atno 17343 bound_to 10162
  156.0334  130.5424  150.8593 LP  0  0  0  0  0  0  0  0  0  0  0  0  # atno 17370 bound_to 10713
  157.5677  131.0946  150.9465 LP  0  0  0  0  0  0  0  0  0  0  0  0  # atno 17371 bound_to 10713
  139.8708  134.9740  156.4829 LP  0  0  0  0  0  0  0  0  0  0  0  0  # atno 17394 bound_to 11000
  140.8658  133.8026  155.9312 LP  0  0  0  0  0  0  0  0  0  0  0  0  # atno 17395 bound_to 11000

$$$$
