#       Name:                AV-unprocessed.smi:3188
#       Creating user name   scv26
#       Creation time:       Fri Mar 27 18:02:47 2020


#       File generated by GOLD software.
#

@<TRIPOS>MOLECULE
AV-unprocessed.smi:3188
    42    43     1
SMALL
NO_CHARGES


@<TRIPOS>ATOM
      1 ****        -0.0454   0.5369   1.8389 C.3            1 S1                 0.0000
      2 ****        -1.1223   1.0100   0.8754 C.2            1 S1                 0.0000
      3 ****        -2.3100   1.4239   1.3569 C.2            1 S1                 0.0000
      4 ****        -3.4269   1.9839   0.5071 C.3            1 S1                 0.0000
      5 ****        -2.8948   2.4874  -0.8364 C.3            1 S1                 0.0000
      6 ****        -2.0071   1.4341  -1.5187 C.3            1 S1                 0.0000
      7 ****        -1.5793   1.9486  -2.9069 C.3            1 S1                 0.0000
      8 ****        -0.7917   1.0189  -0.6326 C.3            1 S1                 0.0000
      9 ****        -0.2088  -0.3306  -1.1302 C.3            1 S1                 0.0000
     10 ****         1.1774  -0.5571  -0.6752 N.4            1 S1                 1.0000
     11 ****         1.7260  -1.8832  -1.0223 C.3            1 S1                 0.0000
     12 ****         3.0913  -2.1174  -0.3568 C.3            1 S1                 0.0000
     13 ****         2.9888  -2.1344   1.0914 N.pl3          1 S1                 0.0000
     14 ****         2.5975  -3.1709   1.9130 C.2            1 S1                 0.0000
     15 ****         2.6593  -2.6249   3.1633 C.2            1 S1                 0.0000
     16 ****         3.0769  -1.2999   3.0519 N.2            1 S1                 0.0000
     17 ****         3.2774  -1.0187   1.8034 N.2            1 S1                 0.0000
     18 ****         0.8982   1.0454   1.6398 H              1 S1                 0.0000
     19 ****         0.1065  -0.5393   1.7582 H              1 S1                 0.0000
     20 ****        -0.3184   0.7467   2.8738 H              1 S1                 0.0000
     21 ****        -2.5061   1.3806   2.4187 H              1 S1                 0.0000
     22 ****        -4.1789   1.2078   0.3620 H              1 S1                 0.0000
     23 ****        -3.9088   2.8022   1.0427 H              1 S1                 0.0000
     24 ****        -3.7344   2.7552  -1.4792 H              1 S1                 0.0000
     25 ****        -2.3211   3.4026  -0.6813 H              1 S1                 0.0000
     26 ****        -2.6298   0.5511  -1.6720 H              1 S1                 0.0000
     27 ****        -0.9376   2.8262  -2.8225 H              1 S1                 0.0000
     28 ****        -2.4482   2.2351  -3.5003 H              1 S1                 0.0000
     29 ****        -1.0398   1.1982  -3.4823 H              1 S1                 0.0000
     30 ****        -0.0264   1.7870  -0.7556 H              1 S1                 0.0000
     31 ****        -0.8456  -1.1492  -0.7916 H              1 S1                 0.0000
     32 ****        -0.1963  -0.3816  -2.2176 H              1 S1                 0.0000
     33 ****         1.7732   0.1587  -1.0661 H              1 S1                 0.0000
     34 ****         1.0277  -2.6617  -0.7113 H              1 S1                 0.0000
     35 ****         1.8222  -1.9541  -2.1063 H              1 S1                 0.0000
     36 ****         3.5024  -3.0749  -0.6787 H              1 S1                 0.0000
     37 ****         3.8067  -1.3514  -0.6612 H              1 S1                 0.0000
     38 ****         2.3206  -4.1520   1.5557 H              1 S1                 0.0000
     39 ****         2.4382  -3.0684   4.1231 H              1 S1                 0.0000
     40 ****         1.1888  -0.4697   0.3314 H              1 S1                 0.0000
     41 ****         3.2020  -0.6663   3.8153 LP             1 S1                 0.0000
     42 ****         3.5871  -0.1424   1.4344 LP             1 S1                 0.0000
@<TRIPOS>BOND
    1    1    2 1     
    2    1   18 1     
    3    1   19 1     
    4    1   20 1     
    5    2    8 1     
    6    2    3 2     
    7    3    4 1     
    8    3   21 1     
    9    4    5 1     
   10    4   22 1     
   11    4   23 1     
   12    5    6 1     
   13    5   24 1     
   14    5   25 1     
   15    6    7 1     
   16    6    8 1     
   17    6   26 1     
   18    7   27 1     
   19    7   28 1     
   20    7   29 1     
   21    8    9 1     
   22    8   30 1     
   23    9   10 1     
   24    9   31 1     
   25    9   32 1     
   26   10   11 1     
   27   10   33 1     
   28   10   40 1     
   29   11   12 1     
   30   11   34 1     
   31   11   35 1     
   32   12   13 1     
   33   12   36 1     
   34   12   37 1     
   35   13   17 1     
   36   13   14 1     
   37   14   15 2     
   38   14   38 1     
   39   15   16 1     
   40   15   39 1     
   41   16   17 2     
   42   16   41 1     
   43   17   42 1     
@<TRIPOS>SUBSTRUCTURE
      1 S1             1
@<TRIPOS>SET
LONE_PAIRS      STATIC     ATOMS    <user>   **** ""
2 41 42
DONOR_HYDROGENS      STATIC     ATOMS    <user>   **** ""
2 33 40
ATOM$BLUE        STATIC     ATOMS    COLORGROUP SYSTEM
2 41 42
ATOM$RED        STATIC     ATOMS    COLORGROUP SYSTEM
2 33 40
