AV-unprocessed.smi:1862|AV-procd|sdf|7549|dock6
  -GOLD-   22720 9263D 1   1.00000     0.00000
 Structure written by MMmdl.
 40 41  0  0  0  0  0  0  0  0  1 V2000
  144.0168  136.8638  161.1136 C   0  0  0  0  0  0  0  0  0  0  0  0
  145.2246  136.7868  162.0641 C   0  0  0  0  0  0  0  0  0  0  0  0
  146.4541  135.9984  161.5330 C   0  0  0  0  0  0  0  0  0  0  0  0
  147.5658  135.9809  162.6047 C   0  0  0  0  0  0  0  0  0  0  0  0
  146.0589  134.5391  161.2328 C   0  0  0  0  0  0  0  0  0  0  0  0
  146.9703  136.5688  160.2812 N   0  0  0  0  0  0  0  0  0  0  0  0
  147.9985  136.1385  159.5275 C   0  0  0  0  0  0  0  0  0  0  0  0
  148.6884  135.1574  159.8067 O   0  0  0  0  0  0  0  0  0  0  0  0
  148.2964  136.9579  158.2675 C   0  0  0  0  0  0  0  0  0  0  0  0
  149.4984  137.8363  158.4671 C   0  0  0  0  0  0  0  0  0  0  0  0
  150.6918  137.4817  159.0476 C   0  0  0  0  0  0  0  0  0  0  0  0
  151.8200  138.8090  159.0856 S   0  0  0  0  0  0  0  0  0  0  0  0
  150.6086  139.8173  158.2888 C   0  0  0  0  0  0  0  0  0  0  0  0
  150.7544  141.1889  157.9246 N   0  0  0  0  0  0  0  0  0  0  0  0
  151.8921  141.9848  158.3749 C   0  0  0  0  0  0  0  0  0  0  0  0
  151.6460  143.3577  157.7573 C   0  0  0  0  0  0  0  0  0  0  0  0
  150.4082  143.1516  157.0429 N   0  0  0  0  0  0  0  0  0  0  0  0
  149.9211  141.9133  157.1514 C   0  0  0  0  0  0  0  0  0  0  0  0
  148.8796  141.5355  156.6182 O   0  0  0  0  0  0  0  0  0  0  0  0
  149.4694  139.1657  158.0323 N   0  0  0  0  0  0  0  0  0  0  0  0
  143.2120  137.4419  161.5678 H   0  0  0  0  0  0  0  0  0  0  0  0
  143.6166  135.8763  160.8861 H   0  0  0  0  0  0  0  0  0  0  0  0
  144.2724  137.3500  160.1722 H   0  0  0  0  0  0  0  0  0  0  0  0
  145.5212  137.8047  162.3179 H   0  0  0  0  0  0  0  0  0  0  0  0
  144.8970  136.3445  163.0055 H   0  0  0  0  0  0  0  0  0  0  0  0
  147.2302  135.4729  163.5096 H   0  0  0  0  0  0  0  0  0  0  0  0
  147.8705  136.9854  162.8988 H   0  0  0  0  0  0  0  0  0  0  0  0
  148.4550  135.4593  162.2483 H   0  0  0  0  0  0  0  0  0  0  0  0
  145.6356  134.0533  162.1125 H   0  0  0  0  0  0  0  0  0  0  0  0
  146.9229  133.9509  160.9206 H   0  0  0  0  0  0  0  0  0  0  0  0
  145.3211  134.4718  160.4331 H   0  0  0  0  0  0  0  0  0  0  0  0
  146.4853  137.3900  159.9500 H   0  0  0  0  0  0  0  0  0  0  0  0
  148.4557  136.2918  157.4184 H   0  0  0  0  0  0  0  0  0  0  0  0
  147.4151  137.5543  158.0287 H   0  0  0  0  0  0  0  0  0  0  0  0
  150.9725  136.5237  159.4593 H   0  0  0  0  0  0  0  0  0  0  0  0
  151.9194  142.0367  159.4644 H   0  0  0  0  0  0  0  0  0  0  0  0
  152.8294  141.5518  158.0222 H   0  0  0  0  0  0  0  0  0  0  0  0
  151.5282  144.1333  158.5148 H   0  0  0  0  0  0  0  0  0  0  0  0
  152.4424  143.6476  157.0710 H   0  0  0  0  0  0  0  0  0  0  0  0
  149.9624  143.8851  156.5109 H   0  0  0  0  0  0  0  0  0  0  0  0
  1  2  1  0  0  0  0
  1 21  1  0  0  0  0
  1 22  1  0  0  0  0
  1 23  1  0  0  0  0
  2  3  1  0  0  0  0
  2 24  1  0  0  0  0
  2 25  1  0  0  0  0
  3  4  1  0  0  0  0
  3  5  1  0  0  0  0
  3  6  1  0  0  0  0
  4 26  1  0  0  0  0
  4 27  1  0  0  0  0
  4 28  1  0  0  0  0
  5 29  1  0  0  0  0
  5 30  1  0  0  0  0
  5 31  1  0  0  0  0
  6  7  1  0  0  0  0
  6 32  1  0  0  0  0
  7  8  2  0  0  0  0
  7  9  1  0  0  0  0
  9 10  1  0  0  0  0
  9 33  1  0  0  0  0
  9 34  1  0  0  0  0
 10 20  1  0  0  0  0
 10 11  2  0  0  0  0
 11 12  1  0  0  0  0
 11 35  1  0  0  0  0
 12 13  1  0  0  0  0
 13 14  1  0  0  0  0
 13 20  2  0  0  0  0
 14 18  1  0  0  0  0
 14 15  1  0  0  0  0
 15 16  1  0  0  0  0
 15 36  1  0  0  0  0
 15 37  1  0  0  0  0
 16 17  1  0  0  0  0
 16 38  1  0  0  0  0
 16 39  1  0  0  0  0
 17 18  1  0  0  0  0
 17 40  1  0  0  0  0
 18 19  2  0  0  0  0
M  END
> <s_m_source_file>
AV-unprocessed.smi

> <i_m_source_file_index>
1862

> <i_lp_mmshare_version>
43012

> <i_f3d_flags>
0

> <s_epik_input>
W0NIM11bQ0gyXUMoW0NIM10pKFtDSDNdKVtOSF1DKD1PKVtDSDJdYzFbY0hdc2MobjEpTjJbQ0gyXVtDSDJdW05IXUMyPU8=

> <s_epik_cmdline>
J2VwaWtfcHl0aG9uJywgJy1waCcsICc3LjAnLCAnLXRuJywgJzgnLCAnLW1hJywgJzIwMCcsICctbWV0YWxfYmluZGluZycsICctaW1hZScsICc8aW5maWxlLm1hZT4nLCAnLW9tYWUnLCAnPG91dGZpbGUubWFlPic=

> <r_lp_tautomer_probability>
1

> <r_epik_Ionization_Penalty>
0.000124031

> <r_epik_Ionization_Penalty_Charging>
0

> <r_epik_Ionization_Penalty_Neutral>
0.000124031

> <r_epik_State_Penalty>
-0

> <r_epik_Charging_Adjusted_Penalty>
0

> <i_epik_Tot_Q>
0

> <i_epik_Tot_abs_Q>
0

> <r_epik_Metal_State_Penalty>
-0

> <b_epik_Metal_Only>
0

> <s_lp_Force_Field>
OPLS_2005

> <r_lp_Energy>
34.1106

> <b_lp_Chiralities_Consistent>
1

> <s_lp_Variant>
AV-unprocessed.smi:1862-1

> <Gold.Version>
5.8.1

> <Gold.Id.Protein>
6NUR|6NUR_protein|mol2

> <Gold.PLP.Fitness>
34.5842

> <Gold.PLP.PLP>
-29.5998

> <Gold.PLP.part.hbond>
-2.0000

> <Gold.PLP.part.metal>
0.0000

> <Gold.PLP.part.buried>
-6.0553

> <Gold.PLP.part.nonpolar>
-22.3914

> <Gold.PLP.part.repulsive>
0.2620

> <Gold.PLP.ligand.clash>
0.0000

> <Gold.PLP.ligand.torsion>
0.4654

> <Gold.PLP.Chemscore.Hbond>
1.9675

> <Gold.PLP.Chemscore.CHOScore>
0.0000

> <Gold.PLP.Chemscore.Metal>
0.0000

> <Gold.Chemscore.Hbonds>
donor molecule, donor type, donor heavy atom, donor atom, acceptor molecule, acceptor atom, score
      L1  H    17    40       P1  8028  1.00
      P1  H  6896  6907       L1     8  0.87

> <Gold.PLP.Chemscore.Internal.Correction>
0.0127

> <Gold.Rescore>
     Score         DG    S(hbond)    S(metal)    S(lipo)     H(rot)  DE(clash)    DE(int)     intcor
     12.90     -15.55       1.90        0.00      69.37       1.72       0.00       2.64       ----

> <Gold.Chemscore.Fitness>
12.9038

> <Gold.Chemscore.DG>
-15.5472

> <Gold.Chemscore.ZeroCoef>
-5.4800

> <Gold.Chemscore.Hbond>
1.9046

> <Gold.Chemscore.Metal>
0.0000

> <Gold.Chemscore.Lipo>
69.3693

> <Gold.Chemscore.Internal_Hbond>
0.0000

> <Gold.Chemscore.DEClash>
0.0019

> <Gold.Chemscore.DEInternal>
2.6416

> <Gold.Chemscore.Rot>
1.7228

> <Gold.Chemscore.Internal.Correction>
   9.000000E+99

> <Gold.Chemscore.Hbonds>
donor molecule, donor type, donor heavy atom, donor atom, acceptor molecule, acceptor atom, score
      L1  H    17    40       P1  8028  0.98
      P1  H  6896  6907       L1     8  0.81

> <Gold.Chemscore.Hbond.Weighted>
-6.3612

> <Gold.Chemscore.Metal.Weighted>
-0.0000

> <Gold.Chemscore.Lipo.Weighted>
-8.1162

> <Gold.Chemscore.Internal_Hbond.Weighted>
0.0000

> <Gold.Chemscore.DEClash.Weighted>
0.0019

> <Gold.Chemscore.DEInternal.Weighted>
2.6416

> <Gold.Chemscore.Rot.Weighted>
4.4103

> <Gold.Chemscore.Internal.Correction.Weighted>
   9.000000E+99

> <Gold.Protein.RotatedTorsions>
[ 6907 6896 6895 6894 ] final  -70.11 input  -60.11 | X-H torsion
[ 7974 7965 7964 7962 ] final  107.70 input  175.53 | X-H torsion
[ 8008 7997 7996 7995 ] final   19.11 input   59.86 | X-H torsion
[ 10167 10162 10161 10158 ] final  -11.07 input  -65.29 | X-H torsion
[ 10718 10713 10712 10709 ] final  -33.96 input   66.30 | X-H torsion
[ 10763 10752 10751 10750 ] final   99.18 input  -60.55 | X-H torsion
[ 11005 11000 10999 10996 ] final  172.05 input  -57.11 | X-H torsion

> <Gold.Protein.ActiveResidues>
 VAL166  LYS551  ARG553  GLY616  TRP617  ASP618  TYR619  PRO620  LYS621  CYS622 
 ASP623  PHE694  ASN695  SER759  ASP760  ASP761  ALA762  ILE779  LEU786  VAL792 
 PHE793  MET794  SER795  GLU796  ALA797  LYS798  CYS799  TRP800  GLU811  SER814 

> <Gold.Protein.RotatedAtoms>
  150.7273  134.5500  159.5789 H   0  0  0  0  0  0  0  0  0  0  0  0  # atno 6907 bound_to 6896
  152.2989  134.7631  160.0371 H   0  0  0  0  0  0  0  0  0  0  0  0  # atno 6908 bound_to 6896
  151.8218  133.3360  159.3623 H   0  0  0  0  0  0  0  0  0  0  0  0  # atno 6909 bound_to 6896
  145.2902  139.2603  143.3869 H   0  0  0  0  0  0  0  0  0  0  0  0  # atno 7974 bound_to 7965
  154.9158  140.3020  155.5242 H   0  0  0  0  0  0  0  0  0  0  0  0  # atno 8008 bound_to 7997
  156.3012  140.2380  156.4139 H   0  0  0  0  0  0  0  0  0  0  0  0  # atno 8009 bound_to 7997
  154.8379  140.0415  157.1510 H   0  0  0  0  0  0  0  0  0  0  0  0  # atno 8010 bound_to 7997
  140.7129  143.5679  150.9124 H   0  0  0  0  0  0  0  0  0  0  0  0  # atno 10167 bound_to 10162
  156.3563  130.4316  149.7661 H   0  0  0  0  0  0  0  0  0  0  0  0  # atno 10718 bound_to 10713
  153.2983  135.4122  155.1229 H   0  0  0  0  0  0  0  0  0  0  0  0  # atno 10763 bound_to 10752
  154.8541  135.3535  154.5887 H   0  0  0  0  0  0  0  0  0  0  0  0  # atno 10764 bound_to 10752
  153.6311  135.7060  153.5333 H   0  0  0  0  0  0  0  0  0  0  0  0  # atno 10765 bound_to 10752
  140.3256  134.7401  157.4096 H   0  0  0  0  0  0  0  0  0  0  0  0  # atno 11005 bound_to 11000
  146.3187  140.3391  142.8646 LP  0  0  0  0  0  0  0  0  0  0  0  0  # atno 17320 bound_to 7965
  144.9179  140.7834  143.5766 LP  0  0  0  0  0  0  0  0  0  0  0  0  # atno 17321 bound_to 7965
  139.9405  143.6387  152.3055 LP  0  0  0  0  0  0  0  0  0  0  0  0  # atno 17342 bound_to 10162
  139.6870  144.7650  151.1506 LP  0  0  0  0  0  0  0  0  0  0  0  0  # atno 17343 bound_to 10162
  156.4842  130.8055  151.3068 LP  0  0  0  0  0  0  0  0  0  0  0  0  # atno 17370 bound_to 10713
  157.7468  130.9996  150.2895 LP  0  0  0  0  0  0  0  0  0  0  0  0  # atno 17371 bound_to 10713
  140.0905  134.5608  155.8449 LP  0  0  0  0  0  0  0  0  0  0  0  0  # atno 17394 bound_to 11000
  141.2076  133.6666  156.6317 LP  0  0  0  0  0  0  0  0  0  0  0  0  # atno 17395 bound_to 11000

$$$$
