AV-unprocessed.smi:193|AV-procd|sdf|1501|dock9
  -GOLD-   2262019333D 1   1.00000     0.00000
 Structure written by MMmdl.
 62 66  0  0  0  0  0  0  0  0  2 V2000
  150.6228  133.5377  156.0791 C   0  0  0  0  0  0  0  0  0  0  0  0
  149.9201  134.8748  156.3605 C   0  0  1  0  0  0  0  0  0  0  0  0
  149.7901  135.6659  155.0389 C   0  0  0  0  0  0  0  0  0  0  0  0
  149.3785  137.0578  155.2169 N   0  0  0  0  0  0  0  0  0  0  0  0
  150.3408  138.0149  155.3046 C   0  0  0  0  0  0  0  0  0  0  0  0
  151.6445  137.6720  155.1258 N   0  0  0  0  0  0  0  0  0  0  0  0
  152.6076  138.5920  155.2310 C   0  0  0  0  0  0  0  0  0  0  0  0
  152.4916  139.8922  155.5039 N   0  0  0  0  0  0  0  0  0  0  0  0
  151.1866  140.2471  155.6768 C   0  0  0  0  0  0  0  0  0  0  0  0
  150.0590  139.3815  155.5920 C   0  0  0  0  0  0  0  0  0  0  0  0
  148.8925  140.1072  155.8060 N   0  0  0  0  0  0  0  0  0  0  0  0
  149.3068  141.3267  156.0147 C   0  0  0  0  0  0  0  0  0  0  0  0
  150.6717  141.4981  155.9689 N   0  0  0  0  0  0  0  0  0  0  0  0
  151.4015  142.7403  156.1715 C   0  0  0  0  0  0  0  0  0  0  0  0
  151.3293  143.2836  157.6208 C   0  0  0  0  0  0  0  0  0  0  0  0
  149.9701  143.5547  157.9159 O   0  0  0  0  0  0  0  0  0  0  0  0
  151.8405  142.2228  158.6165 C   0  0  0  0  0  0  0  0  0  0  0  0
  151.9532  142.7760  160.0483 C   0  0  0  0  0  0  0  0  0  0  0  0
  152.7799  143.9332  160.0579 O   0  0  0  0  0  0  0  0  0  0  0  0
  152.2406  144.9997  159.2869 C   0  0  0  0  0  0  0  0  0  0  0  0
  152.1373  144.5870  157.8078 C   0  0  0  0  0  0  0  0  0  0  0  0
  148.1323  137.3197  155.9333 C   0  0  0  0  0  0  0  0  0  0  0  0
  148.2915  137.1031  157.4496 C   0  0  0  0  0  0  0  0  0  0  0  0
  148.0449  135.7080  157.9008 N   0  3  2  0  0  0  0  0  0  0  0  0
  148.4737  135.5055  159.3055 C   0  0  1  0  0  0  0  0  0  0  0  0
  147.7187  136.3501  160.3073 C   0  0  0  0  0  0  0  0  0  0  0  0
  147.4390  134.8658  160.2145 C   0  0  1  0  0  0  0  0  0  0  0  0
  146.0882  134.3715  159.7295 C   0  0  0  0  0  0  0  0  0  0  0  0
  148.5368  134.6228  157.0065 C   0  0  0  0  0  0  0  0  0  0  0  0
  150.0445  132.9214  155.3897 H   0  0  0  0  0  0  0  0  0  0  0  0
  150.7676  132.9662  156.9965 H   0  0  0  0  0  0  0  0  0  0  0  0
  151.6072  133.6963  155.6376 H   0  0  0  0  0  0  0  0  0  0  0  0
  150.5577  135.4180  157.0590 H   0  0  0  0  0  0  0  0  0  0  0  0
  150.7330  135.6366  154.4905 H   0  0  0  0  0  0  0  0  0  0  0  0
  149.0661  135.1781  154.3854 H   0  0  0  0  0  0  0  0  0  0  0  0
  153.6151  138.2347  155.0770 H   0  0  0  0  0  0  0  0  0  0  0  0
  148.6244  142.1394  156.2178 H   0  0  0  0  0  0  0  0  0  0  0  0
  152.4397  142.5803  155.8774 H   0  0  0  0  0  0  0  0  0  0  0  0
  151.0021  143.4796  155.4760 H   0  0  0  0  0  0  0  0  0  0  0  0
  149.5616  143.9200  157.1461 H   0  0  0  0  0  0  0  0  0  0  0  0
  151.1945  141.3439  158.6051 H   0  0  0  0  0  0  0  0  0  0  0  0
  152.8271  141.8791  158.3026 H   0  0  0  0  0  0  0  0  0  0  0  0
  150.9702  143.0126  160.4586 H   0  0  0  0  0  0  0  0  0  0  0  0
  152.3948  142.0253  160.7037 H   0  0  0  0  0  0  0  0  0  0  0  0
  151.2667  145.2927  159.6818 H   0  0  0  0  0  0  0  0  0  0  0  0
  152.8930  145.8675  159.3854 H   0  0  0  0  0  0  0  0  0  0  0  0
  153.1454  144.4432  157.4169 H   0  0  0  0  0  0  0  0  0  0  0  0
  151.6988  145.4039  157.2335 H   0  0  0  0  0  0  0  0  0  0  0  0
  147.8152  138.3463  155.7586 H   0  0  0  0  0  0  0  0  0  0  0  0
  147.3310  136.6994  155.5307 H   0  0  0  0  0  0  0  0  0  0  0  0
  149.2723  137.4436  157.7859 H   0  0  0  0  0  0  0  0  0  0  0  0
  147.5685  137.7363  157.9640 H   0  0  0  0  0  0  0  0  0  0  0  0
  149.5346  135.3104  159.4532 H   0  0  0  0  0  0  0  0  0  0  0  0
  148.2638  136.6984  161.1821 H   0  0  0  0  0  0  0  0  0  0  0  0
  146.9528  137.0305  159.9395 H   0  0  0  0  0  0  0  0  0  0  0  0
  147.8476  134.2576  161.0194 H   0  0  0  0  0  0  0  0  0  0  0  0
  145.6568  135.0481  158.9915 H   0  0  0  0  0  0  0  0  0  0  0  0
  145.3970  134.3001  160.5695 H   0  0  0  0  0  0  0  0  0  0  0  0
  146.1881  133.3823  159.2825 H   0  0  0  0  0  0  0  0  0  0  0  0
  147.7922  134.4510  156.2287 H   0  0  0  0  0  0  0  0  0  0  0  0
  148.5564  133.6947  157.5800 H   0  0  0  0  0  0  0  0  0  0  0  0
  147.0410  135.5985  157.9099 H   0  0  0  0  0  0  0  0  0  0  0  0
  1  2  1  0  0  0  0
  1 30  1  0  0  0  0
  1 31  1  0  0  0  0
  1 32  1  0  0  0  0
  2 29  1  0  0  0  0
  2  3  1  0  0  0  0
  2 33  1  0  0  0  0
  3  4  1  0  0  0  0
  3 34  1  0  0  0  0
  3 35  1  0  0  0  0
  4  5  1  0  0  0  0
  4 22  1  0  0  0  0
  5 10  1  0  0  0  0
  5  6  2  0  0  0  0
  6  7  1  0  0  0  0
  7  8  2  0  0  0  0
  7 36  1  0  0  0  0
  8  9  1  0  0  0  0
  9 13  1  0  0  0  0
  9 10  2  0  0  0  0
 10 11  1  0  0  0  0
 11 12  2  0  0  0  0
 12 13  1  0  0  0  0
 12 37  1  0  0  0  0
 13 14  1  0  0  0  0
 14 15  1  0  0  0  0
 14 38  1  0  0  0  0
 14 39  1  0  0  0  0
 15 21  1  0  0  0  0
 15 16  1  0  0  0  0
 15 17  1  0  0  0  0
 16 40  1  0  0  0  0
 17 18  1  0  0  0  0
 17 41  1  0  0  0  0
 17 42  1  0  0  0  0
 18 19  1  0  0  0  0
 18 43  1  0  0  0  0
 18 44  1  0  0  0  0
 19 20  1  0  0  0  0
 20 21  1  0  0  0  0
 20 45  1  0  0  0  0
 20 46  1  0  0  0  0
 21 47  1  0  0  0  0
 21 48  1  0  0  0  0
 22 23  1  0  0  0  0
 22 49  1  0  0  0  0
 22 50  1  0  0  0  0
 23 24  1  0  0  0  0
 23 51  1  0  0  0  0
 23 52  1  0  0  0  0
 24 25  1  0  0  0  0
 24 29  1  0  0  0  0
 24 62  1  0  0  0  0
 25 27  1  0  0  0  0
 25 26  1  0  0  0  0
 25 53  1  0  0  0  0
 26 27  1  0  0  0  0
 26 54  1  0  0  0  0
 26 55  1  0  0  0  0
 27 28  1  0  0  0  0
 27 56  1  0  0  0  0
 28 57  1  0  0  0  0
 28 58  1  0  0  0  0
 28 59  1  0  0  0  0
 29 60  1  0  0  0  0
 29 61  1  0  0  0  0
M  CHG  1  24   1
M  END
> <s_m_source_file>
AV-unprocessed.smi

> <i_m_source_file_index>
193

> <i_lp_mmshare_version>
43012

> <i_f3d_flags>
0

> <s_epik_input>
W0NIM11bQ0BASF0xW0NIMl1bQ0BIXTFOKFtDSDJdMilbQ0gyXVtDSDJdTihbQ0gyXVtDQEhdMltDSDNdKWMobltjSF1uMyljKGMzNCluW2NIXW40W0NIMl1DNShbT0hdKVtDSDJdW0NIMl1PW0NIMl1bQ0gyXTU=

> <s_epik_cmdline>
J2VwaWtfcHl0aG9uJywgJy1waCcsICc3LjAnLCAnLXRuJywgJzgnLCAnLW1hJywgJzIwMCcsICctbWV0YWxfYmluZGluZycsICctaW1hZScsICc8aW5maWxlLm1hZT4nLCAnLW9tYWUnLCAnPG91dGZpbGUubWFlPic=

> <r_lp_tautomer_probability>
1

> <r_epik_Ionization_Penalty>
0.0540825

> <r_epik_Ionization_Penalty_Charging>
0.0538476

> <r_epik_Ionization_Penalty_Neutral>
0.000234891

> <r_epik_State_Penalty>
0.0200719

> <r_epik_Charging_Adjusted_Penalty>
0.0739194

> <i_epik_Tot_Q>
1

> <i_epik_Tot_abs_Q>
1

> <r_epik_Metal_State_Penalty>
0.0199414

> <b_epik_Metal_Only>
0

> <s_lp_Force_Field>
OPLS_2005

> <r_lp_Energy>
56.4216

> <b_lp_Chiralities_Consistent>
1

> <s_lp_Variant>
AV-unprocessed.smi:193-6

> <Gold.Version>
5.8.1

> <Gold.Id.Protein>
6NUR|6NUR_protein|mol2

> <Gold.PLP.Fitness>
48.4672

> <Gold.PLP.PLP>
-41.0908

> <Gold.PLP.part.hbond>
-3.0913

> <Gold.PLP.part.metal>
0.0000

> <Gold.PLP.part.buried>
-5.0258

> <Gold.PLP.part.nonpolar>
-32.3817

> <Gold.PLP.part.repulsive>
0.1608

> <Gold.PLP.ligand.clash>
0.0000

> <Gold.PLP.ligand.torsion>
0.8662

> <Gold.PLP.Chemscore.Hbond>
1.8500

> <Gold.PLP.Chemscore.CHOScore>
0.6981

> <Gold.PLP.Chemscore.Metal>
0.0000

> <Gold.Chemscore.Hbonds>
donor molecule, donor type, donor heavy atom, donor atom, acceptor molecule, acceptor atom, score
      L1  H    16    40       P1  8028  1.00
      P1  H  7997  8009       L1     8  0.85
      L1  C    12    37       P1  8028  0.70

> <Gold.PLP.Chemscore.Internal.Correction>
1.4647

> <Gold.Rescore>
     Score         DG    S(hbond)    S(metal)    S(lipo)     H(rot)  DE(clash)    DE(int)     intcor
     14.98     -20.11       2.23        0.00     103.53       1.93       1.93       3.19       ----

> <Gold.Chemscore.Fitness>
14.9846

> <Gold.Chemscore.DG>
-20.1054

> <Gold.Chemscore.ZeroCoef>
-5.4800

> <Gold.Chemscore.Hbond>
2.2308

> <Gold.Chemscore.Metal>
0.0000

> <Gold.Chemscore.Lipo>
103.5279

> <Gold.Chemscore.Internal_Hbond>
0.0000

> <Gold.Chemscore.DEClash>
1.9303

> <Gold.Chemscore.DEInternal>
3.1905

> <Gold.Chemscore.Rot>
1.9290

> <Gold.Chemscore.Internal.Correction>
   9.000000E+99

> <Gold.Chemscore.Hbonds>
donor molecule, donor type, donor heavy atom, donor atom, acceptor molecule, acceptor atom, score
      L1  H    16    40       P1  8028  0.65
      P1  H  7997  8009       L1     8  0.14

> <Gold.Chemscore.Hbond.Weighted>
-7.4509

> <Gold.Chemscore.Metal.Weighted>
-0.0000

> <Gold.Chemscore.Lipo.Weighted>
-12.1128

> <Gold.Chemscore.Internal_Hbond.Weighted>
0.0000

> <Gold.Chemscore.DEClash.Weighted>
1.9303

> <Gold.Chemscore.DEInternal.Weighted>
3.1905

> <Gold.Chemscore.Rot.Weighted>
4.9383

> <Gold.Chemscore.Internal.Correction.Weighted>
   9.000000E+99

> <Gold.Protein.RotatedTorsions>
[ 6907 6896 6895 6894 ] final -105.58 input  -60.11 | X-H torsion
[ 7974 7965 7964 7962 ] final   59.78 input  175.53 | X-H torsion
[ 8008 7997 7996 7995 ] final -143.60 input   59.86 | X-H torsion
[ 10167 10162 10161 10158 ] final   60.24 input  -65.29 | X-H torsion
[ 10718 10713 10712 10709 ] final -155.64 input   66.30 | X-H torsion
[ 10763 10752 10751 10750 ] final  -32.21 input  -60.55 | X-H torsion
[ 11005 11000 10999 10996 ] final  -27.43 input  -57.11 | X-H torsion

> <Gold.Protein.ActiveResidues>
 VAL166  LYS551  ARG553  GLY616  TRP617  ASP618  TYR619  PRO620  LYS621  CYS622 
 ASP623  PHE694  ASN695  SER759  ASP760  ASP761  ALA762  ILE779  LEU786  VAL792 
 PHE793  MET794  SER795  GLU796  ALA797  LYS798  CYS799  TRP800  GLU811  SER814 

> <Gold.Protein.RotatedAtoms>
  150.7344  134.0105  159.3667 H   0  0  0  0  0  0  0  0  0  0  0  0  # atno 6907 bound_to 6896
  151.8064  135.0692  160.0416 H   0  0  0  0  0  0  0  0  0  0  0  0  # atno 6908 bound_to 6896
  152.3104  133.5710  159.5713 H   0  0  0  0  0  0  0  0  0  0  0  0  # atno 6909 bound_to 6896
  145.9034  139.3598  143.0579 H   0  0  0  0  0  0  0  0  0  0  0  0  # atno 7974 bound_to 7965
  155.5132  140.0585  157.2920 H   0  0  0  0  0  0  0  0  0  0  0  0  # atno 8008 bound_to 7997
  154.4544  140.1965  156.0370 H   0  0  0  0  0  0  0  0  0  0  0  0  # atno 8009 bound_to 7997
  156.0770  140.3252  155.7650 H   0  0  0  0  0  0  0  0  0  0  0  0  # atno 8010 bound_to 7997
  140.1677  144.4308  150.6677 H   0  0  0  0  0  0  0  0  0  0  0  0  # atno 10167 bound_to 10162
  156.5156  130.8454  151.2663 H   0  0  0  0  0  0  0  0  0  0  0  0  # atno 10718 bound_to 10713
  153.8100  135.6883  153.4842 H   0  0  0  0  0  0  0  0  0  0  0  0  # atno 10763 bound_to 10752
  153.1634  135.4571  154.9802 H   0  0  0  0  0  0  0  0  0  0  0  0  # atno 10764 bound_to 10752
  154.7971  135.3323  154.7582 H   0  0  0  0  0  0  0  0  0  0  0  0  # atno 10765 bound_to 10752
  140.9119  133.7455  156.0681 H   0  0  0  0  0  0  0  0  0  0  0  0  # atno 11005 bound_to 11000
  145.8763  140.9390  143.0624 LP  0  0  0  0  0  0  0  0  0  0  0  0  # atno 17320 bound_to 7965
  144.6737  140.0720  143.7472 LP  0  0  0  0  0  0  0  0  0  0  0  0  # atno 17321 bound_to 7965
  140.6602  143.2250  151.5873 LP  0  0  0  0  0  0  0  0  0  0  0  0  # atno 17342 bound_to 10162
  139.5352  144.2802  152.1235 LP  0  0  0  0  0  0  0  0  0  0  0  0  # atno 17343 bound_to 10162
  157.7444  130.9935  150.2673 LP  0  0  0  0  0  0  0  0  0  0  0  0  # atno 17370 bound_to 10713
  156.3199  130.3784  149.7585 LP  0  0  0  0  0  0  0  0  0  0  0  0  # atno 17371 bound_to 10713
  140.8100  134.3411  157.5414 LP  0  0  0  0  0  0  0  0  0  0  0  0  # atno 17394 bound_to 11000
  139.8759  134.9248  156.3359 LP  0  0  0  0  0  0  0  0  0  0  0  0  # atno 17395 bound_to 11000

$$$$
