#       Name:                AV-unprocessed.smi:1381
#       Creating user name   scv26
#       Creation time:       Fri Mar 27 05:21:16 2020


#       File generated by GOLD software.
#

@<TRIPOS>MOLECULE
AV-unprocessed.smi:1381
    50    51     1
SMALL
NO_CHARGES


@<TRIPOS>ATOM
      1 ****        -4.4260   4.8564   2.9482 C.3            1 S1                 0.0000
      2 ****        -3.6939   3.5719   2.7614 C.2            1 S1                 0.0000
      3 ****        -3.5215   2.7478   1.6850 C.2            1 S1                 0.0000
      4 ****        -2.7206   1.6991   2.2101 C.2            1 S1                 0.0000
      5 ****        -2.3166   0.6131   1.3923 N.am           1 S1                 0.0000
      6 ****        -1.5726  -0.4478   1.7488 C.2            1 S1                 0.0000
      7 ****        -1.0991  -0.6379   2.8696 O.2            1 S1                 0.0000
      8 ****        -1.4004  -1.2901   0.7201 N.am           1 S1                 0.0000
      9 ****        -0.6215  -2.5232   0.7699 C.3            1 S1                 0.0000
     10 ****         0.8928  -2.2509   0.6781 C.3            1 S1                 0.0000
     11 ****         1.3282  -1.5218  -0.5139 N.3            1 S1                 0.0000
     12 ****         1.1617  -2.3001  -1.7392 C.3            1 S1                 0.0000
     13 ****         1.6504  -1.5483  -2.9937 C.3            1 S1                 0.0000
     14 ****         0.7037  -0.4181  -3.4334 C.3            1 S1                 0.0000
     15 ****         2.9850  -1.0770  -2.8013 O.3            1 S1                 0.0000
     16 ****         3.1937  -0.3081  -1.6181 C.3            1 S1                 0.0000
     17 ****         4.6830   0.0435  -1.5365 C.3            1 S1                 0.0000
     18 ****         2.7224  -1.1152  -0.3955 C.3            1 S1                 0.0000
     19 ****        -2.4283   1.8688   3.4908 N.2            1 S1                 0.0000
     20 ****        -3.0506   3.0701   3.8505 O.3            1 S1                 0.0000
     21 ****        -4.7678   5.2524   1.9918 H              1 S1                 0.0000
     22 ****        -3.7843   5.6046   3.4138 H              1 S1                 0.0000
     23 ****        -5.2986   4.7138   3.5861 H              1 S1                 0.0000
     24 ****        -3.9092   2.8762   0.6852 H              1 S1                 0.0000
     25 ****        -2.6345   0.6437   0.4350 H              1 S1                 0.0000
     26 ****        -1.8209  -1.0544  -0.1668 H              1 S1                 0.0000
     27 ****        -0.8431  -3.0604   1.6934 H              1 S1                 0.0000
     28 ****        -0.9509  -3.1760  -0.0377 H              1 S1                 0.0000
     29 ****         1.1831  -1.6854   1.5647 H              1 S1                 0.0000
     30 ****         1.4316  -3.1971   0.7451 H              1 S1                 0.0000
     31 ****         1.7165  -3.2355  -1.6513 H              1 S1                 0.0000
     32 ****         0.1166  -2.5748  -1.8789 H              1 S1                 0.0000
     33 ****         1.6946  -2.2632  -3.8158 H              1 S1                 0.0000
     34 ****        -0.2781  -0.8140  -3.6935 H              1 S1                 0.0000
     35 ****         1.0948   0.0966  -4.3110 H              1 S1                 0.0000
     36 ****         0.5573   0.3235  -2.6485 H              1 S1                 0.0000
     37 ****         2.6248   0.6200  -1.6836 H              1 S1                 0.0000
     38 ****         4.8969   0.6446  -0.6523 H              1 S1                 0.0000
     39 ****         4.9965   0.6149  -2.4104 H              1 S1                 0.0000
     40 ****         5.2984  -0.8553  -1.4880 H              1 S1                 0.0000
     41 ****         2.8541  -0.5114   0.5032 H              1 S1                 0.0000
     42 ****         3.3542  -1.9965  -0.2734 H              1 S1                 0.0000
     43 ****        -1.2587   0.0271   3.5992 LP             1 S1                 0.0000
     44 ****        -0.5550  -1.4572   3.0501 LP             1 S1                 0.0000
     45 ****         0.7421  -0.7138  -0.5753 LP             1 S1                 0.0000
     46 ****         3.2282  -0.5079  -3.5868 LP             1 S1                 0.0000
     47 ****         3.5912  -1.8714  -2.7648 LP             1 S1                 0.0000
     48 ****        -1.8814   1.2687   4.0745 LP             1 S1                 0.0000
     49 ****        -3.7104   2.9012   4.5827 LP             1 S1                 0.0000
     50 ****        -2.3629   3.7240   4.1659 LP             1 S1                 0.0000
@<TRIPOS>BOND
    1    1    2 1     
    2    1   21 1     
    3    1   22 1     
    4    1   23 1     
    5    2   20 1     
    6    2    3 2     
    7    3    4 1     
    8    3   24 1     
    9    4    5 1     
   10    4   19 2     
   11    5    6 am    
   12    5   25 1     
   13    6    7 2     
   14    6    8 am    
   15    8    9 1     
   16    8   26 1     
   17    9   10 1     
   18    9   27 1     
   19    9   28 1     
   20   10   11 1     
   21   10   29 1     
   22   10   30 1     
   23   11   18 1     
   24   11   12 1     
   25   12   13 1     
   26   12   31 1     
   27   12   32 1     
   28   13   14 1     
   29   13   15 1     
   30   13   33 1     
   31   14   34 1     
   32   14   35 1     
   33   14   36 1     
   34   15   16 1     
   35   16   17 1     
   36   16   18 1     
   37   16   37 1     
   38   17   38 1     
   39   17   39 1     
   40   17   40 1     
   41   18   41 1     
   42   18   42 1     
   43   19   20 1     
   44    7   43 1     
   45    7   44 1     
   46   11   45 1     
   47   15   46 1     
   48   15   47 1     
   49   19   48 1     
   50   20   49 1     
   51   20   50 1     
@<TRIPOS>SUBSTRUCTURE
      1 S1             1
@<TRIPOS>SET
LONE_PAIRS      STATIC     ATOMS    <user>   **** ""
8 43 44 45 46 47 48 49 50
DONOR_HYDROGENS      STATIC     ATOMS    <user>   **** ""
2 25 26
ATOM$BLUE        STATIC     ATOMS    COLORGROUP SYSTEM
8 43 44 45 46 47 48 49 50
ATOM$RED        STATIC     ATOMS    COLORGROUP SYSTEM
2 25 26
