AV-unprocessed.smi:102|AV-procd|sdf|956|dock10
  -GOLD-   2262017493D 1   1.00000     0.00000
 Structure written by MMmdl.
 44 45  0  0  0  0  0  0  0  0  1 V2000
  156.7377  137.6954  157.8884 C   0  0  0  0  0  0  0  0  0  0  0  0
  155.3891  137.1180  157.4798 C   0  0  0  0  0  0  0  0  0  0  0  0
  155.2700  136.4113  156.4782 O   0  0  0  0  0  0  0  0  0  0  0  0
  154.4028  137.4706  158.3243 O   0  0  0  0  0  0  0  0  0  0  0  0
  153.0739  137.0153  158.1089 C   0  0  0  0  0  0  0  0  0  0  0  0
  152.0672  137.8192  158.9540 C   0  0  1  0  0  0  0  0  0  0  0  0
  152.4276  139.1941  158.9702 O   0  0  0  0  0  0  0  0  0  0  0  0
  151.8322  139.8276  157.8867 C   0  0  2  0  0  0  0  0  0  0  0  0
  151.6523  141.2881  158.2100 N   0  0  0  0  0  0  0  0  0  0  0  0
  152.1430  141.8254  159.3921 C   0  0  0  0  0  0  0  0  0  0  0  0
  151.9883  143.1282  159.7267 C   0  0  0  0  0  0  0  0  0  0  0  0
  152.4897  143.5788  160.8891 F   0  0  0  0  0  0  0  0  0  0  0  0
  151.2736  144.0442  158.8420 C   0  0  0  0  0  0  0  0  0  0  0  0
  151.0866  145.2405  159.0553 O   0  0  0  0  0  0  0  0  0  0  0  0
  150.7782  143.4526  157.6757 N   0  0  0  0  0  0  0  0  0  0  0  0
  150.9263  142.1102  157.3212 C   0  0  0  0  0  0  0  0  0  0  0  0
  150.4269  141.6899  156.2784 O   0  0  0  0  0  0  0  0  0  0  0  0
  150.4787  139.1550  157.6674 C   0  0  1  0  0  0  0  0  0  0  0  0
  150.2150  139.0237  156.2776 O   0  0  0  0  0  0  0  0  0  0  0  0
  149.0814  138.4376  155.8610 C   0  0  0  0  0  0  0  0  0  0  0  0
  148.9203  138.4977  154.3482 C   0  0  0  0  0  0  0  0  0  0  0  0
  148.2397  137.8959  156.5778 O   0  0  0  0  0  0  0  0  0  0  0  0
  150.6564  137.7960  158.3402 C   0  0  2  0  0  0  0  0  0  0  0  0
  149.6542  137.6363  159.3365 O   0  0  0  0  0  0  0  0  0  0  0  0
  149.0547  136.4456  159.5111 C   0  0  0  0  0  0  0  0  0  0  0  0
  148.0488  136.4651  160.6540 C   0  0  0  0  0  0  0  0  0  0  0  0
  149.2646  135.4251  158.8554 O   0  0  0  0  0  0  0  0  0  0  0  0
  150.2650  144.0456  157.0396 H   0  0  0  0  0  0  0  0  0  0  0  0
  157.0987  137.2069  158.7934 H   0  0  0  0  0  0  0  0  0  0  0  0
  156.6514  138.7647  158.0818 H   0  0  0  0  0  0  0  0  0  0  0  0
  157.4733  137.5461  157.0977 H   0  0  0  0  0  0  0  0  0  0  0  0
  152.8098  137.0230  157.0505 H   0  0  0  0  0  0  0  0  0  0  0  0
  153.0441  135.9718  158.4228 H   0  0  0  0  0  0  0  0  0  0  0  0
  152.0626  137.4289  159.9725 H   0  0  0  0  0  0  0  0  0  0  0  0
  152.5119  139.7521  157.0348 H   0  0  0  0  0  0  0  0  0  0  0  0
  152.6662  141.1847  160.0874 H   0  0  0  0  0  0  0  0  0  0  0  0
  149.7111  139.7427  158.1750 H   0  0  0  0  0  0  0  0  0  0  0  0
  148.9701  139.5303  154.0022 H   0  0  0  0  0  0  0  0  0  0  0  0
  147.9597  138.0787  154.0480 H   0  0  0  0  0  0  0  0  0  0  0  0
  149.7126  137.9294  153.8608 H   0  0  0  0  0  0  0  0  0  0  0  0
  150.5746  136.9990  157.5989 H   0  0  0  0  0  0  0  0  0  0  0  0
  147.3029  137.2430  160.4905 H   0  0  0  0  0  0  0  0  0  0  0  0
  148.5548  136.6625  161.5991 H   0  0  0  0  0  0  0  0  0  0  0  0
  147.5367  135.5057  160.7301 H   0  0  0  0  0  0  0  0  0  0  0  0
  1  2  1  0  0  0  0
  1 29  1  0  0  0  0
  1 30  1  0  0  0  0
  1 31  1  0  0  0  0
  2  3  2  0  0  0  0
  2  4  1  0  0  0  0
  4  5  1  0  0  0  0
  5  6  1  0  0  0  0
  5 32  1  0  0  0  0
  5 33  1  0  0  0  0
  6 23  1  0  0  0  0
  6  7  1  0  0  0  0
  6 34  1  0  0  0  0
  7  8  1  0  0  0  0
  8  9  1  0  0  0  0
  8 18  1  0  0  0  0
  8 35  1  0  0  0  0
  9 16  1  0  0  0  0
  9 10  1  0  0  0  0
 10 11  2  0  0  0  0
 10 36  1  0  0  0  0
 11 12  1  0  0  0  0
 11 13  1  0  0  0  0
 13 14  2  0  0  0  0
 13 15  1  0  0  0  0
 15 28  1  0  0  0  0
 15 16  1  0  0  0  0
 16 17  2  0  0  0  0
 18 19  1  0  0  0  0
 18 23  1  0  0  0  0
 18 37  1  0  0  0  0
 19 20  1  0  0  0  0
 20 21  1  0  0  0  0
 20 22  2  0  0  0  0
 21 38  1  0  0  0  0
 21 39  1  0  0  0  0
 21 40  1  0  0  0  0
 23 24  1  0  0  0  0
 23 41  1  0  0  0  0
 24 25  1  0  0  0  0
 25 26  1  0  0  0  0
 25 27  2  0  0  0  0
 26 42  1  0  0  0  0
 26 43  1  0  0  0  0
 26 44  1  0  0  0  0
M  END
> <s_m_source_file>
AV-unprocessed.smi

> <i_m_source_file_index>
102

> <i_lp_mmshare_version>
43012

> <i_f3d_flags>
0

> <s_epik_input>
W0NIM11DKD1PKU9bQ0gyXVtDQEBIXTFPW0NASF0oW0NAQEhdKE9DKD1PKVtDSDNdKVtDQEhdMU9DKD1PKVtDSDNdKW4yW2NIXWMoRiljKD1PKVtuSF1jMj1P

> <s_epik_cmdline>
J2VwaWtfcHl0aG9uJywgJy1waCcsICc3LjAnLCAnLXRuJywgJzgnLCAnLW1hJywgJzIwMCcsICctbWV0YWxfYmluZGluZycsICctaW1hZScsICc8aW5maWxlLm1hZT4nLCAnLW9tYWUnLCAnPG91dGZpbGUubWFlPic=

> <r_lp_tautomer_probability>
0.999537

> <r_epik_Ionization_Penalty>
0.058267

> <r_epik_Ionization_Penalty_Charging>
0.058267

> <r_epik_Ionization_Penalty_Neutral>
6.57791e-16

> <r_epik_State_Penalty>
0.0503774

> <r_epik_Charging_Adjusted_Penalty>
0.108644

> <i_epik_Tot_Q>
0

> <i_epik_Tot_abs_Q>
0

> <r_epik_Metal_State_Penalty>
2.6644

> <b_epik_Metal_Only>
0

> <s_epik_Chemistry_Notes>
This compound has an ester and may undergo hydrolysis at high or low pH. This compound contains an acetal/aminal-like group ( X-CH(R)-Y where X, Y are N, S, or O) that may be acid/base labile, releasing an aldehyde.

> <s_lp_Force_Field>
OPLS_2005

> <r_lp_Energy>
12.7651

> <b_lp_Chiralities_Consistent>
1

> <s_lp_Variant>
AV-unprocessed.smi:102-12

> <Gold.Version>
5.8.1

> <Gold.Id.Protein>
6NUR|6NUR_protein|mol2

> <Gold.PLP.Fitness>
44.6721

> <Gold.PLP.PLP>
-37.4483

> <Gold.PLP.part.hbond>
-4.3911

> <Gold.PLP.part.metal>
0.0000

> <Gold.PLP.part.buried>
-7.4069

> <Gold.PLP.part.nonpolar>
-26.8597

> <Gold.PLP.part.repulsive>
0.2396

> <Gold.PLP.ligand.clash>
0.0000

> <Gold.PLP.ligand.torsion>
0.9558

> <Gold.PLP.Chemscore.Hbond>
3.0000

> <Gold.PLP.Chemscore.CHOScore>
0.0000

> <Gold.PLP.Chemscore.Metal>
0.0000

> <Gold.Chemscore.Hbonds>
donor molecule, donor type, donor heavy atom, donor atom, acceptor molecule, acceptor atom, score
      L1  H    15    28       P1  8028  0.98
      P1  H  6896  6908       L1    27  1.00
      P1  H 10752 10765       L1     3  1.00

> <Gold.PLP.Chemscore.Internal.Correction>
0.1352

> <Gold.Rescore>
     Score         DG    S(hbond)    S(metal)    S(lipo)     H(rot)  DE(clash)    DE(int)     intcor
      6.22     -10.60       2.88        0.00      50.27       4.05       0.57       3.81       ----

> <Gold.Chemscore.Fitness>
6.2237

> <Gold.Chemscore.DG>
-10.6012

> <Gold.Chemscore.ZeroCoef>
-5.4800

> <Gold.Chemscore.Hbond>
2.8780

> <Gold.Chemscore.Metal>
0.0000

> <Gold.Chemscore.Lipo>
50.2711

> <Gold.Chemscore.Internal_Hbond>
0.0000

> <Gold.Chemscore.DEClash>
0.5652

> <Gold.Chemscore.DEInternal>
3.8123

> <Gold.Chemscore.Rot>
4.0520

> <Gold.Chemscore.Internal.Correction>
   9.000000E+99

> <Gold.Chemscore.Hbonds>
donor molecule, donor type, donor heavy atom, donor atom, acceptor molecule, acceptor atom, score
      L1  H    15    28       P1  8028  0.87
      P1  H  6896  6908       L1    27  0.65
      P1  H 10752 10765       L1     3  0.94

> <Gold.Chemscore.Hbond.Weighted>
-9.6127

> <Gold.Chemscore.Metal.Weighted>
-0.0000

> <Gold.Chemscore.Lipo.Weighted>
-5.8817

> <Gold.Chemscore.Internal_Hbond.Weighted>
0.0000

> <Gold.Chemscore.DEClash.Weighted>
0.5652

> <Gold.Chemscore.DEInternal.Weighted>
3.8123

> <Gold.Chemscore.Rot.Weighted>
10.3732

> <Gold.Chemscore.Internal.Correction.Weighted>
   9.000000E+99

> <Gold.Protein.RotatedTorsions>
[ 6907 6896 6895 6894 ] final  171.25 input  -60.11 | X-H torsion
[ 7974 7965 7964 7962 ] final  141.55 input  175.53 | X-H torsion
[ 8008 7997 7996 7995 ] final -151.59 input   59.86 | X-H torsion
[ 10167 10162 10161 10158 ] final  131.15 input  -65.29 | X-H torsion
[ 10718 10713 10712 10709 ] final   -0.10 input   66.30 | X-H torsion
[ 10763 10752 10751 10750 ] final  -70.09 input  -60.55 | X-H torsion
[ 11005 11000 10999 10996 ] final  -56.80 input  -57.11 | X-H torsion

> <Gold.Protein.ActiveResidues>
 VAL166  LYS551  ARG553  GLY616  TRP617  ASP618  TYR619  PRO620  LYS621  CYS622 
 ASP623  PHE694  ASN695  SER759  ASP760  ASP761  ALA762  ILE779  LEU786  VAL792 
 PHE793  MET794  SER795  GLU796  ALA797  LYS798  CYS799  TRP800  GLU811  SER814 

> <Gold.Protein.RotatedAtoms>
  151.8032  133.3372  159.3532 H   0  0  0  0  0  0  0  0  0  0  0  0  # atno 6907 bound_to 6896
  150.7351  134.5734  159.5911 H   0  0  0  0  0  0  0  0  0  0  0  0  # atno 6908 bound_to 6896
  152.3128  134.7478  160.0383 H   0  0  0  0  0  0  0  0  0  0  0  0  # atno 6909 bound_to 6896
  144.9087  139.5323  143.5719 H   0  0  0  0  0  0  0  0  0  0  0  0  # atno 7974 bound_to 7965
  155.6417  140.0702  157.2616 H   0  0  0  0  0  0  0  0  0  0  0  0  # atno 8008 bound_to 7997
  154.4182  140.1749  156.1630 H   0  0  0  0  0  0  0  0  0  0  0  0  # atno 8009 bound_to 7997
  155.9850  140.3350  155.6701 H   0  0  0  0  0  0  0  0  0  0  0  0  # atno 8010 bound_to 7997
  139.5397  144.6718  151.4666 H   0  0  0  0  0  0  0  0  0  0  0  0  # atno 10167 bound_to 10162
  156.8254  130.5470  149.5692 H   0  0  0  0  0  0  0  0  0  0  0  0  # atno 10718 bound_to 10713
  154.4127  135.6005  153.5962 H   0  0  0  0  0  0  0  0  0  0  0  0  # atno 10763 bound_to 10752
  152.9791  135.5933  154.4050 H   0  0  0  0  0  0  0  0  0  0  0  0  # atno 10764 bound_to 10752
  154.3865  135.2841  155.2159 H   0  0  0  0  0  0  0  0  0  0  0  0  # atno 10765 bound_to 10752
  141.1136  133.6610  156.4673 H   0  0  0  0  0  0  0  0  0  0  0  0  # atno 11005 bound_to 11000
  146.3147  139.7875  142.8993 LP  0  0  0  0  0  0  0  0  0  0  0  0  # atno 17320 bound_to 7965
  145.3492  141.0304  143.3348 LP  0  0  0  0  0  0  0  0  0  0  0  0  # atno 17321 bound_to 7965
  140.6621  143.8476  150.6900 LP  0  0  0  0  0  0  0  0  0  0  0  0  # atno 17342 bound_to 10162
  140.1874  143.4065  152.1889 LP  0  0  0  0  0  0  0  0  0  0  0  0  # atno 17343 bound_to 10162
  156.0965  130.5936  150.9821 LP  0  0  0  0  0  0  0  0  0  0  0  0  # atno 17370 bound_to 10713
  157.6435  131.0907  150.8202 LP  0  0  0  0  0  0  0  0  0  0  0  0  # atno 17371 bound_to 10713
  140.4707  134.6756  157.5128 LP  0  0  0  0  0  0  0  0  0  0  0  0  # atno 17394 bound_to 11000
  140.0044  134.6786  155.9478 LP  0  0  0  0  0  0  0  0  0  0  0  0  # atno 17395 bound_to 11000

$$$$
