AV-unprocessed.smi:467|AV-procd|sdf|2647|dock6
  -GOLD-   2262023 53D 1   1.00000     0.00000
 Structure written by MMmdl.
 45 47  0  0  0  0  0  0  0  0  2 V2000
  152.3281  143.4172  161.4801 C   0  0  0  0  0  0  0  0  0  0  0  0
  152.1501  142.6905  160.1578 C   0  0  0  0  0  0  0  0  0  0  0  0
  151.2923  143.2563  159.1878 C   0  0  0  0  0  0  0  0  0  0  0  0
  151.1462  142.5662  157.9906 C   0  0  0  0  0  0  0  0  0  0  0  0
  150.3835  142.8556  156.8573 N   0  3  0  0  0  0  0  0  0  0  0  0
  150.5587  141.8747  155.9295 C   0  0  0  0  0  0  0  0  0  0  0  0
  151.4238  140.9640  156.4522 N   0  0  0  0  0  0  0  0  0  0  0  0
  151.9380  139.7198  155.8620 C   0  0  0  0  0  0  0  0  0  0  0  0
  150.8165  138.7241  155.5001 C   0  0  2  0  0  0  0  0  0  0  0  0
  151.3867  137.5170  155.0370 O   0  0  0  0  0  0  0  0  0  0  0  0
  149.8826  139.2557  154.3945 C   0  0  0  0  0  0  0  0  0  0  0  0
  148.7684  140.0847  154.8555 N   0  0  0  0  0  0  0  0  0  0  0  0
  147.5712  139.3022  155.1585 C   0  0  0  0  0  0  0  0  0  0  0  0
  146.3993  140.1930  155.6072 C   0  0  0  0  0  0  0  0  0  0  0  0
  146.1297  141.1714  154.6090 O   0  0  0  0  0  0  0  0  0  0  0  0
  147.2602  141.9880  154.3236 C   0  0  0  0  0  0  0  0  0  0  0  0
  148.4305  141.1014  153.8644 C   0  0  0  0  0  0  0  0  0  0  0  0
  151.8189  141.3546  157.7376 C   0  0  0  0  0  0  0  0  0  0  0  0
  152.6701  140.7853  158.6822 C   0  0  0  0  0  0  0  0  0  0  0  0
  152.8309  141.4711  159.9075 C   0  0  0  0  0  0  0  0  0  0  0  0
  153.7505  140.8714  160.9576 C   0  0  0  0  0  0  0  0  0  0  0  0
  151.7046  144.3103  161.5318 H   0  0  0  0  0  0  0  0  0  0  0  0
  153.3657  143.7259  161.6097 H   0  0  0  0  0  0  0  0  0  0  0  0
  152.0516  142.7712  162.3136 H   0  0  0  0  0  0  0  0  0  0  0  0
  150.7706  144.1843  159.3708 H   0  0  0  0  0  0  0  0  0  0  0  0
  150.0939  141.8267  154.9552 H   0  0  0  0  0  0  0  0  0  0  0  0
  152.4874  140.0030  154.9635 H   0  0  0  0  0  0  0  0  0  0  0  0
  152.6692  139.2716  156.5351 H   0  0  0  0  0  0  0  0  0  0  0  0
  150.2446  138.4760  156.3938 H   0  0  0  0  0  0  0  0  0  0  0  0
  151.2281  136.8439  155.6808 H   0  0  0  0  0  0  0  0  0  0  0  0
  150.4885  139.8340  153.6953 H   0  0  0  0  0  0  0  0  0  0  0  0
  149.4885  138.4157  153.8197 H   0  0  0  0  0  0  0  0  0  0  0  0
  147.2720  138.7282  154.2801 H   0  0  0  0  0  0  0  0  0  0  0  0
  147.7776  138.5814  155.9486 H   0  0  0  0  0  0  0  0  0  0  0  0
  145.5049  139.5907  155.7671 H   0  0  0  0  0  0  0  0  0  0  0  0
  146.6289  140.6838  156.5542 H   0  0  0  0  0  0  0  0  0  0  0  0
  146.9963  142.7021  153.5433 H   0  0  0  0  0  0  0  0  0  0  0  0
  147.5351  142.5649  155.2082 H   0  0  0  0  0  0  0  0  0  0  0  0
  149.3000  141.7294  153.6670 H   0  0  0  0  0  0  0  0  0  0  0  0
  148.1693  140.6242  152.9184 H   0  0  0  0  0  0  0  0  0  0  0  0
  153.1860  139.8553  158.4958 H   0  0  0  0  0  0  0  0  0  0  0  0
  154.2120  139.9487  160.6042 H   0  0  0  0  0  0  0  0  0  0  0  0
  153.1936  140.6381  161.8654 H   0  0  0  0  0  0  0  0  0  0  0  0
  154.5504  141.5676  161.2105 H   0  0  0  0  0  0  0  0  0  0  0  0
  149.7853  143.6612  156.7251 H   0  0  0  0  0  0  0  0  0  0  0  0
  1  2  1  0  0  0  0
  1 22  1  0  0  0  0
  1 23  1  0  0  0  0
  1 24  1  0  0  0  0
  2 20  1  0  0  0  0
  2  3  2  0  0  0  0
  3  4  1  0  0  0  0
  3 25  1  0  0  0  0
  4 18  2  0  0  0  0
  4  5  1  0  0  0  0
  5  6  2  0  0  0  0
  5 45  1  0  0  0  0
  6  7  1  0  0  0  0
  6 26  1  0  0  0  0
  7  8  1  0  0  0  0
  7 18  1  0  0  0  0
  8  9  1  0  0  0  0
  8 27  1  0  0  0  0
  8 28  1  0  0  0  0
  9 10  1  0  0  0  0
  9 11  1  0  0  0  0
  9 29  1  0  0  0  0
 10 30  1  0  0  0  0
 11 12  1  0  0  0  0
 11 31  1  0  0  0  0
 11 32  1  0  0  0  0
 12 17  1  0  0  0  0
 12 13  1  0  0  0  0
 13 14  1  0  0  0  0
 13 33  1  0  0  0  0
 13 34  1  0  0  0  0
 14 15  1  0  0  0  0
 14 35  1  0  0  0  0
 14 36  1  0  0  0  0
 15 16  1  0  0  0  0
 16 17  1  0  0  0  0
 16 37  1  0  0  0  0
 16 38  1  0  0  0  0
 17 39  1  0  0  0  0
 17 40  1  0  0  0  0
 18 19  1  0  0  0  0
 19 20  2  0  0  0  0
 19 41  1  0  0  0  0
 20 21  1  0  0  0  0
 21 42  1  0  0  0  0
 21 43  1  0  0  0  0
 21 44  1  0  0  0  0
M  CHG  1   5   1
M  END
> <s_m_source_file>
AV-unprocessed.smi

> <i_m_source_file_index>
467

> <i_lp_mmshare_version>
43012

> <i_f3d_flags>
0

> <s_epik_input>
W0NIM11jKFtjSF0xKWMoW0NIM10pW2NIXWMoYzEyKW4oW2NIXW4yKVtDSDJdW0NASF0oW09IXSlbQ0gyXU4zW0NIMl1bQ0gyXU9bQ0gyXVtDSDJdMw==

> <s_epik_cmdline>
J2VwaWtfcHl0aG9uJywgJy1waCcsICc3LjAnLCAnLXRuJywgJzgnLCAnLW1hJywgJzIwMCcsICctbWV0YWxfYmluZGluZycsICctaW1hZScsICc8aW5maWxlLm1hZT4nLCAnLW9tYWUnLCAnPG91dGZpbGUubWFlPic=

> <r_epik_Ionization_Penalty>
1.42557

> <r_epik_Ionization_Penalty_Charging>
1.21121

> <r_epik_Ionization_Penalty_Neutral>
0.214359

> <r_epik_State_Penalty>
1.47019

> <r_epik_Charging_Adjusted_Penalty>
2.68141

> <i_epik_Tot_Q>
1

> <i_epik_Tot_abs_Q>
1

> <r_epik_Metal_State_Penalty>
5.48819

> <b_epik_Metal_Only>
0

> <s_lp_Force_Field>
OPLS_2005

> <r_lp_Energy>
33.4521

> <b_lp_Chiralities_Consistent>
1

> <s_lp_Variant>
AV-unprocessed.smi:467-5

> <Gold.Version>
5.8.1

> <Gold.Id.Protein>
6NUR|6NUR_protein|mol2

> <Gold.PLP.Fitness>
46.9322

> <Gold.PLP.PLP>
-42.3715

> <Gold.PLP.part.hbond>
-1.0000

> <Gold.PLP.part.metal>
0.0000

> <Gold.PLP.part.buried>
-5.8844

> <Gold.PLP.part.nonpolar>
-34.9267

> <Gold.PLP.part.repulsive>
0.2432

> <Gold.PLP.ligand.clash>
0.0000

> <Gold.PLP.ligand.torsion>
0.7223

> <Gold.PLP.Chemscore.Hbond>
2.0000

> <Gold.PLP.Chemscore.CHOScore>
0.0000

> <Gold.PLP.Chemscore.Metal>
0.0000

> <Gold.Chemscore.Hbonds>
donor molecule, donor type, donor heavy atom, donor atom, acceptor molecule, acceptor atom, score
      L1  H     5    45       P1  8028  2.00

> <Gold.PLP.Chemscore.Internal.Correction>
0.0052

> <Gold.Rescore>
     Score         DG    S(hbond)    S(metal)    S(lipo)     H(rot)  DE(clash)    DE(int)     intcor
     14.68     -16.75       0.99        0.00     113.74       2.08       0.13       1.94       ----

> <Gold.Chemscore.Fitness>
14.6809

> <Gold.Chemscore.DG>
-16.7502

> <Gold.Chemscore.ZeroCoef>
-5.4800

> <Gold.Chemscore.Hbond>
0.9851

> <Gold.Chemscore.Metal>
0.0000

> <Gold.Chemscore.Lipo>
113.7384

> <Gold.Chemscore.Internal_Hbond>
0.0000

> <Gold.Chemscore.DEClash>
0.1325

> <Gold.Chemscore.DEInternal>
1.9368

> <Gold.Chemscore.Rot>
2.0811

> <Gold.Chemscore.Internal.Correction>
   9.000000E+99

> <Gold.Chemscore.Hbonds>
donor molecule, donor type, donor heavy atom, donor atom, acceptor molecule, acceptor atom, score
      L1  H     5    45       P1  8028  0.95

> <Gold.Chemscore.Hbond.Weighted>
-3.2903

> <Gold.Chemscore.Metal.Weighted>
-0.0000

> <Gold.Chemscore.Lipo.Weighted>
-13.3074

> <Gold.Chemscore.Internal_Hbond.Weighted>
0.0000

> <Gold.Chemscore.DEClash.Weighted>
0.1325

> <Gold.Chemscore.DEInternal.Weighted>
1.9368

> <Gold.Chemscore.Rot.Weighted>
5.3275

> <Gold.Chemscore.Internal.Correction.Weighted>
   9.000000E+99

> <Gold.Protein.RotatedTorsions>
[ 6907 6896 6895 6894 ] final   39.56 input  -60.11 | X-H torsion
[ 7974 7965 7964 7962 ] final  164.87 input  175.53 | X-H torsion
[ 8008 7997 7996 7995 ] final  101.23 input   59.86 | X-H torsion
[ 10167 10162 10161 10158 ] final   -5.47 input  -65.29 | X-H torsion
[ 10718 10713 10712 10709 ] final   21.52 input   66.30 | X-H torsion
[ 10763 10752 10751 10750 ] final -175.59 input  -60.55 | X-H torsion
[ 11005 11000 10999 10996 ] final  128.47 input  -57.11 | X-H torsion

> <Gold.Protein.ActiveResidues>
 VAL166  LYS551  ARG553  GLY616  TRP617  ASP618  TYR619  PRO620  LYS621  CYS622 
 ASP623  PHE694  ASN695  SER759  ASP760  ASP761  ALA762  ILE779  LEU786  VAL792 
 PHE793  MET794  SER795  GLU796  ALA797  LYS798  CYS799  TRP800  GLU811  SER814 

> <Gold.Protein.RotatedAtoms>
  152.1712  134.8832  160.0533 H   0  0  0  0  0  0  0  0  0  0  0  0  # atno 6907 bound_to 6896
  151.9792  133.3747  159.4109 H   0  0  0  0  0  0  0  0  0  0  0  0  # atno 6908 bound_to 6896
  150.6902  134.3980  159.5150 H   0  0  0  0  0  0  0  0  0  0  0  0  # atno 6909 bound_to 6896
  144.7526  139.8389  143.6361 H   0  0  0  0  0  0  0  0  0  0  0  0  # atno 7974 bound_to 7965
  156.1279  140.3201  155.8305 H   0  0  0  0  0  0  0  0  0  0  0  0  # atno 8008 bound_to 7997
  155.4385  140.0524  157.3029 H   0  0  0  0  0  0  0  0  0  0  0  0  # atno 8009 bound_to 7997
  154.4877  140.2079  155.9632 H   0  0  0  0  0  0  0  0  0  0  0  0  # atno 8010 bound_to 7997
  140.6964  143.6304  150.8528 H   0  0  0  0  0  0  0  0  0  0  0  0  # atno 10167 bound_to 10162
  157.1396  130.6626  149.5977 H   0  0  0  0  0  0  0  0  0  0  0  0  # atno 10718 bound_to 10713
  154.5826  135.2837  155.0717 H   0  0  0  0  0  0  0  0  0  0  0  0  # atno 10763 bound_to 10752
  154.2048  135.6418  153.5101 H   0  0  0  0  0  0  0  0  0  0  0  0  # atno 10764 bound_to 10752
  153.0093  135.5477  154.6485 H   0  0  0  0  0  0  0  0  0  0  0  0  # atno 10765 bound_to 10752
  139.9562  134.9612  156.9007 H   0  0  0  0  0  0  0  0  0  0  0  0  # atno 11005 bound_to 11000
  146.1497  139.4576  143.0057 LP  0  0  0  0  0  0  0  0  0  0  0  0  # atno 17320 bound_to 7965
  145.6889  141.0170  143.1566 LP  0  0  0  0  0  0  0  0  0  0  0  0  # atno 17321 bound_to 7965
  140.0023  143.5731  152.2871 LP  0  0  0  0  0  0  0  0  0  0  0  0  # atno 17342 bound_to 10162
  139.6425  144.7656  151.2310 LP  0  0  0  0  0  0  0  0  0  0  0  0  # atno 17343 bound_to 10162
  155.9791  130.4782  150.6696 LP  0  0  0  0  0  0  0  0  0  0  0  0  # atno 17370 bound_to 10713
  157.4319  131.0850  151.1030 LP  0  0  0  0  0  0  0  0  0  0  0  0  # atno 17371 bound_to 10713
  140.5603  134.0541  155.7397 LP  0  0  0  0  0  0  0  0  0  0  0  0  # atno 17394 bound_to 11000
  141.1234  133.9423  157.2684 LP  0  0  0  0  0  0  0  0  0  0  0  0  # atno 17395 bound_to 11000

$$$$
