AV-unprocessed.smi:870|AV-procd|sdf|4009|dock7
  -GOLD-   22720 1493D 1   1.00000     0.00000
 Structure written by MMmdl.
 47 49  0  0  0  0  0  0  0  0  2 V2000
  150.2164  138.7064  154.1737 C   0  0  0  0  0  0  0  0  0  0  0  0
  150.7923  139.9039  154.6654 O   0  0  0  0  0  0  0  0  0  0  0  0
  149.9002  140.6361  155.4898 C   0  0  0  0  0  0  0  0  0  0  0  0
  150.5966  141.2428  156.6637 C   0  0  0  0  0  0  0  0  0  0  0  0
  150.5472  142.5519  157.0404 N   0  3  0  0  0  0  0  0  0  0  0  0
  151.3254  142.7456  158.1821 C   0  0  0  0  0  0  0  0  0  0  0  0
  151.5805  143.8932  158.9265 C   0  0  0  0  0  0  0  0  0  0  0  0
  152.4235  143.7460  160.0474 C   0  0  0  0  0  0  0  0  0  0  0  0
  152.9756  142.4951  160.3915 C   0  0  0  0  0  0  0  0  0  0  0  0
  152.7103  141.3388  159.6287 C   0  0  0  0  0  0  0  0  0  0  0  0
  151.8773  141.4926  158.5203 C   0  0  0  0  0  0  0  0  0  0  0  0
  151.4005  140.5962  157.5556 N   0  0  0  0  0  0  0  0  0  0  0  0
  151.7959  139.1798  157.6128 C   0  0  0  0  0  0  0  0  0  0  0  0
  151.2160  138.4448  158.8381 C   0  0  2  0  0  0  0  0  0  0  0  0
  151.8039  137.1656  158.9611 O   0  0  0  0  0  0  0  0  0  0  0  0
  149.6929  138.2749  158.7510 C   0  0  0  0  0  0  0  0  0  0  0  0
  149.2468  137.5745  159.9043 O   0  0  0  0  0  0  0  0  0  0  0  0
  148.6915  136.3223  159.7416 C   0  0  0  0  0  0  0  0  0  0  0  0
  148.7288  135.5965  158.5236 C   0  0  0  0  0  0  0  0  0  0  0  0
  148.1401  134.3210  158.4324 C   0  0  0  0  0  0  0  0  0  0  0  0
  147.5082  133.7536  159.5531 C   0  0  0  0  0  0  0  0  0  0  0  0
  147.4650  134.4641  160.7664 C   0  0  0  0  0  0  0  0  0  0  0  0
  148.0532  135.7427  160.8631 C   0  0  0  0  0  0  0  0  0  0  0  0
  147.9958  136.4969  162.1784 C   0  0  0  0  0  0  0  0  0  0  0  0
  150.9386  138.1829  153.5471 H   0  0  0  0  0  0  0  0  0  0  0  0
  149.3334  138.9134  153.5679 H   0  0  0  0  0  0  0  0  0  0  0  0
  149.9337  138.0403  154.9898 H   0  0  0  0  0  0  0  0  0  0  0  0
  149.4289  141.4319  154.9115 H   0  0  0  0  0  0  0  0  0  0  0  0
  149.1078  139.9813  155.8553 H   0  0  0  0  0  0  0  0  0  0  0  0
  151.1571  144.8521  158.6660 H   0  0  0  0  0  0  0  0  0  0  0  0
  152.6504  144.6093  160.6563 H   0  0  0  0  0  0  0  0  0  0  0  0
  153.6151  142.4202  161.2590 H   0  0  0  0  0  0  0  0  0  0  0  0
  153.1351  140.3853  159.9059 H   0  0  0  0  0  0  0  0  0  0  0  0
  151.4391  138.7110  156.6950 H   0  0  0  0  0  0  0  0  0  0  0  0
  152.8831  139.1055  157.5833 H   0  0  0  0  0  0  0  0  0  0  0  0
  151.4564  139.0011  159.7448 H   0  0  0  0  0  0  0  0  0  0  0  0
  152.0455  136.8636  158.0990 H   0  0  0  0  0  0  0  0  0  0  0  0
  149.2099  139.2510  158.6783 H   0  0  0  0  0  0  0  0  0  0  0  0
  149.4382  137.7020  157.8576 H   0  0  0  0  0  0  0  0  0  0  0  0
  149.2048  135.9959  157.6411 H   0  0  0  0  0  0  0  0  0  0  0  0
  148.1739  133.7772  157.4998 H   0  0  0  0  0  0  0  0  0  0  0  0
  147.0569  132.7749  159.4824 H   0  0  0  0  0  0  0  0  0  0  0  0
  146.9768  134.0226  161.6229 H   0  0  0  0  0  0  0  0  0  0  0  0
  147.4757  135.9232  162.9462 H   0  0  0  0  0  0  0  0  0  0  0  0
  147.4708  137.4436  162.0489 H   0  0  0  0  0  0  0  0  0  0  0  0
  149.0034  136.7082  162.5380 H   0  0  0  0  0  0  0  0  0  0  0  0
  150.0164  143.2582  156.5468 H   0  0  0  0  0  0  0  0  0  0  0  0
  1  2  1  0  0  0  0
  1 25  1  0  0  0  0
  1 26  1  0  0  0  0
  1 27  1  0  0  0  0
  2  3  1  0  0  0  0
  3  4  1  0  0  0  0
  3 28  1  0  0  0  0
  3 29  1  0  0  0  0
  4 12  1  0  0  0  0
  4  5  2  0  0  0  0
  5  6  1  0  0  0  0
  5 47  1  0  0  0  0
  6 11  2  0  0  0  0
  6  7  1  0  0  0  0
  7  8  2  0  0  0  0
  7 30  1  0  0  0  0
  8  9  1  0  0  0  0
  8 31  1  0  0  0  0
  9 10  2  0  0  0  0
  9 32  1  0  0  0  0
 10 11  1  0  0  0  0
 10 33  1  0  0  0  0
 11 12  1  0  0  0  0
 12 13  1  0  0  0  0
 13 14  1  0  0  0  0
 13 34  1  0  0  0  0
 13 35  1  0  0  0  0
 14 15  1  0  0  0  0
 14 16  1  0  0  0  0
 14 36  1  0  0  0  0
 15 37  1  0  0  0  0
 16 17  1  0  0  0  0
 16 38  1  0  0  0  0
 16 39  1  0  0  0  0
 17 18  1  0  0  0  0
 18 23  1  0  0  0  0
 18 19  2  0  0  0  0
 19 20  1  0  0  0  0
 19 40  1  0  0  0  0
 20 21  2  0  0  0  0
 20 41  1  0  0  0  0
 21 22  1  0  0  0  0
 21 42  1  0  0  0  0
 22 23  2  0  0  0  0
 22 43  1  0  0  0  0
 23 24  1  0  0  0  0
 24 44  1  0  0  0  0
 24 45  1  0  0  0  0
 24 46  1  0  0  0  0
M  CHG  1   5   1
M  END
> <s_m_source_file>
AV-unprocessed.smi

> <i_m_source_file_index>
870

> <i_lp_mmshare_version>
43012

> <i_f3d_flags>
0

> <s_epik_input>
W2NIXTFbY0hdW2NIXVtjSF1jKGMxMiluKGMobjIpW0NIMl1PW0NIM10pW0NIMl1bQ0BIXShbT0hdKVtDSDJdT2MzW2NIXVtjSF1bY0hdW2NIXWMzW0NIM10=

> <s_epik_cmdline>
J2VwaWtfcHl0aG9uJywgJy1waCcsICc3LjAnLCAnLXRuJywgJzgnLCAnLW1hJywgJzIwMCcsICctbWV0YWxfYmluZGluZycsICctaW1hZScsICc8aW5maWxlLm1hZT4nLCAnLW9tYWUnLCAnPG91dGZpbGUubWFlPic=

> <r_lp_tautomer_probability>
1

> <r_epik_Ionization_Penalty>
1.55338

> <r_epik_Ionization_Penalty_Charging>
1.55338

> <r_epik_Ionization_Penalty_Neutral>
2.3993e-06

> <r_epik_State_Penalty>
1.64778

> <r_epik_Charging_Adjusted_Penalty>
3.20115

> <i_epik_Tot_Q>
1

> <i_epik_Tot_abs_Q>
1

> <r_epik_Metal_State_Penalty>
5.70266

> <b_epik_Metal_Only>
0

> <s_lp_Force_Field>
OPLS_2005

> <r_lp_Energy>
18.2102

> <b_lp_Chiralities_Consistent>
1

> <s_lp_Variant>
AV-unprocessed.smi:870-3

> <Gold.Version>
5.8.1

> <Gold.Id.Protein>
6NUR|6NUR_protein|mol2

> <Gold.PLP.Fitness>
56.1662

> <Gold.PLP.PLP>
-47.2735

> <Gold.PLP.part.hbond>
-3.8311

> <Gold.PLP.part.metal>
0.0000

> <Gold.PLP.part.buried>
-5.9124

> <Gold.PLP.part.nonpolar>
-38.1117

> <Gold.PLP.part.repulsive>
0.1040

> <Gold.PLP.ligand.clash>
0.0000

> <Gold.PLP.ligand.torsion>
0.9012

> <Gold.PLP.Chemscore.Hbond>
3.5259

> <Gold.PLP.Chemscore.CHOScore>
0.0000

> <Gold.PLP.Chemscore.Metal>
0.0000

> <Gold.Chemscore.Hbonds>
donor molecule, donor type, donor heavy atom, donor atom, acceptor molecule, acceptor atom, score
      L1  H     5    47       P1  8028  1.92
      P1  H  6896  6907       L1    15  0.43
      P1  H  6931  6943       L1    17  0.21
      P1  H  7989  7998       L1     2  1.00

> <Gold.PLP.Chemscore.Internal.Correction>
0.1175

> <Gold.Rescore>
     Score         DG    S(hbond)    S(metal)    S(lipo)     H(rot)  DE(clash)    DE(int)     intcor
     20.07     -21.02       2.23        0.00     122.77       2.45       0.05       0.89       ----

> <Gold.Chemscore.Fitness>
20.0715

> <Gold.Chemscore.DG>
-21.0192

> <Gold.Chemscore.ZeroCoef>
-5.4800

> <Gold.Chemscore.Hbond>
2.2294

> <Gold.Chemscore.Metal>
0.0000

> <Gold.Chemscore.Lipo>
122.7658

> <Gold.Chemscore.Internal_Hbond>
0.0000

> <Gold.Chemscore.DEClash>
0.0536

> <Gold.Chemscore.DEInternal>
0.8941

> <Gold.Chemscore.Rot>
2.4494

> <Gold.Chemscore.Internal.Correction>
   9.000000E+99

> <Gold.Chemscore.Hbonds>
donor molecule, donor type, donor heavy atom, donor atom, acceptor molecule, acceptor atom, score
      L1  H     5    47       P1  8028  0.91
      P1  H  6896  6907       L1    15  0.09
      P1  H  6931  6943       L1    17  0.17
      P1  H  7989  7998       L1     2  0.82

> <Gold.Chemscore.Hbond.Weighted>
-7.4461

> <Gold.Chemscore.Metal.Weighted>
-0.0000

> <Gold.Chemscore.Lipo.Weighted>
-14.3636

> <Gold.Chemscore.Internal_Hbond.Weighted>
0.0000

> <Gold.Chemscore.DEClash.Weighted>
0.0536

> <Gold.Chemscore.DEInternal.Weighted>
0.8941

> <Gold.Chemscore.Rot.Weighted>
6.2704

> <Gold.Chemscore.Internal.Correction.Weighted>
   9.000000E+99

> <Gold.Protein.RotatedTorsions>
[ 6907 6896 6895 6894 ] final   -0.32 input  -60.11 | X-H torsion
[ 7974 7965 7964 7962 ] final   19.25 input  175.53 | X-H torsion
[ 8008 7997 7996 7995 ] final -133.00 input   59.86 | X-H torsion
[ 10167 10162 10161 10158 ] final  -93.18 input  -65.29 | X-H torsion
[ 10718 10713 10712 10709 ] final   91.55 input   66.30 | X-H torsion
[ 10763 10752 10751 10750 ] final -161.24 input  -60.55 | X-H torsion
[ 11005 11000 10999 10996 ] final   39.42 input  -57.11 | X-H torsion

> <Gold.Protein.ActiveResidues>
 VAL166  LYS551  ARG553  GLY616  TRP617  ASP618  TYR619  PRO620  LYS621  CYS622 
 ASP623  PHE694  ASN695  SER759  ASP760  ASP761  ALA762  ILE779  LEU786  VAL792 
 PHE793  MET794  SER795  GLU796  ALA797  LYS798  CYS799  TRP800  GLU811  SER814 

> <Gold.Protein.RotatedAtoms>
  151.5641  135.1064  159.9979 H   0  0  0  0  0  0  0  0  0  0  0  0  # atno 6907 bound_to 6896
  152.4432  133.7483  159.6690 H   0  0  0  0  0  0  0  0  0  0  0  0  # atno 6908 bound_to 6896
  150.8342  133.7972  159.3110 H   0  0  0  0  0  0  0  0  0  0  0  0  # atno 6909 bound_to 6896
  146.2156  139.8339  142.8654 H   0  0  0  0  0  0  0  0  0  0  0  0  # atno 7974 bound_to 7965
  155.3382  140.0470  157.3044 H   0  0  0  0  0  0  0  0  0  0  0  0  # atno 8008 bound_to 7997
  154.5292  140.2251  155.8801 H   0  0  0  0  0  0  0  0  0  0  0  0  # atno 8009 bound_to 7997
  156.1771  140.3082  155.9085 H   0  0  0  0  0  0  0  0  0  0  0  0  # atno 8010 bound_to 7997
  140.3273  143.3015  151.9981 H   0  0  0  0  0  0  0  0  0  0  0  0  # atno 10167 bound_to 10162
  157.6960  131.0411  150.3747 H   0  0  0  0  0  0  0  0  0  0  0  0  # atno 10718 bound_to 10713
  154.7321  135.3049  154.8873 H   0  0  0  0  0  0  0  0  0  0  0  0  # atno 10763 bound_to 10752
  153.9713  135.6741  153.4751 H   0  0  0  0  0  0  0  0  0  0  0  0  # atno 10764 bound_to 10752
  153.0928  135.4951  154.8644 H   0  0  0  0  0  0  0  0  0  0  0  0  # atno 10765 bound_to 10752
  140.2030  134.3847  155.8086 H   0  0  0  0  0  0  0  0  0  0  0  0  # atno 11005 bound_to 11000
  145.2968  141.0183  143.3631 LP  0  0  0  0  0  0  0  0  0  0  0  0  # atno 17320 bound_to 7965
  144.9036  139.4618  143.6621 LP  0  0  0  0  0  0  0  0  0  0  0  0  # atno 17321 bound_to 7965
  139.4863  144.6263  151.7157 LP  0  0  0  0  0  0  0  0  0  0  0  0  # atno 17342 bound_to 10162
  140.5429  144.0549  150.6095 LP  0  0  0  0  0  0  0  0  0  0  0  0  # atno 17343 bound_to 10162
  156.4167  130.3945  149.6853 LP  0  0  0  0  0  0  0  0  0  0  0  0  # atno 17370 bound_to 10713
  156.4118  130.7726  151.2739 LP  0  0  0  0  0  0  0  0  0  0  0  0  # atno 17371 bound_to 10713
  141.2227  133.7104  156.8290 LP  0  0  0  0  0  0  0  0  0  0  0  0  # atno 17394 bound_to 11000
  140.2033  134.8881  157.3194 LP  0  0  0  0  0  0  0  0  0  0  0  0  # atno 17395 bound_to 11000

$$$$
