AV-unprocessed.smi:3161|AV-procd|sdf|12056|dock1
  -GOLD-   2272017483D 1   1.00000     0.00000
 Structure written by MMmdl.
 41 42  0  0  0  0  0  0  0  0  2 V2000
  145.9858  143.3411  154.5956 C   0  0  0  0  0  0  0  0  0  0  0  0
  146.7805  142.0731  154.4724 C   0  0  0  0  0  0  0  0  0  0  0  0
  148.1374  141.8518  154.8436 C   0  0  0  0  0  0  0  0  0  0  0  0
  148.5417  140.6151  154.6018 N   0  0  0  0  0  0  0  0  0  0  0  0
  147.4598  140.0041  154.0750 N   0  0  0  0  0  0  0  0  0  0  0  0
  147.5428  138.6102  153.6772 C   0  0  0  0  0  0  0  0  0  0  0  0
  146.3398  138.1516  152.8195 C   0  0  1  0  0  0  0  0  0  0  0  0
  146.3288  138.8005  151.4247 C   0  0  0  0  0  0  0  0  0  0  0  0
  146.3188  136.6795  152.6696 N   0  3  0  0  0  0  0  0  0  0  0  0
  145.4665  136.1607  151.5784 C   0  0  0  0  0  0  0  0  0  0  0  0
  145.2612  134.6455  151.7182 C   0  0  2  0  0  0  0  0  0  0  0  0
  146.4512  133.8473  151.1500 C   0  0  0  0  0  0  0  0  0  0  0  0
  146.1738  132.3412  151.2224 C   0  0  0  0  0  0  0  0  0  0  0  0
  144.8318  132.0302  150.5515 C   0  0  0  0  0  0  0  0  0  0  0  0
  143.7238  132.9207  151.1355 C   0  0  0  0  0  0  0  0  0  0  0  0
  144.0816  134.2928  150.9983 O   0  0  0  0  0  0  0  0  0  0  0  0
  146.3850  140.8624  153.9783 C   0  0  0  0  0  0  0  0  0  0  0  0
  146.3739  143.9868  155.3837 H   0  0  0  0  0  0  0  0  0  0  0  0
  144.9402  143.1419  154.8315 H   0  0  0  0  0  0  0  0  0  0  0  0
  146.0029  143.9167  153.6700 H   0  0  0  0  0  0  0  0  0  0  0  0
  148.8370  142.5504  155.2785 H   0  0  0  0  0  0  0  0  0  0  0  0
  148.4727  138.4682  153.1245 H   0  0  0  0  0  0  0  0  0  0  0  0
  147.6267  138.0130  154.5853 H   0  0  0  0  0  0  0  0  0  0  0  0
  145.4165  138.4471  153.3206 H   0  0  0  0  0  0  0  0  0  0  0  0
  146.2407  139.8855  151.4856 H   0  0  0  0  0  0  0  0  0  0  0  0
  145.4846  138.4440  150.8334 H   0  0  0  0  0  0  0  0  0  0  0  0
  147.2415  138.5711  150.8737 H   0  0  0  0  0  0  0  0  0  0  0  0
  147.2643  136.3802  152.4793 H   0  0  0  0  0  0  0  0  0  0  0  0
  144.5005  136.6657  151.5762 H   0  0  0  0  0  0  0  0  0  0  0  0
  145.9474  136.3791  150.6241 H   0  0  0  0  0  0  0  0  0  0  0  0
  145.1309  134.3994  152.7738 H   0  0  0  0  0  0  0  0  0  0  0  0
  146.6267  134.1348  150.1123 H   0  0  0  0  0  0  0  0  0  0  0  0
  147.3636  134.0839  151.6983 H   0  0  0  0  0  0  0  0  0  0  0  0
  146.9778  131.7816  150.7437 H   0  0  0  0  0  0  0  0  0  0  0  0
  146.1459  132.0218  152.2650 H   0  0  0  0  0  0  0  0  0  0  0  0
  144.9102  132.2032  149.4775 H   0  0  0  0  0  0  0  0  0  0  0  0
  144.5784  130.9775  150.6815 H   0  0  0  0  0  0  0  0  0  0  0  0
  142.7860  132.7464  150.6078 H   0  0  0  0  0  0  0  0  0  0  0  0
  143.5464  132.6836  152.1857 H   0  0  0  0  0  0  0  0  0  0  0  0
  145.4358  140.5439  153.5728 H   0  0  0  0  0  0  0  0  0  0  0  0
  146.0235  136.2648  153.5422 H   0  0  0  0  0  0  0  0  0  0  0  0
  1  2  1  0  0  0  0
  1 18  1  0  0  0  0
  1 19  1  0  0  0  0
  1 20  1  0  0  0  0
  2 17  2  0  0  0  0
  2  3  1  0  0  0  0
  3  4  2  0  0  0  0
  3 21  1  0  0  0  0
  4  5  1  0  0  0  0
  5  6  1  0  0  0  0
  5 17  1  0  0  0  0
  6  7  1  0  0  0  0
  6 22  1  0  0  0  0
  6 23  1  0  0  0  0
  7  8  1  0  0  0  0
  7  9  1  0  0  0  0
  7 24  1  0  0  0  0
  8 25  1  0  0  0  0
  8 26  1  0  0  0  0
  8 27  1  0  0  0  0
  9 10  1  0  0  0  0
  9 28  1  0  0  0  0
  9 41  1  0  0  0  0
 10 11  1  0  0  0  0
 10 29  1  0  0  0  0
 10 30  1  0  0  0  0
 11 16  1  0  0  0  0
 11 12  1  0  0  0  0
 11 31  1  0  0  0  0
 12 13  1  0  0  0  0
 12 32  1  0  0  0  0
 12 33  1  0  0  0  0
 13 14  1  0  0  0  0
 13 34  1  0  0  0  0
 13 35  1  0  0  0  0
 14 15  1  0  0  0  0
 14 36  1  0  0  0  0
 14 37  1  0  0  0  0
 15 16  1  0  0  0  0
 15 38  1  0  0  0  0
 15 39  1  0  0  0  0
 17 40  1  0  0  0  0
M  CHG  1   9   1
M  END
> <s_m_source_file>
AV-unprocessed.smi

> <i_m_source_file_index>
3161

> <i_lp_mmshare_version>
43012

> <i_f3d_flags>
0

> <s_epik_input>
W0NIM11jMVtjSF1ubihbY0hdMSlbQ0gyXVtDQEhdKFtDSDNdKVtOSF1bQ0gyXVtDQEBIXTJbQ0gyXVtDSDJdW0NIMl1bQ0gyXU8y

> <s_epik_cmdline>
J2VwaWtfcHl0aG9uJywgJy1waCcsICc3LjAnLCAnLXRuJywgJzgnLCAnLW1hJywgJzIwMCcsICctbWV0YWxfYmluZGluZycsICctaW1hZScsICc8aW5maWxlLm1hZT4nLCAnLW9tYWUnLCAnPG91dGZpbGUubWFlPic=

> <r_lp_tautomer_probability>
1

> <r_epik_Ionization_Penalty>
0.00849661

> <r_epik_Ionization_Penalty_Charging>
0.00848754

> <r_epik_Ionization_Penalty_Neutral>
9.06711e-06

> <r_epik_State_Penalty>
0.00639836

> <r_epik_Charging_Adjusted_Penalty>
0.0148859

> <i_epik_Tot_Q>
1

> <i_epik_Tot_abs_Q>
1

> <r_epik_Metal_State_Penalty>
0.00639921

> <b_epik_Metal_Only>
0

> <s_lp_Force_Field>
OPLS_2005

> <r_lp_Energy>
12.4763

> <b_lp_Chiralities_Consistent>
1

> <s_lp_Variant>
AV-unprocessed.smi:3161-2

> <Gold.Version>
5.8.1

> <Gold.Id.Protein>
6NUR|6NUR_protein|mol2

> <Gold.PLP.Fitness>
44.8005

> <Gold.PLP.PLP>
-33.8757

> <Gold.PLP.part.hbond>
-1.0000

> <Gold.PLP.part.metal>
0.0000

> <Gold.PLP.part.buried>
1.8325

> <Gold.PLP.part.nonpolar>
-34.0309

> <Gold.PLP.part.repulsive>
0.3414

> <Gold.PLP.ligand.clash>
0.0000

> <Gold.PLP.ligand.torsion>
0.6223

> <Gold.PLP.Chemscore.Hbond>
2.0000

> <Gold.PLP.Chemscore.CHOScore>
2.0000

> <Gold.PLP.Chemscore.Metal>
0.0000

> <Gold.Chemscore.Hbonds>
donor molecule, donor type, donor heavy atom, donor atom, acceptor molecule, acceptor atom, score
      L1  H     9    28       P1  7948  2.00
      L1  C     3    21       P1  8028  1.00
      L1  C    17    40       P1 10175  1.00

> <Gold.PLP.Chemscore.Internal.Correction>
0.1695

> <Gold.Rescore>
     Score         DG    S(hbond)    S(metal)    S(lipo)     H(rot)  DE(clash)    DE(int)     intcor
     14.00     -14.76       0.98        0.00      85.68       1.57       0.11       0.65       ----

> <Gold.Chemscore.Fitness>
13.9964

> <Gold.Chemscore.DG>
-14.7642

> <Gold.Chemscore.ZeroCoef>
-5.4800

> <Gold.Chemscore.Hbond>
0.9827

> <Gold.Chemscore.Metal>
0.0000

> <Gold.Chemscore.Lipo>
85.6813

> <Gold.Chemscore.Internal_Hbond>
0.0000

> <Gold.Chemscore.DEClash>
0.1143

> <Gold.Chemscore.DEInternal>
0.6535

> <Gold.Chemscore.Rot>
1.5714

> <Gold.Chemscore.Internal.Correction>
   9.000000E+99

> <Gold.Chemscore.Hbonds>
donor molecule, donor type, donor heavy atom, donor atom, acceptor molecule, acceptor atom, score
      L1  H     9    28       P1  7948  1.00

> <Gold.Chemscore.Hbond.Weighted>
-3.2823

> <Gold.Chemscore.Metal.Weighted>
-0.0000

> <Gold.Chemscore.Lipo.Weighted>
-10.0247

> <Gold.Chemscore.Internal_Hbond.Weighted>
0.0000

> <Gold.Chemscore.DEClash.Weighted>
0.1143

> <Gold.Chemscore.DEInternal.Weighted>
0.6535

> <Gold.Chemscore.Rot.Weighted>
4.0228

> <Gold.Chemscore.Internal.Correction.Weighted>
   9.000000E+99

> <Gold.Protein.RotatedTorsions>
[ 6907 6896 6895 6894 ] final  154.53 input  -60.11 | X-H torsion
[ 7974 7965 7964 7962 ] final   81.83 input  175.53 | X-H torsion
[ 8008 7997 7996 7995 ] final   41.34 input   59.86 | X-H torsion
[ 10167 10162 10161 10158 ] final -115.92 input  -65.29 | X-H torsion
[ 10718 10713 10712 10709 ] final  -92.70 input   66.30 | X-H torsion
[ 10763 10752 10751 10750 ] final  -44.31 input  -60.55 | X-H torsion
[ 11005 11000 10999 10996 ] final   59.66 input  -57.11 | X-H torsion

> <Gold.Protein.ActiveResidues>
 VAL166  LYS551  ARG553  GLY616  TRP617  ASP618  TYR619  PRO620  LYS621  CYS622 
 ASP623  PHE694  ASN695  SER759  ASP760  ASP761  ALA762  ILE779  LEU786  VAL792 
 PHE793  MET794  SER795  GLU796  ALA797  LYS798  CYS799  TRP800  GLU811  SER814 

> <Gold.Protein.RotatedAtoms>
  152.0572  133.4045  159.4402 H   0  0  0  0  0  0  0  0  0  0  0  0  # atno 6907 bound_to 6896
  150.6867  134.3241  159.4808 H   0  0  0  0  0  0  0  0  0  0  0  0  # atno 6908 bound_to 6896
  152.1058  134.9309  160.0619 H   0  0  0  0  0  0  0  0  0  0  0  0  # atno 6909 bound_to 6896
  145.6331  139.2409  143.2073 H   0  0  0  0  0  0  0  0  0  0  0  0  # atno 7974 bound_to 7965
  155.2681  140.3364  155.4267 H   0  0  0  0  0  0  0  0  0  0  0  0  # atno 8008 bound_to 7997
  156.2145  140.1783  156.7662 H   0  0  0  0  0  0  0  0  0  0  0  0  # atno 8009 bound_to 7997
  154.5734  140.0666  156.8982 H   0  0  0  0  0  0  0  0  0  0  0  0  # atno 8010 bound_to 7997
  140.0849  143.4754  152.1904 H   0  0  0  0  0  0  0  0  0  0  0  0  # atno 10167 bound_to 10162
  156.0005  130.4997  150.5665 H   0  0  0  0  0  0  0  0  0  0  0  0  # atno 10718 bound_to 10713
  154.0100  135.6682  153.4764 H   0  0  0  0  0  0  0  0  0  0  0  0  # atno 10763 bound_to 10752
  153.0625  135.5019  154.8122 H   0  0  0  0  0  0  0  0  0  0  0  0  # atno 10764 bound_to 10752
  154.7001  135.3077  154.9317 H   0  0  0  0  0  0  0  0  0  0  0  0  # atno 10765 bound_to 10752
  140.0288  134.6043  155.9536 H   0  0  0  0  0  0  0  0  0  0  0  0  # atno 11005 bound_to 11000
  146.1341  140.7146  142.9398 LP  0  0  0  0  0  0  0  0  0  0  0  0  # atno 17320 bound_to 7965
  144.7186  140.4296  143.7025 LP  0  0  0  0  0  0  0  0  0  0  0  0  # atno 17321 bound_to 7965
  139.5758  144.7486  151.3768 LP  0  0  0  0  0  0  0  0  0  0  0  0  # atno 17342 bound_to 10162
  140.7059  143.7515  150.7481 LP  0  0  0  0  0  0  0  0  0  0  0  0  # atno 17343 bound_to 10162
  157.3566  131.0742  151.1670 LP  0  0  0  0  0  0  0  0  0  0  0  0  # atno 17370 bound_to 10713
  157.2469  130.6595  149.5914 LP  0  0  0  0  0  0  0  0  0  0  0  0  # atno 17371 bound_to 10713
  141.1819  133.6548  156.5054 LP  0  0  0  0  0  0  0  0  0  0  0  0  # atno 17394 bound_to 11000
  140.4261  134.7144  157.4916 LP  0  0  0  0  0  0  0  0  0  0  0  0  # atno 17395 bound_to 11000

$$$$
