AV-unprocessed.smi:3271|AV-procd|sdf|12516|dock4
  -GOLD-   2272018423D 1   1.00000     0.00000
 Structure written by MMmdl.
 41 41  0  0  0  0  0  0  0  0  1 V2000
  153.1754  141.6064  160.1847 C   0  0  0  0  0  0  0  0  0  0  0  0
  152.6755  142.9857  159.7265 C   0  0  0  0  0  0  0  0  0  0  0  0
  152.1088  143.0145  158.2887 C   0  0  0  0  0  0  0  0  0  0  0  0
  151.8930  144.4716  157.8191 C   0  0  0  0  0  0  0  0  0  0  0  0
  151.2820  145.4008  158.8795 C   0  0  0  0  0  0  0  0  0  0  0  0
  150.8152  142.1887  158.1824 C   0  0  0  0  0  0  0  0  0  0  0  0
  150.4054  141.5460  159.1490 O   0  0  0  0  0  0  0  0  0  0  0  0
  150.1834  142.2223  156.9998 N   0  0  0  0  0  0  0  0  0  0  0  0
  148.9379  141.5267  156.6843 C   0  0  0  0  0  0  0  0  0  0  0  0
  148.9110  140.8838  155.2708 C   0  0  1  0  0  0  0  0  0  0  0  0
  147.5146  140.3083  154.9782 C   0  0  0  0  0  0  0  0  0  0  0  0
  149.0661  141.9376  154.3398 O   0  0  0  0  0  0  0  0  0  0  0  0
  149.9584  139.8042  155.0822 C   0  0  0  0  0  0  0  0  0  0  0  0
  149.7962  138.5047  154.5174 C   0  0  0  0  0  0  0  0  0  0  0  0
  150.9198  137.8073  154.4882 N   0  0  0  0  0  0  0  0  0  0  0  0
  151.8351  138.6247  155.0452 N   0  0  0  0  0  0  0  0  0  0  0  0
  153.2056  138.1790  155.1757 C   0  0  0  0  0  0  0  0  0  0  0  0
  151.2838  139.8299  155.4204 C   0  0  0  0  0  0  0  0  0  0  0  0
  153.6250  141.6700  161.1758 H   0  0  0  0  0  0  0  0  0  0  0  0
  153.9312  141.2157  159.5029 H   0  0  0  0  0  0  0  0  0  0  0  0
  152.3645  140.8799  160.2408 H   0  0  0  0  0  0  0  0  0  0  0  0
  151.9268  143.3509  160.4310 H   0  0  0  0  0  0  0  0  0  0  0  0
  153.5094  143.6855  159.7928 H   0  0  0  0  0  0  0  0  0  0  0  0
  152.8561  142.5678  157.6301 H   0  0  0  0  0  0  0  0  0  0  0  0
  152.8346  144.8963  157.4682 H   0  0  0  0  0  0  0  0  0  0  0  0
  151.2297  144.4670  156.9534 H   0  0  0  0  0  0  0  0  0  0  0  0
  151.0570  146.3782  158.4526 H   0  0  0  0  0  0  0  0  0  0  0  0
  151.9679  145.5615  159.7105 H   0  0  0  0  0  0  0  0  0  0  0  0
  150.3546  144.9917  159.2810 H   0  0  0  0  0  0  0  0  0  0  0  0
  150.5914  142.7791  156.2632 H   0  0  0  0  0  0  0  0  0  0  0  0
  148.8702  140.7328  157.4289 H   0  0  0  0  0  0  0  0  0  0  0  0
  148.0684  142.1640  156.8581 H   0  0  0  0  0  0  0  0  0  0  0  0
  147.2758  139.4861  155.6539 H   0  0  0  0  0  0  0  0  0  0  0  0
  147.4485  139.9234  153.9596 H   0  0  0  0  0  0  0  0  0  0  0  0
  146.7375  141.0646  155.0963 H   0  0  0  0  0  0  0  0  0  0  0  0
  149.0963  142.7543  154.8157 H   0  0  0  0  0  0  0  0  0  0  0  0
  148.8996  138.0535  154.1186 H   0  0  0  0  0  0  0  0  0  0  0  0
  153.7431  138.8242  155.8711 H   0  0  0  0  0  0  0  0  0  0  0  0
  153.6969  138.2161  154.2030 H   0  0  0  0  0  0  0  0  0  0  0  0
  153.2313  137.1557  155.5521 H   0  0  0  0  0  0  0  0  0  0  0  0
  151.8750  140.6056  155.8841 H   0  0  0  0  0  0  0  0  0  0  0  0
  1  2  1  0  0  0  0
  1 19  1  0  0  0  0
  1 20  1  0  0  0  0
  1 21  1  0  0  0  0
  2  3  1  0  0  0  0
  2 22  1  0  0  0  0
  2 23  1  0  0  0  0
  3  4  1  0  0  0  0
  3  6  1  0  0  0  0
  3 24  1  0  0  0  0
  4  5  1  0  0  0  0
  4 25  1  0  0  0  0
  4 26  1  0  0  0  0
  5 27  1  0  0  0  0
  5 28  1  0  0  0  0
  5 29  1  0  0  0  0
  6  7  2  0  0  0  0
  6  8  1  0  0  0  0
  8  9  1  0  0  0  0
  8 30  1  0  0  0  0
  9 10  1  0  0  0  0
  9 31  1  0  0  0  0
  9 32  1  0  0  0  0
 10 11  1  0  0  0  0
 10 12  1  0  0  0  0
 10 13  1  0  0  0  0
 11 33  1  0  0  0  0
 11 34  1  0  0  0  0
 11 35  1  0  0  0  0
 12 36  1  0  0  0  0
 13 18  2  0  0  0  0
 13 14  1  0  0  0  0
 14 15  2  0  0  0  0
 14 37  1  0  0  0  0
 15 16  1  0  0  0  0
 16 17  1  0  0  0  0
 16 18  1  0  0  0  0
 17 38  1  0  0  0  0
 17 39  1  0  0  0  0
 17 40  1  0  0  0  0
 18 41  1  0  0  0  0
M  END
> <s_m_source_file>
AV-unprocessed.smi

> <i_m_source_file_index>
3271

> <i_lp_mmshare_version>
43012

> <i_f3d_flags>
0

> <s_epik_input>
W0NIM11bQ0gyXVtDSF0oW0NIMl1bQ0gzXSlDKD1PKVtOSF1bQ0gyXVtDQEBdKFtDSDNdKShbT0hdKWMxW2NIXW5uKFtDSDNdKVtjSF0x

> <s_epik_cmdline>
J2VwaWtfcHl0aG9uJywgJy1waCcsICc3LjAnLCAnLXRuJywgJzgnLCAnLW1hJywgJzIwMCcsICctbWV0YWxfYmluZGluZycsICctaW1hZScsICc8aW5maWxlLm1hZT4nLCAnLW9tYWUnLCAnPG91dGZpbGUubWFlPic=

> <r_lp_tautomer_probability>
1

> <r_epik_Ionization_Penalty>
6.03488e-05

> <r_epik_Ionization_Penalty_Charging>
0

> <r_epik_Ionization_Penalty_Neutral>
6.03488e-05

> <r_epik_State_Penalty>
-0

> <r_epik_Charging_Adjusted_Penalty>
0

> <i_epik_Tot_Q>
0

> <i_epik_Tot_abs_Q>
0

> <r_epik_Metal_State_Penalty>
-0

> <b_epik_Metal_Only>
0

> <s_lp_Force_Field>
OPLS_2005

> <r_lp_Energy>
0.472609

> <b_lp_Chiralities_Consistent>
1

> <s_lp_Variant>
AV-unprocessed.smi:3271-1

> <Gold.Version>
5.8.1

> <Gold.Id.Protein>
6NUR|6NUR_protein|mol2

> <Gold.PLP.Fitness>
45.1546

> <Gold.PLP.PLP>
-41.4905

> <Gold.PLP.part.hbond>
-3.9547

> <Gold.PLP.part.metal>
0.0000

> <Gold.PLP.part.buried>
0.7439

> <Gold.PLP.part.nonpolar>
-38.0124

> <Gold.PLP.part.repulsive>
0.2550

> <Gold.PLP.ligand.clash>
0.0000

> <Gold.PLP.ligand.torsion>
0.8941

> <Gold.PLP.Chemscore.Hbond>
1.3172

> <Gold.PLP.Chemscore.CHOScore>
0.4456

> <Gold.PLP.Chemscore.Metal>
0.0000

> <Gold.Chemscore.Hbonds>
donor molecule, donor type, donor heavy atom, donor atom, acceptor molecule, acceptor atom, score
      L1  H    12    36       P1  8028  0.73
      P1  H  8011  8017       L1    12  0.25
      L1  C    14    37       P1  7948  0.10

> <Gold.PLP.Chemscore.Internal.Correction>
0.1639

> <Gold.Rescore>
     Score         DG    S(hbond)    S(metal)    S(lipo)     H(rot)  DE(clash)    DE(int)     intcor
     14.08     -15.89       1.19        0.00     106.02       2.33       0.10       1.71       ----

> <Gold.Chemscore.Fitness>
14.0779

> <Gold.Chemscore.DG>
-15.8893

> <Gold.Chemscore.ZeroCoef>
-5.4800

> <Gold.Chemscore.Hbond>
1.1916

> <Gold.Chemscore.Metal>
0.0000

> <Gold.Chemscore.Lipo>
106.0217

> <Gold.Chemscore.Internal_Hbond>
0.0000

> <Gold.Chemscore.DEClash>
0.0985

> <Gold.Chemscore.DEInternal>
1.7130

> <Gold.Chemscore.Rot>
2.3341

> <Gold.Chemscore.Internal.Correction>
   9.000000E+99

> <Gold.Chemscore.Hbonds>
donor molecule, donor type, donor heavy atom, donor atom, acceptor molecule, acceptor atom, score
      L1  H    12    36       P1  8028  0.73
      P1  H  8011  8017       L1    12  0.11

> <Gold.Chemscore.Hbond.Weighted>
-3.9800

> <Gold.Chemscore.Metal.Weighted>
-0.0000

> <Gold.Chemscore.Lipo.Weighted>
-12.4045

> <Gold.Chemscore.Internal_Hbond.Weighted>
0.0000

> <Gold.Chemscore.DEClash.Weighted>
0.0985

> <Gold.Chemscore.DEInternal.Weighted>
1.7130

> <Gold.Chemscore.Rot.Weighted>
5.9753

> <Gold.Chemscore.Internal.Correction.Weighted>
   9.000000E+99

> <Gold.Protein.RotatedTorsions>
[ 6907 6896 6895 6894 ] final   77.15 input  -60.11 | X-H torsion
[ 7974 7965 7964 7962 ] final   58.06 input  175.53 | X-H torsion
[ 8008 7997 7996 7995 ] final  -17.26 input   59.86 | X-H torsion
[ 10167 10162 10161 10158 ] final  -18.80 input  -65.29 | X-H torsion
[ 10718 10713 10712 10709 ] final  179.39 input   66.30 | X-H torsion
[ 10763 10752 10751 10750 ] final -103.54 input  -60.55 | X-H torsion
[ 11005 11000 10999 10996 ] final  -84.07 input  -57.11 | X-H torsion

> <Gold.Protein.ActiveResidues>
 VAL166  LYS551  ARG553  GLY616  TRP617  ASP618  TYR619  PRO620  LYS621  CYS622 
 ASP623  PHE694  ASN695  SER759  ASP760  ASP761  ALA762  ILE779  LEU786  VAL792 
 PHE793  MET794  SER795  GLU796  ALA797  LYS798  CYS799  TRP800  GLU811  SER814 

> <Gold.Protein.RotatedAtoms>
  152.5105  134.3861  159.9367 H   0  0  0  0  0  0  0  0  0  0  0  0  # atno 6907 bound_to 6896
  151.3820  133.3812  159.2719 H   0  0  0  0  0  0  0  0  0  0  0  0  # atno 6908 bound_to 6896
  150.9498  134.8919  159.7723 H   0  0  0  0  0  0  0  0  0  0  0  0  # atno 6909 bound_to 6896
  145.9222  139.3739  143.0471 H   0  0  0  0  0  0  0  0  0  0  0  0  # atno 7974 bound_to 7965
  154.4992  140.2147  155.9383 H   0  0  0  0  0  0  0  0  0  0  0  0  # atno 8008 bound_to 7997
  156.1411  140.3179  155.8464 H   0  0  0  0  0  0  0  0  0  0  0  0  # atno 8009 bound_to 7997
  155.4119  140.0491  157.3022 H   0  0  0  0  0  0  0  0  0  0  0  0  # atno 8010 bound_to 7997
  140.7262  143.4880  151.0029 H   0  0  0  0  0  0  0  0  0  0  0  0  # atno 10167 bound_to 10162
  156.8765  130.9801  151.3067 H   0  0  0  0  0  0  0  0  0  0  0  0  # atno 10718 bound_to 10713
  154.7814  135.4820  153.9853 H   0  0  0  0  0  0  0  0  0  0  0  0  # atno 10763 bound_to 10752
  153.1499  135.6789  153.8904 H   0  0  0  0  0  0  0  0  0  0  0  0  # atno 10764 bound_to 10752
  153.8552  135.3162  155.3413 H   0  0  0  0  0  0  0  0  0  0  0  0  # atno 10765 bound_to 10752
  141.1653  133.7327  156.8813 H   0  0  0  0  0  0  0  0  0  0  0  0  # atno 11005 bound_to 11000
  145.8534  140.9516  143.0737 LP  0  0  0  0  0  0  0  0  0  0  0  0  # atno 17320 bound_to 7965
  144.6754  140.0437  143.7480 LP  0  0  0  0  0  0  0  0  0  0  0  0  # atno 17321 bound_to 7965
  139.8583  143.7348  152.3175 LP  0  0  0  0  0  0  0  0  0  0  0  0  # atno 17342 bound_to 10162
  139.7554  144.7522  151.0443 LP  0  0  0  0  0  0  0  0  0  0  0  0  # atno 17343 bound_to 10162
  157.6165  130.8622  149.9037 LP  0  0  0  0  0  0  0  0  0  0  0  0  # atno 17370 bound_to 10713
  156.0699  130.3686  150.0798 LP  0  0  0  0  0  0  0  0  0  0  0  0  # atno 17371 bound_to 10713
  140.1713  134.9098  157.2836 LP  0  0  0  0  0  0  0  0  0  0  0  0  # atno 17394 bound_to 11000
  140.2499  134.3695  155.7446 LP  0  0  0  0  0  0  0  0  0  0  0  0  # atno 17395 bound_to 11000

$$$$
