AV-unprocessed.smi:2885|AV-procd|sdf|11086|dock6
  -GOLD-   2272015563D 1   1.00000     0.00000
 Structure written by MMmdl.
 40 42  0  0  0  0  0  0  0  0  1 V2000
  150.0525  135.1111  154.3143 N   0  0  0  0  0  0  0  0  0  0  0  0
  150.7417  135.8721  155.1691 C   0  0  0  0  0  0  0  0  0  0  0  0
  151.5755  135.4032  155.9410 O   0  0  0  0  0  0  0  0  0  0  0  0
  150.3849  137.3167  155.1522 C   0  0  0  0  0  0  0  0  0  0  0  0
  151.1991  138.3769  155.4826 C   0  0  0  0  0  0  0  0  0  0  0  0
  150.4312  139.5285  155.3574 N   0  0  0  0  0  0  0  0  0  0  0  0
  150.8904  140.8857  155.6241 C   0  0  0  0  0  0  0  0  0  0  0  0
  151.6568  140.9830  156.9461 C   0  0  0  0  0  0  0  0  0  0  0  0
  152.5099  140.1403  157.2224 O   0  0  0  0  0  0  0  0  0  0  0  0
  151.3598  142.0227  157.7414 N   0  0  0  0  0  0  0  0  0  0  0  0
  152.0680  142.3684  158.9666 C   0  0  0  0  0  0  0  0  0  0  0  0
  151.5295  143.6699  159.5562 C   0  0  0  0  0  0  0  0  0  0  0  0
  151.8653  145.0087  158.8842 C   0  0  0  0  0  0  0  0  0  0  0  0
  151.9037  145.6449  160.2767 C   0  0  0  0  0  0  0  0  0  0  0  0
  152.1512  144.2427  160.8391 C   0  0  0  0  0  0  0  0  0  0  0  0
  149.2115  139.1175  154.9529 C   0  0  0  0  0  0  0  0  0  0  0  0
  148.0635  140.0502  154.7289 C   0  0  0  0  0  0  0  0  0  0  0  0
  147.2881  140.0363  153.4304 C   0  0  0  0  0  0  0  0  0  0  0  0
  148.1731  141.2091  153.7631 C   0  0  0  0  0  0  0  0  0  0  0  0
  149.1172  137.7969  154.8379 N   0  0  0  0  0  0  0  0  0  0  0  0
  150.2318  134.1186  154.2713 H   0  0  0  0  0  0  0  0  0  0  0  0
  149.3516  135.5300  153.7211 H   0  0  0  0  0  0  0  0  0  0  0  0
  152.2319  138.4087  155.7977 H   0  0  0  0  0  0  0  0  0  0  0  0
  151.5385  141.2116  154.8096 H   0  0  0  0  0  0  0  0  0  0  0  0
  150.0304  141.5558  155.6337 H   0  0  0  0  0  0  0  0  0  0  0  0
  150.6408  142.6621  157.4353 H   0  0  0  0  0  0  0  0  0  0  0  0
  151.9398  141.5482  159.6732 H   0  0  0  0  0  0  0  0  0  0  0  0
  153.1394  142.4433  158.7745 H   0  0  0  0  0  0  0  0  0  0  0  0
  150.4468  143.6157  159.6909 H   0  0  0  0  0  0  0  0  0  0  0  0
  152.8411  145.0067  158.3954 H   0  0  0  0  0  0  0  0  0  0  0  0
  151.0870  145.3963  158.2261 H   0  0  0  0  0  0  0  0  0  0  0  0
  152.7186  146.3519  160.4342 H   0  0  0  0  0  0  0  0  0  0  0  0
  150.9408  146.0589  160.5803 H   0  0  0  0  0  0  0  0  0  0  0  0
  151.6036  144.0104  161.7532 H   0  0  0  0  0  0  0  0  0  0  0  0
  153.2127  144.0087  160.9369 H   0  0  0  0  0  0  0  0  0  0  0  0
  147.5046  140.2015  155.6505 H   0  0  0  0  0  0  0  0  0  0  0  0
  147.6246  139.3633  152.6438 H   0  0  0  0  0  0  0  0  0  0  0  0
  146.2120  140.1863  153.4869 H   0  0  0  0  0  0  0  0  0  0  0  0
  147.6911  142.1426  154.0460 H   0  0  0  0  0  0  0  0  0  0  0  0
  149.0962  141.3133  153.1964 H   0  0  0  0  0  0  0  0  0  0  0  0
  1  2  1  0  0  0  0
  1 21  1  0  0  0  0
  1 22  1  0  0  0  0
  2  3  2  0  0  0  0
  2  4  1  0  0  0  0
  4 20  1  0  0  0  0
  4  5  2  0  0  0  0
  5  6  1  0  0  0  0
  5 23  1  0  0  0  0
  6  7  1  0  0  0  0
  6 16  1  0  0  0  0
  7  8  1  0  0  0  0
  7 24  1  0  0  0  0
  7 25  1  0  0  0  0
  8  9  2  0  0  0  0
  8 10  1  0  0  0  0
 10 11  1  0  0  0  0
 10 26  1  0  0  0  0
 11 12  1  0  0  0  0
 11 27  1  0  0  0  0
 11 28  1  0  0  0  0
 12 15  1  0  0  0  0
 12 13  1  0  0  0  0
 12 29  1  0  0  0  0
 13 14  1  0  0  0  0
 13 30  1  0  0  0  0
 13 31  1  0  0  0  0
 14 15  1  0  0  0  0
 14 32  1  0  0  0  0
 14 33  1  0  0  0  0
 15 34  1  0  0  0  0
 15 35  1  0  0  0  0
 16 17  1  0  0  0  0
 16 20  2  0  0  0  0
 17 19  1  0  0  0  0
 17 18  1  0  0  0  0
 17 36  1  0  0  0  0
 18 19  1  0  0  0  0
 18 37  1  0  0  0  0
 18 38  1  0  0  0  0
 19 39  1  0  0  0  0
 19 40  1  0  0  0  0
M  END
> <s_m_source_file>
AV-unprocessed.smi

> <i_m_source_file_index>
2885

> <i_lp_mmshare_version>
43012

> <i_f3d_flags>
0

> <s_epik_input>
W05IMl1DKD1PKWMxW2NIXW4oYyhuMSlbQ0hdMltDSDJdW0NIMl0yKVtDSDJdQyg9TylbTkhdW0NIMl1bQ0hdM1tDSDJdW0NIMl1bQ0gyXTM=

> <s_epik_cmdline>
J2VwaWtfcHl0aG9uJywgJy1waCcsICc3LjAnLCAnLXRuJywgJzgnLCAnLW1hJywgJzIwMCcsICctbWV0YWxfYmluZGluZycsICctaW1hZScsICc8aW5maWxlLm1hZT4nLCAnLW9tYWUnLCAnPG91dGZpbGUubWFlPic=

> <r_lp_tautomer_probability>
1

> <r_epik_Ionization_Penalty>
0.00135877

> <r_epik_Ionization_Penalty_Charging>
0.00135847

> <r_epik_Ionization_Penalty_Neutral>
3.0068e-07

> <r_epik_State_Penalty>
0.000904027

> <r_epik_Charging_Adjusted_Penalty>
0.00226249

> <i_epik_Tot_Q>
0

> <i_epik_Tot_abs_Q>
0

> <r_epik_Metal_State_Penalty>
-0

> <b_epik_Metal_Only>
0

> <s_lp_Force_Field>
OPLS_2005

> <r_lp_Energy>
17.7141

> <b_lp_Chiralities_Consistent>
1

> <s_lp_Variant>
AV-unprocessed.smi:2885-1

> <Gold.Version>
5.8.1

> <Gold.Id.Protein>
6NUR|6NUR_protein|mol2

> <Gold.PLP.Fitness>
45.8372

> <Gold.PLP.PLP>
-38.7947

> <Gold.PLP.part.hbond>
-3.4918

> <Gold.PLP.part.metal>
0.0000

> <Gold.PLP.part.buried>
-3.3095

> <Gold.PLP.part.nonpolar>
-31.5128

> <Gold.PLP.part.repulsive>
0.2902

> <Gold.PLP.ligand.clash>
0.0000

> <Gold.PLP.ligand.torsion>
0.8432

> <Gold.PLP.Chemscore.Hbond>
2.8160

> <Gold.PLP.Chemscore.CHOScore>
0.0000

> <Gold.PLP.Chemscore.Metal>
0.0000

> <Gold.Chemscore.Hbonds>
donor molecule, donor type, donor heavy atom, donor atom, acceptor molecule, acceptor atom, score
      L1  H     1    22       P1  7948  0.86
      P1  H  7997  8010       L1     9  1.00
      P1  H 10752 10763       L1     3  1.00

> <Gold.PLP.Chemscore.Internal.Correction>
0.2809

> <Gold.Rescore>
     Score         DG    S(hbond)    S(metal)    S(lipo)     H(rot)  DE(clash)    DE(int)     intcor
     16.37     -18.76       2.31        0.00      90.94       1.98       0.28       2.11       ----

> <Gold.Chemscore.Fitness>
16.3738

> <Gold.Chemscore.DG>
-18.7639

> <Gold.Chemscore.ZeroCoef>
-5.4800

> <Gold.Chemscore.Hbond>
2.3086

> <Gold.Chemscore.Metal>
0.0000

> <Gold.Chemscore.Lipo>
90.9372

> <Gold.Chemscore.Internal_Hbond>
0.0000

> <Gold.Chemscore.DEClash>
0.2830

> <Gold.Chemscore.DEInternal>
2.1071

> <Gold.Chemscore.Rot>
1.9791

> <Gold.Chemscore.Internal.Correction>
   9.000000E+99

> <Gold.Chemscore.Hbonds>
donor molecule, donor type, donor heavy atom, donor atom, acceptor molecule, acceptor atom, score
      L1  H     1    22       P1  7948  0.33
      P1  H  7997  8010       L1     9  0.94
      P1  H 10752 10763       L1     3  0.25

> <Gold.Chemscore.Hbond.Weighted>
-7.7107

> <Gold.Chemscore.Metal.Weighted>
-0.0000

> <Gold.Chemscore.Lipo.Weighted>
-10.6397

> <Gold.Chemscore.Internal_Hbond.Weighted>
0.0000

> <Gold.Chemscore.DEClash.Weighted>
0.2830

> <Gold.Chemscore.DEInternal.Weighted>
2.1071

> <Gold.Chemscore.Rot.Weighted>
5.0665

> <Gold.Chemscore.Internal.Correction.Weighted>
   9.000000E+99

> <Gold.Protein.RotatedTorsions>
[ 6907 6896 6895 6894 ] final -121.84 input  -60.11 | X-H torsion
[ 7974 7965 7964 7962 ] final -178.89 input  175.53 | X-H torsion
[ 8008 7997 7996 7995 ] final   51.74 input   59.86 | X-H torsion
[ 10167 10162 10161 10158 ] final   86.52 input  -65.29 | X-H torsion
[ 10718 10713 10712 10709 ] final   13.78 input   66.30 | X-H torsion
[ 10763 10752 10751 10750 ] final   78.54 input  -60.55 | X-H torsion
[ 11005 11000 10999 10996 ] final   -1.78 input  -57.11 | X-H torsion

> <Gold.Protein.ActiveResidues>
 VAL166  LYS551  ARG553  GLY616  TRP617  ASP618  TYR619  PRO620  LYS621  CYS622 
 ASP623  PHE694  ASN695  SER759  ASP760  ASP761  ALA762  ILE779  LEU786  VAL792 
 PHE793  MET794  SER795  GLU796  ALA797  LYS798  CYS799  TRP800  GLU811  SER814 

> <Gold.Protein.RotatedAtoms>
  150.8520  133.7772  159.3021 H   0  0  0  0  0  0  0  0  0  0  0  0  # atno 6907 bound_to 6896
  151.5441  135.1066  159.9943 H   0  0  0  0  0  0  0  0  0  0  0  0  # atno 6908 bound_to 6896
  152.4560  133.7681  159.6840 H   0  0  0  0  0  0  0  0  0  0  0  0  # atno 6909 bound_to 6896
  144.7133  140.0800  143.6426 H   0  0  0  0  0  0  0  0  0  0  0  0  # atno 7974 bound_to 7965
  155.4402  140.3454  155.4289 H   0  0  0  0  0  0  0  0  0  0  0  0  # atno 8008 bound_to 7997
  156.1283  140.1507  156.9133 H   0  0  0  0  0  0  0  0  0  0  0  0  # atno 8009 bound_to 7997
  154.4875  140.0851  156.7499 H   0  0  0  0  0  0  0  0  0  0  0  0  # atno 8010 bound_to 7997
  139.8866  144.6409  150.8784 H   0  0  0  0  0  0  0  0  0  0  0  0  # atno 10167 bound_to 10162
  157.0295  130.6187  149.5733 H   0  0  0  0  0  0  0  0  0  0  0  0  # atno 10718 bound_to 10713
  153.0882  135.4873  154.8639 H   0  0  0  0  0  0  0  0  0  0  0  0  # atno 10763 bound_to 10752
  154.7237  135.3045  154.9008 H   0  0  0  0  0  0  0  0  0  0  0  0  # atno 10764 bound_to 10752
  153.9665  135.6806  153.4799 H   0  0  0  0  0  0  0  0  0  0  0  0  # atno 10765 bound_to 10752
  140.6511  133.9403  155.8381 H   0  0  0  0  0  0  0  0  0  0  0  0  # atno 11005 bound_to 11000
  145.9710  139.2870  143.1099 LP  0  0  0  0  0  0  0  0  0  0  0  0  # atno 17320 bound_to 7965
  145.9116  140.9176  143.0451 LP  0  0  0  0  0  0  0  0  0  0  0  0  # atno 17321 bound_to 7965
  140.7734  143.3543  151.1953 LP  0  0  0  0  0  0  0  0  0  0  0  0  # atno 17342 bound_to 10162
  139.7147  143.9319  152.2962 LP  0  0  0  0  0  0  0  0  0  0  0  0  # atno 17343 bound_to 10162
  156.0074  130.5162  150.7876 LP  0  0  0  0  0  0  0  0  0  0  0  0  # atno 17370 bound_to 10713
  157.5188  131.0930  151.0105 LP  0  0  0  0  0  0  0  0  0  0  0  0  # atno 17371 bound_to 10713
  141.0536  134.0449  157.3752 LP  0  0  0  0  0  0  0  0  0  0  0  0  # atno 17394 bound_to 11000
  139.9045  135.0175  156.7424 LP  0  0  0  0  0  0  0  0  0  0  0  0  # atno 17395 bound_to 11000

$$$$
