AV-unprocessed.smi:532|AV-procd|sdf|2848|dock5
  -GOLD-   2262023343D 1   1.00000     0.00000
 Structure written by MMmdl.
 49 51  0  0  0  0  0  0  0  0  1 V2000
  154.1156  137.5093  157.0827 C   0  0  0  0  0  0  0  0  0  0  0  0
  153.0242  136.9677  156.3598 O   0  0  0  0  0  0  0  0  0  0  0  0
  151.8387  137.7283  156.5160 C   0  0  0  0  0  0  0  0  0  0  0  0
  152.1393  139.1891  156.1433 C   0  0  0  0  0  0  0  0  0  0  0  0
  150.9293  140.0002  156.0463 N   0  0  0  0  0  0  0  0  0  0  0  0
  150.6050  141.1645  156.6836 C   0  0  0  0  0  0  0  0  0  0  0  0
  151.4564  141.8296  157.5786 N   0  0  0  0  0  0  0  0  0  0  0  0
  151.4326  143.2815  157.7723 C   0  0  0  0  0  0  0  0  0  0  0  0
  151.3044  143.6629  159.2603 C   0  0  2  0  0  0  0  0  0  0  0  0
  151.2252  145.1844  159.4442 C   0  0  0  0  0  0  0  0  0  0  0  0
  152.4706  143.0586  160.0597 C   0  0  0  0  0  0  0  0  0  0  0  0
  152.5762  141.5489  159.7917 C   0  0  2  0  0  0  0  0  0  0  0  0
  153.7849  140.9295  160.5058 C   0  0  0  0  0  0  0  0  0  0  0  0
  152.6311  141.2948  158.2717 C   0  0  0  0  0  0  0  0  0  0  0  0
  149.3756  141.6117  156.4051 N   0  0  0  0  0  0  0  0  0  0  0  0
  148.8811  140.6756  155.5132 C   0  0  0  0  0  0  0  0  0  0  0  0
  149.7932  139.6974  155.2909 C   0  0  0  0  0  0  0  0  0  0  0  0
  149.5186  138.5556  154.4062 C   0  0  0  0  0  0  0  0  0  0  0  0
  150.3184  137.6446  154.2038 O   0  0  0  0  0  0  0  0  0  0  0  0
  148.2902  138.6064  153.8364 N   0  0  0  0  0  0  0  0  0  0  0  0
  147.3315  139.5661  154.0111 C   0  0  0  0  0  0  0  0  0  0  0  0
  146.2574  139.4783  153.4165 O   0  0  0  0  0  0  0  0  0  0  0  0
  147.6179  140.6048  154.8593 N   0  0  0  0  0  0  0  0  0  0  0  0
  146.6274  141.6587  155.0879 C   0  0  0  0  0  0  0  0  0  0  0  0
  148.0542  137.8478  153.2134 H   0  0  0  0  0  0  0  0  0  0  0  0
  154.9998  136.8903  156.9299 H   0  0  0  0  0  0  0  0  0  0  0  0
  153.9051  137.5366  158.1526 H   0  0  0  0  0  0  0  0  0  0  0  0
  154.3495  138.5201  156.7458 H   0  0  0  0  0  0  0  0  0  0  0  0
  151.0488  137.3186  155.8864 H   0  0  0  0  0  0  0  0  0  0  0  0
  151.4875  137.6595  157.5458 H   0  0  0  0  0  0  0  0  0  0  0  0
  152.7999  139.6357  156.8862 H   0  0  0  0  0  0  0  0  0  0  0  0
  152.6945  139.2453  155.2110 H   0  0  0  0  0  0  0  0  0  0  0  0
  152.3364  143.7171  157.3434 H   0  0  0  0  0  0  0  0  0  0  0  0
  150.5955  143.7136  157.2230 H   0  0  0  0  0  0  0  0  0  0  0  0
  150.3741  143.2360  159.6386 H   0  0  0  0  0  0  0  0  0  0  0  0
  152.1285  145.6748  159.0802 H   0  0  0  0  0  0  0  0  0  0  0  0
  151.1041  145.4466  160.4956 H   0  0  0  0  0  0  0  0  0  0  0  0
  150.3776  145.6016  158.9002 H   0  0  0  0  0  0  0  0  0  0  0  0
  153.4033  143.5479  159.7753 H   0  0  0  0  0  0  0  0  0  0  0  0
  152.3329  143.2435  161.1256 H   0  0  0  0  0  0  0  0  0  0  0  0
  151.6801  141.0739  160.1923 H   0  0  0  0  0  0  0  0  0  0  0  0
  154.7206  141.3600  160.1475 H   0  0  0  0  0  0  0  0  0  0  0  0
  153.8277  139.8528  160.3390 H   0  0  0  0  0  0  0  0  0  0  0  0
  153.7323  141.0945  161.5823 H   0  0  0  0  0  0  0  0  0  0  0  0
  152.7480  140.2347  158.0713 H   0  0  0  0  0  0  0  0  0  0  0  0
  153.5232  141.7635  157.8534 H   0  0  0  0  0  0  0  0  0  0  0  0
  145.6735  141.2331  155.4025 H   0  0  0  0  0  0  0  0  0  0  0  0
  146.4611  142.2270  154.1719 H   0  0  0  0  0  0  0  0  0  0  0  0
  146.9359  142.3629  155.8602 H   0  0  0  0  0  0  0  0  0  0  0  0
  1  2  1  0  0  0  0
  1 26  1  0  0  0  0
  1 27  1  0  0  0  0
  1 28  1  0  0  0  0
  2  3  1  0  0  0  0
  3  4  1  0  0  0  0
  3 29  1  0  0  0  0
  3 30  1  0  0  0  0
  4  5  1  0  0  0  0
  4 31  1  0  0  0  0
  4 32  1  0  0  0  0
  5 17  1  0  0  0  0
  5  6  1  0  0  0  0
  6  7  1  0  0  0  0
  6 15  2  0  0  0  0
  7 14  1  0  0  0  0
  7  8  1  0  0  0  0
  8  9  1  0  0  0  0
  8 33  1  0  0  0  0
  8 34  1  0  0  0  0
  9 10  1  0  0  0  0
  9 11  1  0  0  0  0
  9 35  1  0  0  0  0
 10 36  1  0  0  0  0
 10 37  1  0  0  0  0
 10 38  1  0  0  0  0
 11 12  1  0  0  0  0
 11 39  1  0  0  0  0
 11 40  1  0  0  0  0
 12 13  1  0  0  0  0
 12 14  1  0  0  0  0
 12 41  1  0  0  0  0
 13 42  1  0  0  0  0
 13 43  1  0  0  0  0
 13 44  1  0  0  0  0
 14 45  1  0  0  0  0
 14 46  1  0  0  0  0
 15 16  1  0  0  0  0
 16 23  1  0  0  0  0
 16 17  2  0  0  0  0
 17 18  1  0  0  0  0
 18 19  2  0  0  0  0
 18 20  1  0  0  0  0
 20 25  1  0  0  0  0
 20 21  1  0  0  0  0
 21 22  2  0  0  0  0
 21 23  1  0  0  0  0
 23 24  1  0  0  0  0
 24 47  1  0  0  0  0
 24 48  1  0  0  0  0
 24 49  1  0  0  0  0
M  END
> <s_m_source_file>
AV-unprocessed.smi

> <i_m_source_file_index>
532

> <i_lp_mmshare_version>
43012

> <i_f3d_flags>
0

> <s_epik_input>
W0NIM11uMWMoPU8pW25IXWMoPU8pYyhjMTIpbihbQ0gyXVtDSDJdT1tDSDNdKWMobjIpTjNbQ0gyXVtDQEBIXShbQ0gzXSlbQ0gyXVtDQEBIXShbQ0gzXSlbQ0gyXTM=

> <s_epik_cmdline>
J2VwaWtfcHl0aG9uJywgJy1waCcsICc3LjAnLCAnLXRuJywgJzgnLCAnLW1hJywgJzIwMCcsICctbWV0YWxfYmluZGluZycsICctaW1hZScsICc8aW5maWxlLm1hZT4nLCAnLW9tYWUnLCAnPG91dGZpbGUubWFlPic=

> <r_lp_tautomer_probability>
1

> <r_epik_Ionization_Penalty>
0.000642525

> <r_epik_Ionization_Penalty_Charging>
0.000121571

> <r_epik_Ionization_Penalty_Neutral>
0.000520954

> <r_epik_State_Penalty>
-0

> <r_epik_Charging_Adjusted_Penalty>
0.000121571

> <i_epik_Tot_Q>
0

> <i_epik_Tot_abs_Q>
0

> <r_epik_Metal_State_Penalty>
0.0931709

> <b_epik_Metal_Only>
0

> <s_lp_Force_Field>
OPLS_2005

> <r_lp_Energy>
38.055

> <b_lp_Chiralities_Consistent>
1

> <s_lp_Variant>
AV-unprocessed.smi:532-1

> <Gold.Version>
5.8.1

> <Gold.Id.Protein>
6NUR|6NUR_protein|mol2

> <Gold.PLP.Fitness>
50.3101

> <Gold.PLP.PLP>
-45.7210

> <Gold.PLP.part.hbond>
-3.0000

> <Gold.PLP.part.metal>
0.0000

> <Gold.PLP.part.buried>
-5.7859

> <Gold.PLP.part.nonpolar>
-39.5590

> <Gold.PLP.part.repulsive>
1.6805

> <Gold.PLP.ligand.clash>
0.0000

> <Gold.PLP.ligand.torsion>
0.3438

> <Gold.PLP.Chemscore.Hbond>
1.7430

> <Gold.PLP.Chemscore.CHOScore>
0.0000

> <Gold.PLP.Chemscore.Metal>
0.0000

> <Gold.Chemscore.Hbonds>
donor molecule, donor type, donor heavy atom, donor atom, acceptor molecule, acceptor atom, score
      L1  H    20    25       P1  7948  0.32
      P1  H 10752 10763       L1     2  0.72

> <Gold.PLP.Chemscore.Internal.Correction>
0.0477

> <Gold.Rescore>
     Score         DG    S(hbond)    S(metal)    S(lipo)     H(rot)  DE(clash)    DE(int)     intcor
     14.11     -16.46       1.00        0.00      96.67       1.43       0.12       2.23       ----

> <Gold.Chemscore.Fitness>
14.1060

> <Gold.Chemscore.DG>
-16.4564

> <Gold.Chemscore.ZeroCoef>
-5.4800

> <Gold.Chemscore.Hbond>
0.9978

> <Gold.Chemscore.Metal>
0.0000

> <Gold.Chemscore.Lipo>
96.6726

> <Gold.Chemscore.Internal_Hbond>
0.0000

> <Gold.Chemscore.DEClash>
0.1189

> <Gold.Chemscore.DEInternal>
2.2316

> <Gold.Chemscore.Rot>
1.4324

> <Gold.Chemscore.Internal.Correction>
   9.000000E+99

> <Gold.Chemscore.Hbonds>
donor molecule, donor type, donor heavy atom, donor atom, acceptor molecule, acceptor atom, score
      L1  H    20    25       P1  7948  0.32
      P1  H 10752 10763       L1     2  0.70

> <Gold.Chemscore.Hbond.Weighted>
-3.3326

> <Gold.Chemscore.Metal.Weighted>
-0.0000

> <Gold.Chemscore.Lipo.Weighted>
-11.3107

> <Gold.Chemscore.Internal_Hbond.Weighted>
0.0000

> <Gold.Chemscore.DEClash.Weighted>
0.1189

> <Gold.Chemscore.DEInternal.Weighted>
2.2316

> <Gold.Chemscore.Rot.Weighted>
3.6669

> <Gold.Chemscore.Internal.Correction.Weighted>
   9.000000E+99

> <Gold.Protein.RotatedTorsions>
[ 6907 6896 6895 6894 ] final -169.68 input  -60.11 | X-H torsion
[ 7974 7965 7964 7962 ] final  -33.53 input  175.53 | X-H torsion
[ 8008 7997 7996 7995 ] final   57.89 input   59.86 | X-H torsion
[ 10167 10162 10161 10158 ] final -166.92 input  -65.29 | X-H torsion
[ 10718 10713 10712 10709 ] final  156.98 input   66.30 | X-H torsion
[ 10763 10752 10751 10750 ] final   93.27 input  -60.55 | X-H torsion
[ 11005 11000 10999 10996 ] final  -72.54 input  -57.11 | X-H torsion

> <Gold.Protein.ActiveResidues>
 VAL166  LYS551  ARG553  GLY616  TRP617  ASP618  TYR619  PRO620  LYS621  CYS622 
 ASP623  PHE694  ASN695  SER759  ASP760  ASP761  ALA762  ILE779  LEU786  VAL792 
 PHE793  MET794  SER795  GLU796  ALA797  LYS798  CYS799  TRP800  GLU811  SER814 

> <Gold.Protein.RotatedAtoms>
  151.4955  133.3515  159.2860 H   0  0  0  0  0  0  0  0  0  0  0  0  # atno 6907 bound_to 6896
  150.8807  134.8199  159.7233 H   0  0  0  0  0  0  0  0  0  0  0  0  # atno 6908 bound_to 6896
  152.4760  134.4852  159.9730 H   0  0  0  0  0  0  0  0  0  0  0  0  # atno 6909 bound_to 6896
  146.0903  140.5928  142.8867 H   0  0  0  0  0  0  0  0  0  0  0  0  # atno 7974 bound_to 7965
  155.5411  140.3484  155.4447 H   0  0  0  0  0  0  0  0  0  0  0  0  # atno 8008 bound_to 7997
  156.0650  140.1349  156.9922 H   0  0  0  0  0  0  0  0  0  0  0  0  # atno 8009 bound_to 7997
  154.4499  140.0977  156.6559 H   0  0  0  0  0  0  0  0  0  0  0  0  # atno 8010 bound_to 7997
  139.6083  144.0867  152.1816 H   0  0  0  0  0  0  0  0  0  0  0  0  # atno 10167 bound_to 10162
  157.1976  131.0669  151.2043 H   0  0  0  0  0  0  0  0  0  0  0  0  # atno 10718 bound_to 10713
  153.2285  135.4331  155.0568 H   0  0  0  0  0  0  0  0  0  0  0  0  # atno 10763 bound_to 10752
  154.8285  135.3373  154.6823 H   0  0  0  0  0  0  0  0  0  0  0  0  # atno 10764 bound_to 10752
  153.7251  135.7014  153.5059 H   0  0  0  0  0  0  0  0  0  0  0  0  # atno 10765 bound_to 10752
  141.1610  133.6850  156.7074 H   0  0  0  0  0  0  0  0  0  0  0  0  # atno 11005 bound_to 11000
  144.7355  140.4796  143.6907 LP  0  0  0  0  0  0  0  0  0  0  0  0  # atno 17320 bound_to 7965
  145.6052  139.1507  143.3107 LP  0  0  0  0  0  0  0  0  0  0  0  0  # atno 17321 bound_to 7965
  140.0480  144.5955  150.7358 LP  0  0  0  0  0  0  0  0  0  0  0  0  # atno 17342 bound_to 10162
  140.7301  143.2679  151.3983 LP  0  0  0  0  0  0  0  0  0  0  0  0  # atno 17343 bound_to 10162
  157.3799  130.7225  149.6623 LP  0  0  0  0  0  0  0  0  0  0  0  0  # atno 17370 bound_to 10713
  155.9704  130.4175  150.4284 LP  0  0  0  0  0  0  0  0  0  0  0  0  # atno 17371 bound_to 10713
  140.2913  134.8238  157.4019 LP  0  0  0  0  0  0  0  0  0  0  0  0  # atno 17394 bound_to 11000
  140.1344  134.5052  155.8080 LP  0  0  0  0  0  0  0  0  0  0  0  0  # atno 17395 bound_to 11000

$$$$
