AV-unprocessed.smi:2054|AV-procd|sdf|8332|dock1
  -GOLD-   2272010593D 1   1.00000     0.00000
 Structure written by MMmdl.
 42 43  0  0  0  0  0  0  0  0  1 V2000
  146.6162  143.3079  154.2432 C   0  0  0  0  0  0  0  0  0  0  0  0
  146.2578  142.3083  155.7467 S   0  0  0  0  0  0  0  0  0  0  0  0
  145.8151  143.2342  156.8005 O   0  0  0  0  0  0  0  0  0  0  0  0
  145.4147  141.1621  155.3745 O   0  0  0  0  0  0  0  0  0  0  0  0
  147.8174  141.6946  156.1952 N   0  0  0  0  0  0  0  0  0  0  0  0
  148.9699  142.0926  155.3620 C   0  0  0  0  0  0  0  0  0  0  0  0
  150.3033  141.8375  156.0830 C   0  0  0  0  0  0  0  0  0  0  0  0
  150.4223  140.3714  156.5291 C   0  0  0  0  0  0  0  0  0  0  0  0
  151.7492  140.1146  157.2555 C   0  0  0  0  0  0  0  0  0  0  0  0
  152.5418  139.2760  156.8257 O   0  0  0  0  0  0  0  0  0  0  0  0
  151.9781  140.8444  158.3582 N   0  0  0  0  0  0  0  0  0  0  0  0
  153.1742  140.7582  159.1882 C   0  0  0  0  0  0  0  0  0  0  0  0
  153.0611  141.6420  160.4415 C   0  0  0  0  0  0  0  0  0  0  0  0
  152.8190  143.0989  160.0943 C   0  0  0  0  0  0  0  0  0  0  0  0
  152.5277  144.0412  161.1039 C   0  0  0  0  0  0  0  0  0  0  0  0
  152.3009  145.3793  160.7275 C   0  0  0  0  0  0  0  0  0  0  0  0
  152.3728  145.7218  159.3635 C   0  0  0  0  0  0  0  0  0  0  0  0
  152.6693  144.7064  158.4325 C   0  0  0  0  0  0  0  0  0  0  0  0
  152.8878  143.4205  158.7827 N   0  0  0  0  0  0  0  0  0  0  0  0
  149.2206  140.0443  157.4298 C   0  0  0  0  0  0  0  0  0  0  0  0
  147.8890  140.3113  156.7081 C   0  0  0  0  0  0  0  0  0  0  0  0
  145.7033  143.8064  153.9184 H   0  0  0  0  0  0  0  0  0  0  0  0
  146.9744  142.6652  153.4404 H   0  0  0  0  0  0  0  0  0  0  0  0
  147.3722  144.0571  154.4762 H   0  0  0  0  0  0  0  0  0  0  0  0
  148.9354  141.5380  154.4234 H   0  0  0  0  0  0  0  0  0  0  0  0
  148.8942  143.1479  155.1047 H   0  0  0  0  0  0  0  0  0  0  0  0
  151.1295  142.0977  155.4203 H   0  0  0  0  0  0  0  0  0  0  0  0
  150.3777  142.5038  156.9442 H   0  0  0  0  0  0  0  0  0  0  0  0
  150.3788  139.7333  155.6444 H   0  0  0  0  0  0  0  0  0  0  0  0
  151.2737  141.5105  158.6410 H   0  0  0  0  0  0  0  0  0  0  0  0
  153.3648  139.7201  159.4658 H   0  0  0  0  0  0  0  0  0  0  0  0
  154.0244  141.0789  158.5857 H   0  0  0  0  0  0  0  0  0  0  0  0
  152.2489  141.2856  161.0766 H   0  0  0  0  0  0  0  0  0  0  0  0
  153.9711  141.5699  161.0392 H   0  0  0  0  0  0  0  0  0  0  0  0
  152.4762  143.7473  162.1420 H   0  0  0  0  0  0  0  0  0  0  0  0
  152.0749  146.1287  161.4716 H   0  0  0  0  0  0  0  0  0  0  0  0
  152.2040  146.7377  159.0386 H   0  0  0  0  0  0  0  0  0  0  0  0
  152.7313  144.9332  157.3784 H   0  0  0  0  0  0  0  0  0  0  0  0
  149.2594  139.0007  157.7447 H   0  0  0  0  0  0  0  0  0  0  0  0
  149.2584  140.6423  158.3419 H   0  0  0  0  0  0  0  0  0  0  0  0
  147.0683  140.1292  157.4014 H   0  0  0  0  0  0  0  0  0  0  0  0
  147.7603  139.6182  155.8758 H   0  0  0  0  0  0  0  0  0  0  0  0
  1  2  1  0  0  0  0
  1 22  1  0  0  0  0
  1 23  1  0  0  0  0
  1 24  1  0  0  0  0
  2  3  2  0  0  0  0
  2  4  2  0  0  0  0
  2  5  1  0  0  0  0
  5 21  1  0  0  0  0
  5  6  1  0  0  0  0
  6  7  1  0  0  0  0
  6 25  1  0  0  0  0
  6 26  1  0  0  0  0
  7  8  1  0  0  0  0
  7 27  1  0  0  0  0
  7 28  1  0  0  0  0
  8  9  1  0  0  0  0
  8 20  1  0  0  0  0
  8 29  1  0  0  0  0
  9 10  2  0  0  0  0
  9 11  1  0  0  0  0
 11 12  1  0  0  0  0
 11 30  1  0  0  0  0
 12 13  1  0  0  0  0
 12 31  1  0  0  0  0
 12 32  1  0  0  0  0
 13 14  1  0  0  0  0
 13 33  1  0  0  0  0
 13 34  1  0  0  0  0
 14 19  1  0  0  0  0
 14 15  2  0  0  0  0
 15 16  1  0  0  0  0
 15 35  1  0  0  0  0
 16 17  2  0  0  0  0
 16 36  1  0  0  0  0
 17 18  1  0  0  0  0
 17 37  1  0  0  0  0
 18 19  2  0  0  0  0
 18 38  1  0  0  0  0
 20 21  1  0  0  0  0
 20 39  1  0  0  0  0
 20 40  1  0  0  0  0
 21 41  1  0  0  0  0
 21 42  1  0  0  0  0
M  END
> <s_m_source_file>
AV-unprocessed.smi

> <i_m_source_file_index>
2054

> <i_lp_mmshare_version>
43012

> <i_f3d_flags>
0

> <s_epik_input>
W0NIM11TKD1PKSg9TylOMVtDSDJdW0NIMl1bQ0hdKFtDSDJdW0NIMl0xKUMoPU8pW05IXVtDSDJdW0NIMl1jMltjSF1bY0hdW2NIXVtjSF1uMg==

> <s_epik_cmdline>
J2VwaWtfcHl0aG9uJywgJy1waCcsICc3LjAnLCAnLXRuJywgJzgnLCAnLW1hJywgJzIwMCcsICctbWV0YWxfYmluZGluZycsICctaW1hZScsICc8aW5maWxlLm1hZT4nLCAnLW9tYWUnLCAnPG91dGZpbGUubWFlPic=

> <r_epik_Ionization_Penalty>
0.0277532

> <r_epik_Ionization_Penalty_Charging>
0

> <r_epik_Ionization_Penalty_Neutral>
0.0277532

> <r_epik_State_Penalty>
0.022734

> <r_epik_Charging_Adjusted_Penalty>
0.022734

> <i_epik_Tot_Q>
0

> <i_epik_Tot_abs_Q>
0

> <r_epik_Metal_State_Penalty>
0.021713

> <b_epik_Metal_Only>
0

> <s_lp_Force_Field>
OPLS_2005

> <r_lp_Energy>
2.16831

> <b_lp_Chiralities_Consistent>
1

> <s_lp_Variant>
AV-unprocessed.smi:2054-1

> <Gold.Version>
5.8.1

> <Gold.Id.Protein>
6NUR|6NUR_protein|mol2

> <Gold.PLP.Fitness>
45.8554

> <Gold.PLP.PLP>
-43.1523

> <Gold.PLP.part.hbond>
-1.0000

> <Gold.PLP.part.metal>
0.0000

> <Gold.PLP.part.buried>
-4.4851

> <Gold.PLP.part.nonpolar>
-36.9472

> <Gold.PLP.part.repulsive>
0.3483

> <Gold.PLP.ligand.clash>
0.0000

> <Gold.PLP.ligand.torsion>
0.5351

> <Gold.PLP.Chemscore.Hbond>
1.0000

> <Gold.PLP.Chemscore.CHOScore>
0.0000

> <Gold.PLP.Chemscore.Metal>
0.0000

> <Gold.Chemscore.Hbonds>
donor molecule, donor type, donor heavy atom, donor atom, acceptor molecule, acceptor atom, score
      P1  H  7997  8009       L1    10  1.00

> <Gold.PLP.Chemscore.Internal.Correction>
0.7732

> <Gold.Rescore>
     Score         DG    S(hbond)    S(metal)    S(lipo)     H(rot)  DE(clash)    DE(int)     intcor
     14.94     -16.81       0.86        0.00     112.66       1.84       0.10       1.77       ----

> <Gold.Chemscore.Fitness>
14.9378

> <Gold.Chemscore.DG>
-16.8105

> <Gold.Chemscore.ZeroCoef>
-5.4800

> <Gold.Chemscore.Hbond>
0.8575

> <Gold.Chemscore.Metal>
0.0000

> <Gold.Chemscore.Lipo>
112.6644

> <Gold.Chemscore.Internal_Hbond>
0.0000

> <Gold.Chemscore.DEClash>
0.1048

> <Gold.Chemscore.DEInternal>
1.7679

> <Gold.Chemscore.Rot>
1.8419

> <Gold.Chemscore.Internal.Correction>
   9.000000E+99

> <Gold.Chemscore.Hbonds>
donor molecule, donor type, donor heavy atom, donor atom, acceptor molecule, acceptor atom, score
      P1  H  7997  8009       L1    10  0.75

> <Gold.Chemscore.Hbond.Weighted>
-2.8641

> <Gold.Chemscore.Metal.Weighted>
-0.0000

> <Gold.Chemscore.Lipo.Weighted>
-13.1817

> <Gold.Chemscore.Internal_Hbond.Weighted>
0.0000

> <Gold.Chemscore.DEClash.Weighted>
0.1048

> <Gold.Chemscore.DEInternal.Weighted>
1.7679

> <Gold.Chemscore.Rot.Weighted>
4.7153

> <Gold.Chemscore.Internal.Correction.Weighted>
   9.000000E+99

> <Gold.Protein.RotatedTorsions>
[ 6907 6896 6895 6894 ] final  -23.34 input  -60.11 | X-H torsion
[ 7974 7965 7964 7962 ] final  -15.54 input  175.53 | X-H torsion
[ 8008 7997 7996 7995 ] final -174.71 input   59.86 | X-H torsion
[ 10167 10162 10161 10158 ] final   68.57 input  -65.29 | X-H torsion
[ 10718 10713 10712 10709 ] final  -97.69 input   66.30 | X-H torsion
[ 10763 10752 10751 10750 ] final   59.62 input  -60.55 | X-H torsion
[ 11005 11000 10999 10996 ] final    3.94 input  -57.11 | X-H torsion

> <Gold.Protein.ActiveResidues>
 VAL166  LYS551  ARG553  GLY616  TRP617  ASP618  TYR619  PRO620  LYS621  CYS622 
 ASP623  PHE694  ASN695  SER759  ASP760  ASP761  ALA762  ILE779  LEU786  VAL792 
 PHE793  MET794  SER795  GLU796  ALA797  LYS798  CYS799  TRP800  GLU811  SER814 

> <Gold.Protein.RotatedAtoms>
  151.2055  135.0460  159.8889 H   0  0  0  0  0  0  0  0  0  0  0  0  # atno 6907 bound_to 6896
  152.5429  134.0803  159.8242 H   0  0  0  0  0  0  0  0  0  0  0  0  # atno 6908 bound_to 6896
  151.0949  133.5240  159.2645 H   0  0  0  0  0  0  0  0  0  0  0  0  # atno 6909 bound_to 6896
  146.2027  140.3508  142.8417 H   0  0  0  0  0  0  0  0  0  0  0  0  # atno 7974 bound_to 7965
  155.9735  140.1167  157.0791 H   0  0  0  0  0  0  0  0  0  0  0  0  # atno 8008 bound_to 7997
  154.4163  140.1158  156.5406 H   0  0  0  0  0  0  0  0  0  0  0  0  # atno 8009 bound_to 7997
  155.6565  140.3473  155.4769 H   0  0  0  0  0  0  0  0  0  0  0  0  # atno 8010 bound_to 7997
  140.0772  144.5102  150.7187 H   0  0  0  0  0  0  0  0  0  0  0  0  # atno 10167 bound_to 10162
  156.0089  130.5205  150.6412 H   0  0  0  0  0  0  0  0  0  0  0  0  # atno 10718 bound_to 10713
  152.9899  135.5565  154.5743 H   0  0  0  0  0  0  0  0  0  0  0  0  # atno 10763 bound_to 10752
  154.5137  135.2803  155.1323 H   0  0  0  0  0  0  0  0  0  0  0  0  # atno 10764 bound_to 10752
  154.2705  135.6364  153.5361 H   0  0  0  0  0  0  0  0  0  0  0  0  # atno 10765 bound_to 10752
  140.5874  133.9955  155.8074 H   0  0  0  0  0  0  0  0  0  0  0  0  # atno 11005 bound_to 11000
  144.8721  140.7286  143.6040 LP  0  0  0  0  0  0  0  0  0  0  0  0  # atno 17320 bound_to 7965
  145.3427  139.1727  143.4477 LP  0  0  0  0  0  0  0  0  0  0  0  0  # atno 17321 bound_to 7965
  140.7096  143.2494  151.4621 LP  0  0  0  0  0  0  0  0  0  0  0  0  # atno 17342 bound_to 10162
  139.5801  144.1729  152.1956 LP  0  0  0  0  0  0  0  0  0  0  0  0  # atno 17343 bound_to 10162
  157.4191  131.0834  151.1148 LP  0  0  0  0  0  0  0  0  0  0  0  0  # atno 17370 bound_to 10713
  157.1755  130.6286  149.5654 LP  0  0  0  0  0  0  0  0  0  0  0  0  # atno 17371 bound_to 10713
  141.0957  133.9848  157.3164 LP  0  0  0  0  0  0  0  0  0  0  0  0  # atno 17394 bound_to 11000
  139.9289  135.0200  156.8332 LP  0  0  0  0  0  0  0  0  0  0  0  0  # atno 17395 bound_to 11000

$$$$
