AV-unprocessed.smi:2434|AV-procd|sdf|9591|dock4
  -GOLD-   2272013223D 1   1.00000     0.00000
 Structure written by MMmdl.
 36 37  0  0  0  0  0  0  0  0  1 V2000
  152.1343  145.6049  159.3172 C   0  0  0  0  0  0  0  0  0  0  0  0
  151.3007  144.3226  159.1687 C   0  0  0  0  0  0  0  0  0  0  0  0
  152.0993  143.0853  158.7108 C   0  0  0  0  0  0  0  0  0  0  0  0
  152.3764  143.1710  157.1943 C   0  0  0  0  0  0  0  0  0  0  0  0
  151.1542  143.0822  156.3984 N   0  0  0  0  0  0  0  0  0  0  0  0
  150.8029  142.0488  155.6199 C   0  0  0  0  0  0  0  0  0  0  0  0
  151.4916  141.0400  155.4642 O   0  0  0  0  0  0  0  0  0  0  0  0
  149.5972  142.2447  155.0621 N   0  0  0  0  0  0  0  0  0  0  0  0
  148.9014  141.3449  154.2153 C   0  0  0  0  0  0  0  0  0  0  0  0
  149.2630  139.9823  154.2429 C   0  0  0  0  0  0  0  0  0  0  0  0
  148.5625  139.0802  153.4172 C   0  0  0  0  0  0  0  0  0  0  0  0
  147.5464  139.4494  152.6086 N   0  0  0  0  0  0  0  0  0  0  0  0
  147.1859  140.7507  152.6041 C   0  0  0  0  0  0  0  0  0  0  0  0
  147.8190  141.7353  153.3895 C   0  0  0  0  0  0  0  0  0  0  0  0
  147.3675  143.0123  153.3619 F   0  0  0  0  0  0  0  0  0  0  0  0
  153.3337  142.7421  159.5757 C   0  0  0  0  0  0  0  0  0  0  0  0
  152.9578  141.2636  159.4979 C   0  0  0  0  0  0  0  0  0  0  0  0
  151.5367  141.7264  159.1835 C   0  0  0  0  0  0  0  0  0  0  0  0
  151.4915  146.4527  159.5545 H   0  0  0  0  0  0  0  0  0  0  0  0
  152.6665  145.8430  158.3963 H   0  0  0  0  0  0  0  0  0  0  0  0
  152.8674  145.5229  160.1190 H   0  0  0  0  0  0  0  0  0  0  0  0
  150.7738  144.1258  160.1025 H   0  0  0  0  0  0  0  0  0  0  0  0
  150.5110  144.5290  158.4454 H   0  0  0  0  0  0  0  0  0  0  0  0
  152.8407  144.1257  156.9464 H   0  0  0  0  0  0  0  0  0  0  0  0
  153.1079  142.4207  156.8926 H   0  0  0  0  0  0  0  0  0  0  0  0
  150.5182  143.8636  156.4631 H   0  0  0  0  0  0  0  0  0  0  0  0
  149.0795  143.0533  155.3728 H   0  0  0  0  0  0  0  0  0  0  0  0
  150.0678  139.6331  154.8732 H   0  0  0  0  0  0  0  0  0  0  0  0
  148.8247  138.0327  153.4080 H   0  0  0  0  0  0  0  0  0  0  0  0
  146.3570  141.0141  151.9637 H   0  0  0  0  0  0  0  0  0  0  0  0
  154.2962  142.9857  159.1248 H   0  0  0  0  0  0  0  0  0  0  0  0
  153.2686  143.1307  160.5935 H   0  0  0  0  0  0  0  0  0  0  0  0
  153.4325  140.7434  158.6647 H   0  0  0  0  0  0  0  0  0  0  0  0
  153.0627  140.7145  160.4341 H   0  0  0  0  0  0  0  0  0  0  0  0
  150.9198  141.8056  160.0807 H   0  0  0  0  0  0  0  0  0  0  0  0
  151.0327  141.1451  158.4104 H   0  0  0  0  0  0  0  0  0  0  0  0
  1  2  1  0  0  0  0
  1 19  1  0  0  0  0
  1 20  1  0  0  0  0
  1 21  1  0  0  0  0
  2  3  1  0  0  0  0
  2 22  1  0  0  0  0
  2 23  1  0  0  0  0
  3 18  1  0  0  0  0
  3  4  1  0  0  0  0
  3 16  1  0  0  0  0
  4  5  1  0  0  0  0
  4 24  1  0  0  0  0
  4 25  1  0  0  0  0
  5  6  1  0  0  0  0
  5 26  1  0  0  0  0
  6  7  2  0  0  0  0
  6  8  1  0  0  0  0
  8  9  1  0  0  0  0
  8 27  1  0  0  0  0
  9 14  1  0  0  0  0
  9 10  2  0  0  0  0
 10 11  1  0  0  0  0
 10 28  1  0  0  0  0
 11 12  2  0  0  0  0
 11 29  1  0  0  0  0
 12 13  1  0  0  0  0
 13 14  2  0  0  0  0
 13 30  1  0  0  0  0
 14 15  1  0  0  0  0
 16 17  1  0  0  0  0
 16 31  1  0  0  0  0
 16 32  1  0  0  0  0
 17 18  1  0  0  0  0
 17 33  1  0  0  0  0
 17 34  1  0  0  0  0
 18 35  1  0  0  0  0
 18 36  1  0  0  0  0
M  END
> <s_m_source_file>
AV-unprocessed.smi

> <i_m_source_file_index>
2434

> <i_lp_mmshare_version>
43012

> <i_f3d_flags>
0

> <s_epik_input>
W0NIMl0xW0NIMl1bQ0gyXUMxKFtDSDJdW0NIM10pW0NIMl1bTkhdQyg9TylbTkhdYzJbY0hdW2NIXW5bY0hdYzJG

> <s_epik_cmdline>
J2VwaWtfcHl0aG9uJywgJy1waCcsICc3LjAnLCAnLXRuJywgJzgnLCAnLW1hJywgJzIwMCcsICctbWV0YWxfYmluZGluZycsICctaW1hZScsICc8aW5maWxlLm1hZT4nLCAnLW9tYWUnLCAnPG91dGZpbGUubWFlPic=

> <r_epik_Ionization_Penalty>
0.00332283

> <r_epik_Ionization_Penalty_Charging>
0

> <r_epik_Ionization_Penalty_Neutral>
0.00332283

> <r_epik_State_Penalty>
0.00231995

> <r_epik_Charging_Adjusted_Penalty>
0.00231995

> <i_epik_Tot_Q>
0

> <i_epik_Tot_abs_Q>
0

> <r_epik_Metal_State_Penalty>
-0

> <b_epik_Metal_Only>
0

> <s_lp_Force_Field>
OPLS_2005

> <r_lp_Energy>
27.2745

> <b_lp_Chiralities_Consistent>
1

> <s_lp_Variant>
AV-unprocessed.smi:2434-1

> <Gold.Version>
5.8.1

> <Gold.Id.Protein>
6NUR|6NUR_protein|mol2

> <Gold.PLP.Fitness>
48.8452

> <Gold.PLP.PLP>
-38.2765

> <Gold.PLP.part.hbond>
-3.0000

> <Gold.PLP.part.metal>
0.0000

> <Gold.PLP.part.buried>
-2.3860

> <Gold.PLP.part.nonpolar>
-32.5327

> <Gold.PLP.part.repulsive>
0.5014

> <Gold.PLP.ligand.clash>
0.0000

> <Gold.PLP.ligand.torsion>
0.4616

> <Gold.PLP.Chemscore.Hbond>
1.6864

> <Gold.PLP.Chemscore.CHOScore>
2.0000

> <Gold.PLP.Chemscore.Metal>
0.0000

> <Gold.Chemscore.Hbonds>
donor molecule, donor type, donor heavy atom, donor atom, acceptor molecule, acceptor atom, score
      L1  H     5    26       P1  8028  0.91
      L1  H     8    27       P1  8028  1.00
      P1  H  7989  7998       L1     7  0.56
      L1  C    11    29       P1  7948  1.00
      L1  C    13    30       P1 10175  0.20

> <Gold.PLP.Chemscore.Internal.Correction>
0.4326

> <Gold.Rescore>
     Score         DG    S(hbond)    S(metal)    S(lipo)     H(rot)  DE(clash)    DE(int)     intcor
     15.80     -20.34       1.79        0.00     106.44       1.40       2.78       1.76       ----

> <Gold.Chemscore.Fitness>
15.8011

> <Gold.Chemscore.DG>
-20.3420

> <Gold.Chemscore.ZeroCoef>
-5.4800

> <Gold.Chemscore.Hbond>
1.7935

> <Gold.Chemscore.Metal>
0.0000

> <Gold.Chemscore.Lipo>
106.4381

> <Gold.Chemscore.Internal_Hbond>
0.0000

> <Gold.Chemscore.DEClash>
2.7768

> <Gold.Chemscore.DEInternal>
1.7642

> <Gold.Chemscore.Rot>
1.3990

> <Gold.Chemscore.Internal.Correction>
   9.000000E+99

> <Gold.Chemscore.Hbonds>
donor molecule, donor type, donor heavy atom, donor atom, acceptor molecule, acceptor atom, score
      L1  H     5    26       P1  8028  0.87
      L1  H     8    27       P1  8028  0.98
      P1  H  7989  7998       L1     7  0.22

> <Gold.Chemscore.Hbond.Weighted>
-5.9901

> <Gold.Chemscore.Metal.Weighted>
-0.0000

> <Gold.Chemscore.Lipo.Weighted>
-12.4533

> <Gold.Chemscore.Internal_Hbond.Weighted>
0.0000

> <Gold.Chemscore.DEClash.Weighted>
2.7768

> <Gold.Chemscore.DEInternal.Weighted>
1.7642

> <Gold.Chemscore.Rot.Weighted>
3.5814

> <Gold.Chemscore.Internal.Correction.Weighted>
   9.000000E+99

> <Gold.Protein.RotatedTorsions>
[ 6907 6896 6895 6894 ] final   -5.03 input  -60.11 | X-H torsion
[ 7974 7965 7964 7962 ] final -145.49 input  175.53 | X-H torsion
[ 8008 7997 7996 7995 ] final  104.77 input   59.86 | X-H torsion
[ 10167 10162 10161 10158 ] final  177.66 input  -65.29 | X-H torsion
[ 10718 10713 10712 10709 ] final   57.82 input   66.30 | X-H torsion
[ 10763 10752 10751 10750 ] final -138.67 input  -60.55 | X-H torsion
[ 11005 11000 10999 10996 ] final -171.11 input  -57.11 | X-H torsion

> <Gold.Protein.ActiveResidues>
 VAL166  LYS551  ARG553  GLY616  TRP617  ASP618  TYR619  PRO620  LYS621  CYS622 
 ASP623  PHE694  ASN695  SER759  ASP760  ASP761  ALA762  ILE779  LEU786  VAL792 
 PHE793  MET794  SER795  GLU796  ALA797  LYS798  CYS799  TRP800  GLU811  SER814 

> <Gold.Protein.RotatedAtoms>
  151.4882  135.1056  159.9795 H   0  0  0  0  0  0  0  0  0  0  0  0  # atno 6907 bound_to 6896
  152.4752  133.8117  159.7017 H   0  0  0  0  0  0  0  0  0  0  0  0  # atno 6908 bound_to 6896
  150.8785  133.7343  159.2965 H   0  0  0  0  0  0  0  0  0  0  0  0  # atno 6909 bound_to 6896
  144.8223  140.5576  143.5570 H   0  0  0  0  0  0  0  0  0  0  0  0  # atno 7974 bound_to 7965
  156.1601  140.3142  155.8793 H   0  0  0  0  0  0  0  0  0  0  0  0  # atno 8008 bound_to 7997
  155.3799  140.0487  157.3061 H   0  0  0  0  0  0  0  0  0  0  0  0  # atno 8009 bound_to 7997
  154.5139  140.2174  155.9115 H   0  0  0  0  0  0  0  0  0  0  0  0  # atno 8010 bound_to 7997
  139.5262  144.2771  152.0578 H   0  0  0  0  0  0  0  0  0  0  0  0  # atno 10167 bound_to 10162
  157.5546  130.8790  149.9015 H   0  0  0  0  0  0  0  0  0  0  0  0  # atno 10718 bound_to 10713
  154.8630  135.3605  154.5422 H   0  0  0  0  0  0  0  0  0  0  0  0  # atno 10763 bound_to 10752
  153.6044  135.7011  153.5376 H   0  0  0  0  0  0  0  0  0  0  0  0  # atno 10764 bound_to 10752
  153.3263  135.4137  155.1420 H   0  0  0  0  0  0  0  0  0  0  0  0  # atno 10765 bound_to 10752
  140.5120  134.5793  157.5021 H   0  0  0  0  0  0  0  0  0  0  0  0  # atno 11005 bound_to 11000
  145.5076  139.1480  143.3622 LP  0  0  0  0  0  0  0  0  0  0  0  0  # atno 17320 bound_to 7965
  146.2529  140.5217  142.8886 LP  0  0  0  0  0  0  0  0  0  0  0  0  # atno 17321 bound_to 7965
  140.2228  144.4448  150.6334 LP  0  0  0  0  0  0  0  0  0  0  0  0  # atno 17342 bound_to 10162
  140.6407  143.2203  151.6297 LP  0  0  0  0  0  0  0  0  0  0  0  0  # atno 17343 bound_to 10162
  156.0606  130.3700  150.0990 LP  0  0  0  0  0  0  0  0  0  0  0  0  # atno 17370 bound_to 10713
  156.9160  130.9667  151.3556 LP  0  0  0  0  0  0  0  0  0  0  0  0  # atno 17371 bound_to 10713
  139.9654  134.7382  156.0150 LP  0  0  0  0  0  0  0  0  0  0  0  0  # atno 17394 bound_to 11000
  141.1380  133.6570  156.3650 LP  0  0  0  0  0  0  0  0  0  0  0  0  # atno 17395 bound_to 11000

$$$$
