AV-unprocessed.smi:1786|AV-procd|sdf|7205|dock4
  -GOLD-   22720 8443D 1   1.00000     0.00000
 Structure written by MMmdl.
 44 45  0  0  0  0  0  0  0  0  2 V2000
  145.5723  137.0259  152.6311 C   0  0  0  0  0  0  0  0  0  0  0  0
  145.4640  135.4889  152.5878 C   0  0  1  0  0  0  0  0  0  0  0  0
  145.1439  135.0468  151.1429 C   0  0  0  0  0  0  0  0  0  0  0  0
  145.0351  133.5242  151.0182 C   0  0  0  0  0  0  0  0  0  0  0  0
  146.3216  132.8775  151.5352 C   0  0  0  0  0  0  0  0  0  0  0  0
  146.6045  133.3230  152.9768 C   0  0  0  0  0  0  0  0  0  0  0  0
  146.6968  134.8043  153.0944 N   0  3  2  0  0  0  0  0  0  0  0  0
  147.0988  135.2107  154.4690 C   0  0  0  0  0  0  0  0  0  0  0  0
  148.5768  134.8803  154.7537 C   0  0  0  0  0  0  0  0  0  0  0  0
  149.4611  135.9276  154.2571 N   0  0  0  0  0  0  0  0  0  0  0  0
  150.4604  136.4808  154.9614 C   0  0  0  0  0  0  0  0  0  0  0  0
  150.7066  136.1794  156.1299 O   0  0  0  0  0  0  0  0  0  0  0  0
  151.2997  137.5421  154.2380 C   0  0  0  0  0  0  0  0  0  0  0  0
  150.7254  138.8923  154.3581 N   0  0  0  0  0  0  0  0  0  0  0  0
  149.4629  139.1114  153.7715 C   0  0  0  0  0  0  0  0  0  0  0  0
  148.8500  140.3042  153.8317 C   0  0  0  0  0  0  0  0  0  0  0  0
  149.5200  141.3827  154.5191 C   0  0  0  0  0  0  0  0  0  0  0  0
  150.7263  141.1830  155.0863 C   0  0  0  0  0  0  0  0  0  0  0  0
  151.3970  139.8793  155.0288 C   0  0  0  0  0  0  0  0  0  0  0  0
  152.4942  139.6848  155.5538 O   0  0  0  0  0  0  0  0  0  0  0  0
  144.6810  137.4893  152.2070 H   0  0  0  0  0  0  0  0  0  0  0  0
  146.4281  137.3804  152.0558 H   0  0  0  0  0  0  0  0  0  0  0  0
  145.6656  137.4076  153.6475 H   0  0  0  0  0  0  0  0  0  0  0  0
  144.6314  135.1907  153.2273 H   0  0  0  0  0  0  0  0  0  0  0  0
  144.2101  135.5028  150.8113 H   0  0  0  0  0  0  0  0  0  0  0  0
  145.9188  135.4093  150.4658 H   0  0  0  0  0  0  0  0  0  0  0  0
  144.1797  133.1637  151.5910 H   0  0  0  0  0  0  0  0  0  0  0  0
  144.8599  133.2415  149.9797 H   0  0  0  0  0  0  0  0  0  0  0  0
  146.2367  131.7913  151.4901 H   0  0  0  0  0  0  0  0  0  0  0  0
  147.1595  133.1506  150.8921 H   0  0  0  0  0  0  0  0  0  0  0  0
  145.8222  132.9539  153.6424 H   0  0  0  0  0  0  0  0  0  0  0  0
  147.5412  132.8709  153.3062 H   0  0  0  0  0  0  0  0  0  0  0  0
  146.8859  136.2688  154.6273 H   0  0  0  0  0  0  0  0  0  0  0  0
  146.4943  134.6886  155.2127 H   0  0  0  0  0  0  0  0  0  0  0  0
  148.7336  134.7864  155.8286 H   0  0  0  0  0  0  0  0  0  0  0  0
  148.8675  133.9247  154.3173 H   0  0  0  0  0  0  0  0  0  0  0  0
  149.3173  136.2400  153.3073 H   0  0  0  0  0  0  0  0  0  0  0  0
  152.3218  137.5366  154.6222 H   0  0  0  0  0  0  0  0  0  0  0  0
  151.3860  137.2497  153.1905 H   0  0  0  0  0  0  0  0  0  0  0  0
  149.0261  138.2529  153.2822 H   0  0  0  0  0  0  0  0  0  0  0  0
  147.8797  140.4522  153.3807 H   0  0  0  0  0  0  0  0  0  0  0  0
  149.0521  142.3544  154.5790 H   0  0  0  0  0  0  0  0  0  0  0  0
  151.2128  142.0018  155.5960 H   0  0  0  0  0  0  0  0  0  0  0  0
  147.4530  135.0823  152.4854 H   0  0  0  0  0  0  0  0  0  0  0  0
  1  2  1  0  0  0  0
  1 21  1  0  0  0  0
  1 22  1  0  0  0  0
  1 23  1  0  0  0  0
  2  7  1  0  0  0  0
  2  3  1  0  0  0  0
  2 24  1  0  0  0  0
  3  4  1  0  0  0  0
  3 25  1  0  0  0  0
  3 26  1  0  0  0  0
  4  5  1  0  0  0  0
  4 27  1  0  0  0  0
  4 28  1  0  0  0  0
  5  6  1  0  0  0  0
  5 29  1  0  0  0  0
  5 30  1  0  0  0  0
  6  7  1  0  0  0  0
  6 31  1  0  0  0  0
  6 32  1  0  0  0  0
  7  8  1  0  0  0  0
  7 44  1  0  0  0  0
  8  9  1  0  0  0  0
  8 33  1  0  0  0  0
  8 34  1  0  0  0  0
  9 10  1  0  0  0  0
  9 35  1  0  0  0  0
  9 36  1  0  0  0  0
 10 11  1  0  0  0  0
 10 37  1  0  0  0  0
 11 12  2  0  0  0  0
 11 13  1  0  0  0  0
 13 14  1  0  0  0  0
 13 38  1  0  0  0  0
 13 39  1  0  0  0  0
 14 19  1  0  0  0  0
 14 15  1  0  0  0  0
 15 16  2  0  0  0  0
 15 40  1  0  0  0  0
 16 17  1  0  0  0  0
 16 41  1  0  0  0  0
 17 18  2  0  0  0  0
 17 42  1  0  0  0  0
 18 19  1  0  0  0  0
 18 43  1  0  0  0  0
 19 20  2  0  0  0  0
M  CHG  1   7   1
M  END
> <s_m_source_file>
AV-unprocessed.smi

> <i_m_source_file_index>
1786

> <i_lp_mmshare_version>
43012

> <i_f3d_flags>
0

> <s_epik_input>
W0NIM11bQ0BASF0xW0NIMl1bQ0gyXVtDSDJdW0NIMl1OMVtDSDJdW0NIMl1bTkhdQyg9TylbQ0gyXW4yW2NIXVtjSF1bY0hdW2NIXWMyPU8=

> <s_epik_cmdline>
J2VwaWtfcHl0aG9uJywgJy1waCcsICc3LjAnLCAnLXRuJywgJzgnLCAnLW1hJywgJzIwMCcsICctbWV0YWxfYmluZGluZycsICctaW1hZScsICc8aW5maWxlLm1hZT4nLCAnLW9tYWUnLCAnPG91dGZpbGUubWFlPic=

> <r_lp_tautomer_probability>
1

> <r_epik_Ionization_Penalty>
0.00237247

> <r_epik_Ionization_Penalty_Charging>
0.00237238

> <r_epik_Ionization_Penalty_Neutral>
8.2065e-08

> <r_epik_State_Penalty>
0.00163922

> <r_epik_Charging_Adjusted_Penalty>
0.0040116

> <i_epik_Tot_Q>
1

> <i_epik_Tot_abs_Q>
1

> <r_epik_Metal_State_Penalty>
-0

> <b_epik_Metal_Only>
0

> <s_lp_Force_Field>
OPLS_2005

> <r_lp_Energy>
27.3139

> <b_lp_Chiralities_Consistent>
1

> <s_lp_Variant>
AV-unprocessed.smi:1786-4

> <Gold.Version>
5.8.1

> <Gold.Id.Protein>
6NUR|6NUR_protein|mol2

> <Gold.PLP.Fitness>
49.3827

> <Gold.PLP.PLP>
-37.6130

> <Gold.PLP.part.hbond>
-3.0000

> <Gold.PLP.part.metal>
0.0000

> <Gold.PLP.part.buried>
-2.1937

> <Gold.PLP.part.nonpolar>
-32.2541

> <Gold.PLP.part.repulsive>
0.0393

> <Gold.PLP.ligand.clash>
0.0000

> <Gold.PLP.ligand.torsion>
0.7105

> <Gold.PLP.Chemscore.Hbond>
3.9920

> <Gold.PLP.Chemscore.CHOScore>
0.3811

> <Gold.PLP.Chemscore.Metal>
0.0000

> <Gold.Chemscore.Hbonds>
donor molecule, donor type, donor heavy atom, donor atom, acceptor molecule, acceptor atom, score
      L1  H     7    44       P1  7948  2.00
      L1  H    10    37       P1  7948  0.83
      P1  H  7997  8010       L1    20  0.99
      L1  C    15    40       P1  7948  1.00

> <Gold.PLP.Chemscore.Internal.Correction>
0.0714

> <Gold.Rescore>
     Score         DG    S(hbond)    S(metal)    S(lipo)     H(rot)  DE(clash)    DE(int)     intcor
     17.69     -18.75       2.79        0.00      74.53       1.86       0.35       0.71       ----

> <Gold.Chemscore.Fitness>
17.6903

> <Gold.Chemscore.DG>
-18.7515

> <Gold.Chemscore.ZeroCoef>
-5.4800

> <Gold.Chemscore.Hbond>
2.7874

> <Gold.Chemscore.Metal>
0.0000

> <Gold.Chemscore.Lipo>
74.5273

> <Gold.Chemscore.Internal_Hbond>
0.0000

> <Gold.Chemscore.DEClash>
0.3471

> <Gold.Chemscore.DEInternal>
0.7141

> <Gold.Chemscore.Rot>
1.8586

> <Gold.Chemscore.Internal.Correction>
   9.000000E+99

> <Gold.Chemscore.Hbonds>
donor molecule, donor type, donor heavy atom, donor atom, acceptor molecule, acceptor atom, score
      L1  H     7    44       P1  7948  0.97
      L1  H    10    37       P1  7948  0.64
      P1  H  7997  8010       L1    20  0.92

> <Gold.Chemscore.Hbond.Weighted>
-9.3100

> <Gold.Chemscore.Metal.Weighted>
-0.0000

> <Gold.Chemscore.Lipo.Weighted>
-8.7197

> <Gold.Chemscore.Internal_Hbond.Weighted>
0.0000

> <Gold.Chemscore.DEClash.Weighted>
0.3471

> <Gold.Chemscore.DEInternal.Weighted>
0.7141

> <Gold.Chemscore.Rot.Weighted>
4.7581

> <Gold.Chemscore.Internal.Correction.Weighted>
   9.000000E+99

> <Gold.Protein.RotatedTorsions>
[ 6907 6896 6895 6894 ] final  146.14 input  -60.11 | X-H torsion
[ 7974 7965 7964 7962 ] final   42.83 input  175.53 | X-H torsion
[ 8008 7997 7996 7995 ] final   79.80 input   59.86 | X-H torsion
[ 10167 10162 10161 10158 ] final -160.44 input  -65.29 | X-H torsion
[ 10718 10713 10712 10709 ] final -123.07 input   66.30 | X-H torsion
[ 10763 10752 10751 10750 ] final  -31.74 input  -60.55 | X-H torsion
[ 11005 11000 10999 10996 ] final  -29.04 input  -57.11 | X-H torsion

> <Gold.Protein.ActiveResidues>
 VAL166  LYS551  ARG553  GLY616  TRP617  ASP618  TYR619  PRO620  LYS621  CYS622 
 ASP623  PHE694  ASN695  SER759  ASP760  ASP761  ALA762  ILE779  LEU786  VAL792 
 PHE793  MET794  SER795  GLU796  ALA797  LYS798  CYS799  TRP800  GLU811  SER814 

> <Gold.Protein.RotatedAtoms>
  152.1718  133.4648  159.4912 H   0  0  0  0  0  0  0  0  0  0  0  0  # atno 6907 bound_to 6896
  150.6921  134.1944  159.4306 H   0  0  0  0  0  0  0  0  0  0  0  0  # atno 6908 bound_to 6896
  151.9851  135.0008  160.0610 H   0  0  0  0  0  0  0  0  0  0  0  0  # atno 6909 bound_to 6896
  146.0707  139.5255  142.9600 H   0  0  0  0  0  0  0  0  0  0  0  0  # atno 7974 bound_to 7965
  155.8746  140.3447  155.5845 H   0  0  0  0  0  0  0  0  0  0  0  0  # atno 8008 bound_to 7997
  155.7788  140.0855  157.2089 H   0  0  0  0  0  0  0  0  0  0  0  0  # atno 8009 bound_to 7997
  154.4020  140.1504  156.3015 H   0  0  0  0  0  0  0  0  0  0  0  0  # atno 8010 bound_to 7997
  139.6539  144.0034  152.2180 H   0  0  0  0  0  0  0  0  0  0  0  0  # atno 10167 bound_to 10162
  156.1471  130.6508  150.9859 H   0  0  0  0  0  0  0  0  0  0  0  0  # atno 10718 bound_to 10713
  153.8023  135.6889  153.4854 H   0  0  0  0  0  0  0  0  0  0  0  0  # atno 10763 bound_to 10752
  153.1681  135.4553  154.9863 H   0  0  0  0  0  0  0  0  0  0  0  0  # atno 10764 bound_to 10752
  154.8001  135.3334  154.7510 H   0  0  0  0  0  0  0  0  0  0  0  0  # atno 10765 bound_to 10752
  140.9261  133.7368  156.0869 H   0  0  0  0  0  0  0  0  0  0  0  0  # atno 11005 bound_to 11000
  145.6397  141.0287  143.1818 LP  0  0  0  0  0  0  0  0  0  0  0  0  # atno 17320 bound_to 7965
  144.7230  139.7968  143.7375 LP  0  0  0  0  0  0  0  0  0  0  0  0  # atno 17321 bound_to 7965
  139.9755  144.6464  150.7949 LP  0  0  0  0  0  0  0  0  0  0  0  0  # atno 17342 bound_to 10162
  140.7550  143.3038  151.3013 LP  0  0  0  0  0  0  0  0  0  0  0  0  # atno 17343 bound_to 10162
  157.6626  131.0878  150.7803 LP  0  0  0  0  0  0  0  0  0  0  0  0  # atno 17370 bound_to 10713
  156.7874  130.4879  149.5390 LP  0  0  0  0  0  0  0  0  0  0  0  0  # atno 17371 bound_to 10713
  140.7924  134.3602  157.5461 LP  0  0  0  0  0  0  0  0  0  0  0  0  # atno 17394 bound_to 11000
  139.8786  134.9148  156.3116 LP  0  0  0  0  0  0  0  0  0  0  0  0  # atno 17395 bound_to 11000

$$$$
