AV-unprocessed.smi:1601|AV-procd|sdf|6438|dock1
  -GOLD-   22720 7 83D 1   1.00000     0.00000
 Structure written by MMmdl.
 42 43  0  0  0  0  0  0  0  0  2 V2000
  142.8744  140.8529  155.8929 C   0  0  0  0  0  0  0  0  0  0  0  0
  144.3759  140.4765  155.9468 C   0  0  1  0  0  0  0  0  0  0  0  0
  144.5730  138.9604  155.6820 C   0  0  0  0  0  0  0  0  0  0  0  0
  143.6865  138.4409  154.6432 N   0  0  0  0  0  0  0  0  0  0  0  0
  142.8430  137.4046  154.7806 C   0  0  0  0  0  0  0  0  0  0  0  0
  142.7336  136.7596  155.8241 O   0  0  0  0  0  0  0  0  0  0  0  0
  142.0054  137.0447  153.5434 C   0  0  1  0  0  0  0  0  0  0  0  0
  142.1871  135.5801  153.1048 C   0  0  0  0  0  0  0  0  0  0  0  0
  140.5990  137.3491  153.7714 N   0  0  0  0  0  0  0  0  0  0  0  0
  139.7936  138.2693  153.1280 C   0  0  0  0  0  0  0  0  0  0  0  0
  138.5559  138.2006  153.6999 C   0  0  0  0  0  0  0  0  0  0  0  0
  138.7021  137.2013  154.7017 C   0  0  0  0  0  0  0  0  0  0  0  0
  139.9240  136.6954  154.7427 N   0  0  0  0  0  0  0  0  0  0  0  0
  145.2224  141.2805  155.0031 N   0  3  0  0  0  0  0  0  0  0  0  0
  145.1147  142.7600  155.1425 C   0  0  0  0  0  0  0  0  0  0  0  0
  145.9983  143.4833  154.1113 C   0  0  0  0  0  0  0  0  0  0  0  0
  147.3458  143.0584  154.2464 O   0  0  0  0  0  0  0  0  0  0  0  0
  147.4771  141.6667  153.9994 C   0  0  0  0  0  0  0  0  0  0  0  0
  146.6569  140.8826  155.0367 C   0  0  0  0  0  0  0  0  0  0  0  0
  142.2805  140.2550  156.5830 H   0  0  0  0  0  0  0  0  0  0  0  0
  142.4624  140.7050  154.8941 H   0  0  0  0  0  0  0  0  0  0  0  0
  142.6982  141.8872  156.1881 H   0  0  0  0  0  0  0  0  0  0  0  0
  144.7142  140.6948  156.9610 H   0  0  0  0  0  0  0  0  0  0  0  0
  145.6184  138.7584  155.4424 H   0  0  0  0  0  0  0  0  0  0  0  0
  144.3545  138.3737  156.5720 H   0  0  0  0  0  0  0  0  0  0  0  0
  143.7058  138.9127  153.7502 H   0  0  0  0  0  0  0  0  0  0  0  0
  142.3595  137.6736  152.7239 H   0  0  0  0  0  0  0  0  0  0  0  0
  143.2361  135.3521  152.9132 H   0  0  0  0  0  0  0  0  0  0  0  0
  141.6368  135.3805  152.1849 H   0  0  0  0  0  0  0  0  0  0  0  0
  141.8263  134.8824  153.8615 H   0  0  0  0  0  0  0  0  0  0  0  0
  140.1655  138.8892  152.3253 H   0  0  0  0  0  0  0  0  0  0  0  0
  137.6807  138.7788  153.4443 H   0  0  0  0  0  0  0  0  0  0  0  0
  137.9624  136.8319  155.3965 H   0  0  0  0  0  0  0  0  0  0  0  0
  144.0903  143.0931  154.9789 H   0  0  0  0  0  0  0  0  0  0  0  0
  145.4002  143.0551  156.1536 H   0  0  0  0  0  0  0  0  0  0  0  0
  145.6447  143.2962  153.0959 H   0  0  0  0  0  0  0  0  0  0  0  0
  145.9515  144.5610  154.2688 H   0  0  0  0  0  0  0  0  0  0  0  0
  147.1559  141.4287  152.9841 H   0  0  0  0  0  0  0  0  0  0  0  0
  148.5303  141.3953  154.0717 H   0  0  0  0  0  0  0  0  0  0  0  0
  147.0609  141.0603  156.0348 H   0  0  0  0  0  0  0  0  0  0  0  0
  146.7779  139.8206  154.8328 H   0  0  0  0  0  0  0  0  0  0  0  0
  144.8826  141.0705  154.0752 H   0  0  0  0  0  0  0  0  0  0  0  0
  1  2  1  0  0  0  0
  1 20  1  0  0  0  0
  1 21  1  0  0  0  0
  1 22  1  0  0  0  0
  2  3  1  0  0  0  0
  2 14  1  0  0  0  0
  2 23  1  0  0  0  0
  3  4  1  0  0  0  0
  3 24  1  0  0  0  0
  3 25  1  0  0  0  0
  4  5  1  0  0  0  0
  4 26  1  0  0  0  0
  5  6  2  0  0  0  0
  5  7  1  0  0  0  0
  7  8  1  0  0  0  0
  7  9  1  0  0  0  0
  7 27  1  0  0  0  0
  8 28  1  0  0  0  0
  8 29  1  0  0  0  0
  8 30  1  0  0  0  0
  9 13  1  0  0  0  0
  9 10  1  0  0  0  0
 10 11  2  0  0  0  0
 10 31  1  0  0  0  0
 11 12  1  0  0  0  0
 11 32  1  0  0  0  0
 12 13  2  0  0  0  0
 12 33  1  0  0  0  0
 14 19  1  0  0  0  0
 14 15  1  0  0  0  0
 14 42  1  0  0  0  0
 15 16  1  0  0  0  0
 15 34  1  0  0  0  0
 15 35  1  0  0  0  0
 16 17  1  0  0  0  0
 16 36  1  0  0  0  0
 16 37  1  0  0  0  0
 17 18  1  0  0  0  0
 18 19  1  0  0  0  0
 18 38  1  0  0  0  0
 18 39  1  0  0  0  0
 19 40  1  0  0  0  0
 19 41  1  0  0  0  0
M  CHG  1  14   1
M  END
> <s_m_source_file>
AV-unprocessed.smi

> <i_m_source_file_index>
1601

> <i_lp_mmshare_version>
43012

> <i_f3d_flags>
0

> <s_epik_input>
W0NIMl0xW0NIMl1PW0NIMl1bQ0gyXU4xW0NASF0oW0NIM10pW0NIMl1bTkhdQyg9TylbQ0BIXShbQ0gzXSluMltjSF1bY0hdW2NIXW4y

> <s_epik_cmdline>
J2VwaWtfcHl0aG9uJywgJy1waCcsICc3LjAnLCAnLXRuJywgJzgnLCAnLW1hJywgJzIwMCcsICctbWV0YWxfYmluZGluZycsICctaW1hZScsICc8aW5maWxlLm1hZT4nLCAnLW9tYWUnLCAnPG91dGZpbGUubWFlPic=

> <r_lp_tautomer_probability>
1

> <r_epik_Ionization_Penalty>
0.732551

> <r_epik_Ionization_Penalty_Charging>
0.732531

> <r_epik_Ionization_Penalty_Neutral>
2.04647e-05

> <r_epik_State_Penalty>
0.757939

> <r_epik_Charging_Adjusted_Penalty>
1.49047

> <i_epik_Tot_Q>
1

> <i_epik_Tot_abs_Q>
1

> <r_epik_Metal_State_Penalty>
0.757952

> <b_epik_Metal_Only>
0

> <s_lp_Force_Field>
OPLS_2005

> <r_lp_Energy>
25.2472

> <b_lp_Chiralities_Consistent>
1

> <s_lp_Variant>
AV-unprocessed.smi:1601-8

> <Gold.Version>
5.8.1

> <Gold.Id.Protein>
6NUR|6NUR_protein|mol2

> <Gold.PLP.Fitness>
44.1187

> <Gold.PLP.PLP>
-29.2349

> <Gold.PLP.part.hbond>
-4.0000

> <Gold.PLP.part.metal>
0.0000

> <Gold.PLP.part.buried>
-6.0801

> <Gold.PLP.part.nonpolar>
-21.7001

> <Gold.PLP.part.repulsive>
1.7761

> <Gold.PLP.ligand.clash>
0.0000

> <Gold.PLP.ligand.torsion>
0.3937

> <Gold.PLP.Chemscore.Hbond>
4.1496

> <Gold.PLP.Chemscore.CHOScore>
1.0000

> <Gold.PLP.Chemscore.Metal>
0.0000

> <Gold.Chemscore.Hbonds>
donor molecule, donor type, donor heavy atom, donor atom, acceptor molecule, acceptor atom, score
      L1  H     4    26       P1 10175  1.00
      L1  H    14    42       P1 10175  1.82
      P1  H  8022  8030       L1    17  0.40
      P1  H 11000 11005       L1    13  0.26
      L1  C    10    31       P1 10160  1.00

> <Gold.PLP.Chemscore.Internal.Correction>
0.2224

> <Gold.Rescore>
     Score         DG    S(hbond)    S(metal)    S(lipo)     H(rot)  DE(clash)    DE(int)     intcor
     14.17     -16.33       2.67        0.00      57.35       1.86       1.45       0.72       ----

> <Gold.Chemscore.Fitness>
14.1654

> <Gold.Chemscore.DG>
-16.3339

> <Gold.Chemscore.ZeroCoef>
-5.4800

> <Gold.Chemscore.Hbond>
2.6687

> <Gold.Chemscore.Metal>
0.0000

> <Gold.Chemscore.Lipo>
57.3506

> <Gold.Chemscore.Internal_Hbond>
0.0000

> <Gold.Chemscore.DEClash>
1.4515

> <Gold.Chemscore.DEInternal>
0.7170

> <Gold.Chemscore.Rot>
1.8631

> <Gold.Chemscore.Internal.Correction>
   9.000000E+99

> <Gold.Chemscore.Hbonds>
donor molecule, donor type, donor heavy atom, donor atom, acceptor molecule, acceptor atom, score
      L1  H     4    26       P1 10175  0.96
      L1  H    14    42       P1 10175  0.71
      P1  H  8022  8030       L1    17  0.20
      P1  H 11000 11005       L1    13  0.21

> <Gold.Chemscore.Hbond.Weighted>
-8.9135

> <Gold.Chemscore.Metal.Weighted>
-0.0000

> <Gold.Chemscore.Lipo.Weighted>
-6.7100

> <Gold.Chemscore.Internal_Hbond.Weighted>
0.0000

> <Gold.Chemscore.DEClash.Weighted>
1.4515

> <Gold.Chemscore.DEInternal.Weighted>
0.7170

> <Gold.Chemscore.Rot.Weighted>
4.7697

> <Gold.Chemscore.Internal.Correction.Weighted>
   9.000000E+99

> <Gold.Protein.RotatedTorsions>
[ 6907 6896 6895 6894 ] final -167.03 input  -60.11 | X-H torsion
[ 7974 7965 7964 7962 ] final    0.53 input  175.53 | X-H torsion
[ 8008 7997 7996 7995 ] final    0.88 input   59.86 | X-H torsion
[ 10167 10162 10161 10158 ] final  175.76 input  -65.29 | X-H torsion
[ 10718 10713 10712 10709 ] final -100.29 input   66.30 | X-H torsion
[ 10763 10752 10751 10750 ] final   78.82 input  -60.55 | X-H torsion
[ 11005 11000 10999 10996 ] final   65.90 input  -57.11 | X-H torsion

> <Gold.Protein.ActiveResidues>
 VAL166  LYS551  ARG553  GLY616  TRP617  ASP618  TYR619  PRO620  LYS621  CYS622 
 ASP623  PHE694  ASN695  SER759  ASP760  ASP761  ALA762  ILE779  LEU786  VAL792 
 PHE793  MET794  SER795  GLU796  ALA797  LYS798  CYS799  TRP800  GLU811  SER814 

> <Gold.Protein.RotatedAtoms>
  151.4530  133.3612  159.2797 H   0  0  0  0  0  0  0  0  0  0  0  0  # atno 6907 bound_to 6896
  150.9078  134.8495  159.7415 H   0  0  0  0  0  0  0  0  0  0  0  0  # atno 6908 bound_to 6896
  152.4915  134.4456  159.9610 H   0  0  0  0  0  0  0  0  0  0  0  0  # atno 6909 bound_to 6896
  146.2435  140.1124  142.8343 H   0  0  0  0  0  0  0  0  0  0  0  0  # atno 7974 bound_to 7965
  154.6732  140.2616  155.6985 H   0  0  0  0  0  0  0  0  0  0  0  0  # atno 8008 bound_to 7997
  156.2667  140.2825  156.1171 H   0  0  0  0  0  0  0  0  0  0  0  0  # atno 8009 bound_to 7997
  155.1138  140.0376  157.2721 H   0  0  0  0  0  0  0  0  0  0  0  0  # atno 8010 bound_to 7997
  139.5189  144.2994  152.0392 H   0  0  0  0  0  0  0  0  0  0  0  0  # atno 10167 bound_to 10162
  156.0159  130.5321  150.6796 H   0  0  0  0  0  0  0  0  0  0  0  0  # atno 10718 bound_to 10713
  153.0904  135.4863  154.8679 H   0  0  0  0  0  0  0  0  0  0  0  0  # atno 10763 bound_to 10752
  154.7262  135.3050  154.8969 H   0  0  0  0  0  0  0  0  0  0  0  0  # atno 10764 bound_to 10752
  153.9618  135.6811  153.4798 H   0  0  0  0  0  0  0  0  0  0  0  0  # atno 10765 bound_to 10752
  139.9865  134.6659  156.0166 H   0  0  0  0  0  0  0  0  0  0  0  0  # atno 11005 bound_to 11000
  145.0475  140.8993  143.5015 LP  0  0  0  0  0  0  0  0  0  0  0  0  # atno 17320 bound_to 7965
  145.1216  139.2690  143.5585 LP  0  0  0  0  0  0  0  0  0  0  0  0  # atno 17321 bound_to 7965
  140.2442  144.4237  150.6248 LP  0  0  0  0  0  0  0  0  0  0  0  0  # atno 17342 bound_to 10162
  140.6270  143.2182  151.6576 LP  0  0  0  0  0  0  0  0  0  0  0  0  # atno 17343 bound_to 10162
  157.4501  131.0871  151.0855 LP  0  0  0  0  0  0  0  0  0  0  0  0  # atno 17370 bound_to 10713
  157.1373  130.6128  149.5545 LP  0  0  0  0  0  0  0  0  0  0  0  0  # atno 17371 bound_to 10713
  141.1529  133.6546  156.4071 LP  0  0  0  0  0  0  0  0  0  0  0  0  # atno 17394 bound_to 11000
  140.4991  134.6502  157.5241 LP  0  0  0  0  0  0  0  0  0  0  0  0  # atno 17395 bound_to 11000

$$$$
