AV-unprocessed.smi:2160|AV-procd|sdf|8800|dock5
  -GOLD-   2272011583D 1   1.00000     0.00000
 Structure written by MMmdl.
 44 46  0  0  0  0  0  0  0  0  2 V2000
  147.3423  141.7178  154.4877 C   0  0  0  0  0  0  0  0  0  0  0  0
  147.8654  140.4214  154.2371 O   0  0  0  0  0  0  0  0  0  0  0  0
  148.9811  140.0251  154.9428 C   0  0  0  0  0  0  0  0  0  0  0  0
  149.5865  140.7904  155.9709 C   0  0  0  0  0  0  0  0  0  0  0  0
  150.7267  140.3079  156.6420 C   0  0  0  0  0  0  0  0  0  0  0  0
  151.2793  139.0565  156.3039 C   0  0  0  0  0  0  0  0  0  0  0  0
  152.5199  138.5671  157.0297 C   0  0  0  0  0  0  0  0  0  0  0  0
  153.0960  139.5572  157.8678 O   0  0  0  0  0  0  0  0  0  0  0  0
  153.9153  139.0048  158.8850 C   0  0  0  0  0  0  0  0  0  0  0  0
  153.6791  139.7704  160.1965 C   0  0  1  0  0  0  0  0  0  0  0  0
  154.2939  139.0543  161.2500 O   0  0  0  0  0  0  0  0  0  0  0  0
  154.2625  141.1967  160.1427 C   0  0  0  0  0  0  0  0  0  0  0  0
  153.4229  142.1813  160.8412 N   0  0  0  0  0  0  0  0  0  0  0  0
  153.1930  142.3313  162.1739 C   0  0  0  0  0  0  0  0  0  0  0  0
  152.3492  143.3884  162.3305 N   0  3  0  0  0  0  0  0  0  0  0  0
  152.0353  143.9239  161.0798 C   0  0  0  0  0  0  0  0  0  0  0  0
  151.2242  144.9983  160.7278 C   0  0  0  0  0  0  0  0  0  0  0  0
  151.1181  145.2871  159.3517 C   0  0  0  0  0  0  0  0  0  0  0  0
  151.8032  144.5216  158.3860 C   0  0  0  0  0  0  0  0  0  0  0  0
  152.6224  143.4341  158.7541 C   0  0  0  0  0  0  0  0  0  0  0  0
  152.7217  143.1534  160.1168 C   0  0  0  0  0  0  0  0  0  0  0  0
  150.6856  138.2949  155.2756 C   0  0  0  0  0  0  0  0  0  0  0  0
  149.5445  138.7773  154.6062 C   0  0  0  0  0  0  0  0  0  0  0  0
  146.4686  141.8819  153.8572 H   0  0  0  0  0  0  0  0  0  0  0  0
  148.0706  142.4943  154.2497 H   0  0  0  0  0  0  0  0  0  0  0  0
  147.0241  141.8258  155.5254 H   0  0  0  0  0  0  0  0  0  0  0  0
  149.1964  141.7533  156.2635 H   0  0  0  0  0  0  0  0  0  0  0  0
  151.1785  140.9049  157.4206 H   0  0  0  0  0  0  0  0  0  0  0  0
  152.2454  137.6945  157.6241 H   0  0  0  0  0  0  0  0  0  0  0  0
  153.2534  138.2412  156.2904 H   0  0  0  0  0  0  0  0  0  0  0  0
  153.7289  137.9372  159.0152 H   0  0  0  0  0  0  0  0  0  0  0  0
  154.9562  139.1143  158.5769 H   0  0  0  0  0  0  0  0  0  0  0  0
  152.6083  139.8364  160.3949 H   0  0  0  0  0  0  0  0  0  0  0  0
  154.9968  138.5354  160.8907 H   0  0  0  0  0  0  0  0  0  0  0  0
  155.2743  141.2272  160.5471 H   0  0  0  0  0  0  0  0  0  0  0  0
  154.3405  141.5256  159.1058 H   0  0  0  0  0  0  0  0  0  0  0  0
  153.6081  141.7233  162.9648 H   0  0  0  0  0  0  0  0  0  0  0  0
  150.7002  145.5875  161.4661 H   0  0  0  0  0  0  0  0  0  0  0  0
  150.5000  146.1129  159.0302 H   0  0  0  0  0  0  0  0  0  0  0  0
  151.6993  144.7741  157.3407 H   0  0  0  0  0  0  0  0  0  0  0  0
  153.1441  142.8594  158.0038 H   0  0  0  0  0  0  0  0  0  0  0  0
  151.0987  137.3382  154.9912 H   0  0  0  0  0  0  0  0  0  0  0  0
  149.0979  138.1828  153.8226 H   0  0  0  0  0  0  0  0  0  0  0  0
  152.0156  143.7194  163.2267 H   0  0  0  0  0  0  0  0  0  0  0  0
  1  2  1  0  0  0  0
  1 24  1  0  0  0  0
  1 25  1  0  0  0  0
  1 26  1  0  0  0  0
  2  3  1  0  0  0  0
  3 23  1  0  0  0  0
  3  4  2  0  0  0  0
  4  5  1  0  0  0  0
  4 27  1  0  0  0  0
  5  6  2  0  0  0  0
  5 28  1  0  0  0  0
  6  7  1  0  0  0  0
  6 22  1  0  0  0  0
  7  8  1  0  0  0  0
  7 29  1  0  0  0  0
  7 30  1  0  0  0  0
  8  9  1  0  0  0  0
  9 10  1  0  0  0  0
  9 31  1  0  0  0  0
  9 32  1  0  0  0  0
 10 11  1  0  0  0  0
 10 12  1  0  0  0  0
 10 33  1  0  0  0  0
 11 34  1  0  0  0  0
 12 13  1  0  0  0  0
 12 35  1  0  0  0  0
 12 36  1  0  0  0  0
 13 21  1  0  0  0  0
 13 14  1  0  0  0  0
 14 15  2  0  0  0  0
 14 37  1  0  0  0  0
 15 16  1  0  0  0  0
 15 44  1  0  0  0  0
 16 21  2  0  0  0  0
 16 17  1  0  0  0  0
 17 18  2  0  0  0  0
 17 38  1  0  0  0  0
 18 19  1  0  0  0  0
 18 39  1  0  0  0  0
 19 20  2  0  0  0  0
 19 40  1  0  0  0  0
 20 21  1  0  0  0  0
 20 41  1  0  0  0  0
 22 23  2  0  0  0  0
 22 42  1  0  0  0  0
 23 43  1  0  0  0  0
M  CHG  1  15   1
M  END
> <s_m_source_file>
AV-unprocessed.smi

> <i_m_source_file_index>
2160

> <i_lp_mmshare_version>
43012

> <i_f3d_flags>
0

> <s_epik_input>
W0NIM11PYzFbY0hdW2NIXWMoW2NIXVtjSF0xKVtDSDJdT1tDSDJdW0NASF0oW09IXSlbQ0gyXW4oW2NIXW4yKWMoYzIzKVtjSF1bY0hdW2NIXVtjSF0z

> <s_epik_cmdline>
J2VwaWtfcHl0aG9uJywgJy1waCcsICc3LjAnLCAnLXRuJywgJzgnLCAnLW1hJywgJzIwMCcsICctbWV0YWxfYmluZGluZycsICctaW1hZScsICc8aW5maWxlLm1hZT4nLCAnLW9tYWUnLCAnPG91dGZpbGUubWFlPic=

> <r_lp_tautomer_probability>
1

> <r_epik_Ionization_Penalty>
1.28975

> <r_epik_Ionization_Penalty_Charging>
1.28975

> <r_epik_Ionization_Penalty_Neutral>
9.74819e-07

> <r_epik_State_Penalty>
1.36276

> <r_epik_Charging_Adjusted_Penalty>
2.65251

> <i_epik_Tot_Q>
1

> <i_epik_Tot_abs_Q>
1

> <r_epik_Metal_State_Penalty>
5.39298

> <b_epik_Metal_Only>
0

> <s_lp_Force_Field>
OPLS_2005

> <r_lp_Energy>
25.2455

> <b_lp_Chiralities_Consistent>
1

> <s_lp_Variant>
AV-unprocessed.smi:2160-4

> <Gold.Version>
5.8.1

> <Gold.Id.Protein>
6NUR|6NUR_protein|mol2

> <Gold.PLP.Fitness>
59.3246

> <Gold.PLP.PLP>
-58.4654

> <Gold.PLP.part.hbond>
-1.7857

> <Gold.PLP.part.metal>
0.0000

> <Gold.PLP.part.buried>
-6.8593

> <Gold.PLP.part.nonpolar>
-51.4212

> <Gold.PLP.part.repulsive>
1.4971

> <Gold.PLP.ligand.clash>
0.0000

> <Gold.PLP.ligand.torsion>
1.1581

> <Gold.PLP.Chemscore.Hbond>
1.0000

> <Gold.PLP.Chemscore.CHOScore>
0.0000

> <Gold.PLP.Chemscore.Metal>
0.0000

> <Gold.Chemscore.Hbonds>
donor molecule, donor type, donor heavy atom, donor atom, acceptor molecule, acceptor atom, score
      P1  H  7997  8008       L1     8  0.65

> <Gold.PLP.Chemscore.Internal.Correction>
0.1753

> <Gold.Rescore>
     Score         DG    S(hbond)    S(metal)    S(lipo)     H(rot)  DE(clash)    DE(int)     intcor
     14.79     -15.95       0.23        0.00     142.97       2.74       0.06       1.10       ----

> <Gold.Chemscore.Fitness>
14.7883

> <Gold.Chemscore.DG>
-15.9524

> <Gold.Chemscore.ZeroCoef>
-5.4800

> <Gold.Chemscore.Hbond>
0.2265

> <Gold.Chemscore.Metal>
0.0000

> <Gold.Chemscore.Lipo>
142.9720

> <Gold.Chemscore.Internal_Hbond>
0.0000

> <Gold.Chemscore.DEClash>
0.0605

> <Gold.Chemscore.DEInternal>
1.1037

> <Gold.Chemscore.Rot>
2.7390

> <Gold.Chemscore.Internal.Correction>
   9.000000E+99

> <Gold.Chemscore.Hbonds>
donor molecule, donor type, donor heavy atom, donor atom, acceptor molecule, acceptor atom, score
      P1  H  7997  8008       L1     8  0.02

> <Gold.Chemscore.Hbond.Weighted>
-0.7565

> <Gold.Chemscore.Metal.Weighted>
-0.0000

> <Gold.Chemscore.Lipo.Weighted>
-16.7277

> <Gold.Chemscore.Internal_Hbond.Weighted>
0.0000

> <Gold.Chemscore.DEClash.Weighted>
0.0605

> <Gold.Chemscore.DEInternal.Weighted>
1.1037

> <Gold.Chemscore.Rot.Weighted>
7.0118

> <Gold.Chemscore.Internal.Correction.Weighted>
   9.000000E+99

> <Gold.Protein.RotatedTorsions>
[ 6907 6896 6895 6894 ] final  -90.93 input  -60.11 | X-H torsion
[ 7974 7965 7964 7962 ] final   57.63 input  175.53 | X-H torsion
[ 8008 7997 7996 7995 ] final  -75.93 input   59.86 | X-H torsion
[ 10167 10162 10161 10158 ] final   69.69 input  -65.29 | X-H torsion
[ 10718 10713 10712 10709 ] final   77.13 input   66.30 | X-H torsion
[ 10763 10752 10751 10750 ] final  171.87 input  -60.55 | X-H torsion
[ 11005 11000 10999 10996 ] final   62.24 input  -57.11 | X-H torsion

> <Gold.Protein.ActiveResidues>
 VAL166  LYS551  ARG553  GLY616  TRP617  ASP618  TYR619  PRO620  LYS621  CYS622 
 ASP623  PHE694  ASN695  SER759  ASP760  ASP761  ALA762  ILE779  LEU786  VAL792 
 PHE793  MET794  SER795  GLU796  ALA797  LYS798  CYS799  TRP800  GLU811  SER814 

> <Gold.Protein.RotatedAtoms>
  150.6887  134.2355  159.4451 H   0  0  0  0  0  0  0  0  0  0  0  0  # atno 6907 bound_to 6896
  152.0303  134.9769  160.0581 H   0  0  0  0  0  0  0  0  0  0  0  0  # atno 6908 bound_to 6896
  152.1311  133.4373  159.4758 H   0  0  0  0  0  0  0  0  0  0  0  0  # atno 6909 bound_to 6896
  145.9270  139.3776  143.0444 H   0  0  0  0  0  0  0  0  0  0  0  0  # atno 7974 bound_to 7965
  154.5460  140.0735  156.8590 H   0  0  0  0  0  0  0  0  0  0  0  0  # atno 8008 bound_to 7997
  155.3086  140.3389  155.4226 H   0  0  0  0  0  0  0  0  0  0  0  0  # atno 8009 bound_to 7997
  156.1918  140.1689  156.8062 H   0  0  0  0  0  0  0  0  0  0  0  0  # atno 8010 bound_to 7997
  140.0651  144.5200  150.7267 H   0  0  0  0  0  0  0  0  0  0  0  0  # atno 10167 bound_to 10162
  157.6699  130.9807  150.1597 H   0  0  0  0  0  0  0  0  0  0  0  0  # atno 10718 bound_to 10713
  154.4181  135.2757  155.1993 H   0  0  0  0  0  0  0  0  0  0  0  0  # atno 10763 bound_to 10752
  154.3951  135.6057  153.5869 H   0  0  0  0  0  0  0  0  0  0  0  0  # atno 10764 bound_to 10752
  152.9832  135.5913  154.4472 H   0  0  0  0  0  0  0  0  0  0  0  0  # atno 10765 bound_to 10752
  140.0105  134.6303  155.9787 H   0  0  0  0  0  0  0  0  0  0  0  0  # atno 11005 bound_to 11000
  145.8476  140.9546  143.0766 LP  0  0  0  0  0  0  0  0  0  0  0  0  # atno 17320 bound_to 7965
  144.6760  140.0365  143.7481 LP  0  0  0  0  0  0  0  0  0  0  0  0  # atno 17321 bound_to 7965
  140.7153  143.2539  151.4453 LP  0  0  0  0  0  0  0  0  0  0  0  0  # atno 17342 bound_to 10162
  139.5870  144.1582  152.2041 LP  0  0  0  0  0  0  0  0  0  0  0  0  # atno 17343 bound_to 10162
  156.2376  130.3688  149.8373 LP  0  0  0  0  0  0  0  0  0  0  0  0  # atno 17370 bound_to 10713
  156.6183  130.8615  151.3469 LP  0  0  0  0  0  0  0  0  0  0  0  0  # atno 17371 bound_to 10713
  141.1708  133.6537  156.4644 LP  0  0  0  0  0  0  0  0  0  0  0  0  # atno 17394 bound_to 11000
  140.4562  134.6883  157.5064 LP  0  0  0  0  0  0  0  0  0  0  0  0  # atno 17395 bound_to 11000

$$$$
