AV-unprocessed.smi:744|AV-procd|sdf|3570|dock10
  -GOLD-   22720 0563D 1   1.00000     0.00000
 Structure written by MMmdl.
 34 35  0  0  0  0  0  0  0  0  1 V2000
  144.3716  136.5797  152.0902 O   0  0  0  0  0  0  0  0  0  0  0  0
  145.5696  136.4528  151.8362 C   0  0  0  0  0  0  0  0  0  0  0  0
  146.4592  137.4502  151.9472 N   0  0  0  0  0  0  0  0  0  0  0  0
  146.1569  138.8139  152.3728 C   0  0  0  0  0  0  0  0  0  0  0  0
  147.4133  139.5492  152.8837 C   0  0  2  0  0  0  0  0  0  0  0  0
  148.0612  138.9044  154.1143 C   0  0  0  0  0  0  0  0  0  0  0  0
  148.9232  140.0037  154.7536 C   0  0  0  0  0  0  0  0  0  0  0  0
  148.5134  141.3257  154.0844 C   0  0  0  0  0  0  0  0  0  0  0  0
  147.2374  141.0212  153.2922 C   0  0  2  0  0  0  0  0  0  0  0  0
  146.1208  141.1932  154.1453 O   0  0  0  0  0  0  0  0  0  0  0  0
  146.1583  135.3204  151.4124 N   0  0  0  0  0  0  0  0  0  0  0  0
  145.5557  134.0577  151.1659 C   0  0  0  0  0  0  0  0  0  0  0  0
  146.4235  132.9477  151.2764 C   0  0  0  0  0  0  0  0  0  0  0  0
  145.9223  131.6510  151.0507 C   0  0  0  0  0  0  0  0  0  0  0  0
  144.5638  131.4972  150.7209 C   0  0  0  0  0  0  0  0  0  0  0  0
  143.7682  132.6541  150.6311 C   0  0  0  0  0  0  0  0  0  0  0  0
  144.2468  133.8977  150.8462 N   0  0  0  0  0  0  0  0  0  0  0  0
  147.4224  137.2526  151.7189 H   0  0  0  0  0  0  0  0  0  0  0  0
  145.6703  139.3788  151.5758 H   0  0  0  0  0  0  0  0  0  0  0  0
  145.4265  138.7491  153.1796 H   0  0  0  0  0  0  0  0  0  0  0  0
  148.1571  139.5256  152.0850 H   0  0  0  0  0  0  0  0  0  0  0  0
  147.2901  138.5933  154.8208 H   0  0  0  0  0  0  0  0  0  0  0  0
  148.6433  138.0190  153.8567 H   0  0  0  0  0  0  0  0  0  0  0  0
  148.7534  140.0399  155.8303 H   0  0  0  0  0  0  0  0  0  0  0  0
  149.9853  139.8118  154.5978 H   0  0  0  0  0  0  0  0  0  0  0  0
  148.3872  142.1388  154.8007 H   0  0  0  0  0  0  0  0  0  0  0  0
  149.2986  141.6297  153.3912 H   0  0  0  0  0  0  0  0  0  0  0  0
  147.1281  141.6795  152.4296 H   0  0  0  0  0  0  0  0  0  0  0  0
  145.3373  140.9751  153.6619 H   0  0  0  0  0  0  0  0  0  0  0  0
  147.1522  135.3671  151.2433 H   0  0  0  0  0  0  0  0  0  0  0  0
  147.4648  133.0833  151.5314 H   0  0  0  0  0  0  0  0  0  0  0  0
  146.5697  130.7901  151.1294 H   0  0  0  0  0  0  0  0  0  0  0  0
  144.1424  130.5193  150.5416 H   0  0  0  0  0  0  0  0  0  0  0  0
  142.7203  132.5799  150.3806 H   0  0  0  0  0  0  0  0  0  0  0  0
  1  2  2  0  0  0  0
  2  3  1  0  0  0  0
  2 11  1  0  0  0  0
  3  4  1  0  0  0  0
  3 18  1  0  0  0  0
  4  5  1  0  0  0  0
  4 19  1  0  0  0  0
  4 20  1  0  0  0  0
  5  9  1  0  0  0  0
  5  6  1  0  0  0  0
  5 21  1  0  0  0  0
  6  7  1  0  0  0  0
  6 22  1  0  0  0  0
  6 23  1  0  0  0  0
  7  8  1  0  0  0  0
  7 24  1  0  0  0  0
  7 25  1  0  0  0  0
  8  9  1  0  0  0  0
  8 26  1  0  0  0  0
  8 27  1  0  0  0  0
  9 10  1  0  0  0  0
  9 28  1  0  0  0  0
 10 29  1  0  0  0  0
 11 12  1  0  0  0  0
 11 30  1  0  0  0  0
 12 17  1  0  0  0  0
 12 13  2  0  0  0  0
 13 14  1  0  0  0  0
 13 31  1  0  0  0  0
 14 15  2  0  0  0  0
 14 32  1  0  0  0  0
 15 16  1  0  0  0  0
 15 33  1  0  0  0  0
 16 17  2  0  0  0  0
 16 34  1  0  0  0  0
M  END
> <s_m_source_file>
AV-unprocessed.smi

> <i_m_source_file_index>
744

> <i_lp_mmshare_version>
43012

> <i_f3d_flags>
0

> <s_epik_input>
bjFbY0hdW2NIXVtjSF1bY0hdYzFbTkhdQyg9TylbTkhdW0NIMl1bQ0BASF0yW0NIMl1bQ0gyXVtDSDJdW0NASF0yW09IXQ==

> <s_epik_cmdline>
J2VwaWtfcHl0aG9uJywgJy1waCcsICc3LjAnLCAnLXRuJywgJzgnLCAnLW1hJywgJzIwMCcsICctbWV0YWxfYmluZGluZycsICctaW1hZScsICc8aW5maWxlLm1hZT4nLCAnLW9tYWUnLCAnPG91dGZpbGUubWFlPic=

> <r_lp_tautomer_probability>
1

> <r_epik_Ionization_Penalty>
5.04769e-05

> <r_epik_Ionization_Penalty_Charging>
0

> <r_epik_Ionization_Penalty_Neutral>
5.04769e-05

> <r_epik_State_Penalty>
-0

> <r_epik_Charging_Adjusted_Penalty>
0

> <i_epik_Tot_Q>
0

> <i_epik_Tot_abs_Q>
0

> <r_epik_Metal_State_Penalty>
-0

> <b_epik_Metal_Only>
0

> <s_lp_Force_Field>
OPLS_2005

> <r_lp_Energy>
26.8719

> <b_lp_Chiralities_Consistent>
1

> <s_lp_Variant>
AV-unprocessed.smi:744-3

> <Gold.Version>
5.8.1

> <Gold.Id.Protein>
6NUR|6NUR_protein|mol2

> <Gold.PLP.Fitness>
41.4437

> <Gold.PLP.PLP>
-30.4398

> <Gold.PLP.part.hbond>
-3.0000

> <Gold.PLP.part.metal>
0.0000

> <Gold.PLP.part.buried>
-1.6009

> <Gold.PLP.part.nonpolar>
-27.3450

> <Gold.PLP.part.repulsive>
1.6071

> <Gold.PLP.ligand.clash>
0.0000

> <Gold.PLP.ligand.torsion>
0.2882

> <Gold.PLP.Chemscore.Hbond>
2.9350

> <Gold.PLP.Chemscore.CHOScore>
0.9246

> <Gold.PLP.Chemscore.Metal>
0.0000

> <Gold.Chemscore.Hbonds>
donor molecule, donor type, donor heavy atom, donor atom, acceptor molecule, acceptor atom, score
      L1  H     3    18       P1  7948  1.00
      L1  H    10    29       P1 10175  0.86
      L1  H    11    30       P1  7948  0.90
      L1  C    16    34       P1 10186  0.72

> <Gold.PLP.Chemscore.Internal.Correction>
0.0013

> <Gold.Rescore>
     Score         DG    S(hbond)    S(metal)    S(lipo)     H(rot)  DE(clash)    DE(int)     intcor
     15.92     -18.00       2.64        0.00      71.07       1.81       0.64       1.44       ----

> <Gold.Chemscore.Fitness>
15.9248

> <Gold.Chemscore.DG>
-18.0021

> <Gold.Chemscore.ZeroCoef>
-5.4800

> <Gold.Chemscore.Hbond>
2.6433

> <Gold.Chemscore.Metal>
0.0000

> <Gold.Chemscore.Lipo>
71.0657

> <Gold.Chemscore.Internal_Hbond>
0.0000

> <Gold.Chemscore.DEClash>
0.6393

> <Gold.Chemscore.DEInternal>
1.4380

> <Gold.Chemscore.Rot>
1.8052

> <Gold.Chemscore.Internal.Correction>
   9.000000E+99

> <Gold.Chemscore.Hbonds>
donor molecule, donor type, donor heavy atom, donor atom, acceptor molecule, acceptor atom, score
      L1  H     3    18       P1  7948  0.97
      L1  H    10    29       P1 10175  0.62
      L1  H    11    30       P1  7948  0.72

> <Gold.Chemscore.Hbond.Weighted>
-8.8287

> <Gold.Chemscore.Metal.Weighted>
-0.0000

> <Gold.Chemscore.Lipo.Weighted>
-8.3147

> <Gold.Chemscore.Internal_Hbond.Weighted>
0.0000

> <Gold.Chemscore.DEClash.Weighted>
0.6393

> <Gold.Chemscore.DEInternal.Weighted>
1.4380

> <Gold.Chemscore.Rot.Weighted>
4.6212

> <Gold.Chemscore.Internal.Correction.Weighted>
   9.000000E+99

> <Gold.Protein.RotatedTorsions>
[ 6907 6896 6895 6894 ] final  -57.39 input  -60.11 | X-H torsion
[ 7974 7965 7964 7962 ] final  -54.82 input  175.53 | X-H torsion
[ 8008 7997 7996 7995 ] final -154.49 input   59.86 | X-H torsion
[ 10167 10162 10161 10158 ] final   78.17 input  -65.29 | X-H torsion
[ 10718 10713 10712 10709 ] final  -31.19 input   66.30 | X-H torsion
[ 10763 10752 10751 10750 ] final   65.35 input  -60.55 | X-H torsion
[ 11005 11000 10999 10996 ] final   37.93 input  -57.11 | X-H torsion

> <Gold.Protein.ActiveResidues>
 VAL166  LYS551  ARG553  GLY616  TRP617  ASP618  TYR619  PRO620  LYS621  CYS622 
 ASP623  PHE694  ASN695  SER759  ASP760  ASP761  ALA762  ILE779  LEU786  VAL792 
 PHE793  MET794  SER795  GLU796  ALA797  LYS798  CYS799  TRP800  GLU811  SER814 

> <Gold.Protein.RotatedAtoms>
  150.8090  134.7233  159.6670 H   0  0  0  0  0  0  0  0  0  0  0  0  # atno 6907 bound_to 6896
  152.4210  134.5952  159.9995 H   0  0  0  0  0  0  0  0  0  0  0  0  # atno 6908 bound_to 6896
  151.6167  133.3305  159.3115 H   0  0  0  0  0  0  0  0  0  0  0  0  # atno 6909 bound_to 6896
  145.8812  140.8143  142.9839 H   0  0  0  0  0  0  0  0  0  0  0  0  # atno 7974 bound_to 7965
  155.6872  140.0751  157.2462 H   0  0  0  0  0  0  0  0  0  0  0  0  # atno 8008 bound_to 7997
  154.4095  140.1671  156.2099 H   0  0  0  0  0  0  0  0  0  0  0  0  # atno 8009 bound_to 7997
  155.9483  140.3379  155.6389 H   0  0  0  0  0  0  0  0  0  0  0  0  # atno 8010 bound_to 7997
  139.9738  144.5875  150.7961 H   0  0  0  0  0  0  0  0  0  0  0  0  # atno 10167 bound_to 10162
  156.3903  130.4372  149.7400 H   0  0  0  0  0  0  0  0  0  0  0  0  # atno 10718 bound_to 10713
  153.0093  135.5360  154.6653 H   0  0  0  0  0  0  0  0  0  0  0  0  # atno 10763 bound_to 10752
  154.5851  135.2853  155.0695 H   0  0  0  0  0  0  0  0  0  0  0  0  # atno 10764 bound_to 10752
  154.1809  135.6516  153.5086 H   0  0  0  0  0  0  0  0  0  0  0  0  # atno 10765 bound_to 10752
  140.2176  134.3679  155.8019 H   0  0  0  0  0  0  0  0  0  0  0  0  # atno 11005 bound_to 11000
  144.6727  140.1386  143.7438 LP  0  0  0  0  0  0  0  0  0  0  0  0  # atno 17320 bound_to 7965
  145.9021  139.2437  143.1487 LP  0  0  0  0  0  0  0  0  0  0  0  0  # atno 17321 bound_to 7965
  140.7513  143.2970  151.3179 LP  0  0  0  0  0  0  0  0  0  0  0  0  # atno 17342 bound_to 10162
  139.6461  144.0449  152.2592 LP  0  0  0  0  0  0  0  0  0  0  0  0  # atno 17343 bound_to 10162
  156.4456  130.7882  151.2903 LP  0  0  0  0  0  0  0  0  0  0  0  0  # atno 17370 bound_to 10713
  157.7498  131.0111  150.3333 LP  0  0  0  0  0  0  0  0  0  0  0  0  # atno 17371 bound_to 10713
  141.2224  133.7176  156.8523 LP  0  0  0  0  0  0  0  0  0  0  0  0  # atno 17394 bound_to 11000
  140.1883  134.8984  157.3031 LP  0  0  0  0  0  0  0  0  0  0  0  0  # atno 17395 bound_to 11000

$$$$
