AV-unprocessed.smi:2936|AV-procd|sdf|11257|dock10
  -GOLD-   2272016153D 1   1.00000     0.00000
 Structure written by MMmdl.
 23 24  0  0  0  0  0  0  0  0  2 V2000
  152.4826  136.8279  156.4127 O   0  0  0  0  0  0  0  0  0  0  0  0
  152.1726  138.0076  156.2547 C   0  0  0  0  0  0  0  0  0  0  0  0
  151.8870  138.5256  155.0211 N   0  5  0  0  0  0  0  0  0  0  0  0
  151.5261  139.9196  154.8834 N   0  0  0  0  0  0  0  0  0  0  0  0
  151.4693  140.6849  155.9009 C   0  0  0  0  0  0  0  0  0  0  0  0
  151.7635  140.2069  157.2686 C   0  0  0  0  0  0  0  0  0  0  0  0
  151.6851  141.0894  158.3354 N   0  0  0  0  0  0  0  0  0  0  0  0
  150.5743  142.0075  158.5366 C   0  0  0  0  0  0  0  0  0  0  0  0
  151.0943  143.4496  158.6729 C   0  0  0  0  0  0  0  0  0  0  0  0
  152.0593  143.5123  159.7200 O   0  0  0  0  0  0  0  0  0  0  0  0
  153.1825  142.6714  159.4685 C   0  0  0  0  0  0  0  0  0  0  0  0
  152.7164  141.2092  159.3547 C   0  0  0  0  0  0  0  0  0  0  0  0
  152.1032  138.9005  157.4181 C   0  0  0  0  0  0  0  0  0  0  0  0
  152.4634  138.2430  158.9802 Cl  0  0  0  0  0  0  0  0  0  0  0  0
  151.1988  141.7405  155.8142 H   0  0  0  0  0  0  0  0  0  0  0  0
  149.8739  141.9358  157.7036 H   0  0  0  0  0  0  0  0  0  0  0  0
  150.0321  141.7141  159.4362 H   0  0  0  0  0  0  0  0  0  0  0  0
  151.5340  143.7978  157.7375 H   0  0  0  0  0  0  0  0  0  0  0  0
  150.2715  144.1246  158.9071 H   0  0  0  0  0  0  0  0  0  0  0  0
  153.6935  142.9915  158.5597 H   0  0  0  0  0  0  0  0  0  0  0  0
  153.8946  142.7761  160.2869 H   0  0  0  0  0  0  0  0  0  0  0  0
  152.3134  140.8648  160.3077 H   0  0  0  0  0  0  0  0  0  0  0  0
  153.5600  140.5622  159.1116 H   0  0  0  0  0  0  0  0  0  0  0  0
  1  2  2  0  0  0  0
  2 13  1  0  0  0  0
  2  3  1  0  0  0  0
  3  4  1  0  0  0  0
  4  5  2  0  0  0  0
  5  6  1  0  0  0  0
  5 15  1  0  0  0  0
  6  7  1  0  0  0  0
  6 13  2  0  0  0  0
  7 12  1  0  0  0  0
  7  8  1  0  0  0  0
  8  9  1  0  0  0  0
  8 16  1  0  0  0  0
  8 17  1  0  0  0  0
  9 10  1  0  0  0  0
  9 18  1  0  0  0  0
  9 19  1  0  0  0  0
 10 11  1  0  0  0  0
 11 12  1  0  0  0  0
 11 20  1  0  0  0  0
 11 21  1  0  0  0  0
 12 22  1  0  0  0  0
 12 23  1  0  0  0  0
 13 14  1  0  0  0  0
M  CHG  1   3  -1
M  END
> <s_m_source_file>
AV-unprocessed.smi

> <i_m_source_file_index>
2936

> <i_lp_mmshare_version>
43012

> <i_f3d_flags>
0

> <s_epik_input>
Tz1jMVtuSF1uW2NIXWMoYzFDbClOMltDSDJdW0NIMl1PW0NIMl1bQ0gyXTI=

> <s_epik_cmdline>
J2VwaWtfcHl0aG9uJywgJy1waCcsICc3LjAnLCAnLXRuJywgJzgnLCAnLW1hJywgJzIwMCcsICctbWV0YWxfYmluZGluZycsICctaW1hZScsICc8aW5maWxlLm1hZT4nLCAnLW9tYWUnLCAnPG91dGZpbGUubWFlPic=

> <r_lp_tautomer_probability>
1

> <r_epik_Ionization_Penalty>
2.40826

> <r_epik_Ionization_Penalty_Charging>
0.00182709

> <r_epik_Ionization_Penalty_Neutral>
2.40643

> <r_epik_State_Penalty>
0.0371983

> <r_epik_Charging_Adjusted_Penalty>
0.0390254

> <i_epik_Tot_Q>
-1

> <i_epik_Tot_abs_Q>
1

> <r_epik_Metal_State_Penalty>
0.000698467

> <b_epik_Metal_Only>
0

> <s_lp_Force_Field>
OPLS_2005

> <r_lp_Energy>
40.7518

> <b_lp_Chiralities_Consistent>
1

> <s_lp_Variant>
AV-unprocessed.smi:2936-1

> <Gold.Version>
5.8.1

> <Gold.Id.Protein>
6NUR|6NUR_protein|mol2

> <Gold.PLP.Fitness>
29.4043

> <Gold.PLP.PLP>
-23.4043

> <Gold.PLP.part.hbond>
-2.0000

> <Gold.PLP.part.metal>
0.0000

> <Gold.PLP.part.buried>
-4.8229

> <Gold.PLP.part.nonpolar>
-16.5443

> <Gold.PLP.part.repulsive>
0.1022

> <Gold.PLP.ligand.clash>
0.0000

> <Gold.PLP.ligand.torsion>
0.8016

> <Gold.PLP.Chemscore.Hbond>
2.0000

> <Gold.PLP.Chemscore.CHOScore>
0.0000

> <Gold.PLP.Chemscore.Metal>
0.0000

> <Gold.Chemscore.Hbonds>
donor molecule, donor type, donor heavy atom, donor atom, acceptor molecule, acceptor atom, score
      P1  H  7989  7998       L1     4  1.00
      P1  H 10752 10763       L1     1  1.00

> <Gold.PLP.Chemscore.Internal.Correction>
1.6033

> <Gold.Rescore>
     Score         DG    S(hbond)    S(metal)    S(lipo)     H(rot)  DE(clash)    DE(int)     intcor
     16.75     -18.41       1.83        0.00      58.26       0.00       0.00       1.66       ----

> <Gold.Chemscore.Fitness>
16.7505

> <Gold.Chemscore.DG>
-18.4146

> <Gold.Chemscore.ZeroCoef>
-5.4800

> <Gold.Chemscore.Hbond>
1.8320

> <Gold.Chemscore.Metal>
0.0000

> <Gold.Chemscore.Lipo>
58.2550

> <Gold.Chemscore.Internal_Hbond>
0.0000

> <Gold.Chemscore.DEClash>
0.0000

> <Gold.Chemscore.DEInternal>
1.6641

> <Gold.Chemscore.Rot>
0.0000

> <Gold.Chemscore.Internal.Correction>
   9.000000E+99

> <Gold.Chemscore.Hbonds>
donor molecule, donor type, donor heavy atom, donor atom, acceptor molecule, acceptor atom, score
      P1  H  7989  7998       L1     4  0.69
      P1  H 10752 10763       L1     1  0.90

> <Gold.Chemscore.Hbond.Weighted>
-6.1187

> <Gold.Chemscore.Metal.Weighted>
-0.0000

> <Gold.Chemscore.Lipo.Weighted>
-6.8158

> <Gold.Chemscore.Internal_Hbond.Weighted>
0.0000

> <Gold.Chemscore.DEClash.Weighted>
0.0000

> <Gold.Chemscore.DEInternal.Weighted>
1.6641

> <Gold.Chemscore.Rot.Weighted>
0.0000

> <Gold.Chemscore.Internal.Correction.Weighted>
   9.000000E+99

> <Gold.Protein.RotatedTorsions>
[ 6907 6896 6895 6894 ] final -129.96 input  -60.11 | X-H torsion
[ 7974 7965 7964 7962 ] final -177.99 input  175.53 | X-H torsion
[ 8008 7997 7996 7995 ] final -145.11 input   59.86 | X-H torsion
[ 10167 10162 10161 10158 ] final   66.14 input  -65.29 | X-H torsion
[ 10718 10713 10712 10709 ] final   51.47 input   66.30 | X-H torsion
[ 10763 10752 10751 10750 ] final   92.89 input  -60.55 | X-H torsion
[ 11005 11000 10999 10996 ] final   45.67 input  -57.11 | X-H torsion

> <Gold.Protein.ActiveResidues>
 VAL166  LYS551  ARG553  GLY616  TRP617  ASP618  TYR619  PRO620  LYS621  CYS622 
 ASP623  PHE694  ASN695  SER759  ASP760  ASP761  ALA762  ILE779  LEU786  VAL792 
 PHE793  MET794  SER795  GLU796  ALA797  LYS798  CYS799  TRP800  GLU811  SER814 

> <Gold.Protein.RotatedAtoms>
  150.9345  133.6728  159.2803 H   0  0  0  0  0  0  0  0  0  0  0  0  # atno 6907 bound_to 6896
  151.4139  135.0987  159.9603 H   0  0  0  0  0  0  0  0  0  0  0  0  # atno 6908 bound_to 6896
  152.5041  133.8812  159.7402 H   0  0  0  0  0  0  0  0  0  0  0  0  # atno 6909 bound_to 6896
  144.7129  140.0937  143.6420 H   0  0  0  0  0  0  0  0  0  0  0  0  # atno 7974 bound_to 7965
  155.5379  140.0605  157.2876 H   0  0  0  0  0  0  0  0  0  0  0  0  # atno 8008 bound_to 7997
  154.4462  140.1924  156.0605 H   0  0  0  0  0  0  0  0  0  0  0  0  # atno 8009 bound_to 7997
  156.0606  140.3273  155.7461 H   0  0  0  0  0  0  0  0  0  0  0  0  # atno 8010 bound_to 7997
  140.1036  144.4881  150.7022 H   0  0  0  0  0  0  0  0  0  0  0  0  # atno 10167 bound_to 10162
  157.4984  130.8421  149.8286 H   0  0  0  0  0  0  0  0  0  0  0  0  # atno 10718 bound_to 10713
  153.2242  135.4345  155.0523 H   0  0  0  0  0  0  0  0  0  0  0  0  # atno 10763 bound_to 10752
  154.8265  135.3363  154.6883 H   0  0  0  0  0  0  0  0  0  0  0  0  # atno 10764 bound_to 10752
  153.7313  135.7011  153.5045 H   0  0  0  0  0  0  0  0  0  0  0  0  # atno 10765 bound_to 10752
  140.1438  134.4549  155.8430 H   0  0  0  0  0  0  0  0  0  0  0  0  # atno 11005 bound_to 11000
  145.9598  139.2792  143.1162 LP  0  0  0  0  0  0  0  0  0  0  0  0  # atno 17320 bound_to 7965
  145.9233  140.9100  143.0394 LP  0  0  0  0  0  0  0  0  0  0  0  0  # atno 17321 bound_to 7965
  140.6964  143.2406  151.4988 LP  0  0  0  0  0  0  0  0  0  0  0  0  # atno 17342 bound_to 10162
  139.5657  144.2047  152.1761 LP  0  0  0  0  0  0  0  0  0  0  0  0  # atno 17343 bound_to 10162
  156.0214  130.3794  150.1950 LP  0  0  0  0  0  0  0  0  0  0  0  0  # atno 17370 bound_to 10713
  157.0140  130.9959  151.3358 LP  0  0  0  0  0  0  0  0  0  0  0  0  # atno 17371 bound_to 10713
  141.2190  133.6844  156.7296 LP  0  0  0  0  0  0  0  0  0  0  0  0  # atno 17394 bound_to 11000
  140.2689  134.8408  157.3828 LP  0  0  0  0  0  0  0  0  0  0  0  0  # atno 17395 bound_to 11000

$$$$
