#       Name:                AV-unprocessed.smi:1815
#       Creating user name   scv26
#       Creation time:       Fri Mar 27 09:01:43 2020


#       File generated by GOLD software.
#

@<TRIPOS>MOLECULE
AV-unprocessed.smi:1815
    45    46     1
SMALL
NO_CHARGES


@<TRIPOS>ATOM
      1 ****        -3.9625  -1.5828   0.5304 C.3            1 S1                 0.0000
      2 ****        -3.3676  -0.7882   1.7066 C.3            1 S1                 0.0000
      3 ****        -1.8291  -0.7015   1.6751 C.3            1 S1                 0.0000
      4 ****        -1.3643   0.2373   0.6262 N.4            1 S1                 1.0000
      5 ****         0.1158   0.2854   0.5312 C.3            1 S1                 0.0000
      6 ****         0.6043   0.8669  -0.8095 C.3            1 S1                 0.0000
      7 ****         2.0580   0.8182  -0.9139 N.am           1 S1                 0.0000
      8 ****         2.7618  -0.2728  -1.2493 C.2            1 S1                 0.0000
      9 ****         2.2414  -1.3602  -1.5013 O.2            1 S1                 0.0000
     10 ****         4.0820  -0.0187  -1.2664 N.am           1 S1                 0.0000
     11 ****         5.1424  -0.9119  -1.5725 C.2            1 S1                 0.0000
     12 ****         4.9738  -2.1966  -1.9071 N.2            1 S1                 0.0000
     13 ****         6.1900  -2.8375  -2.1567 C.2            1 S1                 0.0000
     14 ****         7.2824  -2.0202  -2.0047 C.2            1 S1                 0.0000
     15 ****         6.8243  -0.4029  -1.5414 S.3            1 S1                 0.0000
     16 ****        -1.9968   1.5657   0.8099 C.3            1 S1                 0.0000
     17 ****        -3.5304   1.4336   0.8040 C.3            1 S1                 0.0000
     18 ****        -4.2240   2.7733   1.0753 C.3            1 S1                 0.0000
     19 ****        -3.9328   0.5178   1.8191 O.3            1 S1                 0.0000
     20 ****        -3.6191  -2.6175   0.5512 H              1 S1                 0.0000
     21 ****        -3.6792  -1.1680  -0.4366 H              1 S1                 0.0000
     22 ****        -5.0513  -1.5975   0.5828 H              1 S1                 0.0000
     23 ****        -3.6503  -1.3176   2.6171 H              1 S1                 0.0000
     24 ****        -1.4611  -0.3601   2.6440 H              1 S1                 0.0000
     25 ****        -1.4061  -1.6934   1.5097 H              1 S1                 0.0000
     26 ****         0.5234   0.8520   1.3699 H              1 S1                 0.0000
     27 ****         0.5020  -0.7303   0.6289 H              1 S1                 0.0000
     28 ****         0.1517   0.3332  -1.6471 H              1 S1                 0.0000
     29 ****         0.3097   1.9108  -0.9101 H              1 S1                 0.0000
     30 ****         2.5608   1.6729  -0.7234 H              1 S1                 0.0000
     31 ****         4.3627   0.9226  -1.0347 H              1 S1                 0.0000
     32 ****         6.1857  -3.8802  -2.4380 H              1 S1                 0.0000
     33 ****         8.3244  -2.2708  -2.1374 H              1 S1                 0.0000
     34 ****        -1.6572   2.0054   1.7493 H              1 S1                 0.0000
     35 ****        -1.6957   2.2442   0.0127 H              1 S1                 0.0000
     36 ****        -3.8627   1.0739  -0.1701 H              1 S1                 0.0000
     37 ****        -3.9550   3.5147   0.3225 H              1 S1                 0.0000
     38 ****        -3.9470   3.1717   2.0518 H              1 S1                 0.0000
     39 ****        -5.3083   2.6608   1.0573 H              1 S1                 0.0000
     40 ****        -1.6969  -0.1323  -0.2532 H              1 S1                 0.0000
     41 ****         1.2473  -1.4601  -1.4608 LP             1 S1                 0.0000
     42 ****         2.8130  -2.1432  -1.7465 LP             1 S1                 0.0000
     43 ****         4.0823  -2.6451  -1.9710 LP             1 S1                 0.0000
     44 ****        -3.6645   0.8975   2.7044 LP             1 S1                 0.0000
     45 ****        -4.9282   0.4301   1.7818 LP             1 S1                 0.0000
@<TRIPOS>BOND
    1    1    2 1     
    2    1   20 1     
    3    1   21 1     
    4    1   22 1     
    5    2   19 1     
    6    2    3 1     
    7    2   23 1     
    8    3    4 1     
    9    3   24 1     
   10    3   25 1     
   11    4    5 1     
   12    4   16 1     
   13    4   40 1     
   14    5    6 1     
   15    5   26 1     
   16    5   27 1     
   17    6    7 1     
   18    6   28 1     
   19    6   29 1     
   20    7    8 am    
   21    7   30 1     
   22    8    9 2     
   23    8   10 am    
   24   10   11 1     
   25   10   31 1     
   26   11   15 1     
   27   11   12 2     
   28   12   13 1     
   29   13   14 2     
   30   13   32 1     
   31   14   15 1     
   32   14   33 1     
   33   16   17 1     
   34   16   34 1     
   35   16   35 1     
   36   17   18 1     
   37   17   19 1     
   38   17   36 1     
   39   18   37 1     
   40   18   38 1     
   41   18   39 1     
   42    9   41 1     
   43    9   42 1     
   44   12   43 1     
   45   19   44 1     
   46   19   45 1     
@<TRIPOS>SUBSTRUCTURE
      1 S1             1
@<TRIPOS>SET
LONE_PAIRS      STATIC     ATOMS    <user>   **** ""
5 41 42 43 44 45
DONOR_HYDROGENS      STATIC     ATOMS    <user>   **** ""
3 40 30 31
ATOM$BLUE        STATIC     ATOMS    COLORGROUP SYSTEM
5 41 42 43 44 45
ATOM$RED        STATIC     ATOMS    COLORGROUP SYSTEM
3 40 30 31
