AV-unprocessed.smi:246|AV-procd|sdf|1881|dock6
  -GOLD-   2262020523D 1   1.00000     0.00000
 Structure written by MMmdl.
 57 60  0  0  0  0  0  0  0  0  1 V2000
  153.1407  142.0561  159.9175 C   0  0  0  0  0  0  0  0  0  0  0  0
  152.4491  143.3672  160.3150 C   0  0  0  0  0  0  0  0  0  0  0  0
  151.1154  143.4257  159.8293 O   0  0  0  0  0  0  0  0  0  0  0  0
  150.9879  144.0040  158.5384 C   0  0  0  0  0  0  0  0  0  0  0  0
  151.4005  142.9665  157.4905 C   0  0  0  0  0  0  0  0  0  0  0  0
  150.5804  141.8165  157.6319 O   0  0  0  0  0  0  0  0  0  0  0  0
  150.6258  140.9450  156.5121 C   0  0  2  0  0  0  0  0  0  0  0  0
  149.9892  141.6022  155.2871 C   0  0  0  0  0  0  0  0  0  0  0  0
  149.5297  140.4198  154.4268 C   0  0  0  0  0  0  0  0  0  0  0  0
  149.3956  139.2971  155.3442 N   0  0  0  0  0  0  0  0  0  0  0  0
  148.5688  138.2485  155.0974 C   0  0  0  0  0  0  0  0  0  0  0  0
  148.7023  137.1255  155.8521 N   0  0  0  0  0  0  0  0  0  0  0  0
  147.9147  136.0674  155.6420 C   0  0  0  0  0  0  0  0  0  0  0  0
  146.9485  135.9149  154.7360 N   0  0  0  0  0  0  0  0  0  0  0  0
  146.8139  137.0311  153.9646 C   0  0  0  0  0  0  0  0  0  0  0  0
  147.5722  138.2327  154.0765 C   0  0  0  0  0  0  0  0  0  0  0  0
  147.1479  139.1412  153.1123 N   0  0  0  0  0  0  0  0  0  0  0  0
  146.1950  138.5181  152.4755 C   0  0  0  0  0  0  0  0  0  0  0  0
  145.9434  137.2365  152.9082 N   0  0  0  0  0  0  0  0  0  0  0  0
  144.9462  136.3216  152.3788 C   0  0  0  0  0  0  0  0  0  0  0  0
  145.5174  135.2892  151.3798 C   0  0  2  0  0  0  0  0  0  0  0  0
  145.5664  135.9494  150.1316 O   0  0  0  0  0  0  0  0  0  0  0  0
  144.6665  134.0139  151.1807 C   0  0  2  0  0  0  0  0  0  0  0  0
  144.5950  133.0544  152.3724 C   0  0  0  0  0  0  0  0  0  0  0  0
  144.3295  131.6976  151.7407 C   0  0  0  0  0  0  0  0  0  0  0  0
  144.6655  131.9080  150.2643 C   0  0  0  0  0  0  0  0  0  0  0  0
  145.2907  133.1820  150.2128 O   0  0  0  0  0  0  0  0  0  0  0  0
  149.7710  139.6878  156.6950 C   0  0  0  0  0  0  0  0  0  0  0  0
  151.6543  140.6703  156.2696 H   0  0  0  0  0  0  0  0  0  0  0  0
  154.1898  142.0696  160.2128 H   0  0  0  0  0  0  0  0  0  0  0  0
  153.1015  141.9064  158.8384 H   0  0  0  0  0  0  0  0  0  0  0  0
  152.6790  141.1918  160.3940 H   0  0  0  0  0  0  0  0  0  0  0  0
  152.4808  143.5177  161.3951 H   0  0  0  0  0  0  0  0  0  0  0  0
  152.9951  144.1997  159.8710 H   0  0  0  0  0  0  0  0  0  0  0  0
  149.9721  144.3494  158.3460 H   0  0  0  0  0  0  0  0  0  0  0  0
  151.6476  144.8701  158.4692 H   0  0  0  0  0  0  0  0  0  0  0  0
  151.2603  143.3818  156.4915 H   0  0  0  0  0  0  0  0  0  0  0  0
  152.4581  142.7216  157.5979 H   0  0  0  0  0  0  0  0  0  0  0  0
  149.1185  142.1836  155.5940 H   0  0  0  0  0  0  0  0  0  0  0  0
  150.6695  142.2723  154.7608 H   0  0  0  0  0  0  0  0  0  0  0  0
  148.5931  140.6498  153.9174 H   0  0  0  0  0  0  0  0  0  0  0  0
  150.2807  140.1742  153.6754 H   0  0  0  0  0  0  0  0  0  0  0  0
  148.0857  135.2212  156.2909 H   0  0  0  0  0  0  0  0  0  0  0  0
  145.6535  138.9763  151.6606 H   0  0  0  0  0  0  0  0  0  0  0  0
  144.4466  135.8131  153.2044 H   0  0  0  0  0  0  0  0  0  0  0  0
  144.1857  136.9320  151.8894 H   0  0  0  0  0  0  0  0  0  0  0  0
  146.5360  135.0202  151.6618 H   0  0  0  0  0  0  0  0  0  0  0  0
  145.6034  135.2942  149.4512 H   0  0  0  0  0  0  0  0  0  0  0  0
  143.6562  134.2665  150.8516 H   0  0  0  0  0  0  0  0  0  0  0  0
  145.5524  133.0267  152.8943 H   0  0  0  0  0  0  0  0  0  0  0  0
  143.8234  133.3310  153.0903 H   0  0  0  0  0  0  0  0  0  0  0  0
  144.9558  130.9281  152.1937 H   0  0  0  0  0  0  0  0  0  0  0  0
  143.2877  131.3977  151.8585 H   0  0  0  0  0  0  0  0  0  0  0  0
  145.3208  131.1320  149.8678 H   0  0  0  0  0  0  0  0  0  0  0  0
  143.7562  131.9284  149.6618 H   0  0  0  0  0  0  0  0  0  0  0  0
  150.3188  138.8965  157.2080 H   0  0  0  0  0  0  0  0  0  0  0  0
  148.8707  139.9146  157.2680 H   0  0  0  0  0  0  0  0  0  0  0  0
  1  2  1  0  0  0  0
  1 30  1  0  0  0  0
  1 31  1  0  0  0  0
  1 32  1  0  0  0  0
  2  3  1  0  0  0  0
  2 33  1  0  0  0  0
  2 34  1  0  0  0  0
  3  4  1  0  0  0  0
  4  5  1  0  0  0  0
  4 35  1  0  0  0  0
  4 36  1  0  0  0  0
  5  6  1  0  0  0  0
  5 37  1  0  0  0  0
  5 38  1  0  0  0  0
  6  7  1  0  0  0  0
  7 29  1  0  0  0  0
  7 28  1  0  0  0  0
  7  8  1  0  0  0  0
  8  9  1  0  0  0  0
  8 39  1  0  0  0  0
  8 40  1  0  0  0  0
  9 10  1  0  0  0  0
  9 41  1  0  0  0  0
  9 42  1  0  0  0  0
 10 11  1  0  0  0  0
 10 28  1  0  0  0  0
 11 16  1  0  0  0  0
 11 12  2  0  0  0  0
 12 13  1  0  0  0  0
 13 14  2  0  0  0  0
 13 43  1  0  0  0  0
 14 15  1  0  0  0  0
 15 19  1  0  0  0  0
 15 16  2  0  0  0  0
 16 17  1  0  0  0  0
 17 18  2  0  0  0  0
 18 19  1  0  0  0  0
 18 44  1  0  0  0  0
 19 20  1  0  0  0  0
 20 21  1  0  0  0  0
 20 45  1  0  0  0  0
 20 46  1  0  0  0  0
 21 22  1  0  0  0  0
 21 23  1  0  0  0  0
 21 47  1  0  0  0  0
 22 48  1  0  0  0  0
 23 27  1  0  0  0  0
 23 24  1  0  0  0  0
 23 49  1  0  0  0  0
 24 25  1  0  0  0  0
 24 50  1  0  0  0  0
 24 51  1  0  0  0  0
 25 26  1  0  0  0  0
 25 52  1  0  0  0  0
 25 53  1  0  0  0  0
 26 27  1  0  0  0  0
 26 54  1  0  0  0  0
 26 55  1  0  0  0  0
 28 56  1  0  0  0  0
 28 57  1  0  0  0  0
M  END
> <s_m_source_file>
AV-unprocessed.smi

> <i_m_source_file_index>
246

> <i_lp_mmshare_version>
43012

> <i_f3d_flags>
0

> <s_epik_input>
W0NIM11bQ0gyXU9bQ0gyXVtDSDJdT1tDQEhdMVtDSDJdW0NIMl1OKFtDSDJdMSljKG5bY0hdbjIpYyhjMjMpbltjSF1uM1tDSDJdW0NASF0oW09IXSlbQ0BASF00W0NIMl1bQ0gyXVtDSDJdTzQ=

> <s_epik_cmdline>
J2VwaWtfcHl0aG9uJywgJy1waCcsICc3LjAnLCAnLXRuJywgJzgnLCAnLW1hJywgJzIwMCcsICctbWV0YWxfYmluZGluZycsICctaW1hZScsICc8aW5maWxlLm1hZT4nLCAnLW9tYWUnLCAnPG91dGZpbGUubWFlPic=

> <r_lp_tautomer_probability>
1

> <r_epik_Ionization_Penalty>
0.0024631

> <r_epik_Ionization_Penalty_Charging>
0

> <r_epik_Ionization_Penalty_Neutral>
0.0024631

> <r_epik_State_Penalty>
0.00162428

> <r_epik_Charging_Adjusted_Penalty>
0.00162428

> <i_epik_Tot_Q>
0

> <i_epik_Tot_abs_Q>
0

> <r_epik_Metal_State_Penalty>
-0

> <b_epik_Metal_Only>
0

> <s_lp_Force_Field>
OPLS_2005

> <r_lp_Energy>
52.7106

> <b_lp_Chiralities_Consistent>
1

> <s_lp_Variant>
AV-unprocessed.smi:246-2

> <Gold.Version>
5.8.1

> <Gold.Id.Protein>
6NUR|6NUR_protein|mol2

> <Gold.PLP.Fitness>
48.4626

> <Gold.PLP.PLP>
-42.1113

> <Gold.PLP.part.hbond>
-2.5858

> <Gold.PLP.part.metal>
0.0000

> <Gold.PLP.part.buried>
-4.6289

> <Gold.PLP.part.nonpolar>
-37.4733

> <Gold.PLP.part.repulsive>
2.5561

> <Gold.PLP.ligand.clash>
0.0000

> <Gold.PLP.ligand.torsion>
1.2472

> <Gold.PLP.Chemscore.Hbond>
1.0000

> <Gold.PLP.Chemscore.CHOScore>
1.7777

> <Gold.PLP.Chemscore.Metal>
0.0000

> <Gold.Chemscore.Hbonds>
donor molecule, donor type, donor heavy atom, donor atom, acceptor molecule, acceptor atom, score
      L1  H    22    48       P1  7921  0.94
      L1  C    18    44       P1 10171  0.87
      L1  C    18    44       P1 10175  0.58

> <Gold.PLP.Chemscore.Internal.Correction>
0.5127

> <Gold.Rescore>
     Score         DG    S(hbond)    S(metal)    S(lipo)     H(rot)  DE(clash)    DE(int)     intcor
     10.69     -13.46       0.94        0.00     109.35       3.10       1.19       1.58       ----

> <Gold.Chemscore.Fitness>
10.6915

> <Gold.Chemscore.DG>
-13.4605

> <Gold.Chemscore.ZeroCoef>
-5.4800

> <Gold.Chemscore.Hbond>
0.9370

> <Gold.Chemscore.Metal>
0.0000

> <Gold.Chemscore.Lipo>
109.3473

> <Gold.Chemscore.Internal_Hbond>
0.0000

> <Gold.Chemscore.DEClash>
1.1893

> <Gold.Chemscore.DEInternal>
1.5797

> <Gold.Chemscore.Rot>
3.1026

> <Gold.Chemscore.Internal.Correction>
   9.000000E+99

> <Gold.Chemscore.Hbonds>
donor molecule, donor type, donor heavy atom, donor atom, acceptor molecule, acceptor atom, score
      L1  H    22    48       P1  7921  0.90

> <Gold.Chemscore.Hbond.Weighted>
-3.1295

> <Gold.Chemscore.Metal.Weighted>
-0.0000

> <Gold.Chemscore.Lipo.Weighted>
-12.7936

> <Gold.Chemscore.Internal_Hbond.Weighted>
0.0000

> <Gold.Chemscore.DEClash.Weighted>
1.1893

> <Gold.Chemscore.DEInternal.Weighted>
1.5797

> <Gold.Chemscore.Rot.Weighted>
7.9426

> <Gold.Chemscore.Internal.Correction.Weighted>
   9.000000E+99

> <Gold.Protein.RotatedTorsions>
[ 6907 6896 6895 6894 ] final   96.04 input  -60.11 | X-H torsion
[ 7974 7965 7964 7962 ] final -119.27 input  175.53 | X-H torsion
[ 8008 7997 7996 7995 ] final -148.32 input   59.86 | X-H torsion
[ 10167 10162 10161 10158 ] final  158.84 input  -65.29 | X-H torsion
[ 10718 10713 10712 10709 ] final  -41.55 input   66.30 | X-H torsion
[ 10763 10752 10751 10750 ] final -166.20 input  -60.55 | X-H torsion
[ 11005 11000 10999 10996 ] final -178.23 input  -57.11 | X-H torsion

> <Gold.Protein.ActiveResidues>
 VAL166  LYS551  ARG553  GLY616  TRP617  ASP618  TYR619  PRO620  LYS621  CYS622 
 ASP623  PHE694  ASN695  SER759  ASP760  ASP761  ALA762  ILE779  LEU786  VAL792 
 PHE793  MET794  SER795  GLU796  ALA797  LYS798  CYS799  TRP800  GLU811  SER814 

> <Gold.Protein.RotatedAtoms>
  152.5438  134.0947  159.8291 H   0  0  0  0  0  0  0  0  0  0  0  0  # atno 6907 bound_to 6896
  151.1032  133.5220  159.2616 H   0  0  0  0  0  0  0  0  0  0  0  0  # atno 6908 bound_to 6896
  151.1967  135.0434  159.8909 H   0  0  0  0  0  0  0  0  0  0  0  0  # atno 6909 bound_to 6896
  145.0644  140.8314  143.4133 H   0  0  0  0  0  0  0  0  0  0  0  0  # atno 7974 bound_to 7965
  155.5898  140.0651  157.2762 H   0  0  0  0  0  0  0  0  0  0  0  0  # atno 8008 bound_to 7997
  154.4308  140.1837  156.1109 H   0  0  0  0  0  0  0  0  0  0  0  0  # atno 8009 bound_to 7997
  156.0242  140.3313  155.7074 H   0  0  0  0  0  0  0  0  0  0  0  0  # atno 8010 bound_to 7997
  139.4829  144.4787  151.8475 H   0  0  0  0  0  0  0  0  0  0  0  0  # atno 10167 bound_to 10162
  156.2691  130.4205  149.8457 H   0  0  0  0  0  0  0  0  0  0  0  0  # atno 10718 bound_to 10713
  154.6856  135.2962  154.9552 H   0  0  0  0  0  0  0  0  0  0  0  0  # atno 10763 bound_to 10752
  154.0532  135.6641  153.4807 H   0  0  0  0  0  0  0  0  0  0  0  0  # atno 10764 bound_to 10752
  153.0577  135.5134  154.7922 H   0  0  0  0  0  0  0  0  0  0  0  0  # atno 10765 bound_to 10752
  140.4320  134.6510  157.4716 H   0  0  0  0  0  0  0  0  0  0  0  0  # atno 11005 bound_to 11000
  145.1369  139.2596  143.5510 LP  0  0  0  0  0  0  0  0  0  0  0  0  # atno 17320 bound_to 7965
  146.3526  140.1035  142.8607 LP  0  0  0  0  0  0  0  0  0  0  0  0  # atno 17321 bound_to 7965
  140.4261  144.2178  150.5887 LP  0  0  0  0  0  0  0  0  0  0  0  0  # atno 17342 bound_to 10162
  140.4826  143.2374  151.8934 LP  0  0  0  0  0  0  0  0  0  0  0  0  # atno 17343 bound_to 10162
  156.5945  130.8520  151.3416 LP  0  0  0  0  0  0  0  0  0  0  0  0  # atno 17370 bound_to 10713
  157.7278  130.9647  150.1713 LP  0  0  0  0  0  0  0  0  0  0  0  0  # atno 17371 bound_to 10713
  140.0127  134.6665  155.9355 LP  0  0  0  0  0  0  0  0  0  0  0  0  # atno 17394 bound_to 11000
  141.1741  133.6539  156.4763 LP  0  0  0  0  0  0  0  0  0  0  0  0  # atno 17395 bound_to 11000

$$$$
