#       Name:                AV-unprocessed.smi:1285
#       Creating user name   scv26
#       Creation time:       Fri Mar 27 04:51:24 2020


#       File generated by GOLD software.
#

@<TRIPOS>MOLECULE
AV-unprocessed.smi:1285
    53    54     1
SMALL
NO_CHARGES


@<TRIPOS>ATOM
      1 ****        -2.8225  -1.9897  -0.9870 C.3            1 S1                 0.0000
      2 ****        -1.3792  -1.4606  -0.8951 C.3            1 S1                 0.0000
      3 ****        -1.0456  -0.6267   0.3829 C.3            1 S1                 0.0000
      4 ****        -1.8729   0.6829   0.2778 C.3            1 S1                 0.0000
      5 ****         0.4750  -0.2642   0.3477 C.3            1 S1                 0.0000
      6 ****         0.8866   0.4659  -0.8513 N.am           1 S1                 0.0000
      7 ****         1.1241   1.7856  -0.9247 C.2            1 S1                 0.0000
      8 ****         1.0042   2.5476   0.0353 O.2            1 S1                 0.0000
      9 ****         1.5644   2.3215  -2.2951 C.3            1 S1                 0.0000
     10 ****         1.0066   3.7309  -2.5807 C.3            1 S1                 0.0000
     11 ****         3.0165   2.2619  -2.4118 N.pl3          1 S1                 0.0000
     12 ****         3.7955   1.3063  -2.9241 C.2            1 S1                 0.0000
     13 ****         5.0935   1.5549  -2.8210 N.2            1 S1                 0.0000
     14 ****         5.0440   2.7589  -2.1776 C.2            1 S1                 0.0000
     15 ****         3.8258   3.2223  -1.8987 N.2            1 S1                 0.0000
     16 ****        -1.4122  -1.3722   1.6207 N.3            1 S1                 0.0000
     17 ****        -1.2711  -0.6166   2.8716 C.3            1 S1                 0.0000
     18 ****        -1.8045  -1.4010   4.0823 C.3            1 S1                 0.0000
     19 ****        -1.1361  -2.6532   4.1755 O.3            1 S1                 0.0000
     20 ****        -1.2947  -3.4427   3.0029 C.3            1 S1                 0.0000
     21 ****        -0.7542  -2.6742   1.7852 C.3            1 S1                 0.0000
     22 ****        -2.9593  -2.5659  -1.9022 H              1 S1                 0.0000
     23 ****        -3.5505  -1.1792  -1.0044 H              1 S1                 0.0000
     24 ****        -3.0693  -2.6452  -0.1518 H              1 S1                 0.0000
     25 ****        -0.6912  -2.3007  -0.9885 H              1 S1                 0.0000
     26 ****        -1.1969  -0.8618  -1.7882 H              1 S1                 0.0000
     27 ****        -1.8160   1.1255  -0.7171 H              1 S1                 0.0000
     28 ****        -1.5206   1.4448   0.9734 H              1 S1                 0.0000
     29 ****        -2.9283   0.5118   0.4913 H              1 S1                 0.0000
     30 ****         0.7650   0.2999   1.2341 H              1 S1                 0.0000
     31 ****         1.0806  -1.1697   0.3667 H              1 S1                 0.0000
     32 ****         1.0052  -0.0806  -1.6919 H              1 S1                 0.0000
     33 ****         1.1561   1.6556  -3.0576 H              1 S1                 0.0000
     34 ****        -0.0829   3.7388  -2.5308 H              1 S1                 0.0000
     35 ****         1.2890   4.0646  -3.5795 H              1 S1                 0.0000
     36 ****         1.3732   4.4721  -1.8694 H              1 S1                 0.0000
     37 ****         3.4049   0.4073  -3.3779 H              1 S1                 0.0000
     38 ****         5.9324   3.3068  -1.9003 H              1 S1                 0.0000
     39 ****        -0.2246  -0.3706   3.0509 H              1 S1                 0.0000
     40 ****        -1.8136   0.3258   2.8225 H              1 S1                 0.0000
     41 ****        -1.6370  -0.8389   5.0011 H              1 S1                 0.0000
     42 ****        -2.8806  -1.5597   3.9956 H              1 S1                 0.0000
     43 ****        -0.7534  -4.3803   3.1299 H              1 S1                 0.0000
     44 ****        -2.3470  -3.6962   2.8640 H              1 S1                 0.0000
     45 ****        -0.8975  -3.2996   0.9061 H              1 S1                 0.0000
     46 ****         0.3207  -2.5417   1.9081 H              1 S1                 0.0000
     47 ****         0.7171   2.1906   0.9242 LP             1 S1                 0.0000
     48 ****         1.1939   3.5233  -0.0741 LP             1 S1                 0.0000
     49 ****         5.8799   1.0175  -3.1255 LP             1 S1                 0.0000
     50 ****         3.5716   4.0674  -1.4284 LP             1 S1                 0.0000
     51 ****        -2.3859  -1.5297   1.4560 LP             1 S1                 0.0000
     52 ****        -1.5075  -3.1579   4.9549 LP             1 S1                 0.0000
     53 ****        -0.1609  -2.4864   4.3206 LP             1 S1                 0.0000
@<TRIPOS>BOND
    1    1    2 1     
    2    1   22 1     
    3    1   23 1     
    4    1   24 1     
    5    2    3 1     
    6    2   25 1     
    7    2   26 1     
    8    3    4 1     
    9    3    5 1     
   10    3   16 1     
   11    4   27 1     
   12    4   28 1     
   13    4   29 1     
   14    5    6 1     
   15    5   30 1     
   16    5   31 1     
   17    6    7 am    
   18    6   32 1     
   19    7    8 2     
   20    7    9 1     
   21    9   10 1     
   22    9   11 1     
   23    9   33 1     
   24   10   34 1     
   25   10   35 1     
   26   10   36 1     
   27   11   15 1     
   28   11   12 1     
   29   12   13 2     
   30   12   37 1     
   31   13   14 1     
   32   14   15 2     
   33   14   38 1     
   34   16   21 1     
   35   16   17 1     
   36   17   18 1     
   37   17   39 1     
   38   17   40 1     
   39   18   19 1     
   40   18   41 1     
   41   18   42 1     
   42   19   20 1     
   43   20   21 1     
   44   20   43 1     
   45   20   44 1     
   46   21   45 1     
   47   21   46 1     
   48    8   47 1     
   49    8   48 1     
   50   13   49 1     
   51   15   50 1     
   52   16   51 1     
   53   19   52 1     
   54   19   53 1     
@<TRIPOS>SUBSTRUCTURE
      1 S1             1
@<TRIPOS>SET
LONE_PAIRS      STATIC     ATOMS    <user>   **** ""
7 47 48 49 50 51 52 53
DONOR_HYDROGENS      STATIC     ATOMS    <user>   **** ""
1 32
ATOM$BLUE        STATIC     ATOMS    COLORGROUP SYSTEM
7 47 48 49 50 51 52 53
ATOM$RED        STATIC     ATOMS    COLORGROUP SYSTEM
1 32
