#       Name:                AV-unprocessed.smi:576
#       Creating user name   scv26
#       Creation time:       Thu Mar 26 23:48:57 2020


#       File generated by GOLD software.
#

@<TRIPOS>MOLECULE
AV-unprocessed.smi:576
    39    40     1
SMALL
NO_CHARGES


@<TRIPOS>ATOM
      1 ****        -2.9131  -0.4476   3.1287 C.3            1 S1                 0.0000
      2 ****        -2.4330  -0.2757   1.6808 C.3            1 S1                 0.0000
      3 ****        -0.9772  -0.3725   1.6571 N.am           1 S1                 0.0000
      4 ****        -0.1754   0.1752   0.7311 C.2            1 S1                 0.0000
      5 ****        -0.5913   0.8598  -0.2047 O.2            1 S1                 0.0000
      6 ****         1.3280  -0.0797   0.9078 C.3            1 S1                 0.0000
      7 ****         2.0797  -0.0032  -0.3562 N.am           1 S1                 0.0000
      8 ****         2.7512   1.2039  -0.6334 C.2            1 S1                 0.0000
      9 ****         3.4572   1.4075  -1.7622 C.2            1 S1                 0.0000
     10 ****         4.2124   2.7043  -2.0090 C.3            1 S1                 0.0000
     11 ****         5.2632   2.5053  -2.8051 F              1 S1                 0.0000
     12 ****         3.4096   3.5917  -2.5945 F              1 S1                 0.0000
     13 ****         4.6485   3.2314  -0.8644 F              1 S1                 0.0000
     14 ****         3.5288   0.2941  -2.6882 C.2            1 S1                 0.0000
     15 ****         2.8976  -0.8694  -2.4356 C.2            1 S1                 0.0000
     16 ****         2.1124  -1.0664  -1.2149 C.2            1 S1                 0.0000
     17 ****         1.5227  -2.1211  -0.9781 O.2            1 S1                 0.0000
     18 ****        -3.1184  -1.2728   0.7612 C.3            1 S1                 0.0000
     19 ****        -3.4238  -0.9362  -0.6796 C.3            1 S1                 0.0000
     20 ****        -4.5487  -1.0677   0.3213 C.3            1 S1                 0.0000
     21 ****        -3.9946  -0.3288   3.2003 H              1 S1                 0.0000
     22 ****        -2.4585   0.2945   3.7860 H              1 S1                 0.0000
     23 ****        -2.6617  -1.4358   3.5159 H              1 S1                 0.0000
     24 ****        -2.7187   0.7290   1.3626 H              1 S1                 0.0000
     25 ****        -0.5470  -0.9125   2.3940 H              1 S1                 0.0000
     26 ****         1.7111   0.6437   1.6287 H              1 S1                 0.0000
     27 ****         1.4812  -1.0549   1.3742 H              1 S1                 0.0000
     28 ****         2.6508   1.9603   0.1314 H              1 S1                 0.0000
     29 ****         4.0940   0.3953  -3.6029 H              1 S1                 0.0000
     30 ****         2.9703  -1.6770  -3.1492 H              1 S1                 0.0000
     31 ****        -2.8352  -2.3060   0.9555 H              1 S1                 0.0000
     32 ****        -3.1831   0.0648  -1.0319 H              1 S1                 0.0000
     33 ****        -3.3063  -1.7298  -1.4148 H              1 S1                 0.0000
     34 ****        -5.1838  -1.9486   0.2529 H              1 S1                 0.0000
     35 ****        -5.0501  -0.1537   0.6337 H              1 S1                 0.0000
     36 ****        -1.5717   1.0310  -0.3018 LP             1 S1                 0.0000
     37 ****         0.0515   1.2443  -0.8672 LP             1 S1                 0.0000
     38 ****         0.9969  -2.2212  -0.1334 LP             1 S1                 0.0000
     39 ****         1.5697  -2.8776  -1.6304 LP             1 S1                 0.0000
@<TRIPOS>BOND
    1    1    2 1     
    2    1   21 1     
    3    1   22 1     
    4    1   23 1     
    5    2    3 1     
    6    2   18 1     
    7    2   24 1     
    8    3    4 am    
    9    3   25 1     
   10    4    5 2     
   11    4    6 1     
   12    6    7 1     
   13    6   26 1     
   14    6   27 1     
   15    7   16 am    
   16    7    8 1     
   17    8    9 2     
   18    8   28 1     
   19    9   10 1     
   20    9   14 1     
   21   10   11 1     
   22   10   12 1     
   23   10   13 1     
   24   14   15 2     
   25   14   29 1     
   26   15   16 1     
   27   15   30 1     
   28   16   17 2     
   29   18   20 1     
   30   18   19 1     
   31   18   31 1     
   32   19   20 1     
   33   19   32 1     
   34   19   33 1     
   35   20   34 1     
   36   20   35 1     
   37    5   36 1     
   38    5   37 1     
   39   17   38 1     
   40   17   39 1     
@<TRIPOS>SUBSTRUCTURE
      1 S1             1
@<TRIPOS>SET
LONE_PAIRS      STATIC     ATOMS    <user>   **** ""
4 36 37 38 39
DONOR_HYDROGENS      STATIC     ATOMS    <user>   **** ""
1 25
ATOM$BLUE        STATIC     ATOMS    COLORGROUP SYSTEM
4 36 37 38 39
ATOM$RED        STATIC     ATOMS    COLORGROUP SYSTEM
1 25
