AV-unprocessed.smi:1423|AV-procd|sdf|5798|dock3
  -GOLD-   22720 5453D 1   1.00000     0.00000
 Structure written by MMmdl.
 43 44  0  0  0  0  0  0  0  0  3 V2000
  150.6682  141.7308  157.6637 C   0  0  0  0  0  0  0  0  0  0  0  0
  151.0434  141.2769  156.3680 O   0  0  0  0  0  0  0  0  0  0  0  0
  150.4552  140.1282  155.8795 C   0  0  0  0  0  0  0  0  0  0  0  0
  149.7764  139.2840  156.7802 C   0  0  0  0  0  0  0  0  0  0  0  0
  149.1729  138.1096  156.2916 C   0  0  0  0  0  0  0  0  0  0  0  0
  149.2607  137.8187  154.9089 C   0  0  0  0  0  0  0  0  0  0  0  0
  148.7125  136.6597  154.2937 N   0  0  0  0  0  0  0  0  0  0  0  0
  147.8869  135.7387  154.8206 C   0  0  0  0  0  0  0  0  0  0  0  0
  147.4138  135.7708  155.9560 O   0  0  0  0  0  0  0  0  0  0  0  0
  147.6196  134.7645  153.9385 N   0  0  0  0  0  0  0  0  0  0  0  0
  146.7528  133.6131  154.1910 C   0  0  2  0  0  0  0  0  0  0  0  0
  146.8885  132.5431  153.0896 C   0  0  0  0  0  0  0  0  0  0  0  0
  146.2630  133.0002  151.7602 C   0  0  0  0  0  0  0  0  0  0  0  0
  144.8387  133.3886  151.9431 N   0  3  2  0  0  0  0  0  0  0  0  0
  144.1525  133.7095  150.6667 C   0  0  0  0  0  0  0  0  0  0  0  0
  144.1945  132.5023  149.7238 C   0  0  0  0  0  0  0  0  0  0  0  0
  142.9649  132.0587  149.4013 N   0  5  0  0  0  0  0  0  0  0  0  0
  145.2792  132.0656  149.3442 O   0  0  0  0  0  0  0  0  0  0  0  0
  144.6924  134.4709  152.9490 C   0  0  0  0  0  0  0  0  0  0  0  0
  145.2839  134.0552  154.3083 C   0  0  0  0  0  0  0  0  0  0  0  0
  149.9732  138.7234  154.0941 C   0  0  0  0  0  0  0  0  0  0  0  0
  150.5545  139.8506  154.5560 N   0  0  0  0  0  0  0  0  0  0  0  0
  151.2250  142.6366  157.9029 H   0  0  0  0  0  0  0  0  0  0  0  0
  150.8996  140.9888  158.4292 H   0  0  0  0  0  0  0  0  0  0  0  0
  149.6057  141.9739  157.7093 H   0  0  0  0  0  0  0  0  0  0  0  0
  149.7228  139.5308  157.8302 H   0  0  0  0  0  0  0  0  0  0  0  0
  148.6716  137.4569  156.9886 H   0  0  0  0  0  0  0  0  0  0  0  0
  148.9510  136.5368  153.3206 H   0  0  0  0  0  0  0  0  0  0  0  0
  148.0439  134.8244  153.0246 H   0  0  0  0  0  0  0  0  0  0  0  0
  147.0480  133.1736  155.1457 H   0  0  0  0  0  0  0  0  0  0  0  0
  147.9350  132.2764  152.9378 H   0  0  0  0  0  0  0  0  0  0  0  0
  146.3916  131.6289  153.4175 H   0  0  0  0  0  0  0  0  0  0  0  0
  146.8218  133.8421  151.3483 H   0  0  0  0  0  0  0  0  0  0  0  0
  146.3424  132.1892  151.0357 H   0  0  0  0  0  0  0  0  0  0  0  0
  143.0997  133.9255  150.8533 H   0  0  0  0  0  0  0  0  0  0  0  0
  144.5789  134.6110  150.2213 H   0  0  0  0  0  0  0  0  0  0  0  0
  142.2026  132.7413  149.3111 H   0  0  0  0  0  0  0  0  0  0  0  0
  145.1770  135.3773  152.5827 H   0  0  0  0  0  0  0  0  0  0  0  0
  143.6363  134.7090  153.0802 H   0  0  0  0  0  0  0  0  0  0  0  0
  144.6948  133.2304  154.7121 H   0  0  0  0  0  0  0  0  0  0  0  0
  145.1895  134.8725  155.0244 H   0  0  0  0  0  0  0  0  0  0  0  0
  150.0799  138.5393  153.0350 H   0  0  0  0  0  0  0  0  0  0  0  0
  144.3585  132.5823  152.3171 H   0  0  0  0  0  0  0  0  0  0  0  0
  1  2  1  0  0  0  0
  1 23  1  0  0  0  0
  1 24  1  0  0  0  0
  1 25  1  0  0  0  0
  2  3  1  0  0  0  0
  3 22  1  0  0  0  0
  3  4  2  0  0  0  0
  4  5  1  0  0  0  0
  4 26  1  0  0  0  0
  5  6  2  0  0  0  0
  5 27  1  0  0  0  0
  6  7  1  0  0  0  0
  6 21  1  0  0  0  0
  7  8  1  0  0  0  0
  7 28  1  0  0  0  0
  8  9  2  0  0  0  0
  8 10  1  0  0  0  0
 10 11  1  0  0  0  0
 10 29  1  0  0  0  0
 11 20  1  0  0  0  0
 11 12  1  0  0  0  0
 11 30  1  0  0  0  0
 12 13  1  0  0  0  0
 12 31  1  0  0  0  0
 12 32  1  0  0  0  0
 13 14  1  0  0  0  0
 13 33  1  0  0  0  0
 13 34  1  0  0  0  0
 14 15  1  0  0  0  0
 14 19  1  0  0  0  0
 14 43  1  0  0  0  0
 15 16  1  0  0  0  0
 15 35  1  0  0  0  0
 15 36  1  0  0  0  0
 16 17  1  0  0  0  0
 16 18  2  0  0  0  0
 17 37  1  0  0  0  0
 19 20  1  0  0  0  0
 19 38  1  0  0  0  0
 19 39  1  0  0  0  0
 20 40  1  0  0  0  0
 20 41  1  0  0  0  0
 21 22  2  0  0  0  0
 21 42  1  0  0  0  0
M  CHG  1  14   1
M  CHG  1  17  -1
M  END
> <s_m_source_file>
AV-unprocessed.smi

> <i_m_source_file_index>
1423

> <i_lp_mmshare_version>
43012

> <i_f3d_flags>
0

> <s_epik_input>
W0NIM11PYzFbY0hdW2NIXWMoW2NIXW4xKVtOSF1DKD1PKVtOSF1bQ0hdMltDSDJdW0NIMl1OKFtDSDJdW0NIMl0yKVtDSDJdQyg9TylbTkgyXQ==

> <s_epik_cmdline>
J2VwaWtfcHl0aG9uJywgJy1waCcsICc3LjAnLCAnLXRuJywgJzgnLCAnLW1hJywgJzIwMCcsICctbWV0YWxfYmluZGluZycsICctaW1hZScsICc8aW5maWxlLm1hZT4nLCAnLW9tYWUnLCAnPG91dGZpbGUubWFlPic=

> <r_lp_tautomer_probability>
1

> <r_epik_Ionization_Penalty>
5.72888

> <r_epik_Ionization_Penalty_Charging>
5.7288

> <r_epik_Ionization_Penalty_Neutral>
7.8452e-05

> <r_epik_State_Penalty>
6.54882

> <r_epik_Charging_Adjusted_Penalty>
12.2776

> <i_epik_Tot_Q>
0

> <i_epik_Tot_abs_Q>
2

> <r_epik_Metal_State_Penalty>
2.51301

> <b_epik_Metal_Only>
1

> <s_lp_Force_Field>
OPLS_2005

> <r_lp_Energy>
11.3515

> <b_lp_Chiralities_Consistent>
1

> <s_lp_Variant>
AV-unprocessed.smi:1423-5

> <Gold.Version>
5.8.1

> <Gold.Id.Protein>
6NUR|6NUR_protein|mol2

> <Gold.PLP.Fitness>
45.3640

> <Gold.PLP.PLP>
-28.2656

> <Gold.PLP.part.hbond>
-5.7102

> <Gold.PLP.part.metal>
0.0000

> <Gold.PLP.part.buried>
-6.8751

> <Gold.PLP.part.nonpolar>
-17.1055

> <Gold.PLP.part.repulsive>
0.3261

> <Gold.PLP.ligand.clash>
0.0000

> <Gold.PLP.ligand.torsion>
0.3252

> <Gold.PLP.Chemscore.Hbond>
4.5713

> <Gold.PLP.Chemscore.CHOScore>
1.3285

> <Gold.PLP.Chemscore.Metal>
0.0000

> <Gold.Chemscore.Hbonds>
donor molecule, donor type, donor heavy atom, donor atom, acceptor molecule, acceptor atom, score
      L1  H     7    28       P1  7948  0.86
      L1  H    10    29       P1  7948  0.80
      L1  H    17    37       P1 10186  0.91
      P1  H  7989  7998       L1    22  1.00
      P1  H 10785 10796       L1    17  0.98
      L1  C    21    42       P1  7948  0.33
      L1  C    21    42       P1  7957  1.00

> <Gold.PLP.Chemscore.Internal.Correction>
0.0496

> <Gold.Rescore>
     Score         DG    S(hbond)    S(metal)    S(lipo)     H(rot)  DE(clash)    DE(int)     intcor
     16.43     -19.37       4.28        0.00      46.67       2.29       0.00       2.94       ----

> <Gold.Chemscore.Fitness>
16.4263

> <Gold.Chemscore.DG>
-19.3675

> <Gold.Chemscore.ZeroCoef>
-5.4800

> <Gold.Chemscore.Hbond>
4.2778

> <Gold.Chemscore.Metal>
0.0000

> <Gold.Chemscore.Lipo>
46.6710

> <Gold.Chemscore.Internal_Hbond>
0.0000

> <Gold.Chemscore.DEClash>
0.0015

> <Gold.Chemscore.DEInternal>
2.9398

> <Gold.Chemscore.Rot>
2.2894

> <Gold.Chemscore.Internal.Correction>
   9.000000E+99

> <Gold.Chemscore.Hbonds>
donor molecule, donor type, donor heavy atom, donor atom, acceptor molecule, acceptor atom, score
      L1  H     7    28       P1  7948  0.84
      L1  H    10    29       P1  7948  0.67
      L1  H    17    37       P1 10186  0.88
      P1  H  7989  7998       L1    22  0.96
      P1  H 10785 10796       L1    17  0.55

> <Gold.Chemscore.Hbond.Weighted>
-14.2878

> <Gold.Chemscore.Metal.Weighted>
-0.0000

> <Gold.Chemscore.Lipo.Weighted>
-5.4605

> <Gold.Chemscore.Internal_Hbond.Weighted>
0.0000

> <Gold.Chemscore.DEClash.Weighted>
0.0015

> <Gold.Chemscore.DEInternal.Weighted>
2.9398

> <Gold.Chemscore.Rot.Weighted>
5.8608

> <Gold.Chemscore.Internal.Correction.Weighted>
   9.000000E+99

> <Gold.Protein.RotatedTorsions>
[ 6907 6896 6895 6894 ] final   86.76 input  -60.11 | X-H torsion
[ 7974 7965 7964 7962 ] final  156.10 input  175.53 | X-H torsion
[ 8008 7997 7996 7995 ] final  -79.82 input   59.86 | X-H torsion
[ 10167 10162 10161 10158 ] final  152.91 input  -65.29 | X-H torsion
[ 10718 10713 10712 10709 ] final  -69.40 input   66.30 | X-H torsion
[ 10763 10752 10751 10750 ] final  162.31 input  -60.55 | X-H torsion
[ 11005 11000 10999 10996 ] final  145.46 input  -57.11 | X-H torsion

> <Gold.Protein.ActiveResidues>
 VAL166  LYS551  ARG553  GLY616  TRP617  ASP618  TYR619  PRO620  LYS621  CYS622 
 ASP623  PHE694  ASN695  SER759  ASP760  ASP761  ALA762  ILE779  LEU786  VAL792 
 PHE793  MET794  SER795  GLU796  ALA797  LYS798  CYS799  TRP800  GLU811  SER814 

> <Gold.Protein.RotatedAtoms>
  152.5400  134.2381  159.8851 H   0  0  0  0  0  0  0  0  0  0  0  0  # atno 6907 bound_to 6896
  151.2350  133.4423  159.2612 H   0  0  0  0  0  0  0  0  0  0  0  0  # atno 6908 bound_to 6896
  151.0680  134.9793  159.8350 H   0  0  0  0  0  0  0  0  0  0  0  0  # atno 6909 bound_to 6896
  144.7983  139.7158  143.6192 H   0  0  0  0  0  0  0  0  0  0  0  0  # atno 7974 bound_to 7965
  154.5822  140.0672  156.9121 H   0  0  0  0  0  0  0  0  0  0  0  0  # atno 8008 bound_to 7997
  155.2442  140.3347  155.4271 H   0  0  0  0  0  0  0  0  0  0  0  0  # atno 8009 bound_to 7997
  156.2197  140.1793  156.7490 H   0  0  0  0  0  0  0  0  0  0  0  0  # atno 8010 bound_to 7997
  139.4830  144.5318  151.7710 H   0  0  0  0  0  0  0  0  0  0  0  0  # atno 10167 bound_to 10162
  156.0457  130.4312  150.2142 H   0  0  0  0  0  0  0  0  0  0  0  0  # atno 10718 bound_to 10713
  154.2764  135.2764  155.2716 H   0  0  0  0  0  0  0  0  0  0  0  0  # atno 10763 bound_to 10752
  154.5257  135.5744  153.6720 H   0  0  0  0  0  0  0  0  0  0  0  0  # atno 10764 bound_to 10752
  152.9936  135.6215  154.2921 H   0  0  0  0  0  0  0  0  0  0  0  0  # atno 10765 bound_to 10752
  140.0714  134.9149  157.1351 H   0  0  0  0  0  0  0  0  0  0  0  0  # atno 11005 bound_to 11000
  146.2258  139.5720  142.9588 LP  0  0  0  0  0  0  0  0  0  0  0  0  # atno 17320 bound_to 7965
  145.5616  141.0404  143.2223 LP  0  0  0  0  0  0  0  0  0  0  0  0  # atno 17321 bound_to 7965
  140.4845  144.1401  150.5938 LP  0  0  0  0  0  0  0  0  0  0  0  0  # atno 17342 bound_to 10162
  140.4240  143.2598  151.9679 LP  0  0  0  0  0  0  0  0  0  0  0  0  # atno 17343 bound_to 10162
  157.0232  130.9985  151.3333 LP  0  0  0  0  0  0  0  0  0  0  0  0  # atno 17370 bound_to 10713
  157.5329  130.8070  149.7938 LP  0  0  0  0  0  0  0  0  0  0  0  0  # atno 17371 bound_to 10713
  140.3621  134.2482  155.7186 LP  0  0  0  0  0  0  0  0  0  0  0  0  # atno 17394 bound_to 11000
  141.2013  133.7965  157.0446 LP  0  0  0  0  0  0  0  0  0  0  0  0  # atno 17395 bound_to 11000

$$$$
