AV-unprocessed.smi:333|AV-procd|sdf|2360|dock1
  -GOLD-   2262022273D 1   1.00000     0.00000
 Structure written by MMmdl.
 25 25  0  0  0  0  0  0  0  0  2 V2000
  147.9356  142.2333  155.7601 N   0  0  0  0  0  0  0  0  0  0  0  0
  148.5423  141.1515  156.2647 C   0  0  0  0  0  0  0  0  0  0  0  0
  148.1557  140.0370  155.9119 O   0  0  0  0  0  0  0  0  0  0  0  0
  149.6347  141.4607  157.2159 C   0  0  0  0  0  0  0  0  0  0  0  0
  149.6448  142.5654  158.0043 C   0  0  0  0  0  0  0  0  0  0  0  0
  150.7254  142.8568  158.9351 C   0  0  0  0  0  0  0  0  0  0  0  0
  150.6794  144.1220  159.7833 C   0  0  0  0  0  0  0  0  0  0  0  0
  149.3098  144.8196  159.7463 C   0  0  0  0  0  0  0  0  0  0  0  0
  148.3186  144.0161  160.3505 O   0  0  0  0  0  0  0  0  0  0  0  0
  151.7658  141.9216  158.9438 C   0  0  0  0  0  0  0  0  0  0  0  0
  152.9906  142.0999  159.8576 C   0  0  0  0  0  0  0  0  0  0  0  0
  153.6737  143.1931  159.5154 F   0  0  0  0  0  0  0  0  0  0  0  0
  152.6207  142.2146  161.1332 F   0  0  0  0  0  0  0  0  0  0  0  0
  153.8326  141.0655  159.7808 F   0  0  0  0  0  0  0  0  0  0  0  0
  151.7747  140.8038  158.1655 N   0  5  0  0  0  0  0  0  0  0  0  0
  150.7686  140.5105  157.2960 C   0  0  0  0  0  0  0  0  0  0  0  0
  150.8229  139.4867  156.6135 O   0  0  0  0  0  0  0  0  0  0  0  0
  147.1761  142.1217  155.1049 H   0  0  0  0  0  0  0  0  0  0  0  0
  148.2391  143.1543  156.0400 H   0  0  0  0  0  0  0  0  0  0  0  0
  148.8378  143.2815  157.9665 H   0  0  0  0  0  0  0  0  0  0  0  0
  150.9671  143.9312  160.8151 H   0  0  0  0  0  0  0  0  0  0  0  0
  151.4350  144.8046  159.3931 H   0  0  0  0  0  0  0  0  0  0  0  0
  149.3595  145.7691  160.2795 H   0  0  0  0  0  0  0  0  0  0  0  0
  149.0137  145.0446  158.7213 H   0  0  0  0  0  0  0  0  0  0  0  0
  147.7256  143.7144  159.6800 H   0  0  0  0  0  0  0  0  0  0  0  0
  1  2  1  0  0  0  0
  1 18  1  0  0  0  0
  1 19  1  0  0  0  0
  2  3  2  0  0  0  0
  2  4  1  0  0  0  0
  4 16  1  0  0  0  0
  4  5  2  0  0  0  0
  5  6  1  0  0  0  0
  5 20  1  0  0  0  0
  6  7  1  0  0  0  0
  6 10  2  0  0  0  0
  7  8  1  0  0  0  0
  7 21  1  0  0  0  0
  7 22  1  0  0  0  0
  8  9  1  0  0  0  0
  8 23  1  0  0  0  0
  8 24  1  0  0  0  0
  9 25  1  0  0  0  0
 10 11  1  0  0  0  0
 10 15  1  0  0  0  0
 11 12  1  0  0  0  0
 11 13  1  0  0  0  0
 11 14  1  0  0  0  0
 15 16  1  0  0  0  0
 16 17  2  0  0  0  0
M  CHG  1  15  -1
M  END
> <s_m_source_file>
AV-unprocessed.smi

> <i_m_source_file_index>
333

> <i_lp_mmshare_version>
43012

> <i_f3d_flags>
0

> <s_epik_input>
W05IMl1DKD1PKWMxW2NIXWMoW0NIMl1bQ0gyXVtPSF0pYyhDKEYpKEYpRilbbkhdYzE9Tw==

> <s_epik_cmdline>
J2VwaWtfcHl0aG9uJywgJy1waCcsICc3LjAnLCAnLXRuJywgJzgnLCAnLW1hJywgJzIwMCcsICctbWV0YWxfYmluZGluZycsICctaW1hZScsICc8aW5maWxlLm1hZT4nLCAnLW9tYWUnLCAnPG91dGZpbGUubWFlPic=

> <r_epik_Ionization_Penalty>
0.0673264

> <r_epik_Ionization_Penalty_Charging>
0.00196754

> <r_epik_Ionization_Penalty_Neutral>
0.0653589

> <r_epik_State_Penalty>
0.0569931

> <r_epik_Charging_Adjusted_Penalty>
0.0589607

> <i_epik_Tot_Q>
-1

> <i_epik_Tot_abs_Q>
1

> <r_epik_Metal_State_Penalty>
0.0511714

> <b_epik_Metal_Only>
0

> <s_lp_Force_Field>
OPLS_2005

> <r_lp_Energy>
33.2875

> <b_lp_Chiralities_Consistent>
1

> <s_lp_Variant>
AV-unprocessed.smi:333-1

> <Gold.Version>
5.8.1

> <Gold.Id.Protein>
6NUR|6NUR_protein|mol2

> <Gold.PLP.Fitness>
32.5775

> <Gold.PLP.PLP>
-27.6340

> <Gold.PLP.part.hbond>
-2.0000

> <Gold.PLP.part.metal>
0.0000

> <Gold.PLP.part.buried>
-4.2083

> <Gold.PLP.part.nonpolar>
-20.1445

> <Gold.PLP.part.repulsive>
0.0724

> <Gold.PLP.ligand.clash>
4.2957

> <Gold.PLP.ligand.torsion>
0.5503

> <Gold.PLP.Chemscore.Hbond>
1.9920

> <Gold.PLP.Chemscore.CHOScore>
0.0000

> <Gold.PLP.Chemscore.Metal>
0.0000

> <Gold.Chemscore.Hbonds>
donor molecule, donor type, donor heavy atom, donor atom, acceptor molecule, acceptor atom, score
      L1  H     1    19       P1  8028  1.00
      P1  H  6933  6944       L1     9  1.00

> <Gold.PLP.Chemscore.Internal.Correction>
4.3637

> <Gold.Rescore>
     Score         DG    S(hbond)    S(metal)    S(lipo)     H(rot)  DE(clash)    DE(int)     intcor
      8.26     -11.68       1.84        0.00      46.54       2.11       0.00       3.42       ----

> <Gold.Chemscore.Fitness>
8.2587

> <Gold.Chemscore.DG>
-11.6764

> <Gold.Chemscore.ZeroCoef>
-5.4800

> <Gold.Chemscore.Hbond>
1.8410

> <Gold.Chemscore.Metal>
0.0000

> <Gold.Chemscore.Lipo>
46.5393

> <Gold.Chemscore.Internal_Hbond>
0.0000

> <Gold.Chemscore.DEClash>
0.0000

> <Gold.Chemscore.DEInternal>
3.4177

> <Gold.Chemscore.Rot>
2.1084

> <Gold.Chemscore.Internal.Correction>
   9.000000E+99

> <Gold.Chemscore.Hbonds>
donor molecule, donor type, donor heavy atom, donor atom, acceptor molecule, acceptor atom, score
      L1  H     1    19       P1  8028  0.71
      P1  H  6933  6944       L1     9  0.28

> <Gold.Chemscore.Hbond.Weighted>
-6.1489

> <Gold.Chemscore.Metal.Weighted>
-0.0000

> <Gold.Chemscore.Lipo.Weighted>
-5.4451

> <Gold.Chemscore.Internal_Hbond.Weighted>
0.0000

> <Gold.Chemscore.DEClash.Weighted>
0.0000

> <Gold.Chemscore.DEInternal.Weighted>
3.4177

> <Gold.Chemscore.Rot.Weighted>
5.3976

> <Gold.Chemscore.Internal.Correction.Weighted>
   9.000000E+99

> <Gold.Protein.RotatedTorsions>
[ 6907 6896 6895 6894 ] final  104.73 input  -60.11 | X-H torsion
[ 7974 7965 7964 7962 ] final  141.30 input  175.53 | X-H torsion
[ 8008 7997 7996 7995 ] final  158.77 input   59.86 | X-H torsion
[ 10167 10162 10161 10158 ] final  -42.38 input  -65.29 | X-H torsion
[ 10718 10713 10712 10709 ] final  106.29 input   66.30 | X-H torsion
[ 10763 10752 10751 10750 ] final -168.35 input  -60.55 | X-H torsion
[ 11005 11000 10999 10996 ] final   89.88 input  -57.11 | X-H torsion

> <Gold.Protein.ActiveResidues>
 VAL166  LYS551  ARG553  GLY616  TRP617  ASP618  TYR619  PRO620  LYS621  CYS622 
 ASP623  PHE694  ASN695  SER759  ASP760  ASP761  ALA762  ILE779  LEU786  VAL792 
 PHE793  MET794  SER795  GLU796  ALA797  LYS798  CYS799  TRP800  GLU811  SER814 

> <Gold.Protein.RotatedAtoms>
  152.5254  133.9633  159.7727 H   0  0  0  0  0  0  0  0  0  0  0  0  # atno 6907 bound_to 6896
  150.9919  133.6133  159.2714 H   0  0  0  0  0  0  0  0  0  0  0  0  # atno 6908 bound_to 6896
  151.3273  135.0839  159.9379 H   0  0  0  0  0  0  0  0  0  0  0  0  # atno 6909 bound_to 6896
  144.9109  139.5295  143.5709 H   0  0  0  0  0  0  0  0  0  0  0  0  # atno 7974 bound_to 7965
  156.2282  140.1849  156.7310 H   0  0  0  0  0  0  0  0  0  0  0  0  # atno 8008 bound_to 7997
  154.5976  140.0641  156.9353 H   0  0  0  0  0  0  0  0  0  0  0  0  # atno 8009 bound_to 7997
  155.2228  140.3309  155.4316 H   0  0  0  0  0  0  0  0  0  0  0  0  # atno 8010 bound_to 7997
  140.6971  143.3041  151.3201 H   0  0  0  0  0  0  0  0  0  0  0  0  # atno 10167 bound_to 10162
  157.6674  131.0847  150.5984 H   0  0  0  0  0  0  0  0  0  0  0  0  # atno 10718 bound_to 10713
  154.6637  135.2929  154.9833 H   0  0  0  0  0  0  0  0  0  0  0  0  # atno 10763 bound_to 10752
  154.0884  135.6594  153.4852 H   0  0  0  0  0  0  0  0  0  0  0  0  # atno 10764 bound_to 10752
  153.0445  135.5214  154.7600 H   0  0  0  0  0  0  0  0  0  0  0  0  # atno 10765 bound_to 10752
  139.8866  134.8579  156.3205 H   0  0  0  0  0  0  0  0  0  0  0  0  # atno 11005 bound_to 11000
  146.3158  139.7914  142.8985 LP  0  0  0  0  0  0  0  0  0  0  0  0  # atno 17320 bound_to 7965
  145.3457  141.0297  143.3367 LP  0  0  0  0  0  0  0  0  0  0  0  0  # atno 17321 bound_to 7965
  139.6440  144.0486  152.2576 LP  0  0  0  0  0  0  0  0  0  0  0  0  # atno 17342 bound_to 10162
  140.0001  144.6300  150.7737 LP  0  0  0  0  0  0  0  0  0  0  0  0  # atno 17343 bound_to 10162
  156.6285  130.4425  149.5795 LP  0  0  0  0  0  0  0  0  0  0  0  0  # atno 17370 bound_to 10713
  156.2300  130.6789  151.1454 LP  0  0  0  0  0  0  0  0  0  0  0  0  # atno 17371 bound_to 10713
  140.9790  133.7279  156.0644 LP  0  0  0  0  0  0  0  0  0  0  0  0  # atno 17394 bound_to 11000
  140.7774  134.3764  157.5495 LP  0  0  0  0  0  0  0  0  0  0  0  0  # atno 17395 bound_to 11000

$$$$
