AV-unprocessed.smi:2245|AV-procd|sdf|9077|dock3
  -GOLD-   2272012283D 1   1.00000     0.00000
 Structure written by MMmdl.
 44 45  0  0  0  0  0  0  0  0  1 V2000
  152.1200  145.8521  160.2788 C   0  0  0  0  0  0  0  0  0  0  0  0
  152.1117  144.4974  159.6015 C   0  0  0  0  0  0  0  0  0  0  0  0
  152.9282  143.4501  160.0693 C   0  0  0  0  0  0  0  0  0  0  0  0
  152.8753  142.2143  159.3951 C   0  0  0  0  0  0  0  0  0  0  0  0
  153.7282  141.0464  159.8438 C   0  0  0  0  0  0  0  0  0  0  0  0
  152.0824  141.9917  158.3250 N   0  0  0  0  0  0  0  0  0  0  0  0
  151.2919  142.9932  157.8654 C   0  0  0  0  0  0  0  0  0  0  0  0
  150.4205  142.8620  156.7517 N   0  0  0  0  0  0  0  0  0  0  0  0
  150.1196  141.7511  156.0562 C   0  0  0  0  0  0  0  0  0  0  0  0
  150.5794  140.6291  156.2715 O   0  0  0  0  0  0  0  0  0  0  0  0
  149.2434  142.0184  155.0766 N   0  0  0  0  0  0  0  0  0  0  0  0
  148.7077  141.0500  154.1244 C   0  0  0  0  0  0  0  0  0  0  0  0
  147.1850  141.2051  153.9507 C   0  0  1  0  0  0  0  0  0  0  0  0
  146.3668  140.9427  155.2134 C   0  0  0  0  0  0  0  0  0  0  0  0
  145.2065  141.9212  155.0879 C   0  0  0  0  0  0  0  0  0  0  0  0
  145.8652  143.1076  154.5605 N   0  0  0  0  0  0  0  0  0  0  0  0
  144.9458  144.1198  154.0436 C   0  0  0  0  0  0  0  0  0  0  0  0
  143.9945  144.6849  155.1164 C   0  0  0  0  0  0  0  0  0  0  0  0
  143.5476  145.8708  154.7050 F   0  0  0  0  0  0  0  0  0  0  0  0
  142.9422  143.8896  155.3076 F   0  0  0  0  0  0  0  0  0  0  0  0
  144.6384  144.8532  156.2718 F   0  0  0  0  0  0  0  0  0  0  0  0
  146.7562  142.6152  153.5132 C   0  0  0  0  0  0  0  0  0  0  0  0
  151.2838  144.2633  158.4850 C   0  0  0  0  0  0  0  0  0  0  0  0
  152.7141  145.8346  161.1930 H   0  0  0  0  0  0  0  0  0  0  0  0
  151.1049  146.1527  160.5391 H   0  0  0  0  0  0  0  0  0  0  0  0
  152.5415  146.6041  159.6114 H   0  0  0  0  0  0  0  0  0  0  0  0
  153.5778  143.5896  160.9212 H   0  0  0  0  0  0  0  0  0  0  0  0
  154.1576  141.2279  160.8294 H   0  0  0  0  0  0  0  0  0  0  0  0
  154.5442  140.8838  159.1394 H   0  0  0  0  0  0  0  0  0  0  0  0
  153.1325  140.1344  159.8970 H   0  0  0  0  0  0  0  0  0  0  0  0
  149.9699  143.7136  156.4522 H   0  0  0  0  0  0  0  0  0  0  0  0
  148.9222  142.9703  154.9783 H   0  0  0  0  0  0  0  0  0  0  0  0
  149.2120  141.1211  153.1589 H   0  0  0  0  0  0  0  0  0  0  0  0
  148.9305  140.0548  154.5097 H   0  0  0  0  0  0  0  0  0  0  0  0
  146.8543  140.5099  153.1773 H   0  0  0  0  0  0  0  0  0  0  0  0
  146.0371  139.9065  155.2947 H   0  0  0  0  0  0  0  0  0  0  0  0
  146.9462  141.1807  156.1068 H   0  0  0  0  0  0  0  0  0  0  0  0
  144.4635  141.5478  154.3811 H   0  0  0  0  0  0  0  0  0  0  0  0
  144.7218  142.1042  156.0467 H   0  0  0  0  0  0  0  0  0  0  0  0
  145.5448  144.9440  153.6536 H   0  0  0  0  0  0  0  0  0  0  0  0
  144.3779  143.7215  153.2015 H   0  0  0  0  0  0  0  0  0  0  0  0
  147.5990  143.2942  153.3794 H   0  0  0  0  0  0  0  0  0  0  0  0
  146.2257  142.5504  152.5617 H   0  0  0  0  0  0  0  0  0  0  0  0
  150.6489  145.0528  158.1093 H   0  0  0  0  0  0  0  0  0  0  0  0
  1  2  1  0  0  0  0
  1 24  1  0  0  0  0
  1 25  1  0  0  0  0
  1 26  1  0  0  0  0
  2 23  1  0  0  0  0
  2  3  2  0  0  0  0
  3  4  1  0  0  0  0
  3 27  1  0  0  0  0
  4  5  1  0  0  0  0
  4  6  2  0  0  0  0
  5 28  1  0  0  0  0
  5 29  1  0  0  0  0
  5 30  1  0  0  0  0
  6  7  1  0  0  0  0
  7  8  1  0  0  0  0
  7 23  2  0  0  0  0
  8  9  1  0  0  0  0
  8 31  1  0  0  0  0
  9 10  2  0  0  0  0
  9 11  1  0  0  0  0
 11 12  1  0  0  0  0
 11 32  1  0  0  0  0
 12 13  1  0  0  0  0
 12 33  1  0  0  0  0
 12 34  1  0  0  0  0
 13 22  1  0  0  0  0
 13 14  1  0  0  0  0
 13 35  1  0  0  0  0
 14 15  1  0  0  0  0
 14 36  1  0  0  0  0
 14 37  1  0  0  0  0
 15 16  1  0  0  0  0
 15 38  1  0  0  0  0
 15 39  1  0  0  0  0
 16 17  1  0  0  0  0
 16 22  1  0  0  0  0
 17 18  1  0  0  0  0
 17 40  1  0  0  0  0
 17 41  1  0  0  0  0
 18 19  1  0  0  0  0
 18 20  1  0  0  0  0
 18 21  1  0  0  0  0
 22 42  1  0  0  0  0
 22 43  1  0  0  0  0
 23 44  1  0  0  0  0
M  END
> <s_m_source_file>
AV-unprocessed.smi

> <i_m_source_file_index>
2245

> <i_lp_mmshare_version>
43012

> <i_f3d_flags>
0

> <s_epik_input>
W0NIM11jMVtjSF1jKFtDSDNdKW5jKFtjSF0xKVtOSF1DKD1PKVtOSF1bQ0gyXVtDQEBIXTJbQ0gyXVtDSDJdTihbQ0gyXTIpW0NIMl1DKEYpKEYpRg==

> <s_epik_cmdline>
J2VwaWtfcHl0aG9uJywgJy1waCcsICc3LjAnLCAnLXRuJywgJzgnLCAnLW1hJywgJzIwMCcsICctbWV0YWxfYmluZGluZycsICctaW1hZScsICc8aW5maWxlLm1hZT4nLCAnLW9tYWUnLCAnPG91dGZpbGUubWFlPic=

> <r_epik_Ionization_Penalty>
0.252219

> <r_epik_Ionization_Penalty_Charging>
0

> <r_epik_Ionization_Penalty_Neutral>
0.252219

> <r_epik_State_Penalty>
0.24335

> <r_epik_Charging_Adjusted_Penalty>
0.24335

> <i_epik_Tot_Q>
0

> <i_epik_Tot_abs_Q>
0

> <r_epik_Metal_State_Penalty>
0.243337

> <b_epik_Metal_Only>
0

> <s_lp_Force_Field>
OPLS_2005

> <r_lp_Energy>
32.1697

> <b_lp_Chiralities_Consistent>
1

> <s_lp_Variant>
AV-unprocessed.smi:2245-2

> <Gold.Version>
5.8.1

> <Gold.Id.Protein>
6NUR|6NUR_protein|mol2

> <Gold.PLP.Fitness>
53.9944

> <Gold.PLP.PLP>
-48.4317

> <Gold.PLP.part.hbond>
-2.0000

> <Gold.PLP.part.metal>
0.0000

> <Gold.PLP.part.buried>
-8.8571

> <Gold.PLP.part.nonpolar>
-37.9952

> <Gold.PLP.part.repulsive>
0.4877

> <Gold.PLP.ligand.clash>
0.0000

> <Gold.PLP.ligand.torsion>
0.4279

> <Gold.PLP.Chemscore.Hbond>
1.9920

> <Gold.PLP.Chemscore.CHOScore>
0.0000

> <Gold.PLP.Chemscore.Metal>
0.0000

> <Gold.Chemscore.Hbonds>
donor molecule, donor type, donor heavy atom, donor atom, acceptor molecule, acceptor atom, score
      L1  H     8    31       P1  8028  1.00
      L1  H    11    32       P1  8028  0.99

> <Gold.PLP.Chemscore.Internal.Correction>
0.4425

> <Gold.Rescore>
     Score         DG    S(hbond)    S(metal)    S(lipo)     H(rot)  DE(clash)    DE(int)     intcor
     17.92     -19.81       1.89        0.00     103.10       1.58       0.02       1.86       ----

> <Gold.Chemscore.Fitness>
17.9216

> <Gold.Chemscore.DG>
-19.8065

> <Gold.Chemscore.ZeroCoef>
-5.4800

> <Gold.Chemscore.Hbond>
1.8908

> <Gold.Chemscore.Metal>
0.0000

> <Gold.Chemscore.Lipo>
103.1002

> <Gold.Chemscore.Internal_Hbond>
0.0000

> <Gold.Chemscore.DEClash>
0.0230

> <Gold.Chemscore.DEInternal>
1.8619

> <Gold.Chemscore.Rot>
1.5826

> <Gold.Chemscore.Internal.Correction>
   9.000000E+99

> <Gold.Chemscore.Hbonds>
donor molecule, donor type, donor heavy atom, donor atom, acceptor molecule, acceptor atom, score
      L1  H     8    31       P1  8028  0.99
      L1  H    11    32       P1  8028  0.93

> <Gold.Chemscore.Hbond.Weighted>
-6.3152

> <Gold.Chemscore.Metal.Weighted>
-0.0000

> <Gold.Chemscore.Lipo.Weighted>
-12.0627

> <Gold.Chemscore.Internal_Hbond.Weighted>
0.0000

> <Gold.Chemscore.DEClash.Weighted>
0.0230

> <Gold.Chemscore.DEInternal.Weighted>
1.8619

> <Gold.Chemscore.Rot.Weighted>
4.0515

> <Gold.Chemscore.Internal.Correction.Weighted>
   9.000000E+99

> <Gold.Protein.RotatedTorsions>
[ 6907 6896 6895 6894 ] final -127.69 input  -60.11 | X-H torsion
[ 7974 7965 7964 7962 ] final  -48.92 input  175.53 | X-H torsion
[ 8008 7997 7996 7995 ] final  178.66 input   59.86 | X-H torsion
[ 10167 10162 10161 10158 ] final   69.43 input  -65.29 | X-H torsion
[ 10718 10713 10712 10709 ] final  164.38 input   66.30 | X-H torsion
[ 10763 10752 10751 10750 ] final   90.50 input  -60.55 | X-H torsion
[ 11005 11000 10999 10996 ] final   15.24 input  -57.11 | X-H torsion

> <Gold.Protein.ActiveResidues>
 VAL166  LYS551  ARG553  GLY616  TRP617  ASP618  TYR619  PRO620  LYS621  CYS622 
 ASP623  PHE694  ASN695  SER759  ASP760  ASP761  ALA762  ILE779  LEU786  VAL792 
 PHE793  MET794  SER795  GLU796  ALA797  LYS798  CYS799  TRP800  GLU811  SER814 

> <Gold.Protein.RotatedAtoms>
  150.9099  133.7011  159.2857 H   0  0  0  0  0  0  0  0  0  0  0  0  # atno 6907 bound_to 6896
  151.4501  135.1027  159.9705 H   0  0  0  0  0  0  0  0  0  0  0  0  # atno 6908 bound_to 6896
  152.4924  133.8487  159.7245 H   0  0  0  0  0  0  0  0  0  0  0  0  # atno 6909 bound_to 6896
  145.9461  140.7617  142.9528 H   0  0  0  0  0  0  0  0  0  0  0  0  # atno 7974 bound_to 7965
  156.0521  140.1328  157.0038 H   0  0  0  0  0  0  0  0  0  0  0  0  # atno 8008 bound_to 7997
  154.4440  140.1008  156.6462 H   0  0  0  0  0  0  0  0  0  0  0  0  # atno 8009 bound_to 7997
  155.5507  140.3463  155.4470 H   0  0  0  0  0  0  0  0  0  0  0  0  # atno 8010 bound_to 7997
  140.0679  144.5178  150.7248 H   0  0  0  0  0  0  0  0  0  0  0  0  # atno 10167 bound_to 10162
  157.0952  131.0428  151.2520 H   0  0  0  0  0  0  0  0  0  0  0  0  # atno 10718 bound_to 10713
  153.1982  135.4432  155.0234 H   0  0  0  0  0  0  0  0  0  0  0  0  # atno 10763 bound_to 10752
  154.8131  135.3303  154.7253 H   0  0  0  0  0  0  0  0  0  0  0  0  # atno 10764 bound_to 10752
  153.7701  135.6985  153.4963 H   0  0  0  0  0  0  0  0  0  0  0  0  # atno 10765 bound_to 10752
  140.4606  134.1131  155.7716 H   0  0  0  0  0  0  0  0  0  0  0  0  # atno 11005 bound_to 11000
  144.6787  140.2359  143.7349 LP  0  0  0  0  0  0  0  0  0  0  0  0  # atno 17320 bound_to 7965
  145.8234  139.2054  143.1924 LP  0  0  0  0  0  0  0  0  0  0  0  0  # atno 17321 bound_to 7965
  140.7140  143.2529  151.4492 LP  0  0  0  0  0  0  0  0  0  0  0  0  # atno 17342 bound_to 10162
  139.5854  144.1616  152.2022 LP  0  0  0  0  0  0  0  0  0  0  0  0  # atno 17343 bound_to 10162
  157.4687  130.7696  149.7303 LP  0  0  0  0  0  0  0  0  0  0  0  0  # atno 17370 bound_to 10713
  155.9887  130.3957  150.3104 LP  0  0  0  0  0  0  0  0  0  0  0  0  # atno 17371 bound_to 10713
  141.1623  133.8769  157.1813 LP  0  0  0  0  0  0  0  0  0  0  0  0  # atno 17394 bound_to 11000
  139.9948  135.0051  157.0057 LP  0  0  0  0  0  0  0  0  0  0  0  0  # atno 17395 bound_to 11000

$$$$
