AV-unprocessed.smi:1278|AV-procd|sdf|5352|dock7
  -GOLD-   22720 4483D 1   1.00000     0.00000
 Structure written by MMmdl.
 38 39  0  0  0  0  0  0  0  0  3 V2000
  146.4306  133.5132  151.1200 C   0  0  0  0  0  0  0  0  0  0  0  0
  145.1017  134.2889  151.1390 C   0  0  1  0  0  0  0  0  0  0  0  0
  144.4056  134.2474  152.5122 C   0  0  0  0  0  0  0  0  0  0  0  0
  145.1160  135.1566  153.5249 C   0  0  0  0  0  0  0  0  0  0  0  0
  145.2713  136.5829  152.9739 C   0  0  0  0  0  0  0  0  0  0  0  0
  145.9815  136.5796  151.6689 N   0  3  2  0  0  0  0  0  0  0  0  0
  146.2800  137.9515  151.1888 C   0  0  0  0  0  0  0  0  0  0  0  0
  146.6906  138.8955  152.3350 C   0  0  0  0  0  0  0  0  0  0  0  0
  148.0036  138.5468  152.8643 N   0  0  0  0  0  0  0  0  0  0  0  0
  148.6428  139.1880  153.8532 C   0  0  0  0  0  0  0  0  0  0  0  0
  148.1126  140.1590  154.3987 O   0  0  0  0  0  0  0  0  0  0  0  0
  149.8564  138.6681  154.1427 N   0  5  0  0  0  0  0  0  0  0  0  0
  150.5859  139.1847  155.1450 C   0  0  0  0  0  0  0  0  0  0  0  0
  150.8549  140.4908  155.2532 N   0  0  0  0  0  0  0  0  0  0  0  0
  151.6264  140.8080  156.3727 C   0  0  0  0  0  0  0  0  0  0  0  0
  151.9449  139.7189  157.1397 C   0  0  0  0  0  0  0  0  0  0  0  0
  151.2796  138.2538  156.4759 S   0  0  0  0  0  0  0  0  0  0  0  0
  145.2707  135.7461  150.6613 C   0  0  0  0  0  0  0  0  0  0  0  0
  147.1716  133.9575  151.7844 H   0  0  0  0  0  0  0  0  0  0  0  0
  146.8580  133.4956  150.1169 H   0  0  0  0  0  0  0  0  0  0  0  0
  146.2844  132.4784  151.4304 H   0  0  0  0  0  0  0  0  0  0  0  0
  144.4446  133.7867  150.4277 H   0  0  0  0  0  0  0  0  0  0  0  0
  143.3725  134.5794  152.4010 H   0  0  0  0  0  0  0  0  0  0  0  0
  144.3585  133.2246  152.8882 H   0  0  0  0  0  0  0  0  0  0  0  0
  144.5540  135.1801  154.4590 H   0  0  0  0  0  0  0  0  0  0  0  0
  146.0968  134.7479  153.7697 H   0  0  0  0  0  0  0  0  0  0  0  0
  144.2934  137.0524  152.8566 H   0  0  0  0  0  0  0  0  0  0  0  0
  145.8263  137.1826  153.6964 H   0  0  0  0  0  0  0  0  0  0  0  0
  147.0510  137.9172  150.4174 H   0  0  0  0  0  0  0  0  0  0  0  0
  145.3882  138.3603  150.7116 H   0  0  0  0  0  0  0  0  0  0  0  0
  146.6875  139.9335  151.9983 H   0  0  0  0  0  0  0  0  0  0  0  0
  145.9846  138.8360  153.1623 H   0  0  0  0  0  0  0  0  0  0  0  0
  148.4706  137.7528  152.4504 H   0  0  0  0  0  0  0  0  0  0  0  0
  151.9033  141.8371  156.5468 H   0  0  0  0  0  0  0  0  0  0  0  0
  152.5246  139.6888  158.0498 H   0  0  0  0  0  0  0  0  0  0  0  0
  145.8041  135.7515  149.7113 H   0  0  0  0  0  0  0  0  0  0  0  0
  144.2906  136.1850  150.4665 H   0  0  0  0  0  0  0  0  0  0  0  0
  146.8753  136.1409  151.8384 H   0  0  0  0  0  0  0  0  0  0  0  0
  1  2  1  0  0  0  0
  1 19  1  0  0  0  0
  1 20  1  0  0  0  0
  1 21  1  0  0  0  0
  2 18  1  0  0  0  0
  2  3  1  0  0  0  0
  2 22  1  0  0  0  0
  3  4  1  0  0  0  0
  3 23  1  0  0  0  0
  3 24  1  0  0  0  0
  4  5  1  0  0  0  0
  4 25  1  0  0  0  0
  4 26  1  0  0  0  0
  5  6  1  0  0  0  0
  5 27  1  0  0  0  0
  5 28  1  0  0  0  0
  6  7  1  0  0  0  0
  6 18  1  0  0  0  0
  6 38  1  0  0  0  0
  7  8  1  0  0  0  0
  7 29  1  0  0  0  0
  7 30  1  0  0  0  0
  8  9  1  0  0  0  0
  8 31  1  0  0  0  0
  8 32  1  0  0  0  0
  9 10  1  0  0  0  0
  9 33  1  0  0  0  0
 10 11  2  0  0  0  0
 10 12  1  0  0  0  0
 12 13  1  0  0  0  0
 13 17  1  0  0  0  0
 13 14  2  0  0  0  0
 14 15  1  0  0  0  0
 15 16  2  0  0  0  0
 15 34  1  0  0  0  0
 16 17  1  0  0  0  0
 16 35  1  0  0  0  0
 18 36  1  0  0  0  0
 18 37  1  0  0  0  0
M  CHG  1   6   1
M  CHG  1  12  -1
M  END
> <s_m_source_file>
AV-unprocessed.smi

> <i_m_source_file_index>
1278

> <i_lp_mmshare_version>
43012

> <i_f3d_flags>
0

> <s_epik_input>
W0NIM11bQ0BASF0xW0NIMl1bQ0gyXVtDSDJdTihbQ0gyXTEpW0NIMl1bQ0gyXVtOSF1DKD1PKVtOSF1jMm5bY0hdW2NIXXMy

> <s_epik_cmdline>
J2VwaWtfcHl0aG9uJywgJy1waCcsICc3LjAnLCAnLXRuJywgJzgnLCAnLW1hJywgJzIwMCcsICctbWV0YWxfYmluZGluZycsICctaW1hZScsICc8aW5maWxlLm1hZT4nLCAnLW9tYWUnLCAnPG91dGZpbGUubWFlPic=

> <r_lp_tautomer_probability>
0.999

> <r_epik_Ionization_Penalty>
6.22019

> <r_epik_Ionization_Penalty_Charging>
5.38911

> <r_epik_Ionization_Penalty_Neutral>
0.831074

> <r_epik_State_Penalty>
5.38904

> <r_epik_Charging_Adjusted_Penalty>
10.7782

> <i_epik_Tot_Q>
0

> <i_epik_Tot_abs_Q>
2

> <r_epik_Metal_State_Penalty>
1.41502

> <b_epik_Metal_Only>
1

> <s_lp_Force_Field>
OPLS_2005

> <r_lp_Energy>
8.87374

> <b_lp_Chiralities_Consistent>
1

> <s_lp_Variant>
AV-unprocessed.smi:1278-6

> <Gold.Version>
5.8.1

> <Gold.Id.Protein>
6NUR|6NUR_protein|mol2

> <Gold.PLP.Fitness>
38.2181

> <Gold.PLP.PLP>
-27.4667

> <Gold.PLP.part.hbond>
-4.0000

> <Gold.PLP.part.metal>
0.0000

> <Gold.PLP.part.buried>
-0.3577

> <Gold.PLP.part.nonpolar>
-24.3093

> <Gold.PLP.part.repulsive>
0.4921

> <Gold.PLP.ligand.clash>
0.0000

> <Gold.PLP.ligand.torsion>
0.6509

> <Gold.PLP.Chemscore.Hbond>
3.9920

> <Gold.PLP.Chemscore.CHOScore>
0.0000

> <Gold.PLP.Chemscore.Metal>
0.0000

> <Gold.Chemscore.Hbonds>
donor molecule, donor type, donor heavy atom, donor atom, acceptor molecule, acceptor atom, score
      L1  H     6    38       P1  7948  1.89
      L1  H     9    33       P1  7948  1.00
      P1  H  7989  7998       L1    14  0.99

> <Gold.PLP.Chemscore.Internal.Correction>
0.0773

> <Gold.Rescore>
     Score         DG    S(hbond)    S(metal)    S(lipo)     H(rot)  DE(clash)    DE(int)     intcor
     16.34     -18.36       2.82        0.00      63.92       1.57       1.13       0.89       ----

> <Gold.Chemscore.Fitness>
16.3362

> <Gold.Chemscore.DG>
-18.3589

> <Gold.Chemscore.ZeroCoef>
-5.4800

> <Gold.Chemscore.Hbond>
2.8182

> <Gold.Chemscore.Metal>
0.0000

> <Gold.Chemscore.Lipo>
63.9231

> <Gold.Chemscore.Internal_Hbond>
0.0000

> <Gold.Chemscore.DEClash>
1.1335

> <Gold.Chemscore.DEInternal>
0.8892

> <Gold.Chemscore.Rot>
1.5676

> <Gold.Chemscore.Internal.Correction>
   9.000000E+99

> <Gold.Chemscore.Hbonds>
donor molecule, donor type, donor heavy atom, donor atom, acceptor molecule, acceptor atom, score
      L1  H     6    38       P1  7948  0.85
      L1  H     9    33       P1  7948  1.00
      P1  H  7989  7998       L1    14  0.31

> <Gold.Chemscore.Hbond.Weighted>
-9.4129

> <Gold.Chemscore.Metal.Weighted>
-0.0000

> <Gold.Chemscore.Lipo.Weighted>
-7.4790

> <Gold.Chemscore.Internal_Hbond.Weighted>
0.0000

> <Gold.Chemscore.DEClash.Weighted>
1.1335

> <Gold.Chemscore.DEInternal.Weighted>
0.8892

> <Gold.Chemscore.Rot.Weighted>
4.0130

> <Gold.Chemscore.Internal.Correction.Weighted>
   9.000000E+99

> <Gold.Protein.RotatedTorsions>
[ 6907 6896 6895 6894 ] final -125.30 input  -60.11 | X-H torsion
[ 7974 7965 7964 7962 ] final -100.59 input  175.53 | X-H torsion
[ 8008 7997 7996 7995 ] final   93.76 input   59.86 | X-H torsion
[ 10167 10162 10161 10158 ] final   53.75 input  -65.29 | X-H torsion
[ 10718 10713 10712 10709 ] final  -38.53 input   66.30 | X-H torsion
[ 10763 10752 10751 10750 ] final  117.97 input  -60.55 | X-H torsion
[ 11005 11000 10999 10996 ] final  -69.47 input  -57.11 | X-H torsion

> <Gold.Protein.ActiveResidues>
 VAL166  LYS551  ARG553  GLY616  TRP617  ASP618  TYR619  PRO620  LYS621  CYS622 
 ASP623  PHE694  ASN695  SER759  ASP760  ASP761  ALA762  ILE779  LEU786  VAL792 
 PHE793  MET794  SER795  GLU796  ALA797  LYS798  CYS799  TRP800  GLU811  SER814 

> <Gold.Protein.RotatedAtoms>
  150.8854  133.7315  159.2919 H   0  0  0  0  0  0  0  0  0  0  0  0  # atno 6907 bound_to 6896
  151.4883  135.1054  159.9806 H   0  0  0  0  0  0  0  0  0  0  0  0  # atno 6908 bound_to 6896
  152.4786  133.8153  159.7080 H   0  0  0  0  0  0  0  0  0  0  0  0  # atno 6909 bound_to 6896
  145.2926  140.9356  143.2869 H   0  0  0  0  0  0  0  0  0  0  0  0  # atno 7974 bound_to 7965
  156.0503  140.3309  155.7343 H   0  0  0  0  0  0  0  0  0  0  0  0  # atno 8008 bound_to 7997
  155.5611  140.0619  157.2846 H   0  0  0  0  0  0  0  0  0  0  0  0  # atno 8009 bound_to 7997
  154.4433  140.1877  156.0772 H   0  0  0  0  0  0  0  0  0  0  0  0  # atno 8010 bound_to 7997
  140.2375  144.3620  150.6392 H   0  0  0  0  0  0  0  0  0  0  0  0  # atno 10167 bound_to 10162
  156.3027  130.4242  149.8128 H   0  0  0  0  0  0  0  0  0  0  0  0  # atno 10718 bound_to 10713
  153.5604  135.3522  155.2797 H   0  0  0  0  0  0  0  0  0  0  0  0  # atno 10763 bound_to 10752
  154.8695  135.4135  154.2837 H   0  0  0  0  0  0  0  0  0  0  0  0  # atno 10764 bound_to 10752
  153.3581  135.7058  153.6803 H   0  0  0  0  0  0  0  0  0  0  0  0  # atno 10765 bound_to 10752
  141.1554  133.6765  156.6604 H   0  0  0  0  0  0  0  0  0  0  0  0  # atno 11005 bound_to 11000
  144.9160  139.4470  143.6564 LP  0  0  0  0  0  0  0  0  0  0  0  0  # atno 17320 bound_to 7965
  146.3180  139.7995  142.8968 LP  0  0  0  0  0  0  0  0  0  0  0  0  # atno 17321 bound_to 7965
  140.6139  143.2171  151.6831 LP  0  0  0  0  0  0  0  0  0  0  0  0  # atno 17342 bound_to 10162
  139.5089  144.3597  152.0574 LP  0  0  0  0  0  0  0  0  0  0  0  0  # atno 17343 bound_to 10162
  156.5500  130.8337  151.3296 LP  0  0  0  0  0  0  0  0  0  0  0  0  # atno 17370 bound_to 10713
  157.7372  130.9791  150.2178 LP  0  0  0  0  0  0  0  0  0  0  0  0  # atno 17371 bound_to 10713
  140.3252  134.7975  157.4283 LP  0  0  0  0  0  0  0  0  0  0  0  0  # atno 17394 bound_to 11000
  140.1063  134.5405  155.8306 LP  0  0  0  0  0  0  0  0  0  0  0  0  # atno 17395 bound_to 11000

$$$$
