#       Name:                AV-unprocessed.smi:676
#       Creating user name   scv26
#       Creation time:       Fri Mar 27 00:27:07 2020


#       File generated by GOLD software.
#

@<TRIPOS>MOLECULE
AV-unprocessed.smi:676
    48    49     1
SMALL
NO_CHARGES


@<TRIPOS>ATOM
      1 ****        -4.7819  -1.2803   1.4109 C.3            1 S1                 0.0000
      2 ****        -3.7639  -0.7273   0.5858 O.3            1 S1                 0.0000
      3 ****        -2.6131  -1.5424   0.3243 C.3            1 S1                 0.0000
      4 ****        -3.0303  -2.8757  -0.3090 C.3            1 S1                 0.0000
      5 ****        -1.6762  -1.5479   1.5473 C.3            1 S1                 0.0000
      6 ****        -1.1076  -0.2297   1.0263 C.3            1 S1                 0.0000
      7 ****         0.3332  -0.1212   1.2267 N.am           1 S1                 0.0000
      8 ****         1.0680   0.9455   0.8811 C.2            1 S1                 0.0000
      9 ****         0.5855   1.9666   0.3901 O.2            1 S1                 0.0000
     10 ****         2.5764   0.8410   1.1424 C.3            1 S1                 0.0000
     11 ****         3.3804   1.5345   0.1230 N.am           1 S1                 0.0000
     12 ****         3.8781   2.8107   0.4535 C.2            1 S1                 0.0000
     13 ****         4.6185   3.5284  -0.4060 C.2            1 S1                 0.0000
     14 ****         4.9027   2.9598  -1.7020 C.2            1 S1                 0.0000
     15 ****         4.4298   1.7409  -2.0294 C.2            1 S1                 0.0000
     16 ****         3.6192   0.9532  -1.0934 C.2            1 S1                 0.0000
     17 ****         3.1818  -0.1606  -1.3848 O.2            1 S1                 0.0000
     18 ****        -1.5398  -0.6642  -0.3987 C.3            1 S1                 0.0000
     19 ****        -0.4966  -1.4282  -1.2368 C.3            1 S1                 0.0000
     20 ****        -2.0672   0.4505  -1.3089 C.3            1 S1                 0.0000
     21 ****        -5.5078  -0.5027   1.6479 H              1 S1                 0.0000
     22 ****        -4.3920  -1.6657   2.3524 H              1 S1                 0.0000
     23 ****        -5.3217  -2.0786   0.9021 H              1 S1                 0.0000
     24 ****        -2.1674  -3.4689  -0.6101 H              1 S1                 0.0000
     25 ****        -3.6441  -2.7176  -1.1960 H              1 S1                 0.0000
     26 ****        -3.5957  -3.4979   0.3841 H              1 S1                 0.0000
     27 ****        -2.1569  -1.4728   2.5220 H              1 S1                 0.0000
     28 ****        -0.9603  -2.3715   1.5276 H              1 S1                 0.0000
     29 ****        -1.6720   0.6280   1.3995 H              1 S1                 0.0000
     30 ****         0.8040  -0.9176   1.6310 H              1 S1                 0.0000
     31 ****         2.7762   1.2459   2.1352 H              1 S1                 0.0000
     32 ****         2.8717  -0.2088   1.1964 H              1 S1                 0.0000
     33 ****         3.6153   3.1675   1.4386 H              1 S1                 0.0000
     34 ****         4.9886   4.5066  -0.1365 H              1 S1                 0.0000
     35 ****         5.4958   3.5152  -2.4133 H              1 S1                 0.0000
     36 ****         4.6515   1.3326  -3.0044 H              1 S1                 0.0000
     37 ****         0.3108  -0.7746  -1.5693 H              1 S1                 0.0000
     38 ****        -0.9441  -1.8636  -2.1307 H              1 S1                 0.0000
     39 ****        -0.0352  -2.2430  -0.6788 H              1 S1                 0.0000
     40 ****        -1.2556   1.0516  -1.7204 H              1 S1                 0.0000
     41 ****        -2.7231   1.1378  -0.7747 H              1 S1                 0.0000
     42 ****        -2.6351   0.0449  -2.1467 H              1 S1                 0.0000
     43 ****        -3.4438   0.1118   1.0256 LP             1 S1                 0.0000
     44 ****        -4.1801  -0.5039  -0.2955 LP             1 S1                 0.0000
     45 ****        -0.4000   2.0277   0.2316 LP             1 S1                 0.0000
     46 ****         1.1791   2.7347   0.1500 LP             1 S1                 0.0000
     47 ****         2.6324  -0.6709  -0.7231 LP             1 S1                 0.0000
     48 ****         3.3760  -0.5547  -2.2831 LP             1 S1                 0.0000
@<TRIPOS>BOND
    1    1    2 1     
    2    1   21 1     
    3    1   22 1     
    4    1   23 1     
    5    2    3 1     
    6    3   18 1     
    7    3    4 1     
    8    3    5 1     
    9    4   24 1     
   10    4   25 1     
   11    4   26 1     
   12    5    6 1     
   13    5   27 1     
   14    5   28 1     
   15    6    7 1     
   16    6   18 1     
   17    6   29 1     
   18    7    8 am    
   19    7   30 1     
   20    8    9 2     
   21    8   10 1     
   22   10   11 1     
   23   10   31 1     
   24   10   32 1     
   25   11   16 am    
   26   11   12 1     
   27   12   13 2     
   28   12   33 1     
   29   13   14 1     
   30   13   34 1     
   31   14   15 2     
   32   14   35 1     
   33   15   16 1     
   34   15   36 1     
   35   16   17 2     
   36   18   19 1     
   37   18   20 1     
   38   19   37 1     
   39   19   38 1     
   40   19   39 1     
   41   20   40 1     
   42   20   41 1     
   43   20   42 1     
   44    2   43 1     
   45    2   44 1     
   46    9   45 1     
   47    9   46 1     
   48   17   47 1     
   49   17   48 1     
@<TRIPOS>SUBSTRUCTURE
      1 S1             1
@<TRIPOS>SET
LONE_PAIRS      STATIC     ATOMS    <user>   **** ""
6 43 44 45 46 47 48
DONOR_HYDROGENS      STATIC     ATOMS    <user>   **** ""
1 30
ATOM$BLUE        STATIC     ATOMS    COLORGROUP SYSTEM
6 43 44 45 46 47 48
ATOM$RED        STATIC     ATOMS    COLORGROUP SYSTEM
1 30
