AV-unprocessed.smi:2587|AV-procd|sdf|10147|dock2
  -GOLD-   2272014163D 1   1.00000     0.00000
 Structure written by MMmdl.
 40 41  0  0  0  0  0  0  0  0  2 V2000
  150.5136  142.0554  158.1691 C   0  0  0  0  0  0  0  0  0  0  0  0
  150.9145  141.2137  157.2049 C   0  0  0  0  0  0  0  0  0  0  0  0
  150.6216  141.3984  155.7298 C   0  0  0  0  0  0  0  0  0  0  0  0
  150.0003  140.2231  155.1239 N   0  0  0  0  0  0  0  0  0  0  0  0
  150.6225  138.9179  155.3490 C   0  0  0  0  0  0  0  0  0  0  0  0
  151.2540  138.3419  154.0724 C   0  0  0  0  0  0  0  0  0  0  0  0
  151.3963  136.9457  154.2096 O   0  0  0  0  0  0  0  0  0  0  0  0
  148.7063  140.3108  154.5538 C   0  0  0  0  0  0  0  0  0  0  0  0
  147.8717  141.4335  154.7502 C   0  0  0  0  0  0  0  0  0  0  0  0
  146.5927  141.4348  154.1437 C   0  0  0  0  0  0  0  0  0  0  0  0
  145.6768  142.5052  154.2544 N   0  0  0  0  0  0  0  0  0  0  0  0
  145.8945  143.6914  153.4302 C   0  0  0  0  0  0  0  0  0  0  0  0
  144.6504  144.5955  153.4424 C   0  0  0  0  0  0  0  0  0  0  0  0
  144.2942  144.9035  154.7848 O   0  0  0  0  0  0  0  0  0  0  0  0
  143.9515  143.7341  155.5193 C   0  0  0  0  0  0  0  0  0  0  0  0
  145.1659  142.7936  155.5941 C   0  0  0  0  0  0  0  0  0  0  0  0
  146.2218  140.3583  153.4025 N   0  3  0  0  0  0  0  0  0  0  0  0
  147.0541  139.3211  153.2470 C   0  0  0  0  0  0  0  0  0  0  0  0
  148.2689  139.2791  153.7982 N   0  0  0  0  0  0  0  0  0  0  0  0
  149.9432  142.9431  157.9381 H   0  0  0  0  0  0  0  0  0  0  0  0
  150.7516  141.8649  159.2054 H   0  0  0  0  0  0  0  0  0  0  0  0
  151.4792  140.3330  157.4748 H   0  0  0  0  0  0  0  0  0  0  0  0
  149.9446  142.2479  155.6332 H   0  0  0  0  0  0  0  0  0  0  0  0
  151.5270  141.6790  155.1904 H   0  0  0  0  0  0  0  0  0  0  0  0
  151.3602  138.9754  156.1501 H   0  0  0  0  0  0  0  0  0  0  0  0
  149.8548  138.2329  155.7114 H   0  0  0  0  0  0  0  0  0  0  0  0
  150.6324  138.5503  153.2011 H   0  0  0  0  0  0  0  0  0  0  0  0
  152.2349  138.7806  153.8877 H   0  0  0  0  0  0  0  0  0  0  0  0
  151.0024  136.5274  153.4594 H   0  0  0  0  0  0  0  0  0  0  0  0
  148.2023  142.2672  155.3472 H   0  0  0  0  0  0  0  0  0  0  0  0
  146.7601  144.2376  153.8070 H   0  0  0  0  0  0  0  0  0  0  0  0
  146.1066  143.4050  152.3997 H   0  0  0  0  0  0  0  0  0  0  0  0
  144.8552  145.5228  152.9073 H   0  0  0  0  0  0  0  0  0  0  0  0
  143.8132  144.1137  152.9345 H   0  0  0  0  0  0  0  0  0  0  0  0
  143.6395  144.0238  156.5227 H   0  0  0  0  0  0  0  0  0  0  0  0
  143.1000  143.2346  155.0540 H   0  0  0  0  0  0  0  0  0  0  0  0
  144.8706  141.8837  156.1163 H   0  0  0  0  0  0  0  0  0  0  0  0
  145.9608  143.2556  156.1807 H   0  0  0  0  0  0  0  0  0  0  0  0
  146.7007  138.4990  152.6422 H   0  0  0  0  0  0  0  0  0  0  0  0
  145.3040  140.3499  152.9570 H   0  0  0  0  0  0  0  0  0  0  0  0
  1  2  2  0  0  0  0
  1 20  1  0  0  0  0
  1 21  1  0  0  0  0
  2  3  1  0  0  0  0
  2 22  1  0  0  0  0
  3  4  1  0  0  0  0
  3 23  1  0  0  0  0
  3 24  1  0  0  0  0
  4  5  1  0  0  0  0
  4  8  1  0  0  0  0
  5  6  1  0  0  0  0
  5 25  1  0  0  0  0
  5 26  1  0  0  0  0
  6  7  1  0  0  0  0
  6 27  1  0  0  0  0
  6 28  1  0  0  0  0
  7 29  1  0  0  0  0
  8 19  1  0  0  0  0
  8  9  2  0  0  0  0
  9 10  1  0  0  0  0
  9 30  1  0  0  0  0
 10 11  1  0  0  0  0
 10 17  2  0  0  0  0
 11 16  1  0  0  0  0
 11 12  1  0  0  0  0
 12 13  1  0  0  0  0
 12 31  1  0  0  0  0
 12 32  1  0  0  0  0
 13 14  1  0  0  0  0
 13 33  1  0  0  0  0
 13 34  1  0  0  0  0
 14 15  1  0  0  0  0
 15 16  1  0  0  0  0
 15 35  1  0  0  0  0
 15 36  1  0  0  0  0
 16 37  1  0  0  0  0
 16 38  1  0  0  0  0
 17 18  1  0  0  0  0
 17 40  1  0  0  0  0
 18 19  2  0  0  0  0
 18 39  1  0  0  0  0
M  CHG  1  17   1
M  END
> <s_m_source_file>
AV-unprocessed.smi

> <i_m_source_file_index>
2587

> <i_lp_mmshare_version>
43012

> <i_f3d_flags>
0

> <s_epik_input>
W0NIMl09W0NIXVtDSDJdTihbQ0gyXVtDSDJdW09IXSljMVtjSF1jKG5bY0hdbjEpTjJbQ0gyXVtDSDJdT1tDSDJdW0NIMl0y

> <s_epik_cmdline>
J2VwaWtfcHl0aG9uJywgJy1waCcsICc3LjAnLCAnLXRuJywgJzgnLCAnLW1hJywgJzIwMCcsICctbWV0YWxfYmluZGluZycsICctaW1hZScsICc8aW5maWxlLm1hZT4nLCAnLW9tYWUnLCAnPG91dGZpbGUubWFlPic=

> <r_lp_tautomer_probability>
0.999336

> <r_epik_Ionization_Penalty>
3.67622

> <r_epik_Ionization_Penalty_Charging>
3.67622

> <r_epik_Ionization_Penalty_Neutral>
1.25637e-07

> <r_epik_State_Penalty>
2.4309

> <r_epik_Charging_Adjusted_Penalty>
6.10712

> <i_epik_Tot_Q>
1

> <i_epik_Tot_abs_Q>
1

> <r_epik_Metal_State_Penalty>
2.43203

> <b_epik_Metal_Only>
0

> <s_lp_Force_Field>
OPLS_2005

> <r_lp_Energy>
13.6673

> <b_lp_Chiralities_Consistent>
1

> <s_lp_Variant>
AV-unprocessed.smi:2587-2

> <Gold.Version>
5.8.1

> <Gold.Id.Protein>
6NUR|6NUR_protein|mol2

> <Gold.PLP.Fitness>
45.4436

> <Gold.PLP.PLP>
-34.3101

> <Gold.PLP.part.hbond>
-3.0000

> <Gold.PLP.part.metal>
0.0000

> <Gold.PLP.part.buried>
-5.3602

> <Gold.PLP.part.nonpolar>
-26.3866

> <Gold.PLP.part.repulsive>
1.1989

> <Gold.PLP.ligand.clash>
0.0000

> <Gold.PLP.ligand.torsion>
0.7727

> <Gold.PLP.Chemscore.Hbond>
4.0000

> <Gold.PLP.Chemscore.CHOScore>
0.0000

> <Gold.PLP.Chemscore.Metal>
0.0000

> <Gold.Chemscore.Hbonds>
donor molecule, donor type, donor heavy atom, donor atom, acceptor molecule, acceptor atom, score
      L1  H     7    29       P1  7949  0.92
      L1  H    17    40       P1 10175  2.00
      P1  H 10752 10763       L1     7  0.81

> <Gold.PLP.Chemscore.Internal.Correction>
0.6788

> <Gold.Rescore>
     Score         DG    S(hbond)    S(metal)    S(lipo)     H(rot)  DE(clash)    DE(int)     intcor
     11.80     -14.10       2.39        0.00      61.63       2.57       1.56       0.74       ----

> <Gold.Chemscore.Fitness>
11.8032

> <Gold.Chemscore.DG>
-14.1022

> <Gold.Chemscore.ZeroCoef>
-5.4800

> <Gold.Chemscore.Hbond>
2.3888

> <Gold.Chemscore.Metal>
0.0000

> <Gold.Chemscore.Lipo>
61.6297

> <Gold.Chemscore.Internal_Hbond>
0.0000

> <Gold.Chemscore.DEClash>
1.5612

> <Gold.Chemscore.DEInternal>
0.7378

> <Gold.Chemscore.Rot>
2.5653

> <Gold.Chemscore.Internal.Correction>
   9.000000E+99

> <Gold.Chemscore.Hbonds>
donor molecule, donor type, donor heavy atom, donor atom, acceptor molecule, acceptor atom, score
      L1  H     7    29       P1  7949  0.22
      L1  H    17    40       P1 10175  0.96
      P1  H 10752 10763       L1     7  0.13

> <Gold.Chemscore.Hbond.Weighted>
-7.9787

> <Gold.Chemscore.Metal.Weighted>
-0.0000

> <Gold.Chemscore.Lipo.Weighted>
-7.2107

> <Gold.Chemscore.Internal_Hbond.Weighted>
0.0000

> <Gold.Chemscore.DEClash.Weighted>
1.5612

> <Gold.Chemscore.DEInternal.Weighted>
0.7378

> <Gold.Chemscore.Rot.Weighted>
6.5671

> <Gold.Chemscore.Internal.Correction.Weighted>
   9.000000E+99

> <Gold.Protein.RotatedTorsions>
[ 6907 6896 6895 6894 ] final -159.99 input  -60.11 | X-H torsion
[ 7974 7965 7964 7962 ] final   15.09 input  175.53 | X-H torsion
[ 8008 7997 7996 7995 ] final  158.42 input   59.86 | X-H torsion
[ 10167 10162 10161 10158 ] final  -34.05 input  -65.29 | X-H torsion
[ 10718 10713 10712 10709 ] final   25.46 input   66.30 | X-H torsion
[ 10763 10752 10751 10750 ] final   54.34 input  -60.55 | X-H torsion
[ 11005 11000 10999 10996 ] final  143.47 input  -57.11 | X-H torsion

> <Gold.Protein.ActiveResidues>
 VAL166  LYS551  ARG553  GLY616  TRP617  ASP618  TYR619  PRO620  LYS621  CYS622 
 ASP623  PHE694  ASN695  SER759  ASP760  ASP761  ALA762  ILE779  LEU786  VAL792 
 PHE793  MET794  SER795  GLU796  ALA797  LYS798  CYS799  TRP800  GLU811  SER814 

> <Gold.Protein.RotatedAtoms>
  151.3422  133.3958  159.2671 H   0  0  0  0  0  0  0  0  0  0  0  0  # atno 6907 bound_to 6896
  150.9869  134.9213  159.7887 H   0  0  0  0  0  0  0  0  0  0  0  0  # atno 6908 bound_to 6896
  152.5235  134.3386  159.9261 H   0  0  0  0  0  0  0  0  0  0  0  0  # atno 6909 bound_to 6896
  146.2288  139.8945  142.8549 H   0  0  0  0  0  0  0  0  0  0  0  0  # atno 7974 bound_to 7965
  156.2304  140.1859  156.7257 H   0  0  0  0  0  0  0  0  0  0  0  0  # atno 8008 bound_to 7997
  154.6012  140.0635  156.9399 H   0  0  0  0  0  0  0  0  0  0  0  0  # atno 8009 bound_to 7997
  155.2171  140.3304  155.4323 H   0  0  0  0  0  0  0  0  0  0  0  0  # atno 8010 bound_to 7997
  140.7193  143.3576  151.2029 H   0  0  0  0  0  0  0  0  0  0  0  0  # atno 10167 bound_to 10162
  157.1937  130.6858  149.6160 H   0  0  0  0  0  0  0  0  0  0  0  0  # atno 10718 bound_to 10713
  152.9804  135.5748  154.4889 H   0  0  0  0  0  0  0  0  0  0  0  0  # atno 10763 bound_to 10752
  154.4426  135.2776  155.1839 H   0  0  0  0  0  0  0  0  0  0  0  0  # atno 10764 bound_to 10752
  154.3500  135.6211  153.5692 H   0  0  0  0  0  0  0  0  0  0  0  0  # atno 10765 bound_to 10752
  140.0556  134.9232  157.1095 H   0  0  0  0  0  0  0  0  0  0  0  0  # atno 11005 bound_to 11000
  145.2385  141.0000  143.3950 LP  0  0  0  0  0  0  0  0  0  0  0  0  # atno 17320 bound_to 7965
  144.9472  139.4123  143.6420 LP  0  0  0  0  0  0  0  0  0  0  0  0  # atno 17321 bound_to 7965
  139.7120  143.9361  152.2951 LP  0  0  0  0  0  0  0  0  0  0  0  0  # atno 17342 bound_to 10162
  139.9089  144.6868  150.8584 LP  0  0  0  0  0  0  0  0  0  0  0  0  # atno 17343 bound_to 10162
  155.9708  130.4606  150.6079 LP  0  0  0  0  0  0  0  0  0  0  0  0  # atno 17370 bound_to 10713
  157.3836  131.0785  151.1455 LP  0  0  0  0  0  0  0  0  0  0  0  0  # atno 17371 bound_to 10713
  140.3849  134.2247  155.7169 LP  0  0  0  0  0  0  0  0  0  0  0  0  # atno 17394 bound_to 11000
  141.1950  133.8114  157.0731 LP  0  0  0  0  0  0  0  0  0  0  0  0  # atno 17395 bound_to 11000

$$$$
