AV-unprocessed.smi:258|AV-procd|sdf|1971|dock5
  -GOLD-   2262021133D 1   1.00000     0.00000
 Structure written by MMmdl.
 57 60  0  0  0  0  0  0  0  0  1 V2000
  142.8501  132.1096  149.5610 O   0  0  0  0  0  0  0  0  0  0  0  0
  143.5367  132.3738  150.7660 C   0  0  0  0  0  0  0  0  0  0  0  0
  145.0401  132.5123  150.4978 C   0  0  0  0  0  0  0  0  0  0  0  0
  145.6141  133.3292  151.5081 O   0  0  0  0  0  0  0  0  0  0  0  0
  146.7906  132.7967  152.1027 C   0  0  2  0  0  0  0  0  0  0  0  0
  146.5415  131.3768  152.6499 C   0  0  0  0  0  0  0  0  0  0  0  0
  147.7718  130.8820  153.4248 C   0  0  0  0  0  0  0  0  0  0  0  0
  148.1551  131.8693  154.5381 C   0  0  0  0  0  0  0  0  0  0  0  0
  148.3300  133.2173  154.0011 N   0  0  0  0  0  0  0  0  0  0  0  0
  149.0258  134.1276  154.7307 C   0  0  0  0  0  0  0  0  0  0  0  0
  150.1849  133.7079  155.3026 N   0  0  0  0  0  0  0  0  0  0  0  0
  150.9238  134.5446  156.0362 C   0  0  0  0  0  0  0  0  0  0  0  0
  150.6957  135.8271  156.3205 N   0  0  0  0  0  0  0  0  0  0  0  0
  149.5365  136.2600  155.7482 C   0  0  0  0  0  0  0  0  0  0  0  0
  148.6446  135.4868  154.9492 C   0  0  0  0  0  0  0  0  0  0  0  0
  147.5774  136.2837  154.5448 N   0  0  0  0  0  0  0  0  0  0  0  0
  147.8221  137.4505  155.0744 C   0  0  0  0  0  0  0  0  0  0  0  0
  148.9844  137.5267  155.8055 N   0  0  0  0  0  0  0  0  0  0  0  0
  149.5103  138.6947  156.4892 C   0  0  0  0  0  0  0  0  0  0  0  0
  150.0170  139.8018  155.5303 C   0  0  1  0  0  0  0  0  0  0  0  0
  148.9075  140.3334  154.5857 C   0  0  0  0  0  0  0  0  0  0  0  0
  149.4462  140.8367  153.3806 O   0  0  0  0  0  0  0  0  0  0  0  0
  150.7257  140.9127  156.3485 C   0  0  1  0  0  0  0  0  0  0  0  0
  149.8784  141.6333  157.3815 C   0  0  0  0  0  0  0  0  0  0  0  0
  150.9459  142.3463  158.2066 C   0  0  0  0  0  0  0  0  0  0  0  0
  152.0946  141.5026  158.1727 O   0  0  0  0  0  0  0  0  0  0  0  0
  151.9332  140.4853  157.1877 C   0  0  0  0  0  0  0  0  0  0  0  0
  147.1949  133.7477  153.2434 C   0  0  0  0  0  0  0  0  0  0  0  0
  142.0718  132.6446  149.5356 H   0  0  0  0  0  0  0  0  0  0  0  0
  143.1458  133.3082  151.1698 H   0  0  0  0  0  0  0  0  0  0  0  0
  143.3339  131.5941  151.5009 H   0  0  0  0  0  0  0  0  0  0  0  0
  145.5151  131.5329  150.4376 H   0  0  0  0  0  0  0  0  0  0  0  0
  145.1846  133.0014  149.5334 H   0  0  0  0  0  0  0  0  0  0  0  0
  147.6017  132.7752  151.3721 H   0  0  0  0  0  0  0  0  0  0  0  0
  145.6719  131.3824  153.3083 H   0  0  0  0  0  0  0  0  0  0  0  0
  146.3179  130.6802  151.8423 H   0  0  0  0  0  0  0  0  0  0  0  0
  147.5758  129.8980  153.8510 H   0  0  0  0  0  0  0  0  0  0  0  0
  148.6113  130.7618  152.7390 H   0  0  0  0  0  0  0  0  0  0  0  0
  147.3750  131.8851  155.3001 H   0  0  0  0  0  0  0  0  0  0  0  0
  149.0753  131.5324  155.0168 H   0  0  0  0  0  0  0  0  0  0  0  0
  151.8279  134.1266  156.4538 H   0  0  0  0  0  0  0  0  0  0  0  0
  147.1640  138.2957  154.9347 H   0  0  0  0  0  0  0  0  0  0  0  0
  148.7321  139.0897  157.1433 H   0  0  0  0  0  0  0  0  0  0  0  0
  150.3184  138.3592  157.1405 H   0  0  0  0  0  0  0  0  0  0  0  0
  150.7933  139.3581  154.9048 H   0  0  0  0  0  0  0  0  0  0  0  0
  148.1848  139.5500  154.3565 H   0  0  0  0  0  0  0  0  0  0  0  0
  148.3490  141.1495  155.0397 H   0  0  0  0  0  0  0  0  0  0  0  0
  149.2373  140.2350  152.6824 H   0  0  0  0  0  0  0  0  0  0  0  0
  151.0671  141.6781  155.6493 H   0  0  0  0  0  0  0  0  0  0  0  0
  149.1594  142.3225  156.9377 H   0  0  0  0  0  0  0  0  0  0  0  0
  149.3319  140.9383  158.0171 H   0  0  0  0  0  0  0  0  0  0  0  0
  151.2044  143.3015  157.7480 H   0  0  0  0  0  0  0  0  0  0  0  0
  150.6225  142.5396  159.2296 H   0  0  0  0  0  0  0  0  0  0  0  0
  151.7516  139.5446  157.7067 H   0  0  0  0  0  0  0  0  0  0  0  0
  152.8364  140.3698  156.5887 H   0  0  0  0  0  0  0  0  0  0  0  0
  147.4161  134.7299  152.8248 H   0  0  0  0  0  0  0  0  0  0  0  0
  146.3572  133.8827  153.9290 H   0  0  0  0  0  0  0  0  0  0  0  0
  1  2  1  0  0  0  0
  1 29  1  0  0  0  0
  2  3  1  0  0  0  0
  2 30  1  0  0  0  0
  2 31  1  0  0  0  0
  3  4  1  0  0  0  0
  3 32  1  0  0  0  0
  3 33  1  0  0  0  0
  4  5  1  0  0  0  0
  5 28  1  0  0  0  0
  5  6  1  0  0  0  0
  5 34  1  0  0  0  0
  6  7  1  0  0  0  0
  6 35  1  0  0  0  0
  6 36  1  0  0  0  0
  7  8  1  0  0  0  0
  7 37  1  0  0  0  0
  7 38  1  0  0  0  0
  8  9  1  0  0  0  0
  8 39  1  0  0  0  0
  8 40  1  0  0  0  0
  9 10  1  0  0  0  0
  9 28  1  0  0  0  0
 10 15  1  0  0  0  0
 10 11  2  0  0  0  0
 11 12  1  0  0  0  0
 12 13  2  0  0  0  0
 12 41  1  0  0  0  0
 13 14  1  0  0  0  0
 14 18  1  0  0  0  0
 14 15  2  0  0  0  0
 15 16  1  0  0  0  0
 16 17  2  0  0  0  0
 17 18  1  0  0  0  0
 17 42  1  0  0  0  0
 18 19  1  0  0  0  0
 19 20  1  0  0  0  0
 19 43  1  0  0  0  0
 19 44  1  0  0  0  0
 20 21  1  0  0  0  0
 20 23  1  0  0  0  0
 20 45  1  0  0  0  0
 21 22  1  0  0  0  0
 21 46  1  0  0  0  0
 21 47  1  0  0  0  0
 22 48  1  0  0  0  0
 23 27  1  0  0  0  0
 23 24  1  0  0  0  0
 23 49  1  0  0  0  0
 24 25  1  0  0  0  0
 24 50  1  0  0  0  0
 24 51  1  0  0  0  0
 25 26  1  0  0  0  0
 25 52  1  0  0  0  0
 25 53  1  0  0  0  0
 26 27  1  0  0  0  0
 27 54  1  0  0  0  0
 27 55  1  0  0  0  0
 28 56  1  0  0  0  0
 28 57  1  0  0  0  0
M  END
> <s_m_source_file>
AV-unprocessed.smi

> <i_m_source_file_index>
258

> <i_lp_mmshare_version>
43012

> <i_f3d_flags>
0

> <s_epik_input>
W09IXVtDSDJdW0NIMl1PW0NAQEhdMVtDSDJdW0NIMl1bQ0gyXU4oW0NIMl0xKWMobltjSF1uMiljKGMyMyluW2NIXW4zW0NIMl1bQ0BIXShbQ0gyXVtPSF0pW0NAQEhdNFtDSDJdW0NIMl1PW0NIMl00

> <s_epik_cmdline>
J2VwaWtfcHl0aG9uJywgJy1waCcsICc3LjAnLCAnLXRuJywgJzgnLCAnLW1hJywgJzIwMCcsICctbWV0YWxfYmluZGluZycsICctaW1hZScsICc8aW5maWxlLm1hZT4nLCAnLW9tYWUnLCAnPG91dGZpbGUubWFlPic=

> <r_lp_tautomer_probability>
1

> <r_epik_Ionization_Penalty>
0.00349036

> <r_epik_Ionization_Penalty_Charging>
0

> <r_epik_Ionization_Penalty_Neutral>
0.00349036

> <r_epik_State_Penalty>
0.00229798

> <r_epik_Charging_Adjusted_Penalty>
0.00229798

> <i_epik_Tot_Q>
0

> <i_epik_Tot_abs_Q>
0

> <r_epik_Metal_State_Penalty>
-0

> <b_epik_Metal_Only>
0

> <s_lp_Force_Field>
OPLS_2005

> <r_lp_Energy>
47.622

> <b_lp_Chiralities_Consistent>
1

> <s_lp_Variant>
AV-unprocessed.smi:258-7

> <Gold.Version>
5.8.1

> <Gold.Id.Protein>
6NUR|6NUR_protein|mol2

> <Gold.PLP.Fitness>
48.7613

> <Gold.PLP.PLP>
-39.2048

> <Gold.PLP.part.hbond>
-5.1041

> <Gold.PLP.part.metal>
0.0000

> <Gold.PLP.part.buried>
-8.5570

> <Gold.PLP.part.nonpolar>
-27.7675

> <Gold.PLP.part.repulsive>
1.3536

> <Gold.PLP.ligand.clash>
0.0000

> <Gold.PLP.ligand.torsion>
1.1560

> <Gold.PLP.Chemscore.Hbond>
3.6479

> <Gold.PLP.Chemscore.CHOScore>
0.0000

> <Gold.PLP.Chemscore.Metal>
0.0000

> <Gold.Chemscore.Hbonds>
donor molecule, donor type, donor heavy atom, donor atom, acceptor molecule, acceptor atom, score
      L1  H     1    29       P1 10186  0.93
      L1  H    22    48       P1  7957  0.75
      P1  H  7989  7998       L1    22  0.20
      P1  H  8011  8017       L1    22  0.95
      P1  H 10785 10796       L1     1  0.68

> <Gold.PLP.Chemscore.Internal.Correction>
0.9248

> <Gold.Rescore>
     Score         DG    S(hbond)    S(metal)    S(lipo)     H(rot)  DE(clash)    DE(int)     intcor
     11.03     -14.02       2.79        0.00      85.74       4.22       0.34       2.65       ----

> <Gold.Chemscore.Fitness>
11.0312

> <Gold.Chemscore.DG>
-14.0181

> <Gold.Chemscore.ZeroCoef>
-5.4800

> <Gold.Chemscore.Hbond>
2.7909

> <Gold.Chemscore.Metal>
0.0000

> <Gold.Chemscore.Lipo>
85.7373

> <Gold.Chemscore.Internal_Hbond>
0.0000

> <Gold.Chemscore.DEClash>
0.3402

> <Gold.Chemscore.DEInternal>
2.6468

> <Gold.Chemscore.Rot>
4.2246

> <Gold.Chemscore.Internal.Correction>
   9.000000E+99

> <Gold.Chemscore.Hbonds>
donor molecule, donor type, donor heavy atom, donor atom, acceptor molecule, acceptor atom, score
      L1  H     1    29       P1 10186  0.87
      L1  H    22    48       P1  7957  0.72
      P1  H  7989  7998       L1    22  0.08
      P1  H  8011  8017       L1    22  0.21
      P1  H 10785 10796       L1     1  0.60

> <Gold.Chemscore.Hbond.Weighted>
-9.3217

> <Gold.Chemscore.Metal.Weighted>
-0.0000

> <Gold.Chemscore.Lipo.Weighted>
-10.0313

> <Gold.Chemscore.Internal_Hbond.Weighted>
0.0000

> <Gold.Chemscore.DEClash.Weighted>
0.3402

> <Gold.Chemscore.DEInternal.Weighted>
2.6468

> <Gold.Chemscore.Rot.Weighted>
10.8149

> <Gold.Chemscore.Internal.Correction.Weighted>
   9.000000E+99

> <Gold.Protein.RotatedTorsions>
[ 6907 6896 6895 6894 ] final   16.79 input  -60.11 | X-H torsion
[ 7974 7965 7964 7962 ] final -103.12 input  175.53 | X-H torsion
[ 8008 7997 7996 7995 ] final  129.82 input   59.86 | X-H torsion
[ 10167 10162 10161 10158 ] final   59.43 input  -65.29 | X-H torsion
[ 10718 10713 10712 10709 ] final  -91.19 input   66.30 | X-H torsion
[ 10763 10752 10751 10750 ] final  -13.15 input  -60.55 | X-H torsion
[ 11005 11000 10999 10996 ] final  -38.15 input  -57.11 | X-H torsion

> <Gold.Protein.ActiveResidues>
 VAL166  LYS551  ARG553  GLY616  TRP617  ASP618  TYR619  PRO620  LYS621  CYS622 
 ASP623  PHE694  ASN695  SER759  ASP760  ASP761  ALA762  ILE779  LEU786  VAL792 
 PHE793  MET794  SER795  GLU796  ALA797  LYS798  CYS799  TRP800  GLU811  SER814 

> <Gold.Protein.RotatedAtoms>
  151.8394  135.0595  160.0445 H   0  0  0  0  0  0  0  0  0  0  0  0  # atno 6907 bound_to 6896
  152.2821  133.5475  159.5512 H   0  0  0  0  0  0  0  0  0  0  0  0  # atno 6908 bound_to 6896
  150.7193  134.0466  159.3826 H   0  0  0  0  0  0  0  0  0  0  0  0  # atno 6909 bound_to 6896
  145.2599  140.9266  143.3046 H   0  0  0  0  0  0  0  0  0  0  0  0  # atno 7974 bound_to 7965
  156.2943  140.2611  156.2662 H   0  0  0  0  0  0  0  0  0  0  0  0  # atno 8008 bound_to 7997
  154.9740  140.0390  157.2266 H   0  0  0  0  0  0  0  0  0  0  0  0  # atno 8009 bound_to 7997
  154.7833  140.2799  155.6052 H   0  0  0  0  0  0  0  0  0  0  0  0  # atno 8010 bound_to 7997
  140.1765  144.4225  150.6636 H   0  0  0  0  0  0  0  0  0  0  0  0  # atno 10167 bound_to 10162
  155.9992  130.4938  150.5437 H   0  0  0  0  0  0  0  0  0  0  0  0  # atno 10718 bound_to 10713
  153.5090  135.7016  153.5791 H   0  0  0  0  0  0  0  0  0  0  0  0  # atno 10763 bound_to 10752
  153.3889  135.3901  155.1909 H   0  0  0  0  0  0  0  0  0  0  0  0  # atno 10764 bound_to 10752
  154.8705  135.3853  154.4568 H   0  0  0  0  0  0  0  0  0  0  0  0  # atno 10765 bound_to 10752
  141.0006  133.6957  156.2015 H   0  0  0  0  0  0  0  0  0  0  0  0  # atno 11005 bound_to 11000
  144.9427  139.4170  143.6441 LP  0  0  0  0  0  0  0  0  0  0  0  0  # atno 17320 bound_to 7965
  146.3278  139.8395  142.8893 LP  0  0  0  0  0  0  0  0  0  0  0  0  # atno 17321 bound_to 7965
  140.6548  143.2234  151.5994 LP  0  0  0  0  0  0  0  0  0  0  0  0  # atno 17342 bound_to 10162
  139.5315  144.2903  152.1157 LP  0  0  0  0  0  0  0  0  0  0  0  0  # atno 17343 bound_to 10162
  157.3369  131.0710  151.1818 LP  0  0  0  0  0  0  0  0  0  0  0  0  # atno 17370 bound_to 10713
  157.2679  130.6690  149.6005 LP  0  0  0  0  0  0  0  0  0  0  0  0  # atno 17371 bound_to 10713
  140.6895  134.4681  157.5589 LP  0  0  0  0  0  0  0  0  0  0  0  0  # atno 17394 bound_to 11000
  139.9037  134.8498  156.1792 LP  0  0  0  0  0  0  0  0  0  0  0  0  # atno 17395 bound_to 11000

$$$$
