AV-unprocessed.smi:2408|AV-procd|sdf|9520|dock4
  -GOLD-   2272013153D 1   1.00000     0.00000
 Structure written by MMmdl.
 47 49  0  0  0  0  0  0  0  0  1 V2000
  145.4412  135.6470  150.7817 C   0  0  0  0  0  0  0  0  0  0  0  0
  145.4004  134.1293  150.8228 C   0  0  0  0  0  0  0  0  0  0  0  0
  144.4687  133.5521  150.0313 N   0  0  0  0  0  0  0  0  0  0  0  0
  144.3831  132.2055  150.0226 C   0  0  0  0  0  0  0  0  0  0  0  0
  145.2110  131.3754  150.8013 C   0  0  0  0  0  0  0  0  0  0  0  0
  146.1810  131.9776  151.6243 C   0  0  0  0  0  0  0  0  0  0  0  0
  146.2950  133.3888  151.6339 C   0  0  0  0  0  0  0  0  0  0  0  0
  147.2304  134.0809  152.4510 N   0  0  0  0  0  0  0  0  0  0  0  0
  147.7721  133.6695  153.6093 C   0  0  0  0  0  0  0  0  0  0  0  0
  147.5244  132.5996  154.1655 O   0  0  0  0  0  0  0  0  0  0  0  0
  148.6619  134.5653  154.0725 N   0  0  0  0  0  0  0  0  0  0  0  0
  149.5061  134.4664  155.2780 C   0  0  0  0  0  0  0  0  0  0  0  0
  150.3868  135.7285  155.5092 C   0  0  0  0  0  0  0  0  0  0  0  0
  151.5943  135.6053  155.7204 O   0  0  0  0  0  0  0  0  0  0  0  0
  149.7890  136.9311  155.4903 N   0  0  0  0  0  0  0  0  0  0  0  0
  150.4628  138.2059  155.6789 C   0  0  0  0  0  0  0  0  0  0  0  0
  150.1618  139.2173  154.5929 C   0  0  0  0  0  0  0  0  0  0  0  0
  149.7864  140.6374  154.9459 C   0  0  0  0  0  0  0  0  0  0  0  0
  148.7528  139.7082  154.3556 C   0  0  0  0  0  0  0  0  0  0  0  0
  148.5774  134.2828  156.5033 C   0  0  0  0  0  0  0  0  0  0  0  0
  149.2887  133.3121  157.4436 C   0  0  0  0  0  0  0  0  0  0  0  0
  149.9781  132.3352  156.5014 C   0  0  0  0  0  0  0  0  0  0  0  0
  150.3608  133.1593  155.2659 C   0  0  0  0  0  0  0  0  0  0  0  0
  146.4299  135.9921  150.4783 H   0  0  0  0  0  0  0  0  0  0  0  0
  145.2184  136.0591  151.7660 H   0  0  0  0  0  0  0  0  0  0  0  0
  144.7144  136.0494  150.0745 H   0  0  0  0  0  0  0  0  0  0  0  0
  143.6281  131.7770  149.3803 H   0  0  0  0  0  0  0  0  0  0  0  0
  145.1013  130.3014  150.7716 H   0  0  0  0  0  0  0  0  0  0  0  0
  146.8083  131.3526  152.2418 H   0  0  0  0  0  0  0  0  0  0  0  0
  147.6029  134.9342  152.0611 H   0  0  0  0  0  0  0  0  0  0  0  0
  148.7847  135.4060  153.5277 H   0  0  0  0  0  0  0  0  0  0  0  0
  148.7956  136.9618  155.3125 H   0  0  0  0  0  0  0  0  0  0  0  0
  150.1849  138.6199  156.6495 H   0  0  0  0  0  0  0  0  0  0  0  0
  151.5410  138.0406  155.7001 H   0  0  0  0  0  0  0  0  0  0  0  0
  150.7877  139.1070  153.7089 H   0  0  0  0  0  0  0  0  0  0  0  0
  149.6901  140.8902  156.0000 H   0  0  0  0  0  0  0  0  0  0  0  0
  150.1703  141.4316  154.3086 H   0  0  0  0  0  0  0  0  0  0  0  0
  148.4496  139.8803  153.3251 H   0  0  0  0  0  0  0  0  0  0  0  0
  147.9692  139.3445  155.0176 H   0  0  0  0  0  0  0  0  0  0  0  0
  148.3314  135.2197  157.0064 H   0  0  0  0  0  0  0  0  0  0  0  0
  147.6282  133.8375  156.1993 H   0  0  0  0  0  0  0  0  0  0  0  0
  150.0330  133.8445  158.0373 H   0  0  0  0  0  0  0  0  0  0  0  0
  148.6044  132.8172  158.1334 H   0  0  0  0  0  0  0  0  0  0  0  0
  150.8378  131.8477  156.9622 H   0  0  0  0  0  0  0  0  0  0  0  0
  149.2734  131.5543  156.2124 H   0  0  0  0  0  0  0  0  0  0  0  0
  150.2014  132.5546  154.3726 H   0  0  0  0  0  0  0  0  0  0  0  0
  151.4303  133.3741  155.2868 H   0  0  0  0  0  0  0  0  0  0  0  0
  1  2  1  0  0  0  0
  1 24  1  0  0  0  0
  1 25  1  0  0  0  0
  1 26  1  0  0  0  0
  2  7  1  0  0  0  0
  2  3  2  0  0  0  0
  3  4  1  0  0  0  0
  4  5  2  0  0  0  0
  4 27  1  0  0  0  0
  5  6  1  0  0  0  0
  5 28  1  0  0  0  0
  6  7  2  0  0  0  0
  6 29  1  0  0  0  0
  7  8  1  0  0  0  0
  8  9  1  0  0  0  0
  8 30  1  0  0  0  0
  9 10  2  0  0  0  0
  9 11  1  0  0  0  0
 11 12  1  0  0  0  0
 11 31  1  0  0  0  0
 12 23  1  0  0  0  0
 12 13  1  0  0  0  0
 12 20  1  0  0  0  0
 13 14  2  0  0  0  0
 13 15  1  0  0  0  0
 15 16  1  0  0  0  0
 15 32  1  0  0  0  0
 16 17  1  0  0  0  0
 16 33  1  0  0  0  0
 16 34  1  0  0  0  0
 17 19  1  0  0  0  0
 17 18  1  0  0  0  0
 17 35  1  0  0  0  0
 18 19  1  0  0  0  0
 18 36  1  0  0  0  0
 18 37  1  0  0  0  0
 19 38  1  0  0  0  0
 19 39  1  0  0  0  0
 20 21  1  0  0  0  0
 20 40  1  0  0  0  0
 20 41  1  0  0  0  0
 21 22  1  0  0  0  0
 21 42  1  0  0  0  0
 21 43  1  0  0  0  0
 22 23  1  0  0  0  0
 22 44  1  0  0  0  0
 22 45  1  0  0  0  0
 23 46  1  0  0  0  0
 23 47  1  0  0  0  0
M  END
> <s_m_source_file>
AV-unprocessed.smi

> <i_m_source_file_index>
2408

> <i_lp_mmshare_version>
43012

> <i_f3d_flags>
0

> <s_epik_input>
W0NIM11jMW5bY0hdW2NIXVtjSF1jMVtOSF1DKD1PKVtOSF1DMihbQ0gyXVtDSDJdW0NIMl1bQ0gyXTIpQyg9TylbTkhdW0NIMl1bQ0hdM1tDSDJdW0NIMl0z

> <s_epik_cmdline>
J2VwaWtfcHl0aG9uJywgJy1waCcsICc3LjAnLCAnLXRuJywgJzgnLCAnLW1hJywgJzIwMCcsICctbWV0YWxfYmluZGluZycsICctaW1hZScsICc8aW5maWxlLm1hZT4nLCAnLW9tYWUnLCAnPG91dGZpbGUubWFlPic=

> <r_epik_Ionization_Penalty>
0.0173464

> <r_epik_Ionization_Penalty_Charging>
0

> <r_epik_Ionization_Penalty_Neutral>
0.0173464

> <r_epik_State_Penalty>
0.0137159

> <r_epik_Charging_Adjusted_Penalty>
0.0137159

> <i_epik_Tot_Q>
0

> <i_epik_Tot_abs_Q>
0

> <r_epik_Metal_State_Penalty>
0.0133255

> <b_epik_Metal_Only>
0

> <s_lp_Force_Field>
OPLS_2005

> <r_lp_Energy>
32.4155

> <b_lp_Chiralities_Consistent>
1

> <s_lp_Variant>
AV-unprocessed.smi:2408-1

> <Gold.Version>
5.8.1

> <Gold.Id.Protein>
6NUR|6NUR_protein|mol2

> <Gold.PLP.Fitness>
44.9356

> <Gold.PLP.PLP>
-36.8031

> <Gold.PLP.part.hbond>
-3.0000

> <Gold.PLP.part.metal>
0.0000

> <Gold.PLP.part.buried>
-5.6912

> <Gold.PLP.part.nonpolar>
-29.7418

> <Gold.PLP.part.repulsive>
0.3115

> <Gold.PLP.ligand.clash>
0.0000

> <Gold.PLP.ligand.torsion>
0.7192

> <Gold.PLP.Chemscore.Hbond>
2.9760

> <Gold.PLP.Chemscore.CHOScore>
0.0000

> <Gold.PLP.Chemscore.Metal>
0.0000

> <Gold.Chemscore.Hbonds>
donor molecule, donor type, donor heavy atom, donor atom, acceptor molecule, acceptor atom, score
      L1  H     8    30       P1  7948  1.00
      L1  H    11    31       P1  7948  0.96
      P1  H 10752 10764       L1    14  1.00

> <Gold.PLP.Chemscore.Internal.Correction>
0.6429

> <Gold.Rescore>
     Score         DG    S(hbond)    S(metal)    S(lipo)     H(rot)  DE(clash)    DE(int)     intcor
     18.19     -20.81       2.62        0.00      91.19       1.59       0.03       2.60       ----

> <Gold.Chemscore.Fitness>
18.1873

> <Gold.Chemscore.DG>
-20.8135

> <Gold.Chemscore.ZeroCoef>
-5.4800

> <Gold.Chemscore.Hbond>
2.6185

> <Gold.Chemscore.Metal>
0.0000

> <Gold.Chemscore.Lipo>
91.1857

> <Gold.Chemscore.Internal_Hbond>
0.0000

> <Gold.Chemscore.DEClash>
0.0285

> <Gold.Chemscore.DEInternal>
2.5977

> <Gold.Chemscore.Rot>
1.5941

> <Gold.Chemscore.Internal.Correction>
   9.000000E+99

> <Gold.Chemscore.Hbonds>
donor molecule, donor type, donor heavy atom, donor atom, acceptor molecule, acceptor atom, score
      L1  H     8    30       P1  7948  0.83
      L1  H    11    31       P1  7948  0.79
      P1  H 10752 10764       L1    14  0.98

> <Gold.Chemscore.Hbond.Weighted>
-8.7457

> <Gold.Chemscore.Metal.Weighted>
-0.0000

> <Gold.Chemscore.Lipo.Weighted>
-10.6687

> <Gold.Chemscore.Internal_Hbond.Weighted>
0.0000

> <Gold.Chemscore.DEClash.Weighted>
0.0285

> <Gold.Chemscore.DEInternal.Weighted>
2.5977

> <Gold.Chemscore.Rot.Weighted>
4.0809

> <Gold.Chemscore.Internal.Correction.Weighted>
   9.000000E+99

> <Gold.Protein.RotatedTorsions>
[ 6907 6896 6895 6894 ] final  -30.99 input  -60.11 | X-H torsion
[ 7974 7965 7964 7962 ] final  149.10 input  175.53 | X-H torsion
[ 8008 7997 7996 7995 ] final  123.08 input   59.86 | X-H torsion
[ 10167 10162 10161 10158 ] final  -73.35 input  -65.29 | X-H torsion
[ 10718 10713 10712 10709 ] final -114.48 input   66.30 | X-H torsion
[ 10763 10752 10751 10750 ] final  -26.30 input  -60.55 | X-H torsion
[ 11005 11000 10999 10996 ] final -153.40 input  -57.11 | X-H torsion

> <Gold.Protein.ActiveResidues>
 VAL166  LYS551  ARG553  GLY616  TRP617  ASP618  TYR619  PRO620  LYS621  CYS622 
 ASP623  PHE694  ASN695  SER759  ASP760  ASP761  ALA762  ILE779  LEU786  VAL792 
 PHE793  MET794  SER795  GLU796  ALA797  LYS798  CYS799  TRP800  GLU811  SER814 

> <Gold.Protein.RotatedAtoms>
  151.0981  134.9956  159.8435 H   0  0  0  0  0  0  0  0  0  0  0  0  # atno 6907 bound_to 6896
  152.5435  134.1983  159.8712 H   0  0  0  0  0  0  0  0  0  0  0  0  # atno 6908 bound_to 6896
  151.2024  133.4559  159.2630 H   0  0  0  0  0  0  0  0  0  0  0  0  # atno 6909 bound_to 6896
  144.8463  139.6238  143.5994 H   0  0  0  0  0  0  0  0  0  0  0  0  # atno 7974 bound_to 7965
  156.2752  140.2771  156.1571 H   0  0  0  0  0  0  0  0  0  0  0  0  # atno 8008 bound_to 7997
  155.0793  140.0387  157.2651 H   0  0  0  0  0  0  0  0  0  0  0  0  # atno 8009 bound_to 7997
  154.6977  140.2642  155.6755 H   0  0  0  0  0  0  0  0  0  0  0  0  # atno 8010 bound_to 7997
  140.5117  143.2344  151.7581 H   0  0  0  0  0  0  0  0  0  0  0  0  # atno 10167 bound_to 10162
  156.0833  130.6029  150.8780 H   0  0  0  0  0  0  0  0  0  0  0  0  # atno 10718 bound_to 10713
  153.7138  135.6949  153.5030 H   0  0  0  0  0  0  0  0  0  0  0  0  # atno 10763 bound_to 10752
  153.2253  135.4356  155.0534 H   0  0  0  0  0  0  0  0  0  0  0  0  # atno 10764 bound_to 10752
  154.8306  135.3471  154.6674 H   0  0  0  0  0  0  0  0  0  0  0  0  # atno 10765 bound_to 10752
  140.7086  134.3858  157.5201 H   0  0  0  0  0  0  0  0  0  0  0  0  # atno 11005 bound_to 11000
  146.2747  139.6723  142.9271 LP  0  0  0  0  0  0  0  0  0  0  0  0  # atno 17320 bound_to 7965
  145.4590  141.0432  143.2762 LP  0  0  0  0  0  0  0  0  0  0  0  0  # atno 17321 bound_to 7965
  139.4898  144.4380  151.9796 LP  0  0  0  0  0  0  0  0  0  0  0  0  # atno 17342 bound_to 10162
  140.3473  144.3131  150.5956 LP  0  0  0  0  0  0  0  0  0  0  0  0  # atno 17343 bound_to 10162
  157.5958  131.0943  150.9044 LP  0  0  0  0  0  0  0  0  0  0  0  0  # atno 17370 bound_to 10713
  156.9211  130.5315  149.5279 LP  0  0  0  0  0  0  0  0  0  0  0  0  # atno 17371 bound_to 10713
  139.8877  134.8874  156.2511 LP  0  0  0  0  0  0  0  0  0  0  0  0  # atno 17394 bound_to 11000
  141.0104  133.7099  156.1102 LP  0  0  0  0  0  0  0  0  0  0  0  0  # atno 17395 bound_to 11000

$$$$
