#       Name:                AV-unprocessed.smi:3193
#       Creating user name   scv26
#       Creation time:       Fri Mar 27 18:03:48 2020


#       File generated by GOLD software.
#

@<TRIPOS>MOLECULE
AV-unprocessed.smi:3193
    41    42     1
SMALL
NO_CHARGES


@<TRIPOS>ATOM
      1 ****        -3.5155   0.5472   0.4846 C.3            1 S1                 0.0000
      2 ****        -2.6400   1.3682  -0.4843 C.3            1 S1                 0.0000
      3 ****        -3.0720   2.8496  -0.5239 C.3            1 S1                 0.0000
      4 ****        -2.6703   3.6112   0.7504 C.3            1 S1                 0.0000
      5 ****        -1.1637   3.4878   1.0188 C.3            1 S1                 0.0000
      6 ****        -0.7204   2.0173   1.0732 C.3            1 S1                 0.0000
      7 ****        -1.1151   1.2581  -0.2139 C.3            1 S1                 0.0000
      8 ****        -0.6150  -0.2007  -0.2138 C.3            1 S1                 0.0000
      9 ****         0.8578  -0.2718  -0.2955 N.4            1 S1                 1.0000
     10 ****         1.3900  -1.6469  -0.3526 C.3            1 S1                 0.0000
     11 ****         2.9224  -1.6425  -0.4343 C.3            1 S1                 0.0000
     12 ****         3.4532  -2.9886  -0.5069 N.pl3          1 S1                 0.0000
     13 ****         3.7815  -3.8191   0.5566 C.2            1 S1                 0.0000
     14 ****         4.2388  -4.9965   0.0089 C.2            1 S1                 0.0000
     15 ****         4.1996  -4.9129  -1.3810 N.2            1 S1                 0.0000
     16 ****         3.7251  -3.6959  -1.6122 C.2            1 S1                 0.0000
     17 ****        -3.3668   0.8397   1.5236 H              1 S1                 0.0000
     18 ****        -3.3081  -0.5199   0.4076 H              1 S1                 0.0000
     19 ****        -4.5735   0.6798   0.2572 H              1 S1                 0.0000
     20 ****        -2.8248   0.9617  -1.4798 H              1 S1                 0.0000
     21 ****        -2.6102   3.3343  -1.3854 H              1 S1                 0.0000
     22 ****        -4.1487   2.9263  -0.6795 H              1 S1                 0.0000
     23 ****        -2.9433   4.6624   0.6533 H              1 S1                 0.0000
     24 ****        -3.2291   3.2295   1.6053 H              1 S1                 0.0000
     25 ****        -0.6115   4.0058   0.2336 H              1 S1                 0.0000
     26 ****        -0.9107   3.9879   1.9541 H              1 S1                 0.0000
     27 ****         0.3596   1.9805   1.2177 H              1 S1                 0.0000
     28 ****        -1.1584   1.5334   1.9467 H              1 S1                 0.0000
     29 ****        -0.6205   1.7604  -1.0475 H              1 S1                 0.0000
     30 ****        -0.9499  -0.7231   0.6831 H              1 S1                 0.0000
     31 ****        -1.0318  -0.7320  -1.0706 H              1 S1                 0.0000
     32 ****         1.1565   0.2227  -1.1239 H              1 S1                 0.0000
     33 ****         1.0639  -2.1956   0.5321 H              1 S1                 0.0000
     34 ****         0.9717  -2.1569  -1.2216 H              1 S1                 0.0000
     35 ****         3.2580  -1.0888  -1.3125 H              1 S1                 0.0000
     36 ****         3.3517  -1.1477   0.4379 H              1 S1                 0.0000
     37 ****         3.6667  -3.5146   1.5865 H              1 S1                 0.0000
     38 ****         4.5896  -5.8901   0.5038 H              1 S1                 0.0000
     39 ****         3.5695  -3.3113  -2.6097 H              1 S1                 0.0000
     40 ****         1.2453   0.1909   0.5147 H              1 S1                 0.0000
     41 ****         4.4667  -5.6079  -2.0486 LP             1 S1                 0.0000
@<TRIPOS>BOND
    1    1    2 1     
    2    1   17 1     
    3    1   18 1     
    4    1   19 1     
    5    2    7 1     
    6    2    3 1     
    7    2   20 1     
    8    3    4 1     
    9    3   21 1     
   10    3   22 1     
   11    4    5 1     
   12    4   23 1     
   13    4   24 1     
   14    5    6 1     
   15    5   25 1     
   16    5   26 1     
   17    6    7 1     
   18    6   27 1     
   19    6   28 1     
   20    7    8 1     
   21    7   29 1     
   22    8    9 1     
   23    8   30 1     
   24    8   31 1     
   25    9   10 1     
   26    9   32 1     
   27    9   40 1     
   28   10   11 1     
   29   10   33 1     
   30   10   34 1     
   31   11   12 1     
   32   11   35 1     
   33   11   36 1     
   34   12   16 1     
   35   12   13 1     
   36   13   14 2     
   37   13   37 1     
   38   14   15 1     
   39   14   38 1     
   40   15   16 2     
   41   16   39 1     
   42   15   41 1     
@<TRIPOS>SUBSTRUCTURE
      1 S1             1
@<TRIPOS>SET
LONE_PAIRS      STATIC     ATOMS    <user>   **** ""
1 41
DONOR_HYDROGENS      STATIC     ATOMS    <user>   **** ""
2 32 40
ATOM$BLUE        STATIC     ATOMS    COLORGROUP SYSTEM
1 41
ATOM$RED        STATIC     ATOMS    COLORGROUP SYSTEM
2 32 40
