#       Name:                AV-unprocessed.smi:898
#       Creating user name   scv26
#       Creation time:       Fri Mar 27 01:57:10 2020


#       File generated by GOLD software.
#

@<TRIPOS>MOLECULE
AV-unprocessed.smi:898
    38    40     1
SMALL
NO_CHARGES


@<TRIPOS>ATOM
      1 ****         0.0186   1.5872   0.4830 O.2            1 S1                 0.0000
      2 ****        -0.3205   0.5157  -0.0196 C.2            1 S1                 0.0000
      3 ****         0.5032  -0.5120  -0.2903 N.am           1 S1                 0.0000
      4 ****         1.9022  -0.6026  -0.0636 C.2            1 S1                 0.0000
      5 ****         2.6401   0.3918   0.4490 N.2            1 S1                 0.0000
      6 ****         3.9766   0.0369   0.5675 N.2            1 S1                 0.0000
      7 ****         4.2111  -1.2105   0.1424 C.2            1 S1                 0.0000
      8 ****         5.5735  -1.8195   0.1748 C.3            1 S1                 0.0000
      9 ****         6.6303  -1.4017  -0.8216 C.3            1 S1                 0.0000
     10 ****         6.0377  -2.7858  -0.8933 C.3            1 S1                 0.0000
     11 ****         2.7908  -2.0661  -0.4498 S.3            1 S1                 0.0000
     12 ****        -1.5843   0.2271  -0.3639 N.am           1 S1                 0.0000
     13 ****        -2.7301   1.1174  -0.1971 C.3            1 S1                 0.0000
     14 ****        -3.2873   1.0071   1.2379 C.3            1 S1                 0.0000
     15 ****        -4.4662   1.9611   1.4902 C.3            1 S1                 0.0000
     16 ****        -5.6550   1.6844   0.5591 C.3            1 S1                 0.0000
     17 ****        -5.1974   1.9243  -1.1789 S.3            1 S1                 0.0000
     18 ****        -3.7973   0.7733  -1.2508 C.3            1 S1                 0.0000
     19 ****         0.0776  -1.3307  -0.6987 H              1 S1                 0.0000
     20 ****         5.8853  -2.0078   1.2003 H              1 S1                 0.0000
     21 ****         6.3436  -0.6928  -1.5963 H              1 S1                 0.0000
     22 ****         7.6523  -1.3095  -0.4597 H              1 S1                 0.0000
     23 ****         6.6656  -3.6169  -0.5787 H              1 S1                 0.0000
     24 ****         5.3683  -2.9972  -1.7247 H              1 S1                 0.0000
     25 ****        -1.7703  -0.6778  -0.7706 H              1 S1                 0.0000
     26 ****        -2.4030   2.1444  -0.3724 H              1 S1                 0.0000
     27 ****        -3.5984  -0.0191   1.4383 H              1 S1                 0.0000
     28 ****        -2.4980   1.2310   1.9567 H              1 S1                 0.0000
     29 ****        -4.7918   1.8619   2.5262 H              1 S1                 0.0000
     30 ****        -4.1374   2.9942   1.3714 H              1 S1                 0.0000
     31 ****        -6.0160   0.6645   0.6946 H              1 S1                 0.0000
     32 ****        -6.4840   2.3514   0.7970 H              1 S1                 0.0000
     33 ****        -3.3712   0.8176  -2.2538 H              1 S1                 0.0000
     34 ****        -4.1681  -0.2421  -1.1051 H              1 S1                 0.0000
     35 ****         0.9761   1.7456   0.7242 LP             1 S1                 0.0000
     36 ****        -0.6635   2.2992   0.6501 LP             1 S1                 0.0000
     37 ****         2.2718   1.2829   0.7144 LP             1 S1                 0.0000
     38 ****         4.6840   0.6441   0.9294 LP             1 S1                 0.0000
@<TRIPOS>BOND
    1    1    2 2     
    2    2    3 am    
    3    2   12 am    
    4    3    4 1     
    5    3   19 1     
    6    4   11 1     
    7    4    5 2     
    8    5    6 1     
    9    6    7 2     
   10    7    8 1     
   11    7   11 1     
   12    8   10 1     
   13    8    9 1     
   14    8   20 1     
   15    9   10 1     
   16    9   21 1     
   17    9   22 1     
   18   10   23 1     
   19   10   24 1     
   20   12   13 1     
   21   12   25 1     
   22   13   18 1     
   23   13   14 1     
   24   13   26 1     
   25   14   15 1     
   26   14   27 1     
   27   14   28 1     
   28   15   16 1     
   29   15   29 1     
   30   15   30 1     
   31   16   17 1     
   32   16   31 1     
   33   16   32 1     
   34   17   18 1     
   35   18   33 1     
   36   18   34 1     
   37    1   35 1     
   38    1   36 1     
   39    5   37 1     
   40    6   38 1     
@<TRIPOS>SUBSTRUCTURE
      1 S1             1
@<TRIPOS>SET
LONE_PAIRS      STATIC     ATOMS    <user>   **** ""
4 35 36 37 38
DONOR_HYDROGENS      STATIC     ATOMS    <user>   **** ""
2 19 25
ATOM$BLUE        STATIC     ATOMS    COLORGROUP SYSTEM
4 35 36 37 38
ATOM$RED        STATIC     ATOMS    COLORGROUP SYSTEM
2 19 25
