AV-unprocessed.smi:1586|AV-procd|sdf|6375|dock3
  -GOLD-   22720 7 03D 1   1.00000     0.00000
 Structure written by MMmdl.
 47 48  0  0  0  0  0  0  0  0  2 V2000
  145.2108  131.2589  151.4845 C   0  0  0  0  0  0  0  0  0  0  0  0
  145.4962  132.1657  152.6902 C   0  0  0  0  0  0  0  0  0  0  0  0
  146.8123  132.8025  152.5988 N   0  0  0  0  0  0  0  0  0  0  0  0
  147.0303  133.4510  151.3060 C   0  0  0  0  0  0  0  0  0  0  0  0
  146.1742  134.7245  151.1359 C   0  0  0  0  0  0  0  0  0  0  0  0
  146.4530  135.7079  152.2193 N   0  3  0  0  0  0  0  0  0  0  0  0
  145.7231  137.0138  152.1188 C   0  0  2  0  0  0  0  0  0  0  0  0
  145.9012  137.7217  150.7536 C   0  0  0  0  0  0  0  0  0  0  0  0
  146.1571  137.9605  153.2697 C   0  0  0  0  0  0  0  0  0  0  0  0
  147.5443  138.4018  153.1555 N   0  0  0  0  0  0  0  0  0  0  0  0
  148.4498  138.3301  154.1417 C   0  0  0  0  0  0  0  0  0  0  0  0
  148.1967  137.8787  155.2593 O   0  0  0  0  0  0  0  0  0  0  0  0
  149.6418  138.8118  153.7506 N   0  0  0  0  0  0  0  0  0  0  0  0
  150.8280  138.9083  154.5220 C   0  0  0  0  0  0  0  0  0  0  0  0
  151.5052  137.7425  154.9681 C   0  0  0  0  0  0  0  0  0  0  0  0
  152.5713  138.2504  155.6561 C   0  0  0  0  0  0  0  0  0  0  0  0
  153.7011  137.6148  156.3912 C   0  0  0  0  0  0  0  0  0  0  0  0
  152.5463  139.6104  155.6316 O   0  0  0  0  0  0  0  0  0  0  0  0
  151.4260  140.0264  154.9026 N   0  0  0  0  0  0  0  0  0  0  0  0
  146.2561  135.0470  153.5390 C   0  0  0  0  0  0  0  0  0  0  0  0
  147.1124  133.7699  153.6576 C   0  0  0  0  0  0  0  0  0  0  0  0
  144.1795  130.9068  151.5096 H   0  0  0  0  0  0  0  0  0  0  0  0
  145.8503  130.3767  151.4745 H   0  0  0  0  0  0  0  0  0  0  0  0
  145.3530  131.7930  150.5445 H   0  0  0  0  0  0  0  0  0  0  0  0
  144.7374  132.9491  152.7075 H   0  0  0  0  0  0  0  0  0  0  0  0
  145.3806  131.6061  153.6174 H   0  0  0  0  0  0  0  0  0  0  0  0
  148.0870  133.7083  151.2198 H   0  0  0  0  0  0  0  0  0  0  0  0
  146.8227  132.7448  150.5012 H   0  0  0  0  0  0  0  0  0  0  0  0
  146.4304  135.1463  150.1647 H   0  0  0  0  0  0  0  0  0  0  0  0
  145.1103  134.4850  151.1092 H   0  0  0  0  0  0  0  0  0  0  0  0
  144.6583  136.7977  152.2199 H   0  0  0  0  0  0  0  0  0  0  0  0
  145.3795  138.6782  150.7244 H   0  0  0  0  0  0  0  0  0  0  0  0
  145.4872  137.1373  149.9318 H   0  0  0  0  0  0  0  0  0  0  0  0
  146.9523  137.9179  150.5395 H   0  0  0  0  0  0  0  0  0  0  0  0
  145.5277  138.8476  153.3311 H   0  0  0  0  0  0  0  0  0  0  0  0
  146.0475  137.4493  154.2266 H   0  0  0  0  0  0  0  0  0  0  0  0
  147.8327  138.7847  152.2668 H   0  0  0  0  0  0  0  0  0  0  0  0
  149.7085  139.1490  152.8018 H   0  0  0  0  0  0  0  0  0  0  0  0
  151.2544  136.7041  154.8114 H   0  0  0  0  0  0  0  0  0  0  0  0
  153.5858  136.5314  156.4226 H   0  0  0  0  0  0  0  0  0  0  0  0
  153.7485  137.9793  157.4175 H   0  0  0  0  0  0  0  0  0  0  0  0
  154.6517  137.8398  155.9075 H   0  0  0  0  0  0  0  0  0  0  0  0
  146.5412  135.7147  154.3495 H   0  0  0  0  0  0  0  0  0  0  0  0
  145.1998  134.8231  153.6917 H   0  0  0  0  0  0  0  0  0  0  0  0
  146.9808  133.3151  154.6387 H   0  0  0  0  0  0  0  0  0  0  0  0
  148.1685  134.0357  153.5930 H   0  0  0  0  0  0  0  0  0  0  0  0
  147.4360  135.9257  152.1427 H   0  0  0  0  0  0  0  0  0  0  0  0
  1  2  1  0  0  0  0
  1 22  1  0  0  0  0
  1 23  1  0  0  0  0
  1 24  1  0  0  0  0
  2  3  1  0  0  0  0
  2 25  1  0  0  0  0
  2 26  1  0  0  0  0
  3 21  1  0  0  0  0
  3  4  1  0  0  0  0
  4  5  1  0  0  0  0
  4 27  1  0  0  0  0
  4 28  1  0  0  0  0
  5  6  1  0  0  0  0
  5 29  1  0  0  0  0
  5 30  1  0  0  0  0
  6  7  1  0  0  0  0
  6 20  1  0  0  0  0
  6 47  1  0  0  0  0
  7  8  1  0  0  0  0
  7  9  1  0  0  0  0
  7 31  1  0  0  0  0
  8 32  1  0  0  0  0
  8 33  1  0  0  0  0
  8 34  1  0  0  0  0
  9 10  1  0  0  0  0
  9 35  1  0  0  0  0
  9 36  1  0  0  0  0
 10 11  1  0  0  0  0
 10 37  1  0  0  0  0
 11 12  2  0  0  0  0
 11 13  1  0  0  0  0
 13 14  1  0  0  0  0
 13 38  1  0  0  0  0
 14 19  2  0  0  0  0
 14 15  1  0  0  0  0
 15 16  2  0  0  0  0
 15 39  1  0  0  0  0
 16 17  1  0  0  0  0
 16 18  1  0  0  0  0
 17 40  1  0  0  0  0
 17 41  1  0  0  0  0
 17 42  1  0  0  0  0
 18 19  1  0  0  0  0
 20 21  1  0  0  0  0
 20 43  1  0  0  0  0
 20 44  1  0  0  0  0
 21 45  1  0  0  0  0
 21 46  1  0  0  0  0
M  CHG  1   6   1
M  END
> <s_m_source_file>
AV-unprocessed.smi

> <i_m_source_file_index>
1586

> <i_lp_mmshare_version>
43012

> <i_f3d_flags>
0

> <s_epik_input>
W0NIM11bQ0gyXU4xW0NIMl1bQ0gyXU4oW0NIMl1bQ0gyXTEpW0NASF0oW0NIM10pW0NIMl1bTkhdQyg9TylbTkhdYzJbY0hdYyhbQ0gzXSlvbjI=

> <s_epik_cmdline>
J2VwaWtfcHl0aG9uJywgJy1waCcsICc3LjAnLCAnLXRuJywgJzgnLCAnLW1hJywgJzIwMCcsICctbWV0YWxfYmluZGluZycsICctaW1hZScsICc8aW5maWxlLm1hZT4nLCAnLW9tYWUnLCAnPG91dGZpbGUubWFlPic=

> <r_epik_Ionization_Penalty>
0.153363

> <r_epik_Ionization_Penalty_Charging>
0.151842

> <r_epik_Ionization_Penalty_Neutral>
0.00152029

> <r_epik_State_Penalty>
0.985235

> <r_epik_Charging_Adjusted_Penalty>
1.13708

> <i_epik_Tot_Q>
1

> <i_epik_Tot_abs_Q>
1

> <r_epik_Metal_State_Penalty>
0.996168

> <b_epik_Metal_Only>
0

> <s_lp_Force_Field>
OPLS_2005

> <r_lp_Energy>
18.9403

> <b_lp_Chiralities_Consistent>
1

> <s_lp_Variant>
AV-unprocessed.smi:1586-3

> <Gold.Version>
5.8.1

> <Gold.Id.Protein>
6NUR|6NUR_protein|mol2

> <Gold.PLP.Fitness>
43.3885

> <Gold.PLP.PLP>
-28.9673

> <Gold.PLP.part.hbond>
-5.8460

> <Gold.PLP.part.metal>
0.0000

> <Gold.PLP.part.buried>
2.9294

> <Gold.PLP.part.nonpolar>
-25.9091

> <Gold.PLP.part.repulsive>
0.4356

> <Gold.PLP.ligand.clash>
0.0000

> <Gold.PLP.ligand.torsion>
0.7288

> <Gold.PLP.Chemscore.Hbond>
5.2668

> <Gold.PLP.Chemscore.CHOScore>
0.0000

> <Gold.PLP.Chemscore.Metal>
0.0000

> <Gold.Chemscore.Hbonds>
donor molecule, donor type, donor heavy atom, donor atom, acceptor molecule, acceptor atom, score
      L1  H     6    47       P1  7948  2.00
      L1  H    10    37       P1  7957  0.04
      L1  H    13    38       P1  7957  1.00
      P1  H  7989  7998       L1    19  1.00
      P1  H  7997  8009       L1    18  1.00

> <Gold.PLP.Chemscore.Internal.Correction>
0.0782

> <Gold.Rescore>
     Score         DG    S(hbond)    S(metal)    S(lipo)     H(rot)  DE(clash)    DE(int)     intcor
     20.60     -23.15       4.20        0.00      69.63       1.76       2.00       0.55       ----

> <Gold.Chemscore.Fitness>
20.6044

> <Gold.Chemscore.DG>
-23.1455

> <Gold.Chemscore.ZeroCoef>
-5.4800

> <Gold.Chemscore.Hbond>
4.2018

> <Gold.Chemscore.Metal>
0.0000

> <Gold.Chemscore.Lipo>
69.6271

> <Gold.Chemscore.Internal_Hbond>
0.0000

> <Gold.Chemscore.DEClash>
1.9956

> <Gold.Chemscore.DEInternal>
0.5455

> <Gold.Chemscore.Rot>
1.7637

> <Gold.Chemscore.Internal.Correction>
   9.000000E+99

> <Gold.Chemscore.Hbonds>
donor molecule, donor type, donor heavy atom, donor atom, acceptor molecule, acceptor atom, score
      L1  H     6    47       P1  7948  0.95
      L1  H    10    37       P1  7957  0.09
      L1  H    13    38       P1  7957  0.97
      P1  H  7989  7998       L1    19  0.48
      P1  H  7997  8009       L1    18  0.44

> <Gold.Chemscore.Hbond.Weighted>
-14.0342

> <Gold.Chemscore.Metal.Weighted>
-0.0000

> <Gold.Chemscore.Lipo.Weighted>
-8.1464

> <Gold.Chemscore.Internal_Hbond.Weighted>
0.0000

> <Gold.Chemscore.DEClash.Weighted>
1.9956

> <Gold.Chemscore.DEInternal.Weighted>
0.5455

> <Gold.Chemscore.Rot.Weighted>
4.5150

> <Gold.Chemscore.Internal.Correction.Weighted>
   9.000000E+99

> <Gold.Protein.RotatedTorsions>
[ 6907 6896 6895 6894 ] final -120.78 input  -60.11 | X-H torsion
[ 7974 7965 7964 7962 ] final  169.71 input  175.53 | X-H torsion
[ 8008 7997 7996 7995 ] final -158.43 input   59.86 | X-H torsion
[ 10167 10162 10161 10158 ] final   18.10 input  -65.29 | X-H torsion
[ 10718 10713 10712 10709 ] final  -65.83 input   66.30 | X-H torsion
[ 10763 10752 10751 10750 ] final  -41.50 input  -60.55 | X-H torsion
[ 11005 11000 10999 10996 ] final  -27.47 input  -57.11 | X-H torsion

> <Gold.Protein.ActiveResidues>
 VAL166  LYS551  ARG553  GLY616  TRP617  ASP618  TYR619  PRO620  LYS621  CYS622 
 ASP623  PHE694  ASN695  SER759  ASP760  ASP761  ALA762  ILE779  LEU786  VAL792 
 PHE793  MET794  SER795  GLU796  ALA797  LYS798  CYS799  TRP800  GLU811  SER814 

> <Gold.Protein.RotatedAtoms>
  150.8424  133.7915  159.3055 H   0  0  0  0  0  0  0  0  0  0  0  0  # atno 6907 bound_to 6896
  151.5612  135.1064  159.9982 H   0  0  0  0  0  0  0  0  0  0  0  0  # atno 6908 bound_to 6896
  152.4485  133.7540  159.6766 H   0  0  0  0  0  0  0  0  0  0  0  0  # atno 6909 bound_to 6896
  144.7346  139.9095  143.6414 H   0  0  0  0  0  0  0  0  0  0  0  0  # atno 7974 bound_to 7965
  155.7475  140.0822  157.2217 H   0  0  0  0  0  0  0  0  0  0  0  0  # atno 8008 bound_to 7997
  154.4015  140.1566  156.2742 H   0  0  0  0  0  0  0  0  0  0  0  0  # atno 8009 bound_to 7997
  155.8962  140.3412  155.5995 H   0  0  0  0  0  0  0  0  0  0  0  0  # atno 8010 bound_to 7997
  140.5678  143.9219  150.6689 H   0  0  0  0  0  0  0  0  0  0  0  0  # atno 10167 bound_to 10162
  156.0647  130.4253  150.1621 H   0  0  0  0  0  0  0  0  0  0  0  0  # atno 10718 bound_to 10713
  153.9636  135.6736  153.4745 H   0  0  0  0  0  0  0  0  0  0  0  0  # atno 10763 bound_to 10752
  153.0826  135.4915  154.8530 H   0  0  0  0  0  0  0  0  0  0  0  0  # atno 10764 bound_to 10752
  154.7259  135.3127  154.8932 H   0  0  0  0  0  0  0  0  0  0  0  0  # atno 10765 bound_to 10752
  140.9122  133.7453  156.0686 H   0  0  0  0  0  0  0  0  0  0  0  0  # atno 11005 bound_to 11000
  146.1012  139.4007  143.0346 LP  0  0  0  0  0  0  0  0  0  0  0  0  # atno 17320 bound_to 7965
  145.7576  140.9948  143.1217 LP  0  0  0  0  0  0  0  0  0  0  0  0  # atno 17321 bound_to 7965
  140.2686  143.3472  152.1258 LP  0  0  0  0  0  0  0  0  0  0  0  0  # atno 17342 bound_to 10162
  139.5101  144.6879  151.5838 LP  0  0  0  0  0  0  0  0  0  0  0  0  # atno 17343 bound_to 10162
  156.9684  130.9827  151.3464 LP  0  0  0  0  0  0  0  0  0  0  0  0  # atno 17370 bound_to 10713
  157.5680  130.8291  149.8353 LP  0  0  0  0  0  0  0  0  0  0  0  0  # atno 17371 bound_to 10713
  140.8095  134.3415  157.5416 LP  0  0  0  0  0  0  0  0  0  0  0  0  # atno 17394 bound_to 11000
  139.8759  134.9246  156.3353 LP  0  0  0  0  0  0  0  0  0  0  0  0  # atno 17395 bound_to 11000

$$$$
