AV-unprocessed.smi:109|AV-procd|sdf|1059|dock1
  -GOLD-   2262018133D 1   1.00000     0.00000
 Structure written by MMmdl.
 58 61  0  0  0  0  0  0  0  0  1 V2000
  152.1141  139.5488  154.7573 O   0  0  0  0  0  0  0  0  0  0  0  0
  152.4347  139.2413  156.0969 C   0  0  0  0  0  0  0  0  0  0  0  0
  151.1785  139.3609  156.9771 C   0  0  0  0  0  0  0  0  0  0  0  0
  150.5981  140.7944  157.0702 C   0  0  2  0  0  0  0  0  0  0  0  0
  150.2787  141.2818  155.7262 N   0  0  0  0  0  0  0  0  0  0  0  0
  149.3406  140.6975  154.9472 C   0  0  0  0  0  0  0  0  0  0  0  0
  149.1239  141.1030  153.6692 N   0  0  0  0  0  0  0  0  0  0  0  0
  148.1808  140.5122  152.9304 C   0  0  0  0  0  0  0  0  0  0  0  0
  147.3586  139.5171  153.2691 N   0  0  0  0  0  0  0  0  0  0  0  0
  147.5742  139.0998  154.5502 C   0  0  0  0  0  0  0  0  0  0  0  0
  148.5400  139.6378  155.4463 C   0  0  0  0  0  0  0  0  0  0  0  0
  148.4736  138.9749  156.6642 N   0  0  0  0  0  0  0  0  0  0  0  0
  147.5211  138.0981  156.4941 C   0  0  0  0  0  0  0  0  0  0  0  0
  146.9234  138.1038  155.2531 N   0  0  0  0  0  0  0  0  0  0  0  0
  145.8090  137.2164  154.7832 C   0  0  2  0  0  0  0  0  0  0  0  0
  146.1344  136.6866  153.5305 O   0  0  0  0  0  0  0  0  0  0  0  0
  145.1695  137.0744  152.5523 C   0  0  1  0  0  0  0  0  0  0  0  0
  145.0287  135.9657  151.4988 C   0  0  0  0  0  0  0  0  0  0  0  0
  145.6231  136.3765  150.2864 O   0  0  0  0  0  0  0  0  0  0  0  0
  143.9078  137.2919  153.3885 C   0  0  2  0  0  0  0  0  0  0  0  0
  142.9291  138.0805  152.7384 O   0  0  0  0  0  0  0  0  0  0  0  0
  144.4594  137.9477  154.6462 C   0  0  2  0  0  0  0  0  0  0  0  0
  144.5862  139.3562  154.5200 O   0  0  0  0  0  0  0  0  0  0  0  0
  151.5513  141.8064  157.7696 C   0  0  0  0  0  0  0  0  0  0  0  0
  151.8176  141.4698  159.2587 C   0  0  0  0  0  0  0  0  0  0  0  0
  152.7252  142.5051  159.9438 C   0  0  0  0  0  0  0  0  0  0  0  0
  152.1549  143.9229  159.8208 C   0  0  0  0  0  0  0  0  0  0  0  0
  151.9167  144.2808  158.3495 C   0  0  0  0  0  0  0  0  0  0  0  0
  150.9993  143.2521  157.6708 C   0  0  0  0  0  0  0  0  0  0  0  0
  145.7769  136.4043  155.5109 H   0  0  0  0  0  0  0  0  0  0  0  0
  145.4658  138.0182  152.0916 H   0  0  0  0  0  0  0  0  0  0  0  0
  143.4707  136.3261  153.6479 H   0  0  0  0  0  0  0  0  0  0  0  0
  143.8367  137.7365  155.5162 H   0  0  0  0  0  0  0  0  0  0  0  0
  152.1179  138.7479  154.2558 H   0  0  0  0  0  0  0  0  0  0  0  0
  152.8474  138.2330  156.1293 H   0  0  0  0  0  0  0  0  0  0  0  0
  153.2109  139.9258  156.4402 H   0  0  0  0  0  0  0  0  0  0  0  0
  150.4360  138.6891  156.5504 H   0  0  0  0  0  0  0  0  0  0  0  0
  151.3936  138.9862  157.9788 H   0  0  0  0  0  0  0  0  0  0  0  0
  149.6980  140.7468  157.6826 H   0  0  0  0  0  0  0  0  0  0  0  0
  150.7921  142.1002  155.4316 H   0  0  0  0  0  0  0  0  0  0  0  0
  148.0676  140.8917  151.9257 H   0  0  0  0  0  0  0  0  0  0  0  0
  147.2233  137.4179  157.2787 H   0  0  0  0  0  0  0  0  0  0  0  0
  145.4721  135.0310  151.8431 H   0  0  0  0  0  0  0  0  0  0  0  0
  143.9753  135.7699  151.2966 H   0  0  0  0  0  0  0  0  0  0  0  0
  145.3609  137.2676  150.1114 H   0  0  0  0  0  0  0  0  0  0  0  0
  143.2664  138.9586  152.6464 H   0  0  0  0  0  0  0  0  0  0  0  0
  144.3232  139.6014  153.6454 H   0  0  0  0  0  0  0  0  0  0  0  0
  152.5106  141.7779  157.2501 H   0  0  0  0  0  0  0  0  0  0  0  0
  150.8711  141.4014  159.7961 H   0  0  0  0  0  0  0  0  0  0  0  0
  152.3025  140.5000  159.3568 H   0  0  0  0  0  0  0  0  0  0  0  0
  152.8528  142.2477  160.9956 H   0  0  0  0  0  0  0  0  0  0  0  0
  153.7189  142.4719  159.4956 H   0  0  0  0  0  0  0  0  0  0  0  0
  151.2168  143.9919  160.3729 H   0  0  0  0  0  0  0  0  0  0  0  0
  152.8377  144.6414  160.2750 H   0  0  0  0  0  0  0  0  0  0  0  0
  151.4766  145.2756  158.2764 H   0  0  0  0  0  0  0  0  0  0  0  0
  152.8707  144.3246  157.8225 H   0  0  0  0  0  0  0  0  0  0  0  0
  150.8694  143.5477  156.6296 H   0  0  0  0  0  0  0  0  0  0  0  0
  150.0083  143.2969  158.1247 H   0  0  0  0  0  0  0  0  0  0  0  0
  1  2  1  0  0  0  0
  1 34  1  0  0  0  0
  2  3  1  0  0  0  0
  2 35  1  0  0  0  0
  2 36  1  0  0  0  0
  3  4  1  0  0  0  0
  3 37  1  0  0  0  0
  3 38  1  0  0  0  0
  4  5  1  0  0  0  0
  4 24  1  0  0  0  0
  4 39  1  0  0  0  0
  5  6  1  0  0  0  0
  5 40  1  0  0  0  0
  6 11  1  0  0  0  0
  6  7  2  0  0  0  0
  7  8  1  0  0  0  0
  8  9  2  0  0  0  0
  8 41  1  0  0  0  0
  9 10  1  0  0  0  0
 10 14  1  0  0  0  0
 10 11  2  0  0  0  0
 11 12  1  0  0  0  0
 12 13  2  0  0  0  0
 13 14  1  0  0  0  0
 13 42  1  0  0  0  0
 14 15  1  0  0  0  0
 15 30  1  0  0  0  0
 15 22  1  0  0  0  0
 15 16  1  0  0  0  0
 16 17  1  0  0  0  0
 17 31  1  0  0  0  0
 17 18  1  0  0  0  0
 17 20  1  0  0  0  0
 18 19  1  0  0  0  0
 18 43  1  0  0  0  0
 18 44  1  0  0  0  0
 19 45  1  0  0  0  0
 20 32  1  0  0  0  0
 20 21  1  0  0  0  0
 20 22  1  0  0  0  0
 21 46  1  0  0  0  0
 22 33  1  0  0  0  0
 22 23  1  0  0  0  0
 23 47  1  0  0  0  0
 24 29  1  0  0  0  0
 24 25  1  0  0  0  0
 24 48  1  0  0  0  0
 25 26  1  0  0  0  0
 25 49  1  0  0  0  0
 25 50  1  0  0  0  0
 26 27  1  0  0  0  0
 26 51  1  0  0  0  0
 26 52  1  0  0  0  0
 27 28  1  0  0  0  0
 27 53  1  0  0  0  0
 27 54  1  0  0  0  0
 28 29  1  0  0  0  0
 28 55  1  0  0  0  0
 28 56  1  0  0  0  0
 29 57  1  0  0  0  0
 29 58  1  0  0  0  0
M  END
> <s_m_source_file>
AV-unprocessed.smi

> <i_m_source_file_index>
109

> <i_lp_mmshare_version>
43012

> <i_f3d_flags>
0

> <s_epik_input>
W0NIMl0xW0NIMl1bQ0gyXVtDSDJdW0NIMl1bQ0hdMVtDQEhdKFtDSDJdW0NIMl1bT0hdKVtOSF1jKG5bY0hdbjIpYyhjMjMpbltjSF1uM1tDQEBIXTRPW0NASF0oW0NIMl1bT0hdKVtDQEBIXShbT0hdKVtDQEhdNFtPSF0=

> <s_epik_cmdline>
J2VwaWtfcHl0aG9uJywgJy1waCcsICc3LjAnLCAnLXRuJywgJzgnLCAnLW1hJywgJzIwMCcsICctbWV0YWxfYmluZGluZycsICctaW1hZScsICc8aW5maWxlLm1hZT4nLCAnLW9tYWUnLCAnPG91dGZpbGUubWFlPic=

> <r_lp_tautomer_probability>
1

> <r_epik_Ionization_Penalty>
0.000793976

> <r_epik_Ionization_Penalty_Charging>
0

> <r_epik_Ionization_Penalty_Neutral>
0.000793976

> <r_epik_State_Penalty>
-0

> <r_epik_Charging_Adjusted_Penalty>
0

> <i_epik_Tot_Q>
0

> <i_epik_Tot_abs_Q>
0

> <r_epik_Metal_State_Penalty>
-0

> <b_epik_Metal_Only>
0

> <s_epik_Chemistry_Notes>
This compound contains an acetal/aminal-like group ( X-CH(R)-Y where X, Y are N, S, or O) that may be acid/base labile, releasing an aldehyde.

> <s_lp_Force_Field>
OPLS_2005

> <r_lp_Energy>
58.6638

> <b_lp_Chiralities_Consistent>
1

> <s_lp_Variant>
AV-unprocessed.smi:109-29

> <Gold.Version>
5.8.1

> <Gold.Id.Protein>
6NUR|6NUR_protein|mol2

> <Gold.PLP.Fitness>
53.0812

> <Gold.PLP.PLP>
-39.5465

> <Gold.PLP.part.hbond>
-6.5562

> <Gold.PLP.part.metal>
0.0000

> <Gold.PLP.part.buried>
-2.4598

> <Gold.PLP.part.nonpolar>
-33.7495

> <Gold.PLP.part.repulsive>
2.5327

> <Gold.PLP.ligand.clash>
0.0265

> <Gold.PLP.ligand.torsion>
1.0167

> <Gold.PLP.Chemscore.Hbond>
4.8000

> <Gold.PLP.Chemscore.CHOScore>
0.3395

> <Gold.PLP.Chemscore.Metal>
0.0000

> <Gold.Chemscore.Hbonds>
donor molecule, donor type, donor heavy atom, donor atom, acceptor molecule, acceptor atom, score
      L1  H    19    45       P1 10171  0.98
      L1  H    21    46       P1 10175  0.99
      L1  H    23    47       P1 10175  1.00
      P1  H  7989  7998       L1     1  0.85
      P1  H  8011  8017       L1     7  0.93
      L1  C     8    41       P1  7957  0.25

> <Gold.PLP.Chemscore.Internal.Correction>
0.1762

> <Gold.Rescore>
     Score         DG    S(hbond)    S(metal)    S(lipo)     H(rot)  DE(clash)    DE(int)     intcor
      9.45     -17.59       4.48        0.00      95.32       5.47       3.19       4.94       ----

> <Gold.Chemscore.Fitness>
9.4494

> <Gold.Chemscore.DG>
-17.5854

> <Gold.Chemscore.ZeroCoef>
-5.4800

> <Gold.Chemscore.Hbond>
4.4750

> <Gold.Chemscore.Metal>
0.0000

> <Gold.Chemscore.Lipo>
95.3193

> <Gold.Chemscore.Internal_Hbond>
0.0000

> <Gold.Chemscore.DEClash>
3.1948

> <Gold.Chemscore.DEInternal>
4.9412

> <Gold.Chemscore.Rot>
5.4662

> <Gold.Chemscore.Internal.Correction>
   9.000000E+99

> <Gold.Chemscore.Hbonds>
donor molecule, donor type, donor heavy atom, donor atom, acceptor molecule, acceptor atom, score
      L1  H    19    45       P1 10171  0.90
      L1  H    21    46       P1 10175  0.92
      L1  H    23    47       P1 10175  0.97
      P1  H  7989  7998       L1     1  0.37
      P1  H  8011  8017       L1     7  0.19

> <Gold.Chemscore.Hbond.Weighted>
-14.9466

> <Gold.Chemscore.Metal.Weighted>
-0.0000

> <Gold.Chemscore.Lipo.Weighted>
-11.1524

> <Gold.Chemscore.Internal_Hbond.Weighted>
0.0000

> <Gold.Chemscore.DEClash.Weighted>
3.1948

> <Gold.Chemscore.DEInternal.Weighted>
4.9412

> <Gold.Chemscore.Rot.Weighted>
13.9935

> <Gold.Chemscore.Internal.Correction.Weighted>
   9.000000E+99

> <Gold.Protein.RotatedTorsions>
[ 6907 6896 6895 6894 ] final  164.56 input  -60.11 | X-H torsion
[ 7974 7965 7964 7962 ] final  -69.94 input  175.53 | X-H torsion
[ 8008 7997 7996 7995 ] final   82.85 input   59.86 | X-H torsion
[ 10167 10162 10161 10158 ] final  -46.24 input  -65.29 | X-H torsion
[ 10718 10713 10712 10709 ] final  -87.89 input   66.30 | X-H torsion
[ 10763 10752 10751 10750 ] final  -89.79 input  -60.55 | X-H torsion
[ 11005 11000 10999 10996 ] final -148.39 input  -57.11 | X-H torsion

> <Gold.Protein.ActiveResidues>
 VAL166  LYS551  ARG553  GLY616  TRP617  ASP618  TYR619  PRO620  LYS621  CYS622 
 ASP623  PHE694  ASN695  SER759  ASP760  ASP761  ALA762  ILE779  LEU786  VAL792 
 PHE793  MET794  SER795  GLU796  ALA797  LYS798  CYS799  TRP800  GLU811  SER814 

> <Gold.Protein.RotatedAtoms>
  151.9079  133.3554  159.3853 H   0  0  0  0  0  0  0  0  0  0  0  0  # atno 6907 bound_to 6896
  150.7065  134.4762  159.5458 H   0  0  0  0  0  0  0  0  0  0  0  0  # atno 6908 bound_to 6896
  152.2362  134.8273  160.0517 H   0  0  0  0  0  0  0  0  0  0  0  0  # atno 6909 bound_to 6896
  145.6974  140.9130  143.0749 H   0  0  0  0  0  0  0  0  0  0  0  0  # atno 7974 bound_to 7965
  155.9162  140.3424  155.6137 H   0  0  0  0  0  0  0  0  0  0  0  0  # atno 8008 bound_to 7997
  155.7329  140.0797  157.2299 H   0  0  0  0  0  0  0  0  0  0  0  0  # atno 8009 bound_to 7997
  154.4063  140.1585  156.2516 H   0  0  0  0  0  0  0  0  0  0  0  0  # atno 8010 bound_to 7997
  140.6825  143.2840  151.3754 H   0  0  0  0  0  0  0  0  0  0  0  0  # atno 10167 bound_to 10162
  155.9984  130.4816  150.4935 H   0  0  0  0  0  0  0  0  0  0  0  0  # atno 10718 bound_to 10713
  154.6590  135.5328  153.7995 H   0  0  0  0  0  0  0  0  0  0  0  0  # atno 10763 bound_to 10752
  153.0431  135.6501  154.0900 H   0  0  0  0  0  0  0  0  0  0  0  0  # atno 10764 bound_to 10752
  154.0811  135.2947  155.3270 H   0  0  0  0  0  0  0  0  0  0  0  0  # atno 10765 bound_to 10752
  140.7617  134.3290  157.5099 H   0  0  0  0  0  0  0  0  0  0  0  0  # atno 11005 bound_to 11000
  144.6978  139.8902  143.7452 LP  0  0  0  0  0  0  0  0  0  0  0  0  # atno 17320 bound_to 7965
  146.0828  139.3816  143.0454 LP  0  0  0  0  0  0  0  0  0  0  0  0  # atno 17321 bound_to 7965
  139.6158  144.1005  152.2344 LP  0  0  0  0  0  0  0  0  0  0  0  0  # atno 17342 bound_to 10162
  140.0434  144.5990  150.7393 LP  0  0  0  0  0  0  0  0  0  0  0  0  # atno 17343 bound_to 10162
  157.2928  131.0629  151.2122 LP  0  0  0  0  0  0  0  0  0  0  0  0  # atno 17370 bound_to 10713
  157.3129  130.6899  149.6226 LP  0  0  0  0  0  0  0  0  0  0  0  0  # atno 17371 bound_to 10713
  139.8769  134.9206  156.3256 LP  0  0  0  0  0  0  0  0  0  0  0  0  # atno 17394 bound_to 11000
  140.9656  133.7360  156.0462 LP  0  0  0  0  0  0  0  0  0  0  0  0  # atno 17395 bound_to 11000

$$$$
