AV-unprocessed.smi:3206|AV-procd|sdf|12256|dock3
  -GOLD-   2272018 93D 1   1.00000     0.00000
 Structure written by MMmdl.
 42 43  0  0  0  0  0  0  0  0  2 V2000
  145.1370  131.1375  151.0759 C   0  0  0  0  0  0  0  0  0  0  0  0
  144.9940  132.6225  151.4393 C   0  0  2  0  0  0  0  0  0  0  0  0
  144.4959  133.4522  150.2414 C   0  0  0  0  0  0  0  0  0  0  0  0
  144.3596  134.9406  150.6019 C   0  0  0  0  0  0  0  0  0  0  0  0
  145.6847  135.5244  151.1302 C   0  0  1  0  0  0  0  0  0  0  0  0
  145.5263  137.0145  151.4846 C   0  0  0  0  0  0  0  0  0  0  0  0
  146.7740  137.7658  151.2441 N   0  3  0  0  0  0  0  0  0  0  0  0
  146.9279  138.9679  152.0884 C   0  0  0  0  0  0  0  0  0  0  0  0
  147.6156  138.6406  153.4228 C   0  0  0  0  0  0  0  0  0  0  0  0
  148.6619  139.6414  153.8103 C   0  0  0  0  0  0  0  0  0  0  0  0
  148.4203  140.9314  154.0200 N   0  0  0  0  0  0  0  0  0  0  0  0
  149.6707  141.3633  154.3562 C   0  0  0  0  0  0  0  0  0  0  0  0
  150.6198  140.4311  154.3742 N   0  0  0  0  0  0  0  0  0  0  0  0
  149.9446  139.3142  154.0183 N   0  0  0  0  0  0  0  0  0  0  0  0
  150.6288  138.0390  153.9209 C   0  0  0  0  0  0  0  0  0  0  0  0
  146.1788  134.6914  152.3324 C   0  0  0  0  0  0  0  0  0  0  0  0
  146.3161  133.2022  151.9755 C   0  0  0  0  0  0  0  0  0  0  0  0
  145.8721  130.9918  150.2837 H   0  0  0  0  0  0  0  0  0  0  0  0
  144.1890  130.7240  150.7306 H   0  0  0  0  0  0  0  0  0  0  0  0
  145.4563  130.5514  151.9379 H   0  0  0  0  0  0  0  0  0  0  0  0
  144.2479  132.6954  152.2323 H   0  0  0  0  0  0  0  0  0  0  0  0
  145.1867  133.3432  149.4041 H   0  0  0  0  0  0  0  0  0  0  0  0
  143.5336  133.0707  149.8980 H   0  0  0  0  0  0  0  0  0  0  0  0
  144.0305  135.4962  149.7229 H   0  0  0  0  0  0  0  0  0  0  0  0
  143.5773  135.0619  151.3527 H   0  0  0  0  0  0  0  0  0  0  0  0
  146.4224  135.4441  150.3297 H   0  0  0  0  0  0  0  0  0  0  0  0
  144.7380  137.4582  150.8748 H   0  0  0  0  0  0  0  0  0  0  0  0
  145.2242  137.1262  152.5270 H   0  0  0  0  0  0  0  0  0  0  0  0
  147.5569  137.1508  151.4149 H   0  0  0  0  0  0  0  0  0  0  0  0
  147.5018  139.7227  151.5488 H   0  0  0  0  0  0  0  0  0  0  0  0
  145.9417  139.3919  152.2802 H   0  0  0  0  0  0  0  0  0  0  0  0
  146.8694  138.5775  154.2153 H   0  0  0  0  0  0  0  0  0  0  0  0
  148.0796  137.6548  153.3696 H   0  0  0  0  0  0  0  0  0  0  0  0
  149.8856  142.3931  154.6008 H   0  0  0  0  0  0  0  0  0  0  0  0
  150.1125  137.2963  154.5293 H   0  0  0  0  0  0  0  0  0  0  0  0
  151.6577  138.1273  154.2724 H   0  0  0  0  0  0  0  0  0  0  0  0
  150.6382  137.7070  152.8826 H   0  0  0  0  0  0  0  0  0  0  0  0
  147.1422  135.0637  152.6820 H   0  0  0  0  0  0  0  0  0  0  0  0
  145.4855  134.8005  153.1675 H   0  0  0  0  0  0  0  0  0  0  0  0
  146.6373  132.6444  152.8558 H   0  0  0  0  0  0  0  0  0  0  0  0
  147.1028  133.0790  151.2296 H   0  0  0  0  0  0  0  0  0  0  0  0
  146.7959  138.0501  150.2747 H   0  0  0  0  0  0  0  0  0  0  0  0
  1  2  1  0  0  0  0
  1 18  1  0  0  0  0
  1 19  1  0  0  0  0
  1 20  1  0  0  0  0
  2 17  1  0  0  0  0
  2  3  1  0  0  0  0
  2 21  1  0  0  0  0
  3  4  1  0  0  0  0
  3 22  1  0  0  0  0
  3 23  1  0  0  0  0
  4  5  1  0  0  0  0
  4 24  1  0  0  0  0
  4 25  1  0  0  0  0
  5  6  1  0  0  0  0
  5 16  1  0  0  0  0
  5 26  1  0  0  0  0
  6  7  1  0  0  0  0
  6 27  1  0  0  0  0
  6 28  1  0  0  0  0
  7  8  1  0  0  0  0
  7 29  1  0  0  0  0
  7 42  1  0  0  0  0
  8  9  1  0  0  0  0
  8 30  1  0  0  0  0
  8 31  1  0  0  0  0
  9 10  1  0  0  0  0
  9 32  1  0  0  0  0
  9 33  1  0  0  0  0
 10 14  1  0  0  0  0
 10 11  2  0  0  0  0
 11 12  1  0  0  0  0
 12 13  2  0  0  0  0
 12 34  1  0  0  0  0
 13 14  1  0  0  0  0
 14 15  1  0  0  0  0
 15 35  1  0  0  0  0
 15 36  1  0  0  0  0
 15 37  1  0  0  0  0
 16 17  1  0  0  0  0
 16 38  1  0  0  0  0
 16 39  1  0  0  0  0
 17 40  1  0  0  0  0
 17 41  1  0  0  0  0
M  CHG  1   7   1
M  END
> <s_m_source_file>
AV-unprocessed.smi

> <i_m_source_file_index>
3206

> <i_lp_mmshare_version>
43012

> <i_f3d_flags>
0

> <s_epik_input>
W0NIM11bQ0BASF0xW0NIMl1bQ0gyXVtDQEhdKFtDSDJdW0NIMl0xKVtDSDJdW05IXVtDSDJdW0NIMl1jMm5bY0hdbm4yW0NIM10=

> <s_epik_cmdline>
J2VwaWtfcHl0aG9uJywgJy1waCcsICc3LjAnLCAnLXRuJywgJzgnLCAnLW1hJywgJzIwMCcsICctbWV0YWxfYmluZGluZycsICctaW1hZScsICc8aW5maWxlLm1hZT4nLCAnLW9tYWUnLCAnPG91dGZpbGUubWFlPic=

> <r_lp_tautomer_probability>
1

> <r_epik_Ionization_Penalty>
0.00114491

> <r_epik_Ionization_Penalty_Charging>
0.00114083

> <r_epik_Ionization_Penalty_Neutral>
4.0852e-06

> <r_epik_State_Penalty>
-0

> <r_epik_Charging_Adjusted_Penalty>
0.00114083

> <i_epik_Tot_Q>
1

> <i_epik_Tot_abs_Q>
1

> <r_epik_Metal_State_Penalty>
-0

> <b_epik_Metal_Only>
0

> <s_lp_Force_Field>
OPLS_2005

> <r_lp_Energy>
13.9676

> <b_lp_Chiralities_Consistent>
1

> <s_lp_Variant>
AV-unprocessed.smi:3206-1

> <Gold.Version>
5.8.1

> <Gold.Id.Protein>
6NUR|6NUR_protein|mol2

> <Gold.PLP.Fitness>
45.4247

> <Gold.PLP.PLP>
-35.4831

> <Gold.PLP.part.hbond>
-2.0000

> <Gold.PLP.part.metal>
0.0000

> <Gold.PLP.part.buried>
-2.4383

> <Gold.PLP.part.nonpolar>
-31.7384

> <Gold.PLP.part.repulsive>
0.5761

> <Gold.PLP.ligand.clash>
0.0000

> <Gold.PLP.ligand.torsion>
1.0337

> <Gold.PLP.Chemscore.Hbond>
2.9920

> <Gold.PLP.Chemscore.CHOScore>
1.0000

> <Gold.PLP.Chemscore.Metal>
0.0000

> <Gold.Chemscore.Hbonds>
donor molecule, donor type, donor heavy atom, donor atom, acceptor molecule, acceptor atom, score
      L1  H     7    29       P1  7948  2.00
      P1  H  7989  7998       L1    13  0.68
      L1  C    12    34       P1  8028  0.50

> <Gold.PLP.Chemscore.Internal.Correction>
0.0330

> <Gold.Rescore>
     Score         DG    S(hbond)    S(metal)    S(lipo)     H(rot)  DE(clash)    DE(int)     intcor
     12.94     -14.50       1.74        0.00      72.20       2.05       0.45       1.11       ----

> <Gold.Chemscore.Fitness>
12.9353

> <Gold.Chemscore.DG>
-14.4994

> <Gold.Chemscore.ZeroCoef>
-5.4800

> <Gold.Chemscore.Hbond>
1.7447

> <Gold.Chemscore.Metal>
0.0000

> <Gold.Chemscore.Lipo>
72.1982

> <Gold.Chemscore.Internal_Hbond>
0.0000

> <Gold.Chemscore.DEClash>
0.4526

> <Gold.Chemscore.DEInternal>
1.1115

> <Gold.Chemscore.Rot>
2.0528

> <Gold.Chemscore.Internal.Correction>
   9.000000E+99

> <Gold.Chemscore.Hbonds>
donor molecule, donor type, donor heavy atom, donor atom, acceptor molecule, acceptor atom, score
      L1  H     7    29       P1  7948  1.00
      P1  H  7989  7998       L1    13  0.35

> <Gold.Chemscore.Hbond.Weighted>
-5.8273

> <Gold.Chemscore.Metal.Weighted>
-0.0000

> <Gold.Chemscore.Lipo.Weighted>
-8.4472

> <Gold.Chemscore.Internal_Hbond.Weighted>
0.0000

> <Gold.Chemscore.DEClash.Weighted>
0.4526

> <Gold.Chemscore.DEInternal.Weighted>
1.1115

> <Gold.Chemscore.Rot.Weighted>
5.2551

> <Gold.Chemscore.Internal.Correction.Weighted>
   9.000000E+99

> <Gold.Protein.RotatedTorsions>
[ 6907 6896 6895 6894 ] final  127.20 input  -60.11 | X-H torsion
[ 7974 7965 7964 7962 ] final   -1.62 input  175.53 | X-H torsion
[ 8008 7997 7996 7995 ] final   50.23 input   59.86 | X-H torsion
[ 10167 10162 10161 10158 ] final  124.37 input  -65.29 | X-H torsion
[ 10718 10713 10712 10709 ] final  -27.40 input   66.30 | X-H torsion
[ 10763 10752 10751 10750 ] final -155.67 input  -60.55 | X-H torsion
[ 11005 11000 10999 10996 ] final  -12.35 input  -57.11 | X-H torsion

> <Gold.Protein.ActiveResidues>
 VAL166  LYS551  ARG553  GLY616  TRP617  ASP618  TYR619  PRO620  LYS621  CYS622 
 ASP623  PHE694  ASN695  SER759  ASP760  ASP761  ALA762  ILE779  LEU786  VAL792 
 PHE793  MET794  SER795  GLU796  ALA797  LYS798  CYS799  TRP800  GLU811  SER814 

> <Gold.Protein.RotatedAtoms>
  152.3834  133.6577  159.6179 H   0  0  0  0  0  0  0  0  0  0  0  0  # atno 6907 bound_to 6896
  150.7759  133.9076  159.3368 H   0  0  0  0  0  0  0  0  0  0  0  0  # atno 6908 bound_to 6896
  151.6877  135.0953  160.0279 H   0  0  0  0  0  0  0  0  0  0  0  0  # atno 6909 bound_to 6896
  146.2415  140.1448  142.8335 H   0  0  0  0  0  0  0  0  0  0  0  0  # atno 7974 bound_to 7965
  155.4153  140.3444  155.4267 H   0  0  0  0  0  0  0  0  0  0  0  0  # atno 8008 bound_to 7997
  156.1425  140.1546  156.8930 H   0  0  0  0  0  0  0  0  0  0  0  0  # atno 8009 bound_to 7997
  154.4983  140.0822  156.7724 H   0  0  0  0  0  0  0  0  0  0  0  0  # atno 8010 bound_to 7997
  139.5746  144.6956  151.3688 H   0  0  0  0  0  0  0  0  0  0  0  0  # atno 10167 bound_to 10162
  156.4386  130.4460  149.7068 H   0  0  0  0  0  0  0  0  0  0  0  0  # atno 10718 bound_to 10713
  154.7770  135.3162  154.8071 H   0  0  0  0  0  0  0  0  0  0  0  0  # atno 10763 bound_to 10752
  153.8792  135.6836  153.4772 H   0  0  0  0  0  0  0  0  0  0  0  0  # atno 10764 bound_to 10752
  153.1396  135.4745  154.9412 H   0  0  0  0  0  0  0  0  0  0  0  0  # atno 10765 bound_to 10752
  140.7648  133.8486  155.9155 H   0  0  0  0  0  0  0  0  0  0  0  0  # atno 11005 bound_to 11000
  145.0216  140.8798  143.5163 LP  0  0  0  0  0  0  0  0  0  0  0  0  # atno 17320 bound_to 7965
  145.1498  139.2521  143.5447 LP  0  0  0  0  0  0  0  0  0  0  0  0  # atno 17321 bound_to 7965
  140.7029  143.7587  150.7432 LP  0  0  0  0  0  0  0  0  0  0  0  0  # atno 17342 bound_to 10162
  140.1103  143.4705  152.2374 LP  0  0  0  0  0  0  0  0  0  0  0  0  # atno 17343 bound_to 10162
  156.3941  130.7642  151.2645 LP  0  0  0  0  0  0  0  0  0  0  0  0  # atno 17370 bound_to 10713
  157.7507  131.0259  150.3939 LP  0  0  0  0  0  0  0  0  0  0  0  0  # atno 17371 bound_to 10713
  140.9630  134.1631  157.4639 LP  0  0  0  0  0  0  0  0  0  0  0  0  # atno 17394 bound_to 11000
  139.8765  134.9951  156.5729 LP  0  0  0  0  0  0  0  0  0  0  0  0  # atno 17395 bound_to 11000

$$$$
