AV-unprocessed.smi:672|AV-procd|sdf|3292|dock8
  -GOLD-   22720 0253D 1   1.00000     0.00000
 Structure written by MMmdl.
 36 37  0  0  0  0  0  0  0  0  1 V2000
  146.8350  138.9290  151.7406 C   0  0  0  0  0  0  0  0  0  0  0  0
  146.8931  138.7061  153.2554 C   0  0  0  0  0  0  0  0  0  0  0  0
  147.9273  139.5508  153.9219 C   0  0  0  0  0  0  0  0  0  0  0  0
  149.2315  139.2486  153.9009 N   0  0  0  0  0  0  0  0  0  0  0  0
  150.0011  140.1915  154.5676 N   0  0  0  0  0  0  0  0  0  0  0  0
  149.2537  141.1888  155.0605 C   0  0  0  0  0  0  0  0  0  0  0  0
  149.7843  142.2882  155.7861 N   0  0  0  0  0  0  0  0  0  0  0  0
  150.8837  142.3233  156.5595 C   0  0  0  0  0  0  0  0  0  0  0  0
  151.6384  141.3731  156.7690 O   0  0  0  0  0  0  0  0  0  0  0  0
  151.0638  143.5407  157.0921 N   0  0  0  0  0  0  0  0  0  0  0  0
  152.1614  143.9130  157.9820 C   0  0  1  0  0  0  0  0  0  0  0  0
  151.7811  145.1333  158.8422 C   0  0  0  0  0  0  0  0  0  0  0  0
  152.1309  144.7621  160.2846 C   0  0  0  0  0  0  0  0  0  0  0  0
  151.9711  143.2437  160.3335 C   0  0  2  0  0  0  0  0  0  0  0  0
  152.8548  142.4731  161.7203 S   0  0  0  0  0  0  0  0  0  0  0  0
  152.6556  143.7564  162.9841 C   0  0  0  0  0  0  0  0  0  0  0  0
  152.4967  142.7803  158.9730 C   0  0  0  0  0  0  0  0  0  0  0  0
  147.5325  141.0567  154.7428 S   0  0  0  0  0  0  0  0  0  0  0  0
  146.0717  138.2980  151.2851 H   0  0  0  0  0  0  0  0  0  0  0  0
  147.7895  138.6898  151.2707 H   0  0  0  0  0  0  0  0  0  0  0  0
  146.5951  139.9661  151.5043 H   0  0  0  0  0  0  0  0  0  0  0  0
  145.9228  138.9267  153.7007 H   0  0  0  0  0  0  0  0  0  0  0  0
  147.1027  137.6574  153.4691 H   0  0  0  0  0  0  0  0  0  0  0  0
  149.2608  143.1478  155.7127 H   0  0  0  0  0  0  0  0  0  0  0  0
  150.3957  144.2631  156.8671 H   0  0  0  0  0  0  0  0  0  0  0  0
  153.0462  144.1505  157.3881 H   0  0  0  0  0  0  0  0  0  0  0  0
  152.2967  146.0389  158.5212 H   0  0  0  0  0  0  0  0  0  0  0  0
  150.7104  145.3336  158.7771 H   0  0  0  0  0  0  0  0  0  0  0  0
  153.1669  145.0349  160.4905 H   0  0  0  0  0  0  0  0  0  0  0  0
  151.5004  145.2773  161.0097 H   0  0  0  0  0  0  0  0  0  0  0  0
  150.9115  142.9935  160.4050 H   0  0  0  0  0  0  0  0  0  0  0  0
  153.1057  143.4304  163.9218 H   0  0  0  0  0  0  0  0  0  0  0  0
  151.5989  143.9583  163.1598 H   0  0  0  0  0  0  0  0  0  0  0  0
  153.1414  144.6812  162.6732 H   0  0  0  0  0  0  0  0  0  0  0  0
  152.0847  141.8121  158.6847 H   0  0  0  0  0  0  0  0  0  0  0  0
  153.5804  142.6626  159.0181 H   0  0  0  0  0  0  0  0  0  0  0  0
  1  2  1  0  0  0  0
  1 19  1  0  0  0  0
  1 20  1  0  0  0  0
  1 21  1  0  0  0  0
  2  3  1  0  0  0  0
  2 22  1  0  0  0  0
  2 23  1  0  0  0  0
  3 18  1  0  0  0  0
  3  4  2  0  0  0  0
  4  5  1  0  0  0  0
  5  6  2  0  0  0  0
  6  7  1  0  0  0  0
  6 18  1  0  0  0  0
  7  8  1  0  0  0  0
  7 24  1  0  0  0  0
  8  9  2  0  0  0  0
  8 10  1  0  0  0  0
 10 11  1  0  0  0  0
 10 25  1  0  0  0  0
 11 17  1  0  0  0  0
 11 12  1  0  0  0  0
 11 26  1  0  0  0  0
 12 13  1  0  0  0  0
 12 27  1  0  0  0  0
 12 28  1  0  0  0  0
 13 14  1  0  0  0  0
 13 29  1  0  0  0  0
 13 30  1  0  0  0  0
 14 15  1  0  0  0  0
 14 17  1  0  0  0  0
 14 31  1  0  0  0  0
 15 16  1  0  0  0  0
 16 32  1  0  0  0  0
 16 33  1  0  0  0  0
 16 34  1  0  0  0  0
 17 35  1  0  0  0  0
 17 36  1  0  0  0  0
M  END
> <s_m_source_file>
AV-unprocessed.smi

> <i_m_source_file_index>
672

> <i_lp_mmshare_version>
43012

> <i_f3d_flags>
0

> <s_epik_input>
W0NIM11bQ0gyXWMxbm5jKHMxKVtOSF1DKD1PKVtOSF1bQ0BASF0yW0NIMl1bQ0gyXVtDQEhdKFtDSDJdMilTW0NIM10=

> <s_epik_cmdline>
J2VwaWtfcHl0aG9uJywgJy1waCcsICc3LjAnLCAnLXRuJywgJzgnLCAnLW1hJywgJzIwMCcsICctbWV0YWxfYmluZGluZycsICctaW1hZScsICc8aW5maWxlLm1hZT4nLCAnLW9tYWUnLCAnPG91dGZpbGUubWFlPic=

> <r_lp_tautomer_probability>
1

> <r_epik_Ionization_Penalty>
0.000422169

> <r_epik_Ionization_Penalty_Charging>
0

> <r_epik_Ionization_Penalty_Neutral>
0.000422169

> <r_epik_State_Penalty>
-0

> <r_epik_Charging_Adjusted_Penalty>
0

> <i_epik_Tot_Q>
0

> <i_epik_Tot_abs_Q>
0

> <r_epik_Metal_State_Penalty>
0.200061

> <b_epik_Metal_Only>
0

> <s_lp_Force_Field>
OPLS_2005

> <r_lp_Energy>
11.6788

> <b_lp_Chiralities_Consistent>
1

> <s_lp_Variant>
AV-unprocessed.smi:672-4

> <Gold.Version>
5.8.1

> <Gold.Id.Protein>
6NUR|6NUR_protein|mol2

> <Gold.PLP.Fitness>
49.0349

> <Gold.PLP.PLP>
-42.5084

> <Gold.PLP.part.hbond>
-3.0000

> <Gold.PLP.part.metal>
0.0000

> <Gold.PLP.part.buried>
-2.0404

> <Gold.PLP.part.nonpolar>
-39.1090

> <Gold.PLP.part.repulsive>
2.6004

> <Gold.PLP.ligand.clash>
0.0000

> <Gold.PLP.ligand.torsion>
1.0763

> <Gold.PLP.Chemscore.Hbond>
2.8880

> <Gold.PLP.Chemscore.CHOScore>
0.0000

> <Gold.PLP.Chemscore.Metal>
0.0000

> <Gold.Chemscore.Hbonds>
donor molecule, donor type, donor heavy atom, donor atom, acceptor molecule, acceptor atom, score
      L1  H     7    24       P1  8028  1.00
      L1  H    10    25       P1  8028  0.90
      P1  H  7989  7998       L1     5  0.93

> <Gold.PLP.Chemscore.Internal.Correction>
0.0151

> <Gold.Rescore>
     Score         DG    S(hbond)    S(metal)    S(lipo)     H(rot)  DE(clash)    DE(int)     intcor
     18.95     -23.60       2.60        0.00     110.45       1.37       1.14       3.50       ----

> <Gold.Chemscore.Fitness>
18.9513

> <Gold.Chemscore.DG>
-23.5955

> <Gold.Chemscore.ZeroCoef>
-5.4800

> <Gold.Chemscore.Hbond>
2.6023

> <Gold.Chemscore.Metal>
0.0000

> <Gold.Chemscore.Lipo>
110.4543

> <Gold.Chemscore.Internal_Hbond>
0.0000

> <Gold.Chemscore.DEClash>
1.1405

> <Gold.Chemscore.DEInternal>
3.5037

> <Gold.Chemscore.Rot>
1.3669

> <Gold.Chemscore.Internal.Correction>
   9.000000E+99

> <Gold.Chemscore.Hbonds>
donor molecule, donor type, donor heavy atom, donor atom, acceptor molecule, acceptor atom, score
      L1  H     7    24       P1  8028  0.99
      L1  H    10    25       P1  8028  0.84
      P1  H  7989  7998       L1     5  0.61

> <Gold.Chemscore.Hbond.Weighted>
-8.6916

> <Gold.Chemscore.Metal.Weighted>
-0.0000

> <Gold.Chemscore.Lipo.Weighted>
-12.9232

> <Gold.Chemscore.Internal_Hbond.Weighted>
0.0000

> <Gold.Chemscore.DEClash.Weighted>
1.1405

> <Gold.Chemscore.DEInternal.Weighted>
3.5037

> <Gold.Chemscore.Rot.Weighted>
3.4992

> <Gold.Chemscore.Internal.Correction.Weighted>
   9.000000E+99

> <Gold.Protein.RotatedTorsions>
[ 6907 6896 6895 6894 ] final -145.46 input  -60.11 | X-H torsion
[ 7974 7965 7964 7962 ] final  127.87 input  175.53 | X-H torsion
[ 8008 7997 7996 7995 ] final  147.14 input   59.86 | X-H torsion
[ 10167 10162 10161 10158 ] final   36.68 input  -65.29 | X-H torsion
[ 10718 10713 10712 10709 ] final  132.43 input   66.30 | X-H torsion
[ 10763 10752 10751 10750 ] final -102.55 input  -60.55 | X-H torsion
[ 11005 11000 10999 10996 ] final  -41.25 input  -57.11 | X-H torsion

> <Gold.Protein.ActiveResidues>
 VAL166  LYS551  ARG553  GLY616  TRP617  ASP618  TYR619  PRO620  LYS621  CYS622 
 ASP623  PHE694  ASN695  SER759  ASP760  ASP761  ALA762  ILE779  LEU786  VAL792 
 PHE793  MET794  SER795  GLU796  ALA797  LYS798  CYS799  TRP800  GLU811  SER814 

> <Gold.Protein.RotatedAtoms>
  151.1281  133.5056  159.2599 H   0  0  0  0  0  0  0  0  0  0  0  0  # atno 6907 bound_to 6896
  151.1788  135.0351  159.8793 H   0  0  0  0  0  0  0  0  0  0  0  0  # atno 6908 bound_to 6896
  152.5459  134.1135  159.8422 H   0  0  0  0  0  0  0  0  0  0  0  0  # atno 6909 bound_to 6896
  145.0458  139.3924  143.5079 H   0  0  0  0  0  0  0  0  0  0  0  0  # atno 7974 bound_to 7965
  156.2834  140.2163  156.5490 H   0  0  0  0  0  0  0  0  0  0  0  0  # atno 8008 bound_to 7997
  154.7307  140.0496  157.0746 H   0  0  0  0  0  0  0  0  0  0  0  0  # atno 8009 bound_to 7997
  155.0358  140.3140  155.4745 H   0  0  0  0  0  0  0  0  0  0  0  0  # atno 8010 bound_to 7997
  140.4105  144.1599  150.6139 H   0  0  0  0  0  0  0  0  0  0  0  0  # atno 10167 bound_to 10162
  157.4872  131.1089  150.9604 H   0  0  0  0  0  0  0  0  0  0  0  0  # atno 10718 bound_to 10713
  154.7742  135.4856  153.9710 H   0  0  0  0  0  0  0  0  0  0  0  0  # atno 10763 bound_to 10752
  153.1407  135.6772  153.9039 H   0  0  0  0  0  0  0  0  0  0  0  0  # atno 10764 bound_to 10752
  153.8714  135.3143  155.3420 H   0  0  0  0  0  0  0  0  0  0  0  0  # atno 10765 bound_to 10752
  141.0232  133.6853  156.2431 H   0  0  0  0  0  0  0  0  0  0  0  0  # atno 11005 bound_to 11000
  146.3513  140.0083  142.8669 LP  0  0  0  0  0  0  0  0  0  0  0  0  # atno 17320 bound_to 7965
  145.1589  140.9662  143.4388 LP  0  0  0  0  0  0  0  0  0  0  0  0  # atno 17321 bound_to 7965
  140.4643  143.2437  151.9177 LP  0  0  0  0  0  0  0  0  0  0  0  0  # atno 17342 bound_to 10162
  139.4782  144.5435  151.8492 LP  0  0  0  0  0  0  0  0  0  0  0  0  # atno 17343 bound_to 10162
  157.0318  130.5714  149.5344 LP  0  0  0  0  0  0  0  0  0  0  0  0  # atno 17370 bound_to 10713
  156.0153  130.5247  150.8116 LP  0  0  0  0  0  0  0  0  0  0  0  0  # atno 17371 bound_to 10713
  140.6536  134.5041  157.5579 LP  0  0  0  0  0  0  0  0  0  0  0  0  # atno 17394 bound_to 11000
  139.9159  134.8247  156.1367 LP  0  0  0  0  0  0  0  0  0  0  0  0  # atno 17395 bound_to 11000

$$$$
