#       Name:                AV-unprocessed.smi:1372
#       Creating user name   scv26
#       Creation time:       Fri Mar 27 05:18:32 2020


#       File generated by GOLD software.
#

@<TRIPOS>MOLECULE
AV-unprocessed.smi:1372
    44    46     1
SMALL
NO_CHARGES


@<TRIPOS>ATOM
      1 ****        -0.5861   2.3242   2.8589 C.3            1 S1                 0.0000
      2 ****        -1.8304   3.2237   1.8428 S.o2           1 S1                 0.0000
      3 ****        -3.1684   2.8352   2.3152 O.2            1 S1                 0.0000
      4 ****        -1.4528   4.6443   1.8039 O.2            1 S1                 0.0000
      5 ****        -1.5666   2.5078   0.1615 C.3            1 S1                 0.0000
      6 ****        -1.9148   1.0533   0.1458 C.2            1 S1                 0.0000
      7 ****        -3.1771   0.5374   0.1283 N.pl3          1 S1                 1.0000
      8 ****        -3.1198  -0.8564   0.1111 C.ar           1 S1                 0.0000
      9 ****        -4.1325  -1.8106   0.0930 C.ar           1 S1                 0.0000
     10 ****        -3.7283  -3.1618   0.0758 C.ar           1 S1                 0.0000
     11 ****        -2.3645  -3.5203   0.0761 C.ar           1 S1                 0.0000
     12 ****        -1.3468  -2.5438   0.0950 C.ar           1 S1                 0.0000
     13 ****        -1.7557  -1.2106   0.1138 C.ar           1 S1                 0.0000
     14 ****        -1.0495  -0.0030   0.1365 N.pl3          1 S1                 0.0000
     15 ****         0.4214  -0.0393   0.1423 C.3            1 S1                 0.0000
     16 ****         1.0218  -0.2127  -1.2663 C.3            1 S1                 0.0000
     17 ****         0.5770   0.8338  -2.1083 O.3            1 S1                 0.0000
     18 ****         2.5380  -0.3034  -1.2076 C.ar           1 S1                 0.0000
     19 ****         3.3242   0.8603  -1.0551 C.ar           1 S1                 0.0000
     20 ****         4.7280   0.7648  -0.9912 C.ar           1 S1                 0.0000
     21 ****         5.3534  -0.4939  -1.0749 C.ar           1 S1                 0.0000
     22 ****         4.5743  -1.6576  -1.2217 C.ar           1 S1                 0.0000
     23 ****         3.1706  -1.5627  -1.2875 C.ar           1 S1                 0.0000
     24 ****        -0.6349   2.6819   3.8872 H              1 S1                 0.0000
     25 ****         0.4126   2.5075   2.4632 H              1 S1                 0.0000
     26 ****        -0.7960   1.2550   2.8421 H              1 S1                 0.0000
     27 ****        -2.2001   3.0446  -0.5446 H              1 S1                 0.0000
     28 ****        -0.5303   2.6679  -0.1344 H              1 S1                 0.0000
     29 ****        -5.1777  -1.5379   0.0921 H              1 S1                 0.0000
     30 ****        -4.4792  -3.9384   0.0611 H              1 S1                 0.0000
     31 ****        -2.0931  -4.5660   0.0618 H              1 S1                 0.0000
     32 ****        -0.3051  -2.8291   0.0948 H              1 S1                 0.0000
     33 ****         0.7793   0.8841   0.5972 H              1 S1                 0.0000
     34 ****         0.7436  -0.8444   0.8038 H              1 S1                 0.0000
     35 ****         0.6437  -1.1391  -1.7006 H              1 S1                 0.0000
     36 ****         0.8941   0.6683  -2.9834 H              1 S1                 0.0000
     37 ****         2.8536   1.8301  -0.9838 H              1 S1                 0.0000
     38 ****         5.3250   1.6574  -0.8762 H              1 S1                 0.0000
     39 ****         6.4298  -0.5670  -1.0244 H              1 S1                 0.0000
     40 ****         5.0537  -2.6236  -1.2828 H              1 S1                 0.0000
     41 ****         2.5822  -2.4619  -1.3974 H              1 S1                 0.0000
     42 ****        -4.0172   1.1019   0.1358 H              1 S1                 0.0000
     43 ****         0.9351   1.7075  -1.7790 LP             1 S1                 0.0000
     44 ****        -0.4226   0.8631  -2.1112 LP             1 S1                 0.0000
@<TRIPOS>BOND
    1    1    2 1     
    2    1   24 1     
    3    1   25 1     
    4    1   26 1     
    5    2    3 2     
    6    2    4 2     
    7    2    5 1     
    8    5    6 1     
    9    5   27 1     
   10    5   28 1     
   11    6   14 1     
   12    6    7 2     
   13    7    8 1     
   14    7   42 1     
   15    8   13 ar    
   16    8    9 ar    
   17    9   10 ar    
   18    9   29 1     
   19   10   11 ar    
   20   10   30 1     
   21   11   12 ar    
   22   11   31 1     
   23   12   13 ar    
   24   12   32 1     
   25   13   14 1     
   26   14   15 1     
   27   15   16 1     
   28   15   33 1     
   29   15   34 1     
   30   16   17 1     
   31   16   18 1     
   32   16   35 1     
   33   17   36 1     
   34   18   23 ar    
   35   18   19 ar    
   36   19   20 ar    
   37   19   37 1     
   38   20   21 ar    
   39   20   38 1     
   40   21   22 ar    
   41   21   39 1     
   42   22   23 ar    
   43   22   40 1     
   44   23   41 1     
   45   17   43 1     
   46   17   44 1     
@<TRIPOS>SUBSTRUCTURE
      1 S1             1
@<TRIPOS>SET
LONE_PAIRS      STATIC     ATOMS    <user>   **** ""
4 3 4 43 44
DONOR_HYDROGENS      STATIC     ATOMS    <user>   **** ""
2 42 36
ATOM$BLUE        STATIC     ATOMS    COLORGROUP SYSTEM
4 3 4 43 44
ATOM$RED        STATIC     ATOMS    COLORGROUP SYSTEM
2 42 36
