AV-unprocessed.smi:3222|AV-procd|sdf|12303|dock8
  -GOLD-   2272018143D 1   1.00000     0.00000
 Structure written by MMmdl.
 41 42  0  0  0  0  0  0  0  0  2 V2000
  146.9777  142.1414  155.2553 C   0  0  0  0  0  0  0  0  0  0  0  0
  148.2832  141.3423  155.4345 C   0  0  2  0  0  0  0  0  0  0  0  0
  149.3762  142.2499  155.8581 N   0  3  0  0  0  0  0  0  0  0  0  0
  150.1328  141.8208  157.0520 C   0  0  0  0  0  0  0  0  0  0  0  0
  151.2623  142.8142  157.3658 C   0  0  0  0  0  0  0  0  0  0  0  0
  152.0757  142.3675  158.4933 N   0  0  0  0  0  0  0  0  0  0  0  0
  152.2564  143.2131  159.6612 C   0  0  0  0  0  0  0  0  0  0  0  0
  153.2918  142.4817  160.5279 C   0  0  0  0  0  0  0  0  0  0  0  0
  153.4050  141.0691  159.9438 C   0  0  0  0  0  0  0  0  0  0  0  0
  152.6738  141.1768  158.6166 C   0  0  0  0  0  0  0  0  0  0  0  0
  152.6541  140.2680  157.7879 O   0  0  0  0  0  0  0  0  0  0  0  0
  148.6993  140.5867  154.1448 C   0  0  2  0  0  0  0  0  0  0  0  0
  147.5474  139.8000  153.4908 C   0  0  0  0  0  0  0  0  0  0  0  0
  149.8211  139.6911  154.4082 N   0  0  0  0  0  0  0  0  0  0  0  0
  149.8859  138.3180  154.2732 C   0  0  0  0  0  0  0  0  0  0  0  0
  151.1305  137.9257  154.6746 C   0  0  0  0  0  0  0  0  0  0  0  0
  151.7629  139.1425  155.0526 C   0  0  0  0  0  0  0  0  0  0  0  0
  150.9740  140.1941  154.9026 N   0  0  0  0  0  0  0  0  0  0  0  0
  146.1339  141.4887  155.0330 H   0  0  0  0  0  0  0  0  0  0  0  0
  147.0637  142.8640  154.4431 H   0  0  0  0  0  0  0  0  0  0  0  0
  146.7113  142.6902  156.1581 H   0  0  0  0  0  0  0  0  0  0  0  0
  148.1311  140.6022  156.2221 H   0  0  0  0  0  0  0  0  0  0  0  0
  150.0340  142.3031  155.0927 H   0  0  0  0  0  0  0  0  0  0  0  0
  149.4573  141.7392  157.9033 H   0  0  0  0  0  0  0  0  0  0  0  0
  150.5528  140.8295  156.8761 H   0  0  0  0  0  0  0  0  0  0  0  0
  151.8994  142.9420  156.4894 H   0  0  0  0  0  0  0  0  0  0  0  0
  150.8478  143.7982  157.5915 H   0  0  0  0  0  0  0  0  0  0  0  0
  152.5975  144.2103  159.3804 H   0  0  0  0  0  0  0  0  0  0  0  0
  151.3056  143.3117  160.1868 H   0  0  0  0  0  0  0  0  0  0  0  0
  154.2565  142.9870  160.4663 H   0  0  0  0  0  0  0  0  0  0  0  0
  152.9979  142.4654  161.5781 H   0  0  0  0  0  0  0  0  0  0  0  0
  154.4424  140.7636  159.8037 H   0  0  0  0  0  0  0  0  0  0  0  0
  152.9053  140.3346  160.5763 H   0  0  0  0  0  0  0  0  0  0  0  0
  149.0350  141.3246  153.4133 H   0  0  0  0  0  0  0  0  0  0  0  0
  146.7711  140.4634  153.1108 H   0  0  0  0  0  0  0  0  0  0  0  0
  147.0812  139.1096  154.1943 H   0  0  0  0  0  0  0  0  0  0  0  0
  147.9067  139.2170  152.6418 H   0  0  0  0  0  0  0  0  0  0  0  0
  149.0513  137.7387  153.9062 H   0  0  0  0  0  0  0  0  0  0  0  0
  151.5287  136.9221  154.6963 H   0  0  0  0  0  0  0  0  0  0  0  0
  152.7625  139.2913  155.4336 H   0  0  0  0  0  0  0  0  0  0  0  0
  148.9963  143.1730  156.0128 H   0  0  0  0  0  0  0  0  0  0  0  0
  1  2  1  0  0  0  0
  1 19  1  0  0  0  0
  1 20  1  0  0  0  0
  1 21  1  0  0  0  0
  2  3  1  0  0  0  0
  2 12  1  0  0  0  0
  2 22  1  0  0  0  0
  3  4  1  0  0  0  0
  3 23  1  0  0  0  0
  3 41  1  0  0  0  0
  4  5  1  0  0  0  0
  4 24  1  0  0  0  0
  4 25  1  0  0  0  0
  5  6  1  0  0  0  0
  5 26  1  0  0  0  0
  5 27  1  0  0  0  0
  6 10  1  0  0  0  0
  6  7  1  0  0  0  0
  7  8  1  0  0  0  0
  7 28  1  0  0  0  0
  7 29  1  0  0  0  0
  8  9  1  0  0  0  0
  8 30  1  0  0  0  0
  8 31  1  0  0  0  0
  9 10  1  0  0  0  0
  9 32  1  0  0  0  0
  9 33  1  0  0  0  0
 10 11  2  0  0  0  0
 12 13  1  0  0  0  0
 12 14  1  0  0  0  0
 12 34  1  0  0  0  0
 13 35  1  0  0  0  0
 13 36  1  0  0  0  0
 13 37  1  0  0  0  0
 14 18  1  0  0  0  0
 14 15  1  0  0  0  0
 15 16  2  0  0  0  0
 15 38  1  0  0  0  0
 16 17  1  0  0  0  0
 16 39  1  0  0  0  0
 17 18  2  0  0  0  0
 17 40  1  0  0  0  0
M  CHG  1   3   1
M  END
> <s_m_source_file>
AV-unprocessed.smi

> <i_m_source_file_index>
3222

> <i_lp_mmshare_version>
43012

> <i_f3d_flags>
0

> <s_epik_input>
bjFbY0hdW2NIXVtjSF1uMVtDQEBIXShbQ0gzXSlbQ0BIXShbQ0gzXSlbTkhdW0NIMl1bQ0gyXU4yW0NIMl1bQ0gyXVtDSDJdQzI9Tw==

> <s_epik_cmdline>
J2VwaWtfcHl0aG9uJywgJy1waCcsICc3LjAnLCAnLXRuJywgJzgnLCAnLW1hJywgJzIwMCcsICctbWV0YWxfYmluZGluZycsICctaW1hZScsICc8aW5maWxlLm1hZT4nLCAnLW9tYWUnLCAnPG91dGZpbGUubWFlPic=

> <r_lp_tautomer_probability>
1

> <r_epik_Ionization_Penalty>
0.0064019

> <r_epik_Ionization_Penalty_Charging>
0.00639164

> <r_epik_Ionization_Penalty_Neutral>
1.02567e-05

> <r_epik_State_Penalty>
0.00472531

> <r_epik_Charging_Adjusted_Penalty>
0.011117

> <i_epik_Tot_Q>
1

> <i_epik_Tot_abs_Q>
1

> <r_epik_Metal_State_Penalty>
-0

> <b_epik_Metal_Only>
0

> <s_lp_Force_Field>
OPLS_2005

> <r_lp_Energy>
24.5342

> <b_lp_Chiralities_Consistent>
1

> <s_lp_Variant>
AV-unprocessed.smi:3222-1

> <Gold.Version>
5.8.1

> <Gold.Id.Protein>
6NUR|6NUR_protein|mol2

> <Gold.PLP.Fitness>
54.3555

> <Gold.PLP.PLP>
-41.2220

> <Gold.PLP.part.hbond>
-2.9375

> <Gold.PLP.part.metal>
0.0000

> <Gold.PLP.part.buried>
-0.8553

> <Gold.PLP.part.nonpolar>
-36.4379

> <Gold.PLP.part.repulsive>
0.1862

> <Gold.PLP.ligand.clash>
0.0000

> <Gold.PLP.ligand.torsion>
0.8447

> <Gold.PLP.Chemscore.Hbond>
3.8940

> <Gold.PLP.Chemscore.CHOScore>
1.0000

> <Gold.PLP.Chemscore.Metal>
0.0000

> <Gold.Chemscore.Hbonds>
donor molecule, donor type, donor heavy atom, donor atom, acceptor molecule, acceptor atom, score
      L1  H     3    41       P1  8028  2.00
      P1  H  7989  7998       L1    18  1.00
      P1  H  7997  8009       L1    11  0.95
      L1  C    15    38       P1  7948  0.95

> <Gold.PLP.Chemscore.Internal.Correction>
0.1410

> <Gold.Rescore>
     Score         DG    S(hbond)    S(metal)    S(lipo)     H(rot)  DE(clash)    DE(int)     intcor
     17.57     -20.22       2.69        0.00      92.83       1.99       0.40       2.24       ----

> <Gold.Chemscore.Fitness>
17.5750

> <Gold.Chemscore.DG>
-20.2211

> <Gold.Chemscore.ZeroCoef>
-5.4800

> <Gold.Chemscore.Hbond>
2.6885

> <Gold.Chemscore.Metal>
0.0000

> <Gold.Chemscore.Lipo>
92.8339

> <Gold.Chemscore.Internal_Hbond>
0.0000

> <Gold.Chemscore.DEClash>
0.4014

> <Gold.Chemscore.DEInternal>
2.2447

> <Gold.Chemscore.Rot>
1.9922

> <Gold.Chemscore.Internal.Correction>
   9.000000E+99

> <Gold.Chemscore.Hbonds>
donor molecule, donor type, donor heavy atom, donor atom, acceptor molecule, acceptor atom, score
      L1  H     3    41       P1  8028  0.94
      P1  H  7989  7998       L1    18  0.07
      P1  H  7997  8009       L1    11  0.67

> <Gold.Chemscore.Hbond.Weighted>
-8.9797

> <Gold.Chemscore.Metal.Weighted>
-0.0000

> <Gold.Chemscore.Lipo.Weighted>
-10.8616

> <Gold.Chemscore.Internal_Hbond.Weighted>
0.0000

> <Gold.Chemscore.DEClash.Weighted>
0.4014

> <Gold.Chemscore.DEInternal.Weighted>
2.2447

> <Gold.Chemscore.Rot.Weighted>
5.1002

> <Gold.Chemscore.Internal.Correction.Weighted>
   9.000000E+99

> <Gold.Protein.RotatedTorsions>
[ 6907 6896 6895 6894 ] final  -18.49 input  -60.11 | X-H torsion
[ 7974 7965 7964 7962 ] final  136.22 input  175.53 | X-H torsion
[ 8008 7997 7996 7995 ] final  168.31 input   59.86 | X-H torsion
[ 10167 10162 10161 10158 ] final -102.02 input  -65.29 | X-H torsion
[ 10718 10713 10712 10709 ] final -103.57 input   66.30 | X-H torsion
[ 10763 10752 10751 10750 ] final -143.46 input  -60.55 | X-H torsion
[ 11005 11000 10999 10996 ] final -150.47 input  -57.11 | X-H torsion

> <Gold.Protein.ActiveResidues>
 VAL166  LYS551  ARG553  GLY616  TRP617  ASP618  TYR619  PRO620  LYS621  CYS622 
 ASP623  PHE694  ASN695  SER759  ASP760  ASP761  ALA762  ILE779  LEU786  VAL792 
 PHE793  MET794  SER795  GLU796  ALA797  LYS798  CYS799  TRP800  GLU811  SER814 

> <Gold.Protein.RotatedAtoms>
  151.2773  135.0703  159.9156 H   0  0  0  0  0  0  0  0  0  0  0  0  # atno 6907 bound_to 6896
  152.5340  134.0067  159.7930 H   0  0  0  0  0  0  0  0  0  0  0  0  # atno 6908 bound_to 6896
  151.0315  133.5735  159.2691 H   0  0  0  0  0  0  0  0  0  0  0  0  # atno 6909 bound_to 6896
  144.9586  139.4736  143.5490 H   0  0  0  0  0  0  0  0  0  0  0  0  # atno 7974 bound_to 7965
  156.1558  140.1594  156.8695 H   0  0  0  0  0  0  0  0  0  0  0  0  # atno 8008 bound_to 7997
  154.5113  140.0800  156.8032 H   0  0  0  0  0  0  0  0  0  0  0  0  # atno 8009 bound_to 7997
  155.3806  140.3405  155.4249 H   0  0  0  0  0  0  0  0  0  0  0  0  # atno 8010 bound_to 7997
  140.2351  143.3579  152.0852 H   0  0  0  0  0  0  0  0  0  0  0  0  # atno 10167 bound_to 10162
  156.0270  130.5474  150.7272 H   0  0  0  0  0  0  0  0  0  0  0  0  # atno 10718 bound_to 10713
  154.8469  135.3467  154.6190 H   0  0  0  0  0  0  0  0  0  0  0  0  # atno 10763 bound_to 10752
  153.6799  135.6980  153.5126 H   0  0  0  0  0  0  0  0  0  0  0  0  # atno 10764 bound_to 10752
  153.2676  135.4303  155.0912 H   0  0  0  0  0  0  0  0  0  0  0  0  # atno 10765 bound_to 10752
  140.7398  134.3527  157.5150 H   0  0  0  0  0  0  0  0  0  0  0  0  # atno 11005 bound_to 11000
  146.3345  139.8721  142.8838 LP  0  0  0  0  0  0  0  0  0  0  0  0  # atno 17320 bound_to 7965
  145.2734  141.0116  143.3759 LP  0  0  0  0  0  0  0  0  0  0  0  0  # atno 17321 bound_to 7965
  139.5096  144.6870  151.5860 LP  0  0  0  0  0  0  0  0  0  0  0  0  # atno 17342 bound_to 10162
  140.6156  143.9355  150.6486 LP  0  0  0  0  0  0  0  0  0  0  0  0  # atno 17343 bound_to 10162
  157.4873  131.0908  151.0467 LP  0  0  0  0  0  0  0  0  0  0  0  0  # atno 17370 bound_to 10713
  157.0884  130.5932  149.5434 LP  0  0  0  0  0  0  0  0  0  0  0  0  # atno 17371 bound_to 10713
  139.8808  134.9073  156.2942 LP  0  0  0  0  0  0  0  0  0  0  0  0  # atno 17394 bound_to 11000
  140.9847  133.7246  156.0723 LP  0  0  0  0  0  0  0  0  0  0  0  0  # atno 17395 bound_to 11000

$$$$
