AV-unprocessed.smi:2770|AV-procd|sdf|10660|dock9
  -GOLD-   2272015103D 1   1.00000     0.00000
 Structure written by MMmdl.
 35 36  0  0  0  0  0  0  0  0  2 V2000
  146.4744  142.6511  154.4484 C   0  0  0  0  0  0  0  0  0  0  0  0
  147.5173  141.9274  155.1590 N   0  0  0  0  0  0  0  0  0  0  0  0
  148.5725  141.3467  154.5684 C   0  0  0  0  0  0  0  0  0  0  0  0
  148.7596  141.3808  153.3515 O   0  0  0  0  0  0  0  0  0  0  0  0
  149.5732  140.6386  155.4925 C   0  0  2  0  0  0  0  0  0  0  0  0
  150.2327  141.6065  156.5013 C   0  0  0  0  0  0  0  0  0  0  0  0
  151.2452  140.9100  157.2842 N   0  0  0  0  0  0  0  0  0  0  0  0
  151.8068  141.7153  158.2834 C   0  0  0  0  0  0  0  0  0  0  0  0
  151.5203  143.0930  158.4284 C   0  0  0  0  0  0  0  0  0  0  0  0
  152.1315  143.8187  159.4715 C   0  0  0  0  0  0  0  0  0  0  0  0
  153.0146  143.1572  160.3490 C   0  0  0  0  0  0  0  0  0  0  0  0
  153.2651  141.7813  160.1630 C   0  0  0  0  0  0  0  0  0  0  0  0
  154.1978  140.9982  161.0623 C   0  0  0  0  0  0  0  0  0  0  0  0
  152.6584  141.1230  159.1500 N   0  3  0  0  0  0  0  0  0  0  0  0
  152.2338  140.2360  156.4534 C   0  0  0  0  0  0  0  0  0  0  0  0
  151.5289  139.2939  155.4647 C   0  0  0  0  0  0  0  0  0  0  0  0
  150.5924  140.0377  154.6913 O   0  0  0  0  0  0  0  0  0  0  0  0
  145.7225  143.0069  155.1526 H   0  0  0  0  0  0  0  0  0  0  0  0
  145.9809  142.0068  153.7199 H   0  0  0  0  0  0  0  0  0  0  0  0
  146.8882  143.5145  153.9261 H   0  0  0  0  0  0  0  0  0  0  0  0
  147.4329  141.8599  156.1633 H   0  0  0  0  0  0  0  0  0  0  0  0
  149.0314  139.8574  156.0288 H   0  0  0  0  0  0  0  0  0  0  0  0
  150.6905  142.4455  155.9743 H   0  0  0  0  0  0  0  0  0  0  0  0
  149.4802  142.0199  157.1745 H   0  0  0  0  0  0  0  0  0  0  0  0
  150.8388  143.5908  157.7540 H   0  0  0  0  0  0  0  0  0  0  0  0
  151.9242  144.8711  159.5982 H   0  0  0  0  0  0  0  0  0  0  0  0
  153.4898  143.7004  161.1531 H   0  0  0  0  0  0  0  0  0  0  0  0
  154.5693  141.6183  161.8787 H   0  0  0  0  0  0  0  0  0  0  0  0
  155.0540  140.6327  160.4948 H   0  0  0  0  0  0  0  0  0  0  0  0
  153.6795  140.1419  161.4945 H   0  0  0  0  0  0  0  0  0  0  0  0
  152.8238  140.9707  155.9043 H   0  0  0  0  0  0  0  0  0  0  0  0
  152.9225  139.6714  157.0831 H   0  0  0  0  0  0  0  0  0  0  0  0
  152.2576  138.8355  154.7962 H   0  0  0  0  0  0  0  0  0  0  0  0
  151.0222  138.4827  155.9903 H   0  0  0  0  0  0  0  0  0  0  0  0
  152.8536  140.1282  159.0340 H   0  0  0  0  0  0  0  0  0  0  0  0
  1  2  1  0  0  0  0
  1 18  1  0  0  0  0
  1 19  1  0  0  0  0
  1 20  1  0  0  0  0
  2  3  1  0  0  0  0
  2 21  1  0  0  0  0
  3  4  2  0  0  0  0
  3  5  1  0  0  0  0
  5 17  1  0  0  0  0
  5  6  1  0  0  0  0
  5 22  1  0  0  0  0
  6  7  1  0  0  0  0
  6 23  1  0  0  0  0
  6 24  1  0  0  0  0
  7  8  1  0  0  0  0
  7 15  1  0  0  0  0
  8 14  1  0  0  0  0
  8  9  2  0  0  0  0
  9 10  1  0  0  0  0
  9 25  1  0  0  0  0
 10 11  2  0  0  0  0
 10 26  1  0  0  0  0
 11 12  1  0  0  0  0
 11 27  1  0  0  0  0
 12 13  1  0  0  0  0
 12 14  2  0  0  0  0
 13 28  1  0  0  0  0
 13 29  1  0  0  0  0
 13 30  1  0  0  0  0
 14 35  1  0  0  0  0
 15 16  1  0  0  0  0
 15 31  1  0  0  0  0
 15 32  1  0  0  0  0
 16 17  1  0  0  0  0
 16 33  1  0  0  0  0
 16 34  1  0  0  0  0
M  CHG  1  14   1
M  END
> <s_m_source_file>
AV-unprocessed.smi

> <i_m_source_file_index>
2770

> <i_lp_mmshare_version>
43012

> <i_f3d_flags>
0

> <s_epik_input>
W0NIM11bTkhdQyg9TylbQ0BASF0xW0NIMl1OKFtDSDJdW0NIMl1PMSljMltjSF1bY0hdW2NIXWMobjIpW0NIM10=

> <s_epik_cmdline>
J2VwaWtfcHl0aG9uJywgJy1waCcsICc3LjAnLCAnLXRuJywgJzgnLCAnLW1hJywgJzIwMCcsICctbWV0YWxfYmluZGluZycsICctaW1hZScsICc8aW5maWxlLm1hZT4nLCAnLW9tYWUnLCAnPG91dGZpbGUubWFlPic=

> <r_lp_tautomer_probability>
0.999994

> <r_epik_Ionization_Penalty>
2.33902

> <r_epik_Ionization_Penalty_Charging>
2.33902

> <r_epik_Ionization_Penalty_Neutral>
5.66859e-08

> <r_epik_State_Penalty>
2.4925

> <r_epik_Charging_Adjusted_Penalty>
4.83152

> <i_epik_Tot_Q>
1

> <i_epik_Tot_abs_Q>
1

> <r_epik_Metal_State_Penalty>
2.50392

> <b_epik_Metal_Only>
0

> <s_lp_Force_Field>
OPLS_2005

> <r_lp_Energy>
23.5554

> <b_lp_Chiralities_Consistent>
1

> <s_lp_Variant>
AV-unprocessed.smi:2770-3

> <Gold.Version>
5.8.1

> <Gold.Id.Protein>
6NUR|6NUR_protein|mol2

> <Gold.PLP.Fitness>
40.3689

> <Gold.PLP.PLP>
-34.6622

> <Gold.PLP.part.hbond>
-3.4070

> <Gold.PLP.part.metal>
0.0000

> <Gold.PLP.part.buried>
-3.7102

> <Gold.PLP.part.nonpolar>
-30.9156

> <Gold.PLP.part.repulsive>
3.5147

> <Gold.PLP.ligand.clash>
0.0000

> <Gold.PLP.ligand.torsion>
0.0644

> <Gold.PLP.Chemscore.Hbond>
1.9120

> <Gold.PLP.Chemscore.CHOScore>
0.0000

> <Gold.PLP.Chemscore.Metal>
0.0000

> <Gold.Chemscore.Hbonds>
donor molecule, donor type, donor heavy atom, donor atom, acceptor molecule, acceptor atom, score
      P1  H  7989  7998       L1    17  1.00
      P1  H  8011  8017       L1     4  0.88

> <Gold.PLP.Chemscore.Internal.Correction>
0.0995

> <Gold.Rescore>
     Score         DG    S(hbond)    S(metal)    S(lipo)     H(rot)  DE(clash)    DE(int)     intcor
     16.23     -17.68       1.68        0.00      84.68       1.30       1.30       0.15       ----

> <Gold.Chemscore.Fitness>
16.2345

> <Gold.Chemscore.DG>
-17.6831

> <Gold.Chemscore.ZeroCoef>
-5.4800

> <Gold.Chemscore.Hbond>
1.6808

> <Gold.Chemscore.Metal>
0.0000

> <Gold.Chemscore.Lipo>
84.6827

> <Gold.Chemscore.Internal_Hbond>
0.0000

> <Gold.Chemscore.DEClash>
1.3024

> <Gold.Chemscore.DEInternal>
0.1463

> <Gold.Chemscore.Rot>
1.2963

> <Gold.Chemscore.Internal.Correction>
   9.000000E+99

> <Gold.Chemscore.Hbonds>
donor molecule, donor type, donor heavy atom, donor atom, acceptor molecule, acceptor atom, score
      P1  H  7989  7998       L1    17  0.40
      P1  H  8011  8017       L1     4  0.87

> <Gold.Chemscore.Hbond.Weighted>
-5.6138

> <Gold.Chemscore.Metal.Weighted>
-0.0000

> <Gold.Chemscore.Lipo.Weighted>
-9.9079

> <Gold.Chemscore.Internal_Hbond.Weighted>
0.0000

> <Gold.Chemscore.DEClash.Weighted>
1.3024

> <Gold.Chemscore.DEInternal.Weighted>
0.1463

> <Gold.Chemscore.Rot.Weighted>
3.3185

> <Gold.Chemscore.Internal.Correction.Weighted>
   9.000000E+99

> <Gold.Protein.RotatedTorsions>
[ 6907 6896 6895 6894 ] final  -56.21 input  -60.11 | X-H torsion
[ 7974 7965 7964 7962 ] final   -7.93 input  175.53 | X-H torsion
[ 8008 7997 7996 7995 ] final  102.72 input   59.86 | X-H torsion
[ 10167 10162 10161 10158 ] final   14.91 input  -65.29 | X-H torsion
[ 10718 10713 10712 10709 ] final -116.10 input   66.30 | X-H torsion
[ 10763 10752 10751 10750 ] final -142.71 input  -60.55 | X-H torsion
[ 11005 11000 10999 10996 ] final -138.98 input  -57.11 | X-H torsion

> <Gold.Protein.ActiveResidues>
 VAL166  LYS551  ARG553  GLY616  TRP617  ASP618  TYR619  PRO620  LYS621  CYS622 
 ASP623  PHE694  ASN695  SER759  ASP760  ASP761  ALA762  ILE779  LEU786  VAL792 
 PHE793  MET794  SER795  GLU796  ALA797  LYS798  CYS799  TRP800  GLU811  SER814 

> <Gold.Protein.RotatedAtoms>
  150.8186  134.7382  159.6752 H   0  0  0  0  0  0  0  0  0  0  0  0  # atno 6907 bound_to 6896
  152.4304  134.5786  159.9951 H   0  0  0  0  0  0  0  0  0  0  0  0  # atno 6908 bound_to 6896
  151.5976  133.3322  159.3076 H   0  0  0  0  0  0  0  0  0  0  0  0  # atno 6909 bound_to 6896
  146.2294  140.2393  142.8343 H   0  0  0  0  0  0  0  0  0  0  0  0  # atno 7974 bound_to 7965
  156.1419  140.3176  155.8509 H   0  0  0  0  0  0  0  0  0  0  0  0  # atno 8008 bound_to 7997
  155.4138  140.0507  157.3047 H   0  0  0  0  0  0  0  0  0  0  0  0  # atno 8009 bound_to 7997
  154.4983  140.2119  155.9411 H   0  0  0  0  0  0  0  0  0  0  0  0  # atno 8010 bound_to 7997
  140.5903  143.8808  150.6867 H   0  0  0  0  0  0  0  0  0  0  0  0  # atno 10167 bound_to 10162
  156.0941  130.6117  150.8992 H   0  0  0  0  0  0  0  0  0  0  0  0  # atno 10718 bound_to 10713
  154.8498  135.3488  154.6071 H   0  0  0  0  0  0  0  0  0  0  0  0  # atno 10763 bound_to 10752
  153.6680  135.6986  153.5161 H   0  0  0  0  0  0  0  0  0  0  0  0  # atno 10764 bound_to 10752
  153.2765  135.4277  155.0995 H   0  0  0  0  0  0  0  0  0  0  0  0  # atno 10765 bound_to 10752
  140.8564  134.2223  157.4732 H   0  0  0  0  0  0  0  0  0  0  0  0  # atno 11005 bound_to 11000
  144.9497  140.8165  143.5579 LP  0  0  0  0  0  0  0  0  0  0  0  0  # atno 17320 bound_to 7965
  145.2352  139.2097  143.5021 LP  0  0  0  0  0  0  0  0  0  0  0  0  # atno 17321 bound_to 7965
  140.2329  143.3722  152.1550 LP  0  0  0  0  0  0  0  0  0  0  0  0  # atno 17342 bound_to 10162
  139.5223  144.7057  151.5360 LP  0  0  0  0  0  0  0  0  0  0  0  0  # atno 17343 bound_to 10162
  157.6097  131.0937  150.8816 LP  0  0  0  0  0  0  0  0  0  0  0  0  # atno 17370 bound_to 10713
  156.8958  130.5229  149.5284 LP  0  0  0  0  0  0  0  0  0  0  0  0  # atno 17371 bound_to 10713
  139.8705  134.9708  156.4715 LP  0  0  0  0  0  0  0  0  0  0  0  0  # atno 17394 bound_to 11000
  140.8733  133.7972  155.9387 LP  0  0  0  0  0  0  0  0  0  0  0  0  # atno 17395 bound_to 11000

$$$$
