AV-unprocessed.smi:627|AV-procd|sdf|3113|dock4
  -GOLD-   22720 0 33D 1   1.00000     0.00000
 Structure written by MMmdl.
 40 42  0  0  0  0  0  0  0  0  1 V2000
  152.5379  139.3899  159.0793 C   0  0  0  0  0  0  0  0  0  0  0  0
  153.0674  137.7740  158.3792 S   0  0  0  0  0  0  0  0  0  0  0  0
  154.2840  138.0035  157.5840 O   0  0  0  0  0  0  0  0  0  0  0  0
  153.0871  136.7836  159.4669 O   0  0  0  0  0  0  0  0  0  0  0  0
  151.7391  137.3384  157.2627 C   0  0  0  0  0  0  0  0  0  0  0  0
  150.4861  136.9348  157.7667 C   0  0  0  0  0  0  0  0  0  0  0  0
  149.4860  136.5721  156.8447 C   0  0  0  0  0  0  0  0  0  0  0  0
  149.7796  136.6249  155.4600 C   0  0  0  0  0  0  0  0  0  0  0  0
  148.8595  136.2706  154.4371 N   0  0  0  0  0  0  0  0  0  0  0  0
  147.6456  135.7085  154.5680 C   0  0  0  0  0  0  0  0  0  0  0  0
  147.1183  135.3985  155.6360 O   0  0  0  0  0  0  0  0  0  0  0  0
  147.0588  135.5422  153.3738 N   0  0  0  0  0  0  0  0  0  0  0  0
  145.7275  134.9873  153.1505 C   0  0  0  0  0  0  0  0  0  0  0  0
  145.7969  133.5756  152.5981 C   0  0  0  0  0  0  0  0  0  0  0  0
  147.0397  132.7309  152.7510 C   0  0  0  0  0  0  0  0  0  0  0  0
  146.6408  133.2524  151.3887 C   0  0  0  0  0  0  0  0  0  0  0  0
  144.8766  135.8653  152.2477 C   0  0  0  0  0  0  0  0  0  0  0  0
  143.7412  135.2926  151.4325 C   0  0  0  0  0  0  0  0  0  0  0  0
  144.9915  135.7893  150.7432 C   0  0  0  0  0  0  0  0  0  0  0  0
  151.0805  137.0141  155.0747 C   0  0  0  0  0  0  0  0  0  0  0  0
  152.0471  137.3646  155.9487 N   0  0  0  0  0  0  0  0  0  0  0  0
  153.2921  139.7458  159.7806 H   0  0  0  0  0  0  0  0  0  0  0  0
  151.5883  139.2676  159.5997 H   0  0  0  0  0  0  0  0  0  0  0  0
  152.4195  140.1137  158.2736 H   0  0  0  0  0  0  0  0  0  0  0  0
  150.2910  136.9005  158.8282 H   0  0  0  0  0  0  0  0  0  0  0  0
  148.5259  136.2481  157.2155 H   0  0  0  0  0  0  0  0  0  0  0  0
  149.1236  136.5447  153.5021 H   0  0  0  0  0  0  0  0  0  0  0  0
  147.5703  135.8294  152.5525 H   0  0  0  0  0  0  0  0  0  0  0  0
  145.2197  134.9211  154.1151 H   0  0  0  0  0  0  0  0  0  0  0  0
  144.8534  133.0371  152.6689 H   0  0  0  0  0  0  0  0  0  0  0  0
  147.9111  133.1821  153.2210 H   0  0  0  0  0  0  0  0  0  0  0  0
  146.9037  131.6686  152.9439 H   0  0  0  0  0  0  0  0  0  0  0  0
  146.2395  132.5376  150.6733 H   0  0  0  0  0  0  0  0  0  0  0  0
  147.2412  134.0533  150.9615 H   0  0  0  0  0  0  0  0  0  0  0  0
  144.7076  136.8617  152.6520 H   0  0  0  0  0  0  0  0  0  0  0  0
  143.5821  134.2166  151.4641 H   0  0  0  0  0  0  0  0  0  0  0  0
  142.8398  135.8943  151.3371 H   0  0  0  0  0  0  0  0  0  0  0  0
  144.9229  136.7217  150.1865 H   0  0  0  0  0  0  0  0  0  0  0  0
  145.6547  135.0394  150.3170 H   0  0  0  0  0  0  0  0  0  0  0  0
  151.3550  137.0504  154.0305 H   0  0  0  0  0  0  0  0  0  0  0  0
  1  2  1  0  0  0  0
  1 22  1  0  0  0  0
  1 23  1  0  0  0  0
  1 24  1  0  0  0  0
  2  3  2  0  0  0  0
  2  4  2  0  0  0  0
  2  5  1  0  0  0  0
  5 21  1  0  0  0  0
  5  6  2  0  0  0  0
  6  7  1  0  0  0  0
  6 25  1  0  0  0  0
  7  8  2  0  0  0  0
  7 26  1  0  0  0  0
  8  9  1  0  0  0  0
  8 20  1  0  0  0  0
  9 10  1  0  0  0  0
  9 27  1  0  0  0  0
 10 11  2  0  0  0  0
 10 12  1  0  0  0  0
 12 13  1  0  0  0  0
 12 28  1  0  0  0  0
 13 14  1  0  0  0  0
 13 17  1  0  0  0  0
 13 29  1  0  0  0  0
 14 16  1  0  0  0  0
 14 15  1  0  0  0  0
 14 30  1  0  0  0  0
 15 16  1  0  0  0  0
 15 31  1  0  0  0  0
 15 32  1  0  0  0  0
 16 33  1  0  0  0  0
 16 34  1  0  0  0  0
 17 19  1  0  0  0  0
 17 18  1  0  0  0  0
 17 35  1  0  0  0  0
 18 19  1  0  0  0  0
 18 36  1  0  0  0  0
 18 37  1  0  0  0  0
 19 38  1  0  0  0  0
 19 39  1  0  0  0  0
 20 21  2  0  0  0  0
 20 40  1  0  0  0  0
M  END
> <s_m_source_file>
AV-unprocessed.smi

> <i_m_source_file_index>
627

> <i_lp_mmshare_version>
43012

> <i_f3d_flags>
0

> <s_epik_input>
W0NIM11TKD1PKSg9TyljMVtjSF1bY0hdYyhbY0hdbjEpW05IXUMoPU8pW05IXVtDSF0oW0NIXTJbQ0gyXVtDSDJdMilbQ0hdM1tDSDJdW0NIMl0z

> <s_epik_cmdline>
J2VwaWtfcHl0aG9uJywgJy1waCcsICc3LjAnLCAnLXRuJywgJzgnLCAnLW1hJywgJzIwMCcsICctbWV0YWxfYmluZGluZycsICctaW1hZScsICc8aW5maWxlLm1hZT4nLCAnLW9tYWUnLCAnPG91dGZpbGUubWFlPic=

> <r_lp_tautomer_probability>
1

> <r_epik_Ionization_Penalty>
4.12334e-05

> <r_epik_Ionization_Penalty_Charging>
0

> <r_epik_Ionization_Penalty_Neutral>
4.12334e-05

> <r_epik_State_Penalty>
-0

> <r_epik_Charging_Adjusted_Penalty>
0

> <i_epik_Tot_Q>
0

> <i_epik_Tot_abs_Q>
0

> <r_epik_Metal_State_Penalty>
-0

> <b_epik_Metal_Only>
0

> <s_lp_Force_Field>
OPLS_2005

> <r_lp_Energy>
25.9195

> <b_lp_Chiralities_Consistent>
1

> <s_lp_Variant>
AV-unprocessed.smi:627-1

> <Gold.Version>
5.8.1

> <Gold.Id.Protein>
6NUR|6NUR_protein|mol2

> <Gold.PLP.Fitness>
36.3881

> <Gold.PLP.PLP>
-24.8305

> <Gold.PLP.part.hbond>
-4.1411

> <Gold.PLP.part.metal>
0.0000

> <Gold.PLP.part.buried>
-3.1469

> <Gold.PLP.part.nonpolar>
-17.9684

> <Gold.PLP.part.repulsive>
0.0494

> <Gold.PLP.ligand.clash>
0.0000

> <Gold.PLP.ligand.torsion>
2.2879

> <Gold.PLP.Chemscore.Hbond>
3.5827

> <Gold.PLP.Chemscore.CHOScore>
0.4116

> <Gold.PLP.Chemscore.Metal>
0.0000

> <Gold.Chemscore.Hbonds>
donor molecule, donor type, donor heavy atom, donor atom, acceptor molecule, acceptor atom, score
      L1  H     9    27       P1  7948  0.93
      L1  H    12    28       P1  7948  1.00
      P1  H  6896  6909       L1     4  0.81
      P1  H  7997  8010       L1     3  0.63
      P1  H 10752 10764       L1    21  0.03
      L1  C    20    40       P1  7949  0.43

> <Gold.PLP.Chemscore.Internal.Correction>
4.1504

> <Gold.Rescore>
     Score         DG    S(hbond)    S(metal)    S(lipo)     H(rot)  DE(clash)    DE(int)     intcor
     17.19     -20.70       3.75        0.00      53.48       1.40       0.04       3.47       ----

> <Gold.Chemscore.Fitness>
17.1920

> <Gold.Chemscore.DG>
-20.6985

> <Gold.Chemscore.ZeroCoef>
-5.4800

> <Gold.Chemscore.Hbond>
3.7529

> <Gold.Chemscore.Metal>
0.0000

> <Gold.Chemscore.Lipo>
53.4810

> <Gold.Chemscore.Internal_Hbond>
0.0000

> <Gold.Chemscore.DEClash>
0.0354

> <Gold.Chemscore.DEInternal>
3.4711

> <Gold.Chemscore.Rot>
1.3958

> <Gold.Chemscore.Internal.Correction>
   9.000000E+99

> <Gold.Chemscore.Hbonds>
donor molecule, donor type, donor heavy atom, donor atom, acceptor molecule, acceptor atom, score
      L1  H     9    27       P1  7948  0.89
      L1  H    12    28       P1  7948  0.92
      P1  H  6896  6909       L1     4  0.80
      P1  H  7997  8010       L1     3  0.58

> <Gold.Chemscore.Hbond.Weighted>
-12.5345

> <Gold.Chemscore.Metal.Weighted>
-0.0000

> <Gold.Chemscore.Lipo.Weighted>
-6.2573

> <Gold.Chemscore.Internal_Hbond.Weighted>
0.0000

> <Gold.Chemscore.DEClash.Weighted>
0.0354

> <Gold.Chemscore.DEInternal.Weighted>
3.4711

> <Gold.Chemscore.Rot.Weighted>
3.5733

> <Gold.Chemscore.Internal.Correction.Weighted>
   9.000000E+99

> <Gold.Protein.RotatedTorsions>
[ 6907 6896 6895 6894 ] final  149.05 input  -60.11 | X-H torsion
[ 7974 7965 7964 7962 ] final  148.21 input  175.53 | X-H torsion
[ 8008 7997 7996 7995 ] final   23.93 input   59.86 | X-H torsion
[ 10167 10162 10161 10158 ] final -151.45 input  -65.29 | X-H torsion
[ 10718 10713 10712 10709 ] final  139.28 input   66.30 | X-H torsion
[ 10763 10752 10751 10750 ] final  -24.77 input  -60.55 | X-H torsion
[ 11005 11000 10999 10996 ] final -169.49 input  -57.11 | X-H torsion

> <Gold.Protein.ActiveResidues>
 VAL166  LYS551  ARG553  GLY616  TRP617  ASP618  TYR619  PRO620  LYS621  CYS622 
 ASP623  PHE694  ASN695  SER759  ASP760  ASP761  ALA762  ILE779  LEU786  VAL792 
 PHE793  MET794  SER795  GLU796  ALA797  LYS798  CYS799  TRP800  GLU811  SER814 

> <Gold.Protein.RotatedAtoms>
  152.1332  133.4420  159.4730 H   0  0  0  0  0  0  0  0  0  0  0  0  # atno 6907 bound_to 6896
  150.6880  134.2395  159.4476 H   0  0  0  0  0  0  0  0  0  0  0  0  # atno 6908 bound_to 6896
  152.0280  134.9784  160.0622 H   0  0  0  0  0  0  0  0  0  0  0  0  # atno 6909 bound_to 6896
  144.8532  139.6125  143.5964 H   0  0  0  0  0  0  0  0  0  0  0  0  # atno 7974 bound_to 7965
  154.9885  140.3111  155.4916 H   0  0  0  0  0  0  0  0  0  0  0  0  # atno 8008 bound_to 7997
  156.2943  140.2253  156.4929 H   0  0  0  0  0  0  0  0  0  0  0  0  # atno 8009 bound_to 7997
  154.7724  140.0451  157.1050 H   0  0  0  0  0  0  0  0  0  0  0  0  # atno 8010 bound_to 7997
  139.7266  143.8874  152.2521 H   0  0  0  0  0  0  0  0  0  0  0  0  # atno 10167 bound_to 10162
  157.4161  131.1033  151.0403 H   0  0  0  0  0  0  0  0  0  0  0  0  # atno 10718 bound_to 10713
  153.6891  135.6962  153.5095 H   0  0  0  0  0  0  0  0  0  0  0  0  # atno 10763 bound_to 10752
  153.2427  135.4301  155.0714 H   0  0  0  0  0  0  0  0  0  0  0  0  # atno 10764 bound_to 10752
  154.8378  135.3511  154.6433 H   0  0  0  0  0  0  0  0  0  0  0  0  # atno 10765 bound_to 10752
  140.5301  134.5624  157.5072 H   0  0  0  0  0  0  0  0  0  0  0  0  # atno 11005 bound_to 11000
  146.2801  139.6856  142.9235 LP  0  0  0  0  0  0  0  0  0  0  0  0  # atno 17320 bound_to 7965
  145.4459  141.0425  143.2831 LP  0  0  0  0  0  0  0  0  0  0  0  0  # atno 17321 bound_to 7965
  139.8785  144.7030  150.8905 LP  0  0  0  0  0  0  0  0  0  0  0  0  # atno 17342 bound_to 10162
  140.7764  143.3680  151.1702 LP  0  0  0  0  0  0  0  0  0  0  0  0  # atno 17343 bound_to 10162
  157.1350  130.6118  149.5539 LP  0  0  0  0  0  0  0  0  0  0  0  0  # atno 17370 bound_to 10713
  155.9866  130.4901  150.7085 LP  0  0  0  0  0  0  0  0  0  0  0  0  # atno 17371 bound_to 10713
  139.9559  134.7536  156.0344 LP  0  0  0  0  0  0  0  0  0  0  0  0  # atno 17394 bound_to 11000
  141.1286  133.6592  156.3403 LP  0  0  0  0  0  0  0  0  0  0  0  0  # atno 17395 bound_to 11000

$$$$
