#       Name:                AV-unprocessed.smi:2591
#       Creating user name   scv26
#       Creation time:       Fri Mar 27 14:16:42 2020


#       File generated by GOLD software.
#

@<TRIPOS>MOLECULE
AV-unprocessed.smi:2591
    40    41     1
SMALL
NO_CHARGES


@<TRIPOS>ATOM
      1 ****        -4.0414   1.3218   2.9227 C.3            1 S1                 0.0000
      2 ****        -3.4096   0.7388   1.7199 N.4            1 S1                 1.0000
      3 ****        -3.5799   1.5866   0.5189 C.3            1 S1                 0.0000
      4 ****        -2.9412   0.9099  -0.7036 C.3            1 S1                 0.0000
      5 ****        -1.5672   0.6551  -0.4398 O.3            1 S1                 0.0000
      6 ****        -1.3756  -0.2351   0.6597 C.3            1 S1                 0.0000
      7 ****         0.1259  -0.5285   0.8072 C.2            1 S1                 0.0000
      8 ****         0.5997  -0.7387   1.9243 O.2            1 S1                 0.0000
      9 ****         0.8386  -0.5570  -0.3360 N.am           1 S1                 0.0000
     10 ****         2.2286  -0.7948  -0.5034 C.ar           1 S1                 0.0000
     11 ****         2.6861  -0.7509  -1.8390 C.ar           1 S1                 0.0000
     12 ****         4.0515  -0.9703  -2.1192 C.ar           1 S1                 0.0000
     13 ****         4.5528  -0.9269  -3.5543 C.3            1 S1                 0.0000
     14 ****         5.8846  -0.9560  -3.6134 F              1 S1                 0.0000
     15 ****         4.0729  -1.9758  -4.2213 F              1 S1                 0.0000
     16 ****         4.1285   0.1894  -4.1462 F              1 S1                 0.0000
     17 ****         4.9208  -1.2353  -1.0410 C.ar           1 S1                 0.0000
     18 ****         4.3832  -1.2609   0.2586 C.ar           1 S1                 0.0000
     19 ****         3.0777  -1.0471   0.5228 N.ar           1 S1                 0.0000
     20 ****        -1.9835   0.4006   1.9326 C.3            1 S1                 0.0000
     21 ****        -3.5746   2.2706   3.1902 H              1 S1                 0.0000
     22 ****        -3.9496   0.6437   3.7716 H              1 S1                 0.0000
     23 ****        -5.1035   1.4991   2.7510 H              1 S1                 0.0000
     24 ****        -4.6411   1.7591   0.3358 H              1 S1                 0.0000
     25 ****        -3.1198   2.5615   0.6888 H              1 S1                 0.0000
     26 ****        -3.4563  -0.0196  -0.9510 H              1 S1                 0.0000
     27 ****        -3.0187   1.5593  -1.5756 H              1 S1                 0.0000
     28 ****        -1.8739  -1.1821   0.4449 H              1 S1                 0.0000
     29 ****         0.3244  -0.3733  -1.1850 H              1 S1                 0.0000
     30 ****         1.9982  -0.5507  -2.6480 H              1 S1                 0.0000
     31 ****         5.9741  -1.4155  -1.1964 H              1 S1                 0.0000
     32 ****         5.0181  -1.4597   1.1093 H              1 S1                 0.0000
     33 ****        -1.4342   1.3037   2.2054 H              1 S1                 0.0000
     34 ****        -1.9059  -0.2892   2.7746 H              1 S1                 0.0000
     35 ****        -3.8894  -0.1304   1.5333 H              1 S1                 0.0000
     36 ****        -1.1146   1.5223  -0.2324 LP             1 S1                 0.0000
     37 ****        -1.1541   0.2502  -1.2555 LP             1 S1                 0.0000
     38 ****         0.0081  -0.7181   2.7303 LP             1 S1                 0.0000
     39 ****         1.5760  -0.9301   2.0255 LP             1 S1                 0.0000
     40 ****         2.7405  -1.0744   1.4639 LP             1 S1                 0.0000
@<TRIPOS>BOND
    1    1    2 1     
    2    1   21 1     
    3    1   22 1     
    4    1   23 1     
    5    2   20 1     
    6    2    3 1     
    7    2   35 1     
    8    3    4 1     
    9    3   24 1     
   10    3   25 1     
   11    4    5 1     
   12    4   26 1     
   13    4   27 1     
   14    5    6 1     
   15    6    7 1     
   16    6   20 1     
   17    6   28 1     
   18    7    8 2     
   19    7    9 am    
   20    9   10 1     
   21    9   29 1     
   22   10   19 ar    
   23   10   11 ar    
   24   11   12 ar    
   25   11   30 1     
   26   12   13 1     
   27   12   17 ar    
   28   13   14 1     
   29   13   15 1     
   30   13   16 1     
   31   17   18 ar    
   32   17   31 1     
   33   18   19 ar    
   34   18   32 1     
   35   20   33 1     
   36   20   34 1     
   37    5   36 1     
   38    5   37 1     
   39    8   38 1     
   40    8   39 1     
   41   19   40 1     
@<TRIPOS>SUBSTRUCTURE
      1 S1             1
@<TRIPOS>SET
LONE_PAIRS      STATIC     ATOMS    <user>   **** ""
5 36 37 38 39 40
DONOR_HYDROGENS      STATIC     ATOMS    <user>   **** ""
2 35 29
ATOM$BLUE        STATIC     ATOMS    COLORGROUP SYSTEM
5 36 37 38 39 40
ATOM$RED        STATIC     ATOMS    COLORGROUP SYSTEM
2 35 29
