AV-unprocessed.smi:2521|AV-procd|sdf|9918|dock6
  -GOLD-   2272013553D 1   1.00000     0.00000
 Structure written by MMmdl.
 35 36  0  0  0  0  0  0  0  0  2 V2000
  151.8485  143.8767  161.5240 C   0  0  0  0  0  0  0  0  0  0  0  0
  152.5062  143.6385  160.1570 C   0  0  0  0  0  0  0  0  0  0  0  0
  151.9333  144.5328  159.0480 C   0  0  0  0  0  0  0  0  0  0  0  0
  152.5018  142.1917  159.7734 C   0  0  0  0  0  0  0  0  0  0  0  0
  151.3942  141.5329  159.4190 N   0  0  0  0  0  0  0  0  0  0  0  0
  151.6495  140.2056  159.1086 N   0  0  0  0  0  0  0  0  0  0  0  0
  152.9414  139.8741  159.2404 C   0  0  0  0  0  0  0  0  0  0  0  0
  153.3979  138.6370  158.9848 N   0  5  0  0  0  0  0  0  0  0  0  0
  152.5915  137.7282  158.3904 C   0  0  0  0  0  0  0  0  0  0  0  0
  151.8993  136.8813  158.9597 O   0  0  0  0  0  0  0  0  0  0  0  0
  152.5886  137.8019  157.0529 N   0  0  0  0  0  0  0  0  0  0  0  0
  151.8149  136.9425  156.1659 C   0  0  0  0  0  0  0  0  0  0  0  0
  151.0577  137.7729  155.1171 C   0  0  1  0  0  0  0  0  0  0  0  0
  149.7054  138.2700  155.5840 C   0  0  0  0  0  0  0  0  0  0  0  0
  149.4237  139.3890  154.5867 C   0  0  0  0  0  0  0  0  0  0  0  0
  150.6949  139.9388  154.2533 O   0  0  0  0  0  0  0  0  0  0  0  0
  151.7360  139.0876  154.7258 C   0  0  0  0  0  0  0  0  0  0  0  0
  153.9631  141.2175  159.7498 S   0  0  0  0  0  0  0  0  0  0  0  0
  152.3378  143.2893  162.3016 H   0  0  0  0  0  0  0  0  0  0  0  0
  150.7940  143.5990  161.5108 H   0  0  0  0  0  0  0  0  0  0  0  0
  151.9122  144.9259  161.8134 H   0  0  0  0  0  0  0  0  0  0  0  0
  153.5533  143.9228  160.2683 H   0  0  0  0  0  0  0  0  0  0  0  0
  152.4801  144.3978  158.1142 H   0  0  0  0  0  0  0  0  0  0  0  0
  151.9989  145.5866  159.3197 H   0  0  0  0  0  0  0  0  0  0  0  0
  150.8847  144.3037  158.8556 H   0  0  0  0  0  0  0  0  0  0  0  0
  153.1662  138.5089  156.6225 H   0  0  0  0  0  0  0  0  0  0  0  0
  152.4859  136.2427  155.6654 H   0  0  0  0  0  0  0  0  0  0  0  0
  151.1172  136.3496  156.7592 H   0  0  0  0  0  0  0  0  0  0  0  0
  150.9115  137.1729  154.2171 H   0  0  0  0  0  0  0  0  0  0  0  0
  148.9388  137.4948  155.5803 H   0  0  0  0  0  0  0  0  0  0  0  0
  149.7758  138.6779  156.5935 H   0  0  0  0  0  0  0  0  0  0  0  0
  148.9719  138.9849  153.6798 H   0  0  0  0  0  0  0  0  0  0  0  0
  148.7532  140.1482  154.9898 H   0  0  0  0  0  0  0  0  0  0  0  0
  152.1956  139.5588  155.5956 H   0  0  0  0  0  0  0  0  0  0  0  0
  152.5093  138.9493  153.9700 H   0  0  0  0  0  0  0  0  0  0  0  0
  1  2  1  0  0  0  0
  1 19  1  0  0  0  0
  1 20  1  0  0  0  0
  1 21  1  0  0  0  0
  2  3  1  0  0  0  0
  2  4  1  0  0  0  0
  2 22  1  0  0  0  0
  3 23  1  0  0  0  0
  3 24  1  0  0  0  0
  3 25  1  0  0  0  0
  4 18  1  0  0  0  0
  4  5  2  0  0  0  0
  5  6  1  0  0  0  0
  6  7  2  0  0  0  0
  7  8  1  0  0  0  0
  7 18  1  0  0  0  0
  8  9  1  0  0  0  0
  9 10  2  0  0  0  0
  9 11  1  0  0  0  0
 11 12  1  0  0  0  0
 11 26  1  0  0  0  0
 12 13  1  0  0  0  0
 12 27  1  0  0  0  0
 12 28  1  0  0  0  0
 13 17  1  0  0  0  0
 13 14  1  0  0  0  0
 13 29  1  0  0  0  0
 14 15  1  0  0  0  0
 14 30  1  0  0  0  0
 14 31  1  0  0  0  0
 15 16  1  0  0  0  0
 15 32  1  0  0  0  0
 15 33  1  0  0  0  0
 16 17  1  0  0  0  0
 17 34  1  0  0  0  0
 17 35  1  0  0  0  0
M  CHG  1   8  -1
M  END
> <s_m_source_file>
AV-unprocessed.smi

> <i_m_source_file_index>
2521

> <i_lp_mmshare_version>
43012

> <i_f3d_flags>
0

> <s_epik_input>
W0NIM11bQ0hdKFtDSDNdKWMxbm5jKHMxKVtOSF1DKD1PKVtOSF1bQ0gyXVtDQEBIXTJbQ0gyXVtDSDJdT1tDSDJdMg==

> <s_epik_cmdline>
J2VwaWtfcHl0aG9uJywgJy1waCcsICc3LjAnLCAnLXRuJywgJzgnLCAnLW1hJywgJzIwMCcsICctbWV0YWxfYmluZGluZycsICctaW1hZScsICc8aW5maWxlLm1hZT4nLCAnLW9tYWUnLCAnPG91dGZpbGUubWFlPic=

> <r_lp_tautomer_probability>
1

> <r_epik_Ionization_Penalty>
4.4451

> <r_epik_Ionization_Penalty_Charging>
4.28522

> <r_epik_Ionization_Penalty_Neutral>
0.159875

> <r_epik_State_Penalty>
4.28479

> <r_epik_Charging_Adjusted_Penalty>
8.57002

> <i_epik_Tot_Q>
-1

> <i_epik_Tot_abs_Q>
1

> <r_epik_Metal_State_Penalty>
0.721771

> <b_epik_Metal_Only>
1

> <s_lp_Force_Field>
OPLS_2005

> <r_lp_Energy>
10.1938

> <b_lp_Chiralities_Consistent>
1

> <s_lp_Variant>
AV-unprocessed.smi:2521-4

> <Gold.Version>
5.8.1

> <Gold.Id.Protein>
6NUR|6NUR_protein|mol2

> <Gold.PLP.Fitness>
38.3988

> <Gold.PLP.PLP>
-34.9089

> <Gold.PLP.part.hbond>
-2.1940

> <Gold.PLP.part.metal>
0.0000

> <Gold.PLP.part.buried>
-4.6335

> <Gold.PLP.part.nonpolar>
-27.9903

> <Gold.PLP.part.repulsive>
0.2508

> <Gold.PLP.ligand.clash>
0.0000

> <Gold.PLP.ligand.torsion>
1.2992

> <Gold.PLP.Chemscore.Hbond>
1.9913

> <Gold.PLP.Chemscore.CHOScore>
0.0000

> <Gold.PLP.Chemscore.Metal>
0.0000

> <Gold.Chemscore.Hbonds>
donor molecule, donor type, donor heavy atom, donor atom, acceptor molecule, acceptor atom, score
      P1  H  6896  6909       L1    10  0.70
      P1  H  7989  7998       L1    16  0.73

> <Gold.PLP.Chemscore.Internal.Correction>
0.1145

> <Gold.Rescore>
     Score         DG    S(hbond)    S(metal)    S(lipo)     H(rot)  DE(clash)    DE(int)     intcor
     17.07     -18.40       1.95        0.00      85.93       1.42       0.07       1.26       ----

> <Gold.Chemscore.Fitness>
17.0686

> <Gold.Chemscore.DG>
-18.3983

> <Gold.Chemscore.ZeroCoef>
-5.4800

> <Gold.Chemscore.Hbond>
1.9455

> <Gold.Chemscore.Metal>
0.0000

> <Gold.Chemscore.Lipo>
85.9286

> <Gold.Chemscore.Internal_Hbond>
0.0000

> <Gold.Chemscore.DEClash>
0.0727

> <Gold.Chemscore.DEInternal>
1.2569

> <Gold.Chemscore.Rot>
1.4193

> <Gold.Chemscore.Internal.Correction>
   9.000000E+99

> <Gold.Chemscore.Hbonds>
donor molecule, donor type, donor heavy atom, donor atom, acceptor molecule, acceptor atom, score
      P1  H  6896  6909       L1    10  0.66
      P1  H  7989  7998       L1    16  0.09

> <Gold.Chemscore.Hbond.Weighted>
-6.4980

> <Gold.Chemscore.Metal.Weighted>
-0.0000

> <Gold.Chemscore.Lipo.Weighted>
-10.0536

> <Gold.Chemscore.Internal_Hbond.Weighted>
0.0000

> <Gold.Chemscore.DEClash.Weighted>
0.0727

> <Gold.Chemscore.DEInternal.Weighted>
1.2569

> <Gold.Chemscore.Rot.Weighted>
3.6333

> <Gold.Chemscore.Internal.Correction.Weighted>
   9.000000E+99

> <Gold.Protein.RotatedTorsions>
[ 6907 6896 6895 6894 ] final  101.00 input  -60.11 | X-H torsion
[ 7974 7965 7964 7962 ] final  -35.39 input  175.53 | X-H torsion
[ 8008 7997 7996 7995 ] final  -85.11 input   59.86 | X-H torsion
[ 10167 10162 10161 10158 ] final  163.88 input  -65.29 | X-H torsion
[ 10718 10713 10712 10709 ] final -137.28 input   66.30 | X-H torsion
[ 10763 10752 10751 10750 ] final   -4.35 input  -60.55 | X-H torsion
[ 11005 11000 10999 10996 ] final  -18.24 input  -57.11 | X-H torsion

> <Gold.Protein.ActiveResidues>
 VAL166  LYS551  ARG553  GLY616  TRP617  ASP618  TYR619  PRO620  LYS621  CYS622 
 ASP623  PHE694  ASN695  SER759  ASP760  ASP761  ALA762  ILE779  LEU786  VAL792 
 PHE793  MET794  SER795  GLU796  ALA797  LYS798  CYS799  TRP800  GLU811  SER814 

> <Gold.Protein.RotatedAtoms>
  152.5359  134.0192  159.7973 H   0  0  0  0  0  0  0  0  0  0  0  0  # atno 6907 bound_to 6896
  151.0381  133.5722  159.2661 H   0  0  0  0  0  0  0  0  0  0  0  0  # atno 6908 bound_to 6896
  151.2702  135.0689  159.9185 H   0  0  0  0  0  0  0  0  0  0  0  0  # atno 6909 bound_to 6896
  146.0750  140.6154  142.8935 H   0  0  0  0  0  0  0  0  0  0  0  0  # atno 7974 bound_to 7965
  154.6372  140.0596  156.9802 H   0  0  0  0  0  0  0  0  0  0  0  0  # atno 8008 bound_to 7997
  155.1573  140.3279  155.4400 H   0  0  0  0  0  0  0  0  0  0  0  0  # atno 8009 bound_to 7997
  156.2513  140.1937  156.6682 H   0  0  0  0  0  0  0  0  0  0  0  0  # atno 8010 bound_to 7997
  139.4880  144.4292  151.9092 H   0  0  0  0  0  0  0  0  0  0  0  0  # atno 10167 bound_to 10162
  156.2864  130.7350  151.1363 H   0  0  0  0  0  0  0  0  0  0  0  0  # atno 10718 bound_to 10713
  153.3836  135.6999  153.6547 H   0  0  0  0  0  0  0  0  0  0  0  0  # atno 10763 bound_to 10752
  153.5148  135.3624  155.2604 H   0  0  0  0  0  0  0  0  0  0  0  0  # atno 10764 bound_to 10752
  154.8695  135.4143  154.3139 H   0  0  0  0  0  0  0  0  0  0  0  0  # atno 10765 bound_to 10752
  140.8248  133.8041  155.9696 H   0  0  0  0  0  0  0  0  0  0  0  0  # atno 11005 bound_to 11000
  144.7256  140.4513  143.6976 LP  0  0  0  0  0  0  0  0  0  0  0  0  # atno 17320 bound_to 7965
  145.6322  139.1538  143.2962 LP  0  0  0  0  0  0  0  0  0  0  0  0  # atno 17321 bound_to 7965
  140.3739  144.2821  150.5916 LP  0  0  0  0  0  0  0  0  0  0  0  0  # atno 17342 bound_to 10162
  140.5294  143.2247  151.8262 LP  0  0  0  0  0  0  0  0  0  0  0  0  # atno 17343 bound_to 10162
  157.7330  131.0595  150.5601 LP  0  0  0  0  0  0  0  0  0  0  0  0  # atno 17370 bound_to 10713
  156.5712  130.4280  149.6018 LP  0  0  0  0  0  0  0  0  0  0  0  0  # atno 17371 bound_to 10713
  140.9061  134.2318  157.5013 LP  0  0  0  0  0  0  0  0  0  0  0  0  # atno 17394 bound_to 11000
  139.8707  134.9729  156.4789 LP  0  0  0  0  0  0  0  0  0  0  0  0  # atno 17395 bound_to 11000

$$$$
