AV-unprocessed.smi:2920|AV-procd|sdf|11196|dock4
  -GOLD-   2272016 83D 1   1.00000     0.00000
 Structure written by MMmdl.
 30 32  0  0  0  0  0  0  0  0  1 V2000
  154.4263  144.7056  164.9605 O   0  0  0  0  0  0  0  0  0  0  0  0
  154.4788  143.4796  165.0547 C   0  0  0  0  0  0  0  0  0  0  0  0
  154.0763  142.6108  164.1114 N   0  0  0  0  0  0  0  0  0  0  0  0
  153.4687  142.8868  162.8570 C   0  0  0  0  0  0  0  0  0  0  0  0
  153.7254  142.0251  161.7698 C   0  0  0  0  0  0  0  0  0  0  0  0
  153.1682  142.2176  160.5551 N   0  0  0  0  0  0  0  0  0  0  0  0
  152.3570  143.2710  160.4245 C   0  0  0  0  0  0  0  0  0  0  0  0
  151.7092  143.4609  159.0881 C   0  0  0  0  0  0  0  0  0  0  0  0
  152.1219  144.6011  158.1797 C   0  0  0  0  0  0  0  0  0  0  0  0
  150.7717  144.6252  158.8402 C   0  0  0  0  0  0  0  0  0  0  0  0
  152.0198  144.1390  161.3820 N   0  0  0  0  0  0  0  0  0  0  0  0
  152.5741  143.9554  162.5999 C   0  0  0  0  0  0  0  0  0  0  0  0
  154.9701  142.8381  166.1236 N   0  0  0  0  0  0  0  0  0  0  0  0
  155.4887  143.4623  167.2981 C   0  0  0  0  0  0  0  0  0  0  0  0
  154.8360  143.1234  168.6207 C   0  0  0  0  0  0  0  0  0  0  0  0
  154.6108  144.4751  168.0013 C   0  0  0  0  0  0  0  0  0  0  0  0
  154.2543  141.6353  164.3005 H   0  0  0  0  0  0  0  0  0  0  0  0
  154.3828  141.1740  161.8732 H   0  0  0  0  0  0  0  0  0  0  0  0
  151.4662  142.5058  158.6266 H   0  0  0  0  0  0  0  0  0  0  0  0
  152.8713  145.2991  158.5479 H   0  0  0  0  0  0  0  0  0  0  0  0
  152.1555  144.4023  157.1106 H   0  0  0  0  0  0  0  0  0  0  0  0
  149.9012  144.4422  158.2138 H   0  0  0  0  0  0  0  0  0  0  0  0
  150.6230  145.3394  159.6479 H   0  0  0  0  0  0  0  0  0  0  0  0
  152.2707  144.6610  163.3570 H   0  0  0  0  0  0  0  0  0  0  0  0
  154.9763  141.8288  166.1083 H   0  0  0  0  0  0  0  0  0  0  0  0
  156.5600  143.6564  167.3302 H   0  0  0  0  0  0  0  0  0  0  0  0
  154.0029  142.4230  168.6137 H   0  0  0  0  0  0  0  0  0  0  0  0
  155.4778  143.0739  169.4982 H   0  0  0  0  0  0  0  0  0  0  0  0
  155.1023  145.3280  168.4653 H   0  0  0  0  0  0  0  0  0  0  0  0
  153.6273  144.6771  167.5807 H   0  0  0  0  0  0  0  0  0  0  0  0
  1  2  2  0  0  0  0
  2  3  1  0  0  0  0
  2 13  1  0  0  0  0
  3  4  1  0  0  0  0
  3 17  1  0  0  0  0
  4 12  1  0  0  0  0
  4  5  2  0  0  0  0
  5  6  1  0  0  0  0
  5 18  1  0  0  0  0
  6  7  2  0  0  0  0
  7  8  1  0  0  0  0
  7 11  1  0  0  0  0
  8 10  1  0  0  0  0
  8  9  1  0  0  0  0
  8 19  1  0  0  0  0
  9 10  1  0  0  0  0
  9 20  1  0  0  0  0
  9 21  1  0  0  0  0
 10 22  1  0  0  0  0
 10 23  1  0  0  0  0
 11 12  2  0  0  0  0
 12 24  1  0  0  0  0
 13 14  1  0  0  0  0
 13 25  1  0  0  0  0
 14 16  1  0  0  0  0
 14 15  1  0  0  0  0
 14 26  1  0  0  0  0
 15 16  1  0  0  0  0
 15 27  1  0  0  0  0
 15 28  1  0  0  0  0
 16 29  1  0  0  0  0
 16 30  1  0  0  0  0
M  END
> <s_m_source_file>
AV-unprocessed.smi

> <i_m_source_file_index>
2920

> <i_lp_mmshare_version>
43012

> <i_f3d_flags>
0

> <s_epik_input>
W0NIMl0xW0NIMl1bQ0hdMVtOSF1DKD1PKVtOSF1jMltjSF1uYyhuW2NIXTIpW0NIXTNbQ0gyXVtDSDJdMw==

> <s_epik_cmdline>
J2VwaWtfcHl0aG9uJywgJy1waCcsICc3LjAnLCAnLXRuJywgJzgnLCAnLW1hJywgJzIwMCcsICctbWV0YWxfYmluZGluZycsICctaW1hZScsICc8aW5maWxlLm1hZT4nLCAnLW9tYWUnLCAnPG91dGZpbGUubWFlPic=

> <r_lp_tautomer_probability>
1

> <r_epik_Ionization_Penalty>
2.90508e-05

> <r_epik_Ionization_Penalty_Charging>
0

> <r_epik_Ionization_Penalty_Neutral>
2.90508e-05

> <r_epik_State_Penalty>
-0

> <r_epik_Charging_Adjusted_Penalty>
0

> <i_epik_Tot_Q>
0

> <i_epik_Tot_abs_Q>
0

> <r_epik_Metal_State_Penalty>
-0

> <b_epik_Metal_Only>
0

> <s_lp_Force_Field>
OPLS_2005

> <r_lp_Energy>
15.3097

> <b_lp_Chiralities_Consistent>
1

> <s_lp_Variant>
AV-unprocessed.smi:2920-1

> <Gold.Version>
5.8.1

> <Gold.Id.Protein>
6NUR|6NUR_protein|mol2

> <Gold.PLP.Fitness>
38.0339

> <Gold.PLP.PLP>
-38.6384

> <Gold.PLP.part.hbond>
-0.0199

> <Gold.PLP.part.metal>
0.0000

> <Gold.PLP.part.buried>
-6.3719

> <Gold.PLP.part.nonpolar>
-31.8294

> <Gold.PLP.part.repulsive>
0.4126

> <Gold.PLP.ligand.clash>
0.0000

> <Gold.PLP.ligand.torsion>
0.3791

> <Gold.PLP.Chemscore.Hbond>
0.0000

> <Gold.PLP.Chemscore.CHOScore>
0.0000

> <Gold.PLP.Chemscore.Metal>
0.0000

> <Gold.PLP.Chemscore.Internal.Correction>
0.1536

> <Gold.Rescore>
     Score         DG    S(hbond)    S(metal)    S(lipo)     H(rot)  DE(clash)    DE(int)     intcor
     12.25     -13.38       0.00        0.00      93.84       1.20       0.23       0.90       ----

> <Gold.Chemscore.Fitness>
12.2472

> <Gold.Chemscore.DG>
-13.3758

> <Gold.Chemscore.ZeroCoef>
-5.4800

> <Gold.Chemscore.Hbond>
0.0000

> <Gold.Chemscore.Metal>
0.0000

> <Gold.Chemscore.Lipo>
93.8412

> <Gold.Chemscore.Internal_Hbond>
0.0000

> <Gold.Chemscore.DEClash>
0.2308

> <Gold.Chemscore.DEInternal>
0.8978

> <Gold.Chemscore.Rot>
1.2045

> <Gold.Chemscore.Internal.Correction>
   9.000000E+99

> <Gold.Chemscore.Hbond.Weighted>
-0.0000

> <Gold.Chemscore.Metal.Weighted>
-0.0000

> <Gold.Chemscore.Lipo.Weighted>
-10.9794

> <Gold.Chemscore.Internal_Hbond.Weighted>
0.0000

> <Gold.Chemscore.DEClash.Weighted>
0.2308

> <Gold.Chemscore.DEInternal.Weighted>
0.8978

> <Gold.Chemscore.Rot.Weighted>
3.0836

> <Gold.Chemscore.Internal.Correction.Weighted>
   9.000000E+99

> <Gold.Protein.RotatedTorsions>
[ 6907 6896 6895 6894 ] final  136.50 input  -60.11 | X-H torsion
[ 7974 7965 7964 7962 ] final  -63.95 input  175.53 | X-H torsion
[ 8008 7997 7996 7995 ] final  -24.43 input   59.86 | X-H torsion
[ 10167 10162 10161 10158 ] final  -78.50 input  -65.29 | X-H torsion
[ 10718 10713 10712 10709 ] final  -16.82 input   66.30 | X-H torsion
[ 10763 10752 10751 10750 ] final -123.70 input  -60.55 | X-H torsion
[ 11005 11000 10999 10996 ] final -127.48 input  -57.11 | X-H torsion

> <Gold.Protein.ActiveResidues>
 VAL166  LYS551  ARG553  GLY616  TRP617  ASP618  TYR619  PRO620  LYS621  CYS622 
 ASP623  PHE694  ASN695  SER759  ASP760  ASP761  ALA762  ILE779  LEU786  VAL792 
 PHE793  MET794  SER795  GLU796  ALA797  LYS798  CYS799  TRP800  GLU811  SER814 

> <Gold.Protein.RotatedAtoms>
  152.2886  133.5539  159.5542 H   0  0  0  0  0  0  0  0  0  0  0  0  # atno 6907 bound_to 6896
  150.7226  134.0461  159.3791 H   0  0  0  0  0  0  0  0  0  0  0  0  # atno 6908 bound_to 6896
  151.8368  135.0603  160.0494 H   0  0  0  0  0  0  0  0  0  0  0  0  # atno 6909 bound_to 6896
  145.7727  140.8804  143.0372 H   0  0  0  0  0  0  0  0  0  0  0  0  # atno 7974 bound_to 7965
  154.4530  140.1954  156.0463 H   0  0  0  0  0  0  0  0  0  0  0  0  # atno 8008 bound_to 7997
  156.0687  140.3287  155.7522 H   0  0  0  0  0  0  0  0  0  0  0  0  # atno 8009 bound_to 7997
  155.5297  140.0577  157.2882 H   0  0  0  0  0  0  0  0  0  0  0  0  # atno 8010 bound_to 7997
  140.4677  143.2435  151.8253 H   0  0  0  0  0  0  0  0  0  0  0  0  # atno 10167 bound_to 10162
  156.5822  130.4777  149.6315 H   0  0  0  0  0  0  0  0  0  0  0  0  # atno 10718 bound_to 10713
  154.8712  135.4089  154.2985 H   0  0  0  0  0  0  0  0  0  0  0  0  # atno 10763 bound_to 10752
  153.3849  135.7013  153.6543 H   0  0  0  0  0  0  0  0  0  0  0  0  # atno 10764 bound_to 10752
  153.5350  135.3659  155.2664 H   0  0  0  0  0  0  0  0  0  0  0  0  # atno 10765 bound_to 10752
  140.9596  134.0954  157.3981 H   0  0  0  0  0  0  0  0  0  0  0  0  # atno 11005 bound_to 11000
  144.6810  139.9878  143.7484 LP  0  0  0  0  0  0  0  0  0  0  0  0  # atno 17320 bound_to 7965
  146.0154  139.3205  143.0845 LP  0  0  0  0  0  0  0  0  0  0  0  0  # atno 17321 bound_to 7965
  139.4814  144.4930  151.9160 LP  0  0  0  0  0  0  0  0  0  0  0  0  # atno 17342 bound_to 10162
  140.4016  144.2486  150.5893 LP  0  0  0  0  0  0  0  0  0  0  0  0  # atno 17343 bound_to 10162
  156.2622  130.6969  151.1741 LP  0  0  0  0  0  0  0  0  0  0  0  0  # atno 17370 bound_to 10713
  157.7324  131.0600  150.5631 LP  0  0  0  0  0  0  0  0  0  0  0  0  # atno 17371 bound_to 10713
  139.8873  135.0089  156.6555 LP  0  0  0  0  0  0  0  0  0  0  0  0  # atno 17394 bound_to 11000
  140.7486  133.8916  155.8330 LP  0  0  0  0  0  0  0  0  0  0  0  0  # atno 17395 bound_to 11000

$$$$
