AV-unprocessed.smi:703|AV-procd|sdf|3441|dock1
  -GOLD-   22720 0423D 1   1.00000     0.00000
 Structure written by MMmdl.
 37 38  0  0  0  0  0  0  0  0  3 V2000
  147.6324  132.6617  152.6022 C   0  0  0  0  0  0  0  0  0  0  0  0
  147.4833  133.6734  153.7467 C   0  0  0  0  0  0  0  0  0  0  0  0
  148.7748  134.3080  154.1081 N   0  3  2  0  0  0  0  0  0  0  0  0
  149.8235  133.3644  154.5642 C   0  0  0  0  0  0  0  0  0  0  0  0
  150.6281  134.1263  155.6222 C   0  0  2  0  0  0  0  0  0  0  0  0
  151.5104  133.2355  156.5210 C   0  0  0  0  0  0  0  0  0  0  0  0
  149.5691  135.0180  156.3007 C   0  0  2  0  0  0  0  0  0  0  0  0
  148.7883  134.2694  157.2789 N   0  5  0  0  0  0  0  0  0  0  0  0
  147.5899  135.0010  158.0918 S   0  0  0  0  0  0  0  0  0  0  0  0
  146.8197  135.9365  157.2561 O   0  0  0  0  0  0  0  0  0  0  0  0
  146.8260  134.0496  158.9143 O   0  0  0  0  0  0  0  0  0  0  0  0
  148.5582  136.0348  159.2764 C   0  0  0  0  0  0  0  0  0  0  0  0
  147.9948  135.9120  160.6661 C   0  0  0  0  0  0  0  0  0  0  0  0
  147.8165  134.7338  161.4441 C   0  0  0  0  0  0  0  0  0  0  0  0
  147.2808  135.1988  162.6098 C   0  0  0  0  0  0  0  0  0  0  0  0
  147.1268  136.5457  162.5580 O   0  0  0  0  0  0  0  0  0  0  0  0
  147.5808  136.9915  161.3114 N   0  0  0  0  0  0  0  0  0  0  0  0
  148.6592  135.3913  155.1192 C   0  0  0  0  0  0  0  0  0  0  0  0
  146.6613  132.2537  152.3213 H   0  0  0  0  0  0  0  0  0  0  0  0
  148.2690  131.8232  152.8852 H   0  0  0  0  0  0  0  0  0  0  0  0
  148.0644  133.1288  151.7167 H   0  0  0  0  0  0  0  0  0  0  0  0
  146.7870  134.4525  153.4336 H   0  0  0  0  0  0  0  0  0  0  0  0
  147.0458  133.1954  154.6247 H   0  0  0  0  0  0  0  0  0  0  0  0
  149.3717  132.4674  154.9968 H   0  0  0  0  0  0  0  0  0  0  0  0
  150.4467  133.0421  153.7294 H   0  0  0  0  0  0  0  0  0  0  0  0
  151.3024  134.7973  155.0875 H   0  0  0  0  0  0  0  0  0  0  0  0
  150.9308  132.4944  157.0739 H   0  0  0  0  0  0  0  0  0  0  0  0
  152.0763  133.8255  157.2436 H   0  0  0  0  0  0  0  0  0  0  0  0
  152.2351  132.6878  155.9185 H   0  0  0  0  0  0  0  0  0  0  0  0
  150.0238  135.9128  156.7274 H   0  0  0  0  0  0  0  0  0  0  0  0
  149.5926  135.6922  159.2454 H   0  0  0  0  0  0  0  0  0  0  0  0
  148.5456  137.0673  158.9292 H   0  0  0  0  0  0  0  0  0  0  0  0
  148.0560  133.7125  161.1885 H   0  0  0  0  0  0  0  0  0  0  0  0
  146.9685  134.7195  163.5259 H   0  0  0  0  0  0  0  0  0  0  0  0
  149.0242  136.3079  154.6547 H   0  0  0  0  0  0  0  0  0  0  0  0
  147.6286  135.5849  155.4240 H   0  0  0  0  0  0  0  0  0  0  0  0
  149.1266  134.7531  153.2729 H   0  0  0  0  0  0  0  0  0  0  0  0
  1  2  1  0  0  0  0
  1 19  1  0  0  0  0
  1 20  1  0  0  0  0
  1 21  1  0  0  0  0
  2  3  1  0  0  0  0
  2 22  1  0  0  0  0
  2 23  1  0  0  0  0
  3 18  1  0  0  0  0
  3  4  1  0  0  0  0
  3 37  1  0  0  0  0
  4  5  1  0  0  0  0
  4 24  1  0  0  0  0
  4 25  1  0  0  0  0
  5  6  1  0  0  0  0
  5  7  1  0  0  0  0
  5 26  1  0  0  0  0
  6 27  1  0  0  0  0
  6 28  1  0  0  0  0
  6 29  1  0  0  0  0
  7  8  1  0  0  0  0
  7 18  1  0  0  0  0
  7 30  1  0  0  0  0
  8  9  1  0  0  0  0
  9 10  2  0  0  0  0
  9 11  2  0  0  0  0
  9 12  1  0  0  0  0
 12 13  1  0  0  0  0
 12 31  1  0  0  0  0
 12 32  1  0  0  0  0
 13 17  2  0  0  0  0
 13 14  1  0  0  0  0
 14 15  2  0  0  0  0
 14 33  1  0  0  0  0
 15 16  1  0  0  0  0
 15 34  1  0  0  0  0
 16 17  1  0  0  0  0
 18 35  1  0  0  0  0
 18 36  1  0  0  0  0
M  CHG  1   3   1
M  CHG  1   8  -1
M  END
> <s_m_source_file>
AV-unprocessed.smi

> <i_m_source_file_index>
703

> <i_lp_mmshare_version>
43012

> <i_f3d_flags>
0

> <s_epik_input>
W0NIM11bQ0gyXU4xW0NIMl1bQ0BASF0oW0NIM10pW0NASF0oW0NIMl0xKVtOSF1TKD1PKSg9TylbQ0gyXWMyW2NIXVtjSF1vbjI=

> <s_epik_cmdline>
J2VwaWtfcHl0aG9uJywgJy1waCcsICc3LjAnLCAnLXRuJywgJzgnLCAnLW1hJywgJzIwMCcsICctbWV0YWxfYmluZGluZycsICctaW1hZScsICc8aW5maWxlLm1hZT4nLCAnLW9tYWUnLCAnPG91dGZpbGUubWFlPic=

> <r_epik_Ionization_Penalty>
3.62494

> <r_epik_Ionization_Penalty_Charging>
3.62494

> <r_epik_Ionization_Penalty_Neutral>
2.0321e-10

> <r_epik_State_Penalty>
3.62558

> <r_epik_Charging_Adjusted_Penalty>
7.25052

> <i_epik_Tot_Q>
0

> <i_epik_Tot_abs_Q>
2

> <r_epik_Metal_State_Penalty>
0.530836

> <b_epik_Metal_Only>
1

> <s_lp_Force_Field>
OPLS_2005

> <r_lp_Energy>
19.3254

> <b_lp_Chiralities_Consistent>
1

> <s_lp_Variant>
AV-unprocessed.smi:703-16

> <Gold.Version>
5.8.1

> <Gold.Id.Protein>
6NUR|6NUR_protein|mol2

> <Gold.PLP.Fitness>
37.7217

> <Gold.PLP.PLP>
-26.6811

> <Gold.PLP.part.hbond>
-3.0000

> <Gold.PLP.part.metal>
0.0000

> <Gold.PLP.part.buried>
-4.8976

> <Gold.PLP.part.nonpolar>
-19.2617

> <Gold.PLP.part.repulsive>
0.0000

> <Gold.PLP.ligand.clash>
0.0000

> <Gold.PLP.ligand.torsion>
0.7973

> <Gold.PLP.Chemscore.Hbond>
3.8640

> <Gold.PLP.Chemscore.CHOScore>
0.0000

> <Gold.PLP.Chemscore.Metal>
0.0000

> <Gold.Chemscore.Hbonds>
donor molecule, donor type, donor heavy atom, donor atom, acceptor molecule, acceptor atom, score
      L1  H     3    37       P1  7948  1.30
      P1  H  6931  6943       L1    17  1.00
      P1  H  6934  6947       L1    17  0.76

> <Gold.PLP.Chemscore.Internal.Correction>
1.0432

> <Gold.Rescore>
     Score         DG    S(hbond)    S(metal)    S(lipo)     H(rot)  DE(clash)    DE(int)     intcor
     12.51     -15.89       2.42        0.00      55.68       1.63       0.01       3.36       ----

> <Gold.Chemscore.Fitness>
12.5138

> <Gold.Chemscore.DG>
-15.8853

> <Gold.Chemscore.ZeroCoef>
-5.4800

> <Gold.Chemscore.Hbond>
2.4170

> <Gold.Chemscore.Metal>
0.0000

> <Gold.Chemscore.Lipo>
55.6848

> <Gold.Chemscore.Internal_Hbond>
0.0000

> <Gold.Chemscore.DEClash>
0.0095

> <Gold.Chemscore.DEInternal>
3.3620

> <Gold.Chemscore.Rot>
1.6338

> <Gold.Chemscore.Internal.Correction>
   9.000000E+99

> <Gold.Chemscore.Hbonds>
donor molecule, donor type, donor heavy atom, donor atom, acceptor molecule, acceptor atom, score
      L1  H     3    37       P1  7948  0.05
      P1  H  6931  6943       L1    17  0.22
      P1  H  6934  6947       L1    17  0.62

> <Gold.Chemscore.Hbond.Weighted>
-8.0727

> <Gold.Chemscore.Metal.Weighted>
-0.0000

> <Gold.Chemscore.Lipo.Weighted>
-6.5151

> <Gold.Chemscore.Internal_Hbond.Weighted>
0.0000

> <Gold.Chemscore.DEClash.Weighted>
0.0095

> <Gold.Chemscore.DEInternal.Weighted>
3.3620

> <Gold.Chemscore.Rot.Weighted>
4.1825

> <Gold.Chemscore.Internal.Correction.Weighted>
   9.000000E+99

> <Gold.Protein.RotatedTorsions>
[ 6907 6896 6895 6894 ] final  -12.86 input  -60.11 | X-H torsion
[ 7974 7965 7964 7962 ] final  178.06 input  175.53 | X-H torsion
[ 8008 7997 7996 7995 ] final  -98.92 input   59.86 | X-H torsion
[ 10167 10162 10161 10158 ] final  176.65 input  -65.29 | X-H torsion
[ 10718 10713 10712 10709 ] final   36.42 input   66.30 | X-H torsion
[ 10763 10752 10751 10750 ] final   64.38 input  -60.55 | X-H torsion
[ 11005 11000 10999 10996 ] final   72.88 input  -57.11 | X-H torsion

> <Gold.Protein.ActiveResidues>
 VAL166  LYS551  ARG553  GLY616  TRP617  ASP618  TYR619  PRO620  LYS621  CYS622 
 ASP623  PHE694  ASN695  SER759  ASP760  ASP761  ALA762  ILE779  LEU786  VAL792 
 PHE793  MET794  SER795  GLU796  ALA797  LYS798  CYS799  TRP800  GLU811  SER814 

> <Gold.Protein.RotatedAtoms>
  151.3639  135.0909  159.9443 H   0  0  0  0  0  0  0  0  0  0  0  0  # atno 6907 bound_to 6896
  152.5154  133.9231  159.7554 H   0  0  0  0  0  0  0  0  0  0  0  0  # atno 6908 bound_to 6896
  150.9631  133.6369  159.2780 H   0  0  0  0  0  0  0  0  0  0  0  0  # atno 6909 bound_to 6896
  144.7161  140.0340  143.6438 H   0  0  0  0  0  0  0  0  0  0  0  0  # atno 7974 bound_to 7965
  154.8077  140.0451  157.1320 H   0  0  0  0  0  0  0  0  0  0  0  0  # atno 8008 bound_to 7997
  154.9405  140.3052  155.5103 H   0  0  0  0  0  0  0  0  0  0  0  0  # atno 8009 bound_to 7997
  156.2968  140.2306  156.4473 H   0  0  0  0  0  0  0  0  0  0  0  0  # atno 8010 bound_to 7997
  139.5222  144.2891  152.0480 H   0  0  0  0  0  0  0  0  0  0  0  0  # atno 10167 bound_to 10162
  157.3347  130.7516  149.6871 H   0  0  0  0  0  0  0  0  0  0  0  0  # atno 10718 bound_to 10713
  153.0053  135.5395  154.6500 H   0  0  0  0  0  0  0  0  0  0  0  0  # atno 10763 bound_to 10752
  154.5734  135.2843  155.0806 H   0  0  0  0  0  0  0  0  0  0  0  0  # atno 10764 bound_to 10752
  154.1963  135.6491  153.5127 H   0  0  0  0  0  0  0  0  0  0  0  0  # atno 10765 bound_to 10752
  139.9468  134.7298  156.0959 H   0  0  0  0  0  0  0  0  0  0  0  0  # atno 11005 bound_to 11000
  146.0079  139.3145  143.0888 LP  0  0  0  0  0  0  0  0  0  0  0  0  # atno 17320 bound_to 7965
  145.8717  140.9416  143.0647 LP  0  0  0  0  0  0  0  0  0  0  0  0  # atno 17321 bound_to 7965
  140.2343  144.4336  150.6287 LP  0  0  0  0  0  0  0  0  0  0  0  0  # atno 17342 bound_to 10162
  140.6334  143.2191  151.6446 LP  0  0  0  0  0  0  0  0  0  0  0  0  # atno 17343 bound_to 10162
  155.9700  130.4185  150.4330 LP  0  0  0  0  0  0  0  0  0  0  0  0  # atno 17370 bound_to 10713
  157.2368  131.0516  151.2460 LP  0  0  0  0  0  0  0  0  0  0  0  0  # atno 17371 bound_to 10713
  141.1121  133.6640  156.3004 LP  0  0  0  0  0  0  0  0  0  0  0  0  # atno 17394 bound_to 11000
  140.5815  134.5741  157.5480 LP  0  0  0  0  0  0  0  0  0  0  0  0  # atno 17395 bound_to 11000

$$$$
