#       Name:                AV-unprocessed.smi:3241
#       Creating user name   scv26
#       Creation time:       Fri Mar 27 18:25:40 2020


#       File generated by GOLD software.
#

@<TRIPOS>MOLECULE
AV-unprocessed.smi:3241
    47    48     1
SMALL
NO_CHARGES


@<TRIPOS>ATOM
      1 ****        -1.9035   0.9738  -1.5129 C.3            1 S1                 0.0000
      2 ****        -2.5900   1.2032  -0.1562 C.3            1 S1                 0.0000
      3 ****        -4.1234   1.1354  -0.3046 C.3            1 S1                 0.0000
      4 ****        -4.8369   1.3521   1.0385 C.3            1 S1                 0.0000
      5 ****        -4.3528   0.3429   2.0887 C.3            1 S1                 0.0000
      6 ****        -2.8275   0.4103   2.2537 C.3            1 S1                 0.0000
      7 ****        -2.1007   0.1962   0.9093 C.3            1 S1                 0.0000
      8 ****        -0.7042   0.3958   1.0907 O.3            1 S1                 0.0000
      9 ****        -0.0009  -0.7515   1.5431 C.3            1 S1                 0.0000
     10 ****         1.4820  -0.3916   1.6779 C.3            1 S1                 0.0000
     11 ****         2.0766  -0.1089   0.3574 N.4            1 S1                 1.0000
     12 ****         3.5178   0.2102   0.3970 C.3            1 S1                 0.0000
     13 ****         4.0712   0.5045  -1.0064 C.3            1 S1                 0.0000
     14 ****         4.0299  -0.6620  -1.8697 N.pl3          1 S1                 0.0000
     15 ****         4.9984  -1.6259  -2.0550 C.2            1 S1                 0.0000
     16 ****         4.5063  -2.5279  -2.9544 C.2            1 S1                 0.0000
     17 ****         3.2135  -2.0232  -3.2675 C.2            1 S1                 0.0000
     18 ****         2.9298  -0.9078  -2.6139 N.2            1 S1                 0.0000
     19 ****        -2.1043  -0.0278  -1.8942 H              1 S1                 0.0000
     20 ****        -0.8222   1.0900  -1.4369 H              1 S1                 0.0000
     21 ****        -2.2559   1.6890  -2.2568 H              1 S1                 0.0000
     22 ****        -2.3315   2.2083   0.1806 H              1 S1                 0.0000
     23 ****        -4.4621   1.8851  -1.0206 H              1 S1                 0.0000
     24 ****        -4.4117   0.1662  -0.7143 H              1 S1                 0.0000
     25 ****        -4.6517   2.3671   1.3923 H              1 S1                 0.0000
     26 ****        -5.9155   1.2622   0.9060 H              1 S1                 0.0000
     27 ****        -4.8395   0.5391   3.0444 H              1 S1                 0.0000
     28 ****        -4.6461  -0.6652   1.7925 H              1 S1                 0.0000
     29 ****        -2.5522   1.3812   2.6675 H              1 S1                 0.0000
     30 ****        -2.5129  -0.3355   2.9833 H              1 S1                 0.0000
     31 ****        -2.2964  -0.8137   0.5428 H              1 S1                 0.0000
     32 ****        -0.3868  -1.0757   2.5097 H              1 S1                 0.0000
     33 ****        -0.1266  -1.5805   0.8448 H              1 S1                 0.0000
     34 ****         1.6034   0.4725   2.3323 H              1 S1                 0.0000
     35 ****         2.0188  -1.2229   2.1368 H              1 S1                 0.0000
     36 ****         1.9460  -0.9160  -0.2365 H              1 S1                 0.0000
     37 ****         3.6678   1.0806   1.0369 H              1 S1                 0.0000
     38 ****         4.0643  -0.6182   0.8504 H              1 S1                 0.0000
     39 ****         3.5176   1.3185  -1.4773 H              1 S1                 0.0000
     40 ****         5.1078   0.8351  -0.9328 H              1 S1                 0.0000
     41 ****         5.9458  -1.5908  -1.5372 H              1 S1                 0.0000
     42 ****         4.9958  -3.4130  -3.3329 H              1 S1                 0.0000
     43 ****         2.4774  -2.4319  -3.9439 H              1 S1                 0.0000
     44 ****         1.5852   0.6723  -0.0535 H              1 S1                 0.0000
     45 ****        -0.5774   1.1254   1.7627 LP             1 S1                 0.0000
     46 ****        -0.3123   0.6775   0.2149 LP             1 S1                 0.0000
     47 ****         2.0893  -0.3680  -2.6606 LP             1 S1                 0.0000
@<TRIPOS>BOND
    1    1    2 1     
    2    1   19 1     
    3    1   20 1     
    4    1   21 1     
    5    2    7 1     
    6    2    3 1     
    7    2   22 1     
    8    3    4 1     
    9    3   23 1     
   10    3   24 1     
   11    4    5 1     
   12    4   25 1     
   13    4   26 1     
   14    5    6 1     
   15    5   27 1     
   16    5   28 1     
   17    6    7 1     
   18    6   29 1     
   19    6   30 1     
   20    7    8 1     
   21    7   31 1     
   22    8    9 1     
   23    9   10 1     
   24    9   32 1     
   25    9   33 1     
   26   10   11 1     
   27   10   34 1     
   28   10   35 1     
   29   11   12 1     
   30   11   36 1     
   31   11   44 1     
   32   12   13 1     
   33   12   37 1     
   34   12   38 1     
   35   13   14 1     
   36   13   39 1     
   37   13   40 1     
   38   14   18 1     
   39   14   15 1     
   40   15   16 2     
   41   15   41 1     
   42   16   17 1     
   43   16   42 1     
   44   17   18 2     
   45   17   43 1     
   46    8   45 1     
   47    8   46 1     
   48   18   47 1     
@<TRIPOS>SUBSTRUCTURE
      1 S1             1
@<TRIPOS>SET
LONE_PAIRS      STATIC     ATOMS    <user>   **** ""
3 45 46 47
DONOR_HYDROGENS      STATIC     ATOMS    <user>   **** ""
2 36 44
ATOM$BLUE        STATIC     ATOMS    COLORGROUP SYSTEM
3 45 46 47
ATOM$RED        STATIC     ATOMS    COLORGROUP SYSTEM
2 36 44
