AV-unprocessed.smi:257|AV-procd|sdf|1964|dock2
  -GOLD-   2262021113D 1   1.00000     0.00000
 Structure written by MMmdl.
 50 53  0  0  0  0  0  0  0  0  1 V2000
  148.3562  131.5212  160.8601 C   0  0  0  0  0  0  0  0  0  0  0  0
  148.0855  132.8938  161.2582 N   0  0  0  0  0  0  0  0  0  0  0  0
  146.9987  133.5856  160.8877 C   0  0  0  0  0  0  0  0  0  0  0  0
  146.1217  133.1214  160.1578 O   0  0  0  0  0  0  0  0  0  0  0  0
  146.9001  135.0252  161.4126 C   0  0  1  0  0  0  0  0  0  0  0  0
  147.0299  135.0920  162.9401 C   0  0  0  0  0  0  0  0  0  0  0  0
  147.5246  136.5126  163.1793 C   0  0  0  0  0  0  0  0  0  0  0  0
  148.4534  136.7546  161.9901 C   0  0  0  0  0  0  0  0  0  0  0  0
  147.9929  135.8697  160.9236 N   0  0  0  0  0  0  0  0  0  0  0  0
  147.7756  136.4516  159.7234 C   0  0  0  0  0  0  0  0  0  0  0  0
  146.7911  137.3799  159.6522 N   0  0  0  0  0  0  0  0  0  0  0  0
  146.5408  137.9991  158.4945 C   0  0  0  0  0  0  0  0  0  0  0  0
  147.1478  137.8437  157.3156 N   0  0  0  0  0  0  0  0  0  0  0  0
  148.1416  136.9121  157.3877 C   0  0  0  0  0  0  0  0  0  0  0  0
  148.5185  136.1717  158.5424 C   0  0  0  0  0  0  0  0  0  0  0  0
  149.5715  135.3175  158.2374 N   0  0  0  0  0  0  0  0  0  0  0  0
  149.8030  135.5396  156.9724 C   0  0  0  0  0  0  0  0  0  0  0  0
  148.9987  136.4911  156.3860 N   0  0  0  0  0  0  0  0  0  0  0  0
  149.0469  136.9400  155.0030 C   0  0  0  0  0  0  0  0  0  0  0  0
  150.1001  138.0446  154.7391 C   0  0  0  0  0  0  0  0  0  0  0  0
  149.8481  138.5827  153.4520 O   0  0  0  0  0  0  0  0  0  0  0  0
  149.9616  139.1781  155.7749 C   0  0  0  0  0  0  0  0  0  0  0  0
  151.0927  140.2149  155.6553 C   0  0  0  0  0  0  0  0  0  0  0  0
  152.3564  139.5706  155.7627 O   0  0  0  0  0  0  0  0  0  0  0  0
  152.5885  138.6407  154.7119 C   0  0  0  0  0  0  0  0  0  0  0  0
  151.5483  137.5078  154.7684 C   0  0  0  0  0  0  0  0  0  0  0  0
  149.2911  131.1821  161.3059 H   0  0  0  0  0  0  0  0  0  0  0  0
  148.4467  131.4420  159.7760 H   0  0  0  0  0  0  0  0  0  0  0  0
  147.5586  130.8554  161.1926 H   0  0  0  0  0  0  0  0  0  0  0  0
  148.7639  133.3456  161.8543 H   0  0  0  0  0  0  0  0  0  0  0  0
  145.9386  135.4526  161.1199 H   0  0  0  0  0  0  0  0  0  0  0  0
  146.0884  134.8873  163.4508 H   0  0  0  0  0  0  0  0  0  0  0  0
  147.7725  134.3794  163.3047 H   0  0  0  0  0  0  0  0  0  0  0  0
  146.6833  137.2059  163.1400 H   0  0  0  0  0  0  0  0  0  0  0  0
  148.0222  136.6376  164.1412 H   0  0  0  0  0  0  0  0  0  0  0  0
  148.4801  137.8093  161.7107 H   0  0  0  0  0  0  0  0  0  0  0  0
  149.4727  136.4632  162.2454 H   0  0  0  0  0  0  0  0  0  0  0  0
  145.7414  138.7249  158.5171 H   0  0  0  0  0  0  0  0  0  0  0  0
  150.5779  135.0175  156.4297 H   0  0  0  0  0  0  0  0  0  0  0  0
  149.2412  136.0725  154.3703 H   0  0  0  0  0  0  0  0  0  0  0  0
  148.0536  137.2973  154.7285 H   0  0  0  0  0  0  0  0  0  0  0  0
  149.4936  137.8980  152.9057 H   0  0  0  0  0  0  0  0  0  0  0  0
  148.9924  139.6694  155.6783 H   0  0  0  0  0  0  0  0  0  0  0  0
  149.9891  138.7538  156.7795 H   0  0  0  0  0  0  0  0  0  0  0  0
  151.0287  140.7618  154.7134 H   0  0  0  0  0  0  0  0  0  0  0  0
  151.0072  140.9524  156.4534 H   0  0  0  0  0  0  0  0  0  0  0  0
  152.5635  139.1501  153.7474 H   0  0  0  0  0  0  0  0  0  0  0  0
  153.5919  138.2295  154.8240 H   0  0  0  0  0  0  0  0  0  0  0  0
  151.7027  136.9432  155.6889 H   0  0  0  0  0  0  0  0  0  0  0  0
  151.7235  136.8106  153.9482 H   0  0  0  0  0  0  0  0  0  0  0  0
  1  2  1  0  0  0  0
  1 27  1  0  0  0  0
  1 28  1  0  0  0  0
  1 29  1  0  0  0  0
  2  3  1  0  0  0  0
  2 30  1  0  0  0  0
  3  4  2  0  0  0  0
  3  5  1  0  0  0  0
  5  9  1  0  0  0  0
  5  6  1  0  0  0  0
  5 31  1  0  0  0  0
  6  7  1  0  0  0  0
  6 32  1  0  0  0  0
  6 33  1  0  0  0  0
  7  8  1  0  0  0  0
  7 34  1  0  0  0  0
  7 35  1  0  0  0  0
  8  9  1  0  0  0  0
  8 36  1  0  0  0  0
  8 37  1  0  0  0  0
  9 10  1  0  0  0  0
 10 15  1  0  0  0  0
 10 11  2  0  0  0  0
 11 12  1  0  0  0  0
 12 13  2  0  0  0  0
 12 38  1  0  0  0  0
 13 14  1  0  0  0  0
 14 18  1  0  0  0  0
 14 15  2  0  0  0  0
 15 16  1  0  0  0  0
 16 17  2  0  0  0  0
 17 18  1  0  0  0  0
 17 39  1  0  0  0  0
 18 19  1  0  0  0  0
 19 20  1  0  0  0  0
 19 40  1  0  0  0  0
 19 41  1  0  0  0  0
 20 26  1  0  0  0  0
 20 21  1  0  0  0  0
 20 22  1  0  0  0  0
 21 42  1  0  0  0  0
 22 23  1  0  0  0  0
 22 43  1  0  0  0  0
 22 44  1  0  0  0  0
 23 24  1  0  0  0  0
 23 45  1  0  0  0  0
 23 46  1  0  0  0  0
 24 25  1  0  0  0  0
 25 26  1  0  0  0  0
 25 47  1  0  0  0  0
 25 48  1  0  0  0  0
 26 49  1  0  0  0  0
 26 50  1  0  0  0  0
M  END
> <s_m_source_file>
AV-unprocessed.smi

> <i_m_source_file_index>
257

> <i_lp_mmshare_version>
43012

> <i_f3d_flags>
0

> <s_epik_input>
W0NIM11bTkhdQyg9TylbQ0BASF0xW0NIMl1bQ0gyXVtDSDJdTjFjKG5bY0hdbjIpYyhjMjMpbltjSF1uM1tDSDJdQzQoW09IXSlbQ0gyXVtDSDJdT1tDSDJdW0NIMl00

> <s_epik_cmdline>
J2VwaWtfcHl0aG9uJywgJy1waCcsICc3LjAnLCAnLXRuJywgJzgnLCAnLW1hJywgJzIwMCcsICctbWV0YWxfYmluZGluZycsICctaW1hZScsICc8aW5maWxlLm1hZT4nLCAnLW9tYWUnLCAnPG91dGZpbGUubWFlPic=

> <r_lp_tautomer_probability>
1

> <r_epik_Ionization_Penalty>
0.000951012

> <r_epik_Ionization_Penalty_Charging>
0

> <r_epik_Ionization_Penalty_Neutral>
0.000951012

> <r_epik_State_Penalty>
0.000495984

> <r_epik_Charging_Adjusted_Penalty>
0.000495984

> <i_epik_Tot_Q>
0

> <i_epik_Tot_abs_Q>
0

> <r_epik_Metal_State_Penalty>
-0

> <b_epik_Metal_Only>
0

> <s_lp_Force_Field>
OPLS_2005

> <r_lp_Energy>
37.7708

> <b_lp_Chiralities_Consistent>
1

> <s_lp_Variant>
AV-unprocessed.smi:257-2

> <Gold.Version>
5.8.1

> <Gold.Id.Protein>
6NUR|6NUR_protein|mol2

> <Gold.PLP.Fitness>
45.1514

> <Gold.PLP.PLP>
-34.2004

> <Gold.PLP.part.hbond>
-4.9768

> <Gold.PLP.part.metal>
0.0000

> <Gold.PLP.part.buried>
0.2553

> <Gold.PLP.part.nonpolar>
-29.6582

> <Gold.PLP.part.repulsive>
0.0589

> <Gold.PLP.ligand.clash>
0.0000

> <Gold.PLP.ligand.torsion>
0.5475

> <Gold.PLP.Chemscore.Hbond>
3.9670

> <Gold.PLP.Chemscore.CHOScore>
0.0000

> <Gold.PLP.Chemscore.Metal>
0.0000

> <Gold.Chemscore.Hbonds>
donor molecule, donor type, donor heavy atom, donor atom, acceptor molecule, acceptor atom, score
      L1  H    21    42       P1  7948  1.00
      P1  H  6896  6908       L1    16  1.00
      P1  H  6934  6947       L1    11  0.81
      P1  H  7997  8008       L1    24  0.74

> <Gold.PLP.Chemscore.Internal.Correction>
0.1450

> <Gold.Rescore>
     Score         DG    S(hbond)    S(metal)    S(lipo)     H(rot)  DE(clash)    DE(int)     intcor
     15.89     -18.54       3.00        0.00      83.81       2.65       2.09       0.55       ----

> <Gold.Chemscore.Fitness>
15.8914

> <Gold.Chemscore.DG>
-18.5353

> <Gold.Chemscore.ZeroCoef>
-5.4800

> <Gold.Chemscore.Hbond>
3.0028

> <Gold.Chemscore.Metal>
0.0000

> <Gold.Chemscore.Lipo>
83.8069

> <Gold.Chemscore.Internal_Hbond>
0.0000

> <Gold.Chemscore.DEClash>
2.0914

> <Gold.Chemscore.DEInternal>
0.5525

> <Gold.Chemscore.Rot>
2.6482

> <Gold.Chemscore.Internal.Correction>
   9.000000E+99

> <Gold.Chemscore.Hbonds>
donor molecule, donor type, donor heavy atom, donor atom, acceptor molecule, acceptor atom, score
      L1  H    21    42       P1  7948  0.82
      P1  H  6896  6908       L1    16  0.99
      P1  H  6934  6947       L1    11  0.16
      P1  H  7997  8008       L1    24  0.17

> <Gold.Chemscore.Hbond.Weighted>
-10.0292

> <Gold.Chemscore.Metal.Weighted>
-0.0000

> <Gold.Chemscore.Lipo.Weighted>
-9.8054

> <Gold.Chemscore.Internal_Hbond.Weighted>
0.0000

> <Gold.Chemscore.DEClash.Weighted>
2.0914

> <Gold.Chemscore.DEInternal.Weighted>
0.5525

> <Gold.Chemscore.Rot.Weighted>
6.7793

> <Gold.Chemscore.Internal.Correction.Weighted>
   9.000000E+99

> <Gold.Protein.RotatedTorsions>
[ 6907 6896 6895 6894 ] final  164.87 input  -60.11 | X-H torsion
[ 7974 7965 7964 7962 ] final   43.65 input  175.53 | X-H torsion
[ 8008 7997 7996 7995 ] final  -31.36 input   59.86 | X-H torsion
[ 10167 10162 10161 10158 ] final  148.03 input  -65.29 | X-H torsion
[ 10718 10713 10712 10709 ] final -146.10 input   66.30 | X-H torsion
[ 10763 10752 10751 10750 ] final  -84.71 input  -60.55 | X-H torsion
[ 11005 11000 10999 10996 ] final  155.69 input  -57.11 | X-H torsion

> <Gold.Protein.ActiveResidues>
 VAL166  LYS551  ARG553  GLY616  TRP617  ASP618  TYR619  PRO620  LYS621  CYS622 
 ASP623  PHE694  ASN695  SER759  ASP760  ASP761  ALA762  ILE779  LEU786  VAL792 
 PHE793  MET794  SER795  GLU796  ALA797  LYS798  CYS799  TRP800  GLU811  SER814 

> <Gold.Protein.RotatedAtoms>
  151.9032  133.3543  159.3837 H   0  0  0  0  0  0  0  0  0  0  0  0  # atno 6907 bound_to 6896
  150.7075  134.4807  159.5478 H   0  0  0  0  0  0  0  0  0  0  0  0  # atno 6908 bound_to 6896
  152.2399  134.8238  160.0512 H   0  0  0  0  0  0  0  0  0  0  0  0  # atno 6909 bound_to 6896
  146.0637  139.5163  142.9642 H   0  0  0  0  0  0  0  0  0  0  0  0  # atno 7974 bound_to 7965
  154.4217  140.1766  156.1554 H   0  0  0  0  0  0  0  0  0  0  0  0  # atno 8008 bound_to 7997
  155.9881  140.3371  155.6702 H   0  0  0  0  0  0  0  0  0  0  0  0  # atno 8009 bound_to 7997
  155.6409  140.0680  157.2609 H   0  0  0  0  0  0  0  0  0  0  0  0  # atno 8010 bound_to 7997
  139.4881  144.5710  151.7055 H   0  0  0  0  0  0  0  0  0  0  0  0  # atno 10167 bound_to 10162
  156.3907  130.7884  151.2086 H   0  0  0  0  0  0  0  0  0  0  0  0  # atno 10718 bound_to 10713
  154.6027  135.5511  153.7391 H   0  0  0  0  0  0  0  0  0  0  0  0  # atno 10763 bound_to 10752
  153.0161  135.6370  154.1691 H   0  0  0  0  0  0  0  0  0  0  0  0  # atno 10764 bound_to 10752
  154.1630  135.2896  155.3083 H   0  0  0  0  0  0  0  0  0  0  0  0  # atno 10765 bound_to 10752
  140.1605  134.8613  157.2568 H   0  0  0  0  0  0  0  0  0  0  0  0  # atno 11005 bound_to 11000
  145.6515  141.0262  143.1758 LP  0  0  0  0  0  0  0  0  0  0  0  0  # atno 17320 bound_to 7965
  144.7190  139.8096  143.7388 LP  0  0  0  0  0  0  0  0  0  0  0  0  # atno 17321 bound_to 7965
  140.5297  144.0749  150.6049 LP  0  0  0  0  0  0  0  0  0  0  0  0  # atno 17342 bound_to 10162
  140.3735  143.2841  152.0251 LP  0  0  0  0  0  0  0  0  0  0  0  0  # atno 17343 bound_to 10162
  157.7499  131.0316  150.4190 LP  0  0  0  0  0  0  0  0  0  0  0  0  # atno 17370 bound_to 10713
  156.4451  130.4000  149.6672 LP  0  0  0  0  0  0  0  0  0  0  0  0  # atno 17371 bound_to 10713
  140.2496  134.3699  155.7447 LP  0  0  0  0  0  0  0  0  0  0  0  0  # atno 17394 bound_to 11000
  141.2209  133.7309  156.8914 LP  0  0  0  0  0  0  0  0  0  0  0  0  # atno 17395 bound_to 11000

$$$$
