AV-unprocessed.smi:2786|AV-procd|sdf|10754|dock10
  -GOLD-   2272015183D 1   1.00000     0.00000
 Structure written by MMmdl.
 26 27  0  0  0  0  0  0  0  0  1 V2000
  154.0706  140.8884  160.4730 C   0  0  0  0  0  0  0  0  0  0  0  0
  153.3010  142.0407  160.9004 N   0  0  0  0  0  0  0  0  0  0  0  0
  153.2676  142.5636  162.1864 C   0  0  0  0  0  0  0  0  0  0  0  0
  152.4274  143.6495  162.1486 C   0  0  0  0  0  0  0  0  0  0  0  0
  151.9394  143.8090  160.8566 N   0  0  0  0  0  0  0  0  0  0  0  0
  152.4868  142.8167  160.1574 C   0  0  0  0  0  0  0  0  0  0  0  0
  152.2631  142.5933  158.6885 C   0  0  2  0  0  0  0  0  0  0  0  0
  151.2399  143.6028  158.1239 C   0  0  0  0  0  0  0  0  0  0  0  0
  151.0274  143.3904  156.6903 N   0  0  0  0  0  0  0  0  0  0  0  0
  150.5902  142.0195  156.4228 C   0  0  0  0  0  0  0  0  0  0  0  0
  151.6109  141.0080  156.9751 C   0  0  0  0  0  0  0  0  0  0  0  0
  151.8256  141.2196  158.4079 N   0  0  0  0  0  0  0  0  0  0  0  0
  154.7214  140.5505  161.2800 H   0  0  0  0  0  0  0  0  0  0  0  0
  154.6863  141.1518  159.6125 H   0  0  0  0  0  0  0  0  0  0  0  0
  153.3964  140.0764  160.1997 H   0  0  0  0  0  0  0  0  0  0  0  0
  153.8325  142.1331  163.0005 H   0  0  0  0  0  0  0  0  0  0  0  0
  152.1410  144.3234  162.9424 H   0  0  0  0  0  0  0  0  0  0  0  0
  153.2129  142.7545  158.1779 H   0  0  0  0  0  0  0  0  0  0  0  0
  150.2931  143.5082  158.6576 H   0  0  0  0  0  0  0  0  0  0  0  0
  151.5915  144.6203  158.2955 H   0  0  0  0  0  0  0  0  0  0  0  0
  150.3238  144.0403  156.3546 H   0  0  0  0  0  0  0  0  0  0  0  0
  149.6137  141.8443  156.8766 H   0  0  0  0  0  0  0  0  0  0  0  0
  150.4657  141.8714  155.3501 H   0  0  0  0  0  0  0  0  0  0  0  0
  151.2567  139.9922  156.7995 H   0  0  0  0  0  0  0  0  0  0  0  0
  152.5554  141.1055  156.4378 H   0  0  0  0  0  0  0  0  0  0  0  0
  152.5295  140.5696  158.7424 H   0  0  0  0  0  0  0  0  0  0  0  0
  1  2  1  0  0  0  0
  1 13  1  0  0  0  0
  1 14  1  0  0  0  0
  1 15  1  0  0  0  0
  2  6  1  0  0  0  0
  2  3  1  0  0  0  0
  3  4  2  0  0  0  0
  3 16  1  0  0  0  0
  4  5  1  0  0  0  0
  4 17  1  0  0  0  0
  5  6  2  0  0  0  0
  6  7  1  0  0  0  0
  7 12  1  0  0  0  0
  7  8  1  0  0  0  0
  7 18  1  0  0  0  0
  8  9  1  0  0  0  0
  8 19  1  0  0  0  0
  8 20  1  0  0  0  0
  9 10  1  0  0  0  0
  9 21  1  0  0  0  0
 10 11  1  0  0  0  0
 10 22  1  0  0  0  0
 10 23  1  0  0  0  0
 11 12  1  0  0  0  0
 11 24  1  0  0  0  0
 11 25  1  0  0  0  0
 12 26  1  0  0  0  0
M  END
> <s_m_source_file>
AV-unprocessed.smi

> <i_m_source_file_index>
2786

> <i_lp_mmshare_version>
43012

> <i_f3d_flags>
0

> <s_epik_input>
W0NIM11uMVtjSF1bY0hdbmMxW0NAQEhdMltDSDJdW05IXVtDSDJdW0NIMl1bTkhdMg==

> <s_epik_cmdline>
J2VwaWtfcHl0aG9uJywgJy1waCcsICc3LjAnLCAnLXRuJywgJzgnLCAnLW1hJywgJzIwMCcsICctbWV0YWxfYmluZGluZycsICctaW1hZScsICc8aW5maWxlLm1hZT4nLCAnLW9tYWUnLCAnPG91dGZpbGUubWFlPic=

> <r_lp_tautomer_probability>
1

> <r_epik_Ionization_Penalty>
3.5722

> <r_epik_Ionization_Penalty_Charging>
1.66148

> <r_epik_Ionization_Penalty_Neutral>
1.91072

> <r_epik_State_Penalty>
2.63328

> <r_epik_Charging_Adjusted_Penalty>
4.29476

> <i_epik_Tot_Q>
0

> <i_epik_Tot_abs_Q>
0

> <r_epik_Metal_State_Penalty>
0.942173

> <b_epik_Metal_Only>
0

> <s_lp_Force_Field>
OPLS_2005

> <r_lp_Energy>
22.0451

> <b_lp_Chiralities_Consistent>
1

> <s_lp_Variant>
AV-unprocessed.smi:2786-7

> <Gold.Version>
5.8.1

> <Gold.Id.Protein>
6NUR|6NUR_protein|mol2

> <Gold.PLP.Fitness>
34.9047

> <Gold.PLP.PLP>
-31.9962

> <Gold.PLP.part.hbond>
-1.0000

> <Gold.PLP.part.metal>
0.0000

> <Gold.PLP.part.buried>
-4.4822

> <Gold.PLP.part.nonpolar>
-26.2584

> <Gold.PLP.part.repulsive>
0.1086

> <Gold.PLP.ligand.clash>
0.0000

> <Gold.PLP.ligand.torsion>
0.0532

> <Gold.PLP.Chemscore.Hbond>
1.0000

> <Gold.PLP.Chemscore.CHOScore>
0.0000

> <Gold.PLP.Chemscore.Metal>
0.0000

> <Gold.Chemscore.Hbonds>
donor molecule, donor type, donor heavy atom, donor atom, acceptor molecule, acceptor atom, score
      L1  H     9    21       P1  8028  1.00

> <Gold.PLP.Chemscore.Internal.Correction>
0.0150

> <Gold.Rescore>
     Score         DG    S(hbond)    S(metal)    S(lipo)     H(rot)  DE(clash)    DE(int)     intcor
     13.99     -14.00       1.00        0.00      66.16       1.00       0.00       0.01       ----

> <Gold.Chemscore.Fitness>
13.9929

> <Gold.Chemscore.DG>
-14.0006

> <Gold.Chemscore.ZeroCoef>
-5.4800

> <Gold.Chemscore.Hbond>
1.0000

> <Gold.Chemscore.Metal>
0.0000

> <Gold.Chemscore.Lipo>
66.1590

> <Gold.Chemscore.Internal_Hbond>
0.0000

> <Gold.Chemscore.DEClash>
0.0000

> <Gold.Chemscore.DEInternal>
0.0076

> <Gold.Chemscore.Rot>
1.0000

> <Gold.Chemscore.Internal.Correction>
   9.000000E+99

> <Gold.Chemscore.Hbonds>
donor molecule, donor type, donor heavy atom, donor atom, acceptor molecule, acceptor atom, score
      L1  H     9    21       P1  8028  1.00

> <Gold.Chemscore.Hbond.Weighted>
-3.3399

> <Gold.Chemscore.Metal.Weighted>
-0.0000

> <Gold.Chemscore.Lipo.Weighted>
-7.7406

> <Gold.Chemscore.Internal_Hbond.Weighted>
0.0000

> <Gold.Chemscore.DEClash.Weighted>
0.0000

> <Gold.Chemscore.DEInternal.Weighted>
0.0076

> <Gold.Chemscore.Rot.Weighted>
2.5600

> <Gold.Chemscore.Internal.Correction.Weighted>
   9.000000E+99

> <Gold.Protein.RotatedTorsions>
[ 6907 6896 6895 6894 ] final   21.22 input  -60.11 | X-H torsion
[ 7974 7965 7964 7962 ] final   10.60 input  175.53 | X-H torsion
[ 8008 7997 7996 7995 ] final  -42.31 input   59.86 | X-H torsion
[ 10167 10162 10161 10158 ] final   88.75 input  -65.29 | X-H torsion
[ 10718 10713 10712 10709 ] final  -52.13 input   66.30 | X-H torsion
[ 10763 10752 10751 10750 ] final  -91.48 input  -60.55 | X-H torsion
[ 11005 11000 10999 10996 ] final  163.98 input  -57.11 | X-H torsion

> <Gold.Protein.ActiveResidues>
 VAL166  LYS551  ARG553  GLY616  TRP617  ASP618  TYR619  PRO620  LYS621  CYS622 
 ASP623  PHE694  ASN695  SER759  ASP760  ASP761  ALA762  ILE779  LEU786  VAL792 
 PHE793  MET794  SER795  GLU796  ALA797  LYS798  CYS799  TRP800  GLU811  SER814 

> <Gold.Protein.RotatedAtoms>
  151.9084  135.0349  160.0512 H   0  0  0  0  0  0  0  0  0  0  0  0  # atno 6907 bound_to 6896
  152.2300  133.5046  159.5218 H   0  0  0  0  0  0  0  0  0  0  0  0  # atno 6908 bound_to 6896
  150.7023  134.1146  159.4055 H   0  0  0  0  0  0  0  0  0  0  0  0  # atno 6909 bound_to 6896
  146.2386  139.9611  142.8458 H   0  0  0  0  0  0  0  0  0  0  0  0  # atno 7974 bound_to 7965
  154.3999  140.1477  156.3333 H   0  0  0  0  0  0  0  0  0  0  0  0  # atno 8008 bound_to 7997
  155.8423  140.3461  155.5618 H   0  0  0  0  0  0  0  0  0  0  0  0  # atno 8009 bound_to 7997
  155.8074  140.0879  157.1914 H   0  0  0  0  0  0  0  0  0  0  0  0  # atno 8010 bound_to 7997
  139.8642  144.6528  150.9023 H   0  0  0  0  0  0  0  0  0  0  0  0  # atno 10167 bound_to 10162
  156.1649  130.4149  149.9736 H   0  0  0  0  0  0  0  0  0  0  0  0  # atno 10718 bound_to 10713
  154.6765  135.5266  153.8206 H   0  0  0  0  0  0  0  0  0  0  0  0  # atno 10763 bound_to 10752
  153.0536  135.6542  154.0643 H   0  0  0  0  0  0  0  0  0  0  0  0  # atno 10764 bound_to 10752
  154.0536  135.2967  155.3316 H   0  0  0  0  0  0  0  0  0  0  0  0  # atno 10765 bound_to 10752
  140.2412  134.8049  157.3413 H   0  0  0  0  0  0  0  0  0  0  0  0  # atno 11005 bound_to 11000
  145.1770  140.9749  143.4288 LP  0  0  0  0  0  0  0  0  0  0  0  0  # atno 17320 bound_to 7965
  144.9976  139.3629  143.6183 LP  0  0  0  0  0  0  0  0  0  0  0  0  # atno 17321 bound_to 7965
  140.7770  143.3718  151.1635 LP  0  0  0  0  0  0  0  0  0  0  0  0  # atno 17342 bound_to 10162
  139.7345  143.9020  152.3030 LP  0  0  0  0  0  0  0  0  0  0  0  0  # atno 17343 bound_to 10162
  156.7554  130.9131  151.3639 LP  0  0  0  0  0  0  0  0  0  0  0  0  # atno 17370 bound_to 10713
  157.6760  130.9095  150.0151 LP  0  0  0  0  0  0  0  0  0  0  0  0  # atno 17371 bound_to 10713
  140.1651  134.4679  155.7868 LP  0  0  0  0  0  0  0  0  0  0  0  0  # atno 17394 bound_to 11000
  141.2210  133.6918  156.7611 LP  0  0  0  0  0  0  0  0  0  0  0  0  # atno 17395 bound_to 11000

$$$$
