AV-unprocessed.smi:2688|AV-procd|sdf|10386|dock7
  -GOLD-   2272014423D 1   1.00000     0.00000
 Structure written by MMmdl.
 51 54  0  0  0  0  0  0  0  0  1 V2000
  152.0273  138.4594  154.6711 C   0  0  0  0  0  0  0  0  0  0  0  0
  151.3307  137.6693  155.7388 C   0  0  0  0  0  0  0  0  0  0  0  0
  150.7307  138.2832  156.9080 C   0  0  0  0  0  0  0  0  0  0  0  0
  150.1161  137.5032  157.8230 C   0  0  0  0  0  0  0  0  0  0  0  0
  150.0370  136.0523  157.6665 C   0  0  0  0  0  0  0  0  0  0  0  0
  149.4797  135.3148  158.4794 O   0  0  0  0  0  0  0  0  0  0  0  0
  150.6374  135.5884  156.5300 N   0  0  0  0  0  0  0  0  0  0  0  0
  150.6361  134.1558  156.2007 C   0  0  0  0  0  0  0  0  0  0  0  0
  149.6132  133.7919  155.1152 C   0  0  0  0  0  0  0  0  0  0  0  0
  148.9235  134.6648  154.5858 O   0  0  0  0  0  0  0  0  0  0  0  0
  149.5364  132.4941  154.7823 N   0  0  0  0  0  0  0  0  0  0  0  0
  148.6164  131.9421  153.7945 C   0  0  0  0  0  0  0  0  0  0  0  0
  147.1759  132.4392  154.0384 C   0  0  0  0  0  0  0  0  0  0  0  0
  146.2394  132.4672  152.8041 C   0  0  0  0  0  0  0  0  0  0  0  0
  145.8461  131.0331  152.3547 C   0  0  0  0  0  0  0  0  0  0  0  0
  144.9635  131.0880  151.0891 C   0  0  1  0  0  0  0  0  0  0  0  0
  143.6800  131.8909  151.3898 C   0  0  0  0  0  0  0  0  0  0  0  0
  144.0627  133.3264  151.8089 C   0  0  2  0  0  0  0  0  0  0  0  0
  144.8378  134.0091  150.6633 C   0  0  0  0  0  0  0  0  0  0  0  0
  146.1170  133.2003  150.3665 C   0  0  2  0  0  0  0  0  0  0  0  0
  145.7412  131.7657  149.9428 C   0  0  0  0  0  0  0  0  0  0  0  0
  146.9973  133.1483  151.6323 C   0  0  0  0  0  0  0  0  0  0  0  0
  144.9435  133.2781  153.0772 C   0  0  0  0  0  0  0  0  0  0  0  0
  151.2720  136.3863  155.5921 N   0  0  0  0  0  0  0  0  0  0  0  0
  152.0046  139.5267  154.8925 H   0  0  0  0  0  0  0  0  0  0  0  0
  151.5488  138.3095  153.7028 H   0  0  0  0  0  0  0  0  0  0  0  0
  153.0715  138.1580  154.5838 H   0  0  0  0  0  0  0  0  0  0  0  0
  150.7797  139.3544  157.0373 H   0  0  0  0  0  0  0  0  0  0  0  0
  149.6691  137.9615  158.6931 H   0  0  0  0  0  0  0  0  0  0  0  0
  151.6231  133.8466  155.8517 H   0  0  0  0  0  0  0  0  0  0  0  0
  150.4465  133.5678  157.1009 H   0  0  0  0  0  0  0  0  0  0  0  0
  150.1424  131.8424  155.2592 H   0  0  0  0  0  0  0  0  0  0  0  0
  148.9652  132.2001  152.7946 H   0  0  0  0  0  0  0  0  0  0  0  0
  148.6635  130.8564  153.8711 H   0  0  0  0  0  0  0  0  0  0  0  0
  146.7260  131.8151  154.8120 H   0  0  0  0  0  0  0  0  0  0  0  0
  147.2162  133.4443  154.4613 H   0  0  0  0  0  0  0  0  0  0  0  0
  146.7396  130.4380  152.1608 H   0  0  0  0  0  0  0  0  0  0  0  0
  145.2993  130.5151  153.1422 H   0  0  0  0  0  0  0  0  0  0  0  0
  144.6945  130.0737  150.7924 H   0  0  0  0  0  0  0  0  0  0  0  0
  143.0341  131.9129  150.5112 H   0  0  0  0  0  0  0  0  0  0  0  0
  143.1071  131.4056  152.1808 H   0  0  0  0  0  0  0  0  0  0  0  0
  143.1563  133.8949  152.0193 H   0  0  0  0  0  0  0  0  0  0  0  0
  144.2152  134.0737  149.7699 H   0  0  0  0  0  0  0  0  0  0  0  0
  145.0926  135.0339  150.9366 H   0  0  0  0  0  0  0  0  0  0  0  0
  146.6707  133.6822  149.5600 H   0  0  0  0  0  0  0  0  0  0  0  0
  146.6389  131.1939  149.7044 H   0  0  0  0  0  0  0  0  0  0  0  0
  145.1370  131.7849  149.0350 H   0  0  0  0  0  0  0  0  0  0  0  0
  147.2961  134.1596  151.9123 H   0  0  0  0  0  0  0  0  0  0  0  0
  147.9206  132.6092  151.4153 H   0  0  0  0  0  0  0  0  0  0  0  0
  144.3714  132.8298  153.8896 H   0  0  0  0  0  0  0  0  0  0  0  0
  145.1904  134.2910  153.3981 H   0  0  0  0  0  0  0  0  0  0  0  0
  1  2  1  0  0  0  0
  1 25  1  0  0  0  0
  1 26  1  0  0  0  0
  1 27  1  0  0  0  0
  2 24  2  0  0  0  0
  2  3  1  0  0  0  0
  3  4  2  0  0  0  0
  3 28  1  0  0  0  0
  4  5  1  0  0  0  0
  4 29  1  0  0  0  0
  5  6  2  0  0  0  0
  5  7  1  0  0  0  0
  7  8  1  0  0  0  0
  7 24  1  0  0  0  0
  8  9  1  0  0  0  0
  8 30  1  0  0  0  0
  8 31  1  0  0  0  0
  9 10  2  0  0  0  0
  9 11  1  0  0  0  0
 11 12  1  0  0  0  0
 11 32  1  0  0  0  0
 12 13  1  0  0  0  0
 12 33  1  0  0  0  0
 12 34  1  0  0  0  0
 13 14  1  0  0  0  0
 13 35  1  0  0  0  0
 13 36  1  0  0  0  0
 14 22  1  0  0  0  0
 14 23  1  0  0  0  0
 14 15  1  0  0  0  0
 15 16  1  0  0  0  0
 15 37  1  0  0  0  0
 15 38  1  0  0  0  0
 16 21  1  0  0  0  0
 16 17  1  0  0  0  0
 16 39  1  0  0  0  0
 17 18  1  0  0  0  0
 17 40  1  0  0  0  0
 17 41  1  0  0  0  0
 18 19  1  0  0  0  0
 18 23  1  0  0  0  0
 18 42  1  0  0  0  0
 19 20  1  0  0  0  0
 19 43  1  0  0  0  0
 19 44  1  0  0  0  0
 20 21  1  0  0  0  0
 20 22  1  0  0  0  0
 20 45  1  0  0  0  0
 21 46  1  0  0  0  0
 21 47  1  0  0  0  0
 22 48  1  0  0  0  0
 22 49  1  0  0  0  0
 23 50  1  0  0  0  0
 23 51  1  0  0  0  0
M  END
> <s_m_source_file>
AV-unprocessed.smi

> <i_m_source_file_index>
2688

> <i_lp_mmshare_version>
43012

> <i_f3d_flags>
0

> <s_epik_input>
W0NIM11jMVtjSF1bY0hdYyg9TyluKG4xKVtDSDJdQyg9TylbTkhdW0NIMl1bQ0gyXUMyM1tDSDJdW0NASF00W0NIMl1bQ0BASF0oW0NIMl0zKVtDSDJdW0NASF0oW0NIMl00KVtDSDJdMg==

> <s_epik_cmdline>
J2VwaWtfcHl0aG9uJywgJy1waCcsICc3LjAnLCAnLXRuJywgJzgnLCAnLW1hJywgJzIwMCcsICctbWV0YWxfYmluZGluZycsICctaW1hZScsICc8aW5maWxlLm1hZT4nLCAnLW9tYWUnLCAnPG91dGZpbGUubWFlPic=

> <r_lp_tautomer_probability>
1

> <r_epik_Ionization_Penalty>
8.74812e-07

> <r_epik_Ionization_Penalty_Charging>
8.53005e-07

> <r_epik_Ionization_Penalty_Neutral>
2.18061e-08

> <r_epik_State_Penalty>
-0

> <r_epik_Charging_Adjusted_Penalty>
8.53005e-07

> <i_epik_Tot_Q>
0

> <i_epik_Tot_abs_Q>
0

> <r_epik_Metal_State_Penalty>
-0

> <b_epik_Metal_Only>
0

> <s_lp_Force_Field>
OPLS_2005

> <r_lp_Energy>
47.4944

> <b_lp_Chiralities_Consistent>
1

> <s_lp_Variant>
AV-unprocessed.smi:2688-1

> <Gold.Version>
5.8.1

> <Gold.Id.Protein>
6NUR|6NUR_protein|mol2

> <Gold.PLP.Fitness>
43.0588

> <Gold.PLP.PLP>
-38.1053

> <Gold.PLP.part.hbond>
-2.0000

> <Gold.PLP.part.metal>
0.0000

> <Gold.PLP.part.buried>
-5.2298

> <Gold.PLP.part.nonpolar>
-31.2804

> <Gold.PLP.part.repulsive>
1.6966

> <Gold.PLP.ligand.clash>
0.0000

> <Gold.PLP.ligand.torsion>
0.5369

> <Gold.PLP.Chemscore.Hbond>
2.0000

> <Gold.PLP.Chemscore.CHOScore>
0.0000

> <Gold.PLP.Chemscore.Metal>
0.0000

> <Gold.Chemscore.Hbonds>
donor molecule, donor type, donor heavy atom, donor atom, acceptor molecule, acceptor atom, score
      P1  H  6896  6907       L1     6  1.00
      P1  H 10752 10765       L1    24  0.89

> <Gold.PLP.Chemscore.Internal.Correction>
0.0272

> <Gold.Rescore>
     Score         DG    S(hbond)    S(metal)    S(lipo)     H(rot)  DE(clash)    DE(int)     intcor
     17.26     -19.45       1.79        0.00     106.18       1.73       0.30       1.89       ----

> <Gold.Chemscore.Fitness>
17.2642

> <Gold.Chemscore.DG>
-19.4537

> <Gold.Chemscore.ZeroCoef>
-5.4800

> <Gold.Chemscore.Hbond>
1.7925

> <Gold.Chemscore.Metal>
0.0000

> <Gold.Chemscore.Lipo>
106.1836

> <Gold.Chemscore.Internal_Hbond>
0.0000

> <Gold.Chemscore.DEClash>
0.3035

> <Gold.Chemscore.DEInternal>
1.8861

> <Gold.Chemscore.Rot>
1.7331

> <Gold.Chemscore.Internal.Correction>
   9.000000E+99

> <Gold.Chemscore.Hbonds>
donor molecule, donor type, donor heavy atom, donor atom, acceptor molecule, acceptor atom, score
      P1  H  6896  6907       L1     6  0.82
      P1  H 10752 10765       L1    24  0.70

> <Gold.Chemscore.Hbond.Weighted>
-5.9870

> <Gold.Chemscore.Metal.Weighted>
-0.0000

> <Gold.Chemscore.Lipo.Weighted>
-12.4235

> <Gold.Chemscore.Internal_Hbond.Weighted>
0.0000

> <Gold.Chemscore.DEClash.Weighted>
0.3035

> <Gold.Chemscore.DEInternal.Weighted>
1.8861

> <Gold.Chemscore.Rot.Weighted>
4.4367

> <Gold.Chemscore.Internal.Correction.Weighted>
   9.000000E+99

> <Gold.Protein.RotatedTorsions>
[ 6907 6896 6895 6894 ] final  -83.95 input  -60.11 | X-H torsion
[ 7974 7965 7964 7962 ] final  -47.60 input  175.53 | X-H torsion
[ 8008 7997 7996 7995 ] final -136.68 input   59.86 | X-H torsion
[ 10167 10162 10161 10158 ] final  -93.14 input  -65.29 | X-H torsion
[ 10718 10713 10712 10709 ] final  -22.21 input   66.30 | X-H torsion
[ 10763 10752 10751 10750 ] final -174.56 input  -60.55 | X-H torsion
[ 11005 11000 10999 10996 ] final  176.23 input  -57.11 | X-H torsion

> <Gold.Protein.ActiveResidues>
 VAL166  LYS551  ARG553  GLY616  TRP617  ASP618  TYR619  PRO620  LYS621  CYS622 
 ASP623  PHE694  ASN695  SER759  ASP760  ASP761  ALA762  ILE779  LEU786  VAL792 
 PHE793  MET794  SER795  GLU796  ALA797  LYS798  CYS799  TRP800  GLU811  SER814 

> <Gold.Protein.RotatedAtoms>
  150.6880  134.3433  159.4877 H   0  0  0  0  0  0  0  0  0  0  0  0  # atno 6907 bound_to 6896
  152.1284  134.9151  160.0569 H   0  0  0  0  0  0  0  0  0  0  0  0  # atno 6908 bound_to 6896
  152.0330  133.3910  159.4342 H   0  0  0  0  0  0  0  0  0  0  0  0  # atno 6909 bound_to 6896
  145.9599  140.7490  142.9463 H   0  0  0  0  0  0  0  0  0  0  0  0  # atno 7974 bound_to 7965
  155.3993  140.0505  157.3037 H   0  0  0  0  0  0  0  0  0  0  0  0  # atno 8008 bound_to 7997
  154.4998  140.2152  155.9330 H   0  0  0  0  0  0  0  0  0  0  0  0  # atno 8009 bound_to 7997
  156.1453  140.3146  155.8566 H   0  0  0  0  0  0  0  0  0  0  0  0  # atno 8010 bound_to 7997
  140.3277  143.3013  151.9977 H   0  0  0  0  0  0  0  0  0  0  0  0  # atno 10167 bound_to 10162
  156.5076  130.4602  149.6666 H   0  0  0  0  0  0  0  0  0  0  0  0  # atno 10718 bound_to 10713
  154.5948  135.2848  155.0598 H   0  0  0  0  0  0  0  0  0  0  0  0  # atno 10763 bound_to 10752
  154.1885  135.6445  153.5057 H   0  0  0  0  0  0  0  0  0  0  0  0  # atno 10764 bound_to 10752
  153.0134  135.5440  154.6646 H   0  0  0  0  0  0  0  0  0  0  0  0  # atno 10765 bound_to 10752
  140.3708  134.7031  157.4391 H   0  0  0  0  0  0  0  0  0  0  0  0  # atno 11005 bound_to 11000
  144.6813  140.2573  143.7323 LP  0  0  0  0  0  0  0  0  0  0  0  0  # atno 17320 bound_to 7965
  145.8055  139.1981  143.2023 LP  0  0  0  0  0  0  0  0  0  0  0  0  # atno 17321 bound_to 7965
  139.4862  144.6260  151.7163 LP  0  0  0  0  0  0  0  0  0  0  0  0  # atno 17342 bound_to 10162
  140.5426  144.0555  150.6094 LP  0  0  0  0  0  0  0  0  0  0  0  0  # atno 17343 bound_to 10162
  156.3271  130.7312  151.2234 LP  0  0  0  0  0  0  0  0  0  0  0  0  # atno 17370 bound_to 10713
  157.7455  131.0440  150.4770 LP  0  0  0  0  0  0  0  0  0  0  0  0  # atno 17371 bound_to 10713
  140.0553  134.6072  155.8812 LP  0  0  0  0  0  0  0  0  0  0  0  0  # atno 17394 bound_to 11000
  141.1955  133.6587  156.5646 LP  0  0  0  0  0  0  0  0  0  0  0  0  # atno 17395 bound_to 11000

$$$$
