AV-unprocessed.smi:1154|AV-procd|sdf|4903|dock1
  -GOLD-   22720 3483D 1   1.00000     0.00000
 Structure written by MMmdl.
 42 43  0  0  0  0  0  0  0  0  2 V2000
  146.1929  132.4965  150.4499 C   0  0  0  0  0  0  0  0  0  0  0  0
  146.3513  133.8268  151.1998 C   0  0  1  0  0  0  0  0  0  0  0  0
  145.0683  134.6735  151.1155 C   0  0  0  0  0  0  0  0  0  0  0  0
  145.1941  135.9808  151.9193 C   0  0  2  0  0  0  0  0  0  0  0  0
  146.0927  137.0235  151.2310 C   0  0  0  0  0  0  0  0  0  0  0  0
  145.6445  135.6855  153.3638 C   0  0  0  0  0  0  0  0  0  0  0  0
  146.8991  134.8895  153.3963 N   0  3  1  0  0  0  0  0  0  0  0  0
  147.4278  134.7279  154.7743 C   0  0  0  0  0  0  0  0  0  0  0  0
  148.9618  134.6309  154.8031 C   0  0  0  0  0  0  0  0  0  0  0  0
  149.5598  135.8632  154.3095 N   0  0  0  0  0  0  0  0  0  0  0  0
  150.6619  136.4298  154.8245 C   0  0  0  0  0  0  0  0  0  0  0  0
  151.2625  135.9709  155.7951 O   0  0  0  0  0  0  0  0  0  0  0  0
  151.1612  137.7133  154.1547 C   0  0  0  0  0  0  0  0  0  0  0  0
  151.6520  138.6736  155.1271 N   0  0  0  0  0  0  0  0  0  0  0  0
  152.5962  138.5670  156.0640 C   0  0  0  0  0  0  0  0  0  0  0  0
  152.7240  139.6866  156.7592 N   0  0  0  0  0  0  0  0  0  0  0  0
  151.7839  140.5242  156.1825 N   0  0  0  0  0  0  0  0  0  0  0  0
  151.1452  139.9289  155.2128 N   0  0  0  0  0  0  0  0  0  0  0  0
  146.7460  133.5997  152.6719 C   0  0  0  0  0  0  0  0  0  0  0  0
  145.3984  131.8879  150.8828 H   0  0  0  0  0  0  0  0  0  0  0  0
  147.1143  131.9143  150.4833 H   0  0  0  0  0  0  0  0  0  0  0  0
  145.9490  132.6647  149.4005 H   0  0  0  0  0  0  0  0  0  0  0  0
  147.1593  134.3749  150.7141 H   0  0  0  0  0  0  0  0  0  0  0  0
  144.8243  134.8925  150.0751 H   0  0  0  0  0  0  0  0  0  0  0  0
  144.2305  134.0953  151.5083 H   0  0  0  0  0  0  0  0  0  0  0  0
  144.1987  136.4241  151.9723 H   0  0  0  0  0  0  0  0  0  0  0  0
  147.1273  136.6882  151.1590 H   0  0  0  0  0  0  0  0  0  0  0  0
  146.0909  137.9643  151.7822 H   0  0  0  0  0  0  0  0  0  0  0  0
  145.7422  137.2371  150.2209 H   0  0  0  0  0  0  0  0  0  0  0  0
  145.7826  136.6263  153.8988 H   0  0  0  0  0  0  0  0  0  0  0  0
  144.8623  135.1385  153.8931 H   0  0  0  0  0  0  0  0  0  0  0  0
  147.1364  135.5912  155.3746 H   0  0  0  0  0  0  0  0  0  0  0  0
  146.9714  133.8565  155.2468 H   0  0  0  0  0  0  0  0  0  0  0  0
  149.3291  134.4525  155.8135 H   0  0  0  0  0  0  0  0  0  0  0  0
  149.2898  133.7918  154.1869 H   0  0  0  0  0  0  0  0  0  0  0  0
  149.1202  136.3056  153.5154 H   0  0  0  0  0  0  0  0  0  0  0  0
  151.9640  137.4727  153.4569 H   0  0  0  0  0  0  0  0  0  0  0  0
  150.3586  138.1751  153.5774 H   0  0  0  0  0  0  0  0  0  0  0  0
  153.1789  137.6750  156.2408 H   0  0  0  0  0  0  0  0  0  0  0  0
  145.9957  132.9876  153.1753 H   0  0  0  0  0  0  0  0  0  0  0  0
  147.6795  133.0389  152.7035 H   0  0  0  0  0  0  0  0  0  0  0  0
  147.5852  135.4321  152.8911 H   0  0  0  0  0  0  0  0  0  0  0  0
  1  2  1  0  0  0  0
  1 20  1  0  0  0  0
  1 21  1  0  0  0  0
  1 22  1  0  0  0  0
  2 19  1  0  0  0  0
  2  3  1  0  0  0  0
  2 23  1  0  0  0  0
  3  4  1  0  0  0  0
  3 24  1  0  0  0  0
  3 25  1  0  0  0  0
  4  5  1  0  0  0  0
  4  6  1  0  0  0  0
  4 26  1  0  0  0  0
  5 27  1  0  0  0  0
  5 28  1  0  0  0  0
  5 29  1  0  0  0  0
  6  7  1  0  0  0  0
  6 30  1  0  0  0  0
  6 31  1  0  0  0  0
  7  8  1  0  0  0  0
  7 19  1  0  0  0  0
  7 42  1  0  0  0  0
  8  9  1  0  0  0  0
  8 32  1  0  0  0  0
  8 33  1  0  0  0  0
  9 10  1  0  0  0  0
  9 34  1  0  0  0  0
  9 35  1  0  0  0  0
 10 11  1  0  0  0  0
 10 36  1  0  0  0  0
 11 12  2  0  0  0  0
 11 13  1  0  0  0  0
 13 14  1  0  0  0  0
 13 37  1  0  0  0  0
 13 38  1  0  0  0  0
 14 18  1  0  0  0  0
 14 15  1  0  0  0  0
 15 16  2  0  0  0  0
 15 39  1  0  0  0  0
 16 17  1  0  0  0  0
 17 18  2  0  0  0  0
 19 40  1  0  0  0  0
 19 41  1  0  0  0  0
M  CHG  1   7   1
M  END
> <s_m_source_file>
AV-unprocessed.smi

> <i_m_source_file_index>
1154

> <i_lp_mmshare_version>
43012

> <i_f3d_flags>
0

> <s_epik_input>
W0NIM11bQ0BASF0xW0NIMl1bQ0BASF0oW0NIM10pW0NIMl1OKFtDSDJdMSlbQ0gyXVtDSDJdW05IXUMoPU8pW0NIMl1uMltjSF1ubm4y

> <s_epik_cmdline>
J2VwaWtfcHl0aG9uJywgJy1waCcsICc3LjAnLCAnLXRuJywgJzgnLCAnLW1hJywgJzIwMCcsICctbWV0YWxfYmluZGluZycsICctaW1hZScsICc8aW5maWxlLm1hZT4nLCAnLW9tYWUnLCAnPG91dGZpbGUubWFlPic=

> <r_lp_tautomer_probability>
1

> <r_epik_Ionization_Penalty>
0.00217773

> <r_epik_Ionization_Penalty_Charging>
0.00217329

> <r_epik_Ionization_Penalty_Neutral>
4.43997e-06

> <r_epik_State_Penalty>
0.00149294

> <r_epik_Charging_Adjusted_Penalty>
0.00366623

> <i_epik_Tot_Q>
1

> <i_epik_Tot_abs_Q>
1

> <r_epik_Metal_State_Penalty>
-0

> <b_epik_Metal_Only>
0

> <s_lp_Force_Field>
OPLS_2005

> <r_lp_Energy>
22.3383

> <b_lp_Chiralities_Consistent>
1

> <s_lp_Variant>
AV-unprocessed.smi:1154-4

> <Gold.Version>
5.8.1

> <Gold.Id.Protein>
6NUR|6NUR_protein|mol2

> <Gold.PLP.Fitness>
44.9596

> <Gold.PLP.PLP>
-29.0375

> <Gold.PLP.part.hbond>
-5.2922

> <Gold.PLP.part.metal>
0.0000

> <Gold.PLP.part.buried>
1.7886

> <Gold.PLP.part.nonpolar>
-26.3286

> <Gold.PLP.part.repulsive>
0.1405

> <Gold.PLP.ligand.clash>
0.0000

> <Gold.PLP.ligand.torsion>
0.7960

> <Gold.PLP.Chemscore.Hbond>
5.8000

> <Gold.PLP.Chemscore.CHOScore>
0.0000

> <Gold.PLP.Chemscore.Metal>
0.0000

> <Gold.Chemscore.Hbonds>
donor molecule, donor type, donor heavy atom, donor atom, acceptor molecule, acceptor atom, score
      L1  H     7    42       P1  7948  2.00
      L1  H    10    36       P1  7948  0.85
      P1  H  7989  7998       L1    18  1.00
      P1  H  7997  8008       L1    16  1.00
      P1  H 10752 10765       L1    12  0.93

> <Gold.PLP.Chemscore.Internal.Correction>
0.1142

> <Gold.Rescore>
     Score         DG    S(hbond)    S(metal)    S(lipo)     H(rot)  DE(clash)    DE(int)     intcor
     13.33     -16.50       3.39        0.00      55.79       2.67       1.03       2.13       ----

> <Gold.Chemscore.Fitness>
13.3297

> <Gold.Chemscore.DG>
-16.4955

> <Gold.Chemscore.ZeroCoef>
-5.4800

> <Gold.Chemscore.Hbond>
3.3880

> <Gold.Chemscore.Metal>
0.0000

> <Gold.Chemscore.Lipo>
55.7946

> <Gold.Chemscore.Internal_Hbond>
0.0000

> <Gold.Chemscore.DEClash>
1.0338

> <Gold.Chemscore.DEInternal>
2.1320

> <Gold.Chemscore.Rot>
2.6674

> <Gold.Chemscore.Internal.Correction>
   9.000000E+99

> <Gold.Chemscore.Hbonds>
donor molecule, donor type, donor heavy atom, donor atom, acceptor molecule, acceptor atom, score
      L1  H     7    42       P1  7948  1.00
      L1  H    10    36       P1  7948  0.80
      P1  H  7989  7998       L1    18  0.35
      P1  H  7997  8008       L1    16  0.31
      P1  H 10752 10765       L1    12  0.20

> <Gold.Chemscore.Hbond.Weighted>
-11.3161

> <Gold.Chemscore.Metal.Weighted>
-0.0000

> <Gold.Chemscore.Lipo.Weighted>
-6.5280

> <Gold.Chemscore.Internal_Hbond.Weighted>
0.0000

> <Gold.Chemscore.DEClash.Weighted>
1.0338

> <Gold.Chemscore.DEInternal.Weighted>
2.1320

> <Gold.Chemscore.Rot.Weighted>
6.8286

> <Gold.Chemscore.Internal.Correction.Weighted>
   9.000000E+99

> <Gold.Protein.RotatedTorsions>
[ 6907 6896 6895 6894 ] final    8.17 input  -60.11 | X-H torsion
[ 7974 7965 7964 7962 ] final -166.67 input  175.53 | X-H torsion
[ 8008 7997 7996 7995 ] final  -48.09 input   59.86 | X-H torsion
[ 10167 10162 10161 10158 ] final   37.06 input  -65.29 | X-H torsion
[ 10718 10713 10712 10709 ] final  103.21 input   66.30 | X-H torsion
[ 10763 10752 10751 10750 ] final -162.11 input  -60.55 | X-H torsion
[ 11005 11000 10999 10996 ] final  176.41 input  -57.11 | X-H torsion

> <Gold.Protein.ActiveResidues>
 VAL166  LYS551  ARG553  GLY616  TRP617  ASP618  TYR619  PRO620  LYS621  CYS622 
 ASP623  PHE694  ASN695  SER759  ASP760  ASP761  ALA762  ILE779  LEU786  VAL792 
 PHE793  MET794  SER795  GLU796  ALA797  LYS798  CYS799  TRP800  GLU811  SER814 

> <Gold.Protein.RotatedAtoms>
  151.7017  135.0929  160.0251 H   0  0  0  0  0  0  0  0  0  0  0  0  # atno 6907 bound_to 6896
  152.3717  133.6423  159.6100 H   0  0  0  0  0  0  0  0  0  0  0  0  # atno 6908 bound_to 6896
  150.7678  133.9176  159.3430 H   0  0  0  0  0  0  0  0  0  0  0  0  # atno 6909 bound_to 6896
  144.7240  140.2633  143.6261 H   0  0  0  0  0  0  0  0  0  0  0  0  # atno 7974 bound_to 7965
  154.4024  140.1330  156.4283 H   0  0  0  0  0  0  0  0  0  0  0  0  # atno 8008 bound_to 7997
  155.7576  140.3487  155.5161 H   0  0  0  0  0  0  0  0  0  0  0  0  # atno 8009 bound_to 7997
  155.8890  140.1000  157.1422 H   0  0  0  0  0  0  0  0  0  0  0  0  # atno 8010 bound_to 7997
  140.4068  144.1648  150.6137 H   0  0  0  0  0  0  0  0  0  0  0  0  # atno 10167 bound_to 10162
  157.6779  131.0773  150.5521 H   0  0  0  0  0  0  0  0  0  0  0  0  # atno 10718 bound_to 10713
  154.7244  135.3032  154.8995 H   0  0  0  0  0  0  0  0  0  0  0  0  # atno 10763 bound_to 10752
  153.9857  135.6725  153.4756 H   0  0  0  0  0  0  0  0  0  0  0  0  # atno 10764 bound_to 10752
  153.0862  135.4983  154.8519 H   0  0  0  0  0  0  0  0  0  0  0  0  # atno 10765 bound_to 10752
  140.3728  134.7015  157.4403 H   0  0  0  0  0  0  0  0  0  0  0  0  # atno 11005 bound_to 11000
  145.8115  139.2005  143.1990 LP  0  0  0  0  0  0  0  0  0  0  0  0  # atno 17320 bound_to 7965
  146.0592  140.7989  142.9743 LP  0  0  0  0  0  0  0  0  0  0  0  0  # atno 17321 bound_to 7965
  140.4681  143.2423  151.9127 LP  0  0  0  0  0  0  0  0  0  0  0  0  # atno 17342 bound_to 10162
  139.4783  144.5398  151.8544 LP  0  0  0  0  0  0  0  0  0  0  0  0  # atno 17343 bound_to 10162
  156.5825  130.4308  149.5971 LP  0  0  0  0  0  0  0  0  0  0  0  0  # atno 17370 bound_to 10713
  156.2650  130.6984  151.1764 LP  0  0  0  0  0  0  0  0  0  0  0  0  # atno 17371 bound_to 10713
  140.0538  134.6092  155.8829 LP  0  0  0  0  0  0  0  0  0  0  0  0  # atno 17394 bound_to 11000
  141.1949  133.6585  156.5617 LP  0  0  0  0  0  0  0  0  0  0  0  0  # atno 17395 bound_to 11000

$$$$
