AV-unprocessed.smi:1023|AV-procd|sdf|4462|dock4
  -GOLD-   22720 2433D 1   1.00000     0.00000
 Structure written by MMmdl.
 32 33  0  0  0  0  0  0  0  0  1 V2000
  146.1811  142.9231  153.8216 C   0  0  0  0  0  0  0  0  0  0  0  0
  146.3028  141.6723  154.7097 C   0  0  0  0  0  0  0  0  0  0  0  0
  145.7296  141.9473  156.1077 C   0  0  0  0  0  0  0  0  0  0  0  0
  147.7509  141.1492  154.8095 C   0  0  0  0  0  0  0  0  0  0  0  0
  148.6347  142.0990  155.4792 N   0  0  0  0  0  0  0  0  0  0  0  0
  149.6294  141.7875  156.3272 C   0  0  0  0  0  0  0  0  0  0  0  0
  149.9160  140.6282  156.6209 O   0  0  0  0  0  0  0  0  0  0  0  0
  150.3174  142.8244  156.8517 N   0  0  0  0  0  0  0  0  0  0  0  0
  151.4110  142.8725  157.7647 C   0  0  0  0  0  0  0  0  0  0  0  0
  152.1359  143.9690  158.0300 N   0  0  0  0  0  0  0  0  0  0  0  0
  153.1277  143.7244  158.9683 N   0  0  0  0  0  0  0  0  0  0  0  0
  153.1234  142.4554  159.3926 C   0  0  0  0  0  0  0  0  0  0  0  0
  154.0972  141.9505  160.4047 C   0  0  0  0  0  0  0  0  0  0  0  0
  154.0214  140.5269  160.9068 C   0  0  0  0  0  0  0  0  0  0  0  0
  153.6810  141.6670  161.8318 C   0  0  0  0  0  0  0  0  0  0  0  0
  151.8809  141.4415  158.6671 S   0  0  0  0  0  0  0  0  0  0  0  0
  146.8097  143.7332  154.1923 H   0  0  0  0  0  0  0  0  0  0  0  0
  145.1533  143.2854  153.7936 H   0  0  0  0  0  0  0  0  0  0  0  0
  146.4758  142.7161  152.7927 H   0  0  0  0  0  0  0  0  0  0  0  0
  145.6937  140.8877  154.2583 H   0  0  0  0  0  0  0  0  0  0  0  0
  146.2918  142.7289  156.6200 H   0  0  0  0  0  0  0  0  0  0  0  0
  145.7619  141.0521  156.7292 H   0  0  0  0  0  0  0  0  0  0  0  0
  144.6892  142.2688  156.0504 H   0  0  0  0  0  0  0  0  0  0  0  0
  147.7692  140.1754  155.3017 H   0  0  0  0  0  0  0  0  0  0  0  0
  148.1509  140.9877  153.8081 H   0  0  0  0  0  0  0  0  0  0  0  0
  148.4683  143.0780  155.2935 H   0  0  0  0  0  0  0  0  0  0  0  0
  150.0258  143.7285  156.5100 H   0  0  0  0  0  0  0  0  0  0  0  0
  155.0828  142.3806  160.2378 H   0  0  0  0  0  0  0  0  0  0  0  0
  153.2002  139.9078  160.5508 H   0  0  0  0  0  0  0  0  0  0  0  0
  154.9609  140.0045  161.0745 H   0  0  0  0  0  0  0  0  0  0  0  0
  154.3937  141.9051  162.6186 H   0  0  0  0  0  0  0  0  0  0  0  0
  152.6337  141.7938  162.0986 H   0  0  0  0  0  0  0  0  0  0  0  0
  1  2  1  0  0  0  0
  1 17  1  0  0  0  0
  1 18  1  0  0  0  0
  1 19  1  0  0  0  0
  2  3  1  0  0  0  0
  2  4  1  0  0  0  0
  2 20  1  0  0  0  0
  3 21  1  0  0  0  0
  3 22  1  0  0  0  0
  3 23  1  0  0  0  0
  4  5  1  0  0  0  0
  4 24  1  0  0  0  0
  4 25  1  0  0  0  0
  5  6  1  0  0  0  0
  5 26  1  0  0  0  0
  6  7  2  0  0  0  0
  6  8  1  0  0  0  0
  8  9  1  0  0  0  0
  8 27  1  0  0  0  0
  9 16  1  0  0  0  0
  9 10  2  0  0  0  0
 10 11  1  0  0  0  0
 11 12  2  0  0  0  0
 12 13  1  0  0  0  0
 12 16  1  0  0  0  0
 13 15  1  0  0  0  0
 13 14  1  0  0  0  0
 13 28  1  0  0  0  0
 14 15  1  0  0  0  0
 14 29  1  0  0  0  0
 14 30  1  0  0  0  0
 15 31  1  0  0  0  0
 15 32  1  0  0  0  0
M  END
> <s_m_source_file>
AV-unprocessed.smi

> <i_m_source_file_index>
1023

> <i_lp_mmshare_version>
43012

> <i_f3d_flags>
0

> <s_epik_input>
W0NIM11bQ0hdKFtDSDNdKVtDSDJdW05IXUMoPU8pW05IXWMxbm5jKHMxKVtDSF0yW0NIMl1bQ0gyXTI=

> <s_epik_cmdline>
J2VwaWtfcHl0aG9uJywgJy1waCcsICc3LjAnLCAnLXRuJywgJzgnLCAnLW1hJywgJzIwMCcsICctbWV0YWxfYmluZGluZycsICctaW1hZScsICc8aW5maWxlLm1hZT4nLCAnLW9tYWUnLCAnPG91dGZpbGUubWFlPic=

> <r_lp_tautomer_probability>
1

> <r_epik_Ionization_Penalty>
0.000943136

> <r_epik_Ionization_Penalty_Charging>
0

> <r_epik_Ionization_Penalty_Neutral>
0.000943136

> <r_epik_State_Penalty>
-0

> <r_epik_Charging_Adjusted_Penalty>
0

> <i_epik_Tot_Q>
0

> <i_epik_Tot_abs_Q>
0

> <r_epik_Metal_State_Penalty>
0.281646

> <b_epik_Metal_Only>
0

> <s_lp_Force_Field>
OPLS_2005

> <r_lp_Energy>
5.4251

> <b_lp_Chiralities_Consistent>
1

> <s_lp_Variant>
AV-unprocessed.smi:1023-1

> <Gold.Version>
5.8.1

> <Gold.Id.Protein>
6NUR|6NUR_protein|mol2

> <Gold.PLP.Fitness>
37.5807

> <Gold.PLP.PLP>
-32.2670

> <Gold.PLP.part.hbond>
-2.0000

> <Gold.PLP.part.metal>
0.0000

> <Gold.PLP.part.buried>
-6.0059

> <Gold.PLP.part.nonpolar>
-24.3224

> <Gold.PLP.part.repulsive>
0.2550

> <Gold.PLP.ligand.clash>
0.0000

> <Gold.PLP.ligand.torsion>
0.3738

> <Gold.PLP.Chemscore.Hbond>
1.9760

> <Gold.PLP.Chemscore.CHOScore>
0.0000

> <Gold.PLP.Chemscore.Metal>
0.0000

> <Gold.Chemscore.Hbonds>
donor molecule, donor type, donor heavy atom, donor atom, acceptor molecule, acceptor atom, score
      L1  H     5    26       P1  8028  0.98
      L1  H     8    27       P1  8028  1.00

> <Gold.PLP.Chemscore.Internal.Correction>
0.1333

> <Gold.Rescore>
     Score         DG    S(hbond)    S(metal)    S(lipo)     H(rot)  DE(clash)    DE(int)     intcor
     14.71     -16.27       1.92        0.00      68.30       1.42       0.00       1.55       ----

> <Gold.Chemscore.Fitness>
14.7138

> <Gold.Chemscore.DG>
-16.2653

> <Gold.Chemscore.ZeroCoef>
-5.4800

> <Gold.Chemscore.Hbond>
1.9246

> <Gold.Chemscore.Metal>
0.0000

> <Gold.Chemscore.Lipo>
68.2958

> <Gold.Chemscore.Internal_Hbond>
0.0000

> <Gold.Chemscore.DEClash>
0.0000

> <Gold.Chemscore.DEInternal>
1.5515

> <Gold.Chemscore.Rot>
1.4193

> <Gold.Chemscore.Internal.Correction>
   9.000000E+99

> <Gold.Chemscore.Hbonds>
donor molecule, donor type, donor heavy atom, donor atom, acceptor molecule, acceptor atom, score
      L1  H     5    26       P1  8028  0.93
      L1  H     8    27       P1  8028  0.95

> <Gold.Chemscore.Hbond.Weighted>
-6.4280

> <Gold.Chemscore.Metal.Weighted>
-0.0000

> <Gold.Chemscore.Lipo.Weighted>
-7.9906

> <Gold.Chemscore.Internal_Hbond.Weighted>
0.0000

> <Gold.Chemscore.DEClash.Weighted>
0.0000

> <Gold.Chemscore.DEInternal.Weighted>
1.5515

> <Gold.Chemscore.Rot.Weighted>
3.6333

> <Gold.Chemscore.Internal.Correction.Weighted>
   9.000000E+99

> <Gold.Protein.RotatedTorsions>
[ 6907 6896 6895 6894 ] final   87.40 input  -60.11 | X-H torsion
[ 7974 7965 7964 7962 ] final  -52.39 input  175.53 | X-H torsion
[ 8008 7997 7996 7995 ] final  -16.43 input   59.86 | X-H torsion
[ 10167 10162 10161 10158 ] final  -74.29 input  -65.29 | X-H torsion
[ 10718 10713 10712 10709 ] final   58.49 input   66.30 | X-H torsion
[ 10763 10752 10751 10750 ] final  -39.17 input  -60.55 | X-H torsion
[ 11005 11000 10999 10996 ] final   17.26 input  -57.11 | X-H torsion

> <Gold.Protein.ActiveResidues>
 VAL166  LYS551  ARG553  GLY616  TRP617  ASP618  TYR619  PRO620  LYS621  CYS622 
 ASP623  PHE694  ASN695  SER759  ASP760  ASP761  ALA762  ILE779  LEU786  VAL792 
 PHE793  MET794  SER795  GLU796  ALA797  LYS798  CYS799  TRP800  GLU811  SER814 

> <Gold.Protein.RotatedAtoms>
  152.5410  134.2282  159.8814 H   0  0  0  0  0  0  0  0  0  0  0  0  # atno 6907 bound_to 6896
  151.2255  133.4472  159.2609 H   0  0  0  0  0  0  0  0  0  0  0  0  # atno 6908 bound_to 6896
  151.0764  134.9844  159.8390 H   0  0  0  0  0  0  0  0  0  0  0  0  # atno 6909 bound_to 6896
  145.9085  140.7935  142.9707 H   0  0  0  0  0  0  0  0  0  0  0  0  # atno 7974 bound_to 7965
  154.5054  140.2170  155.9262 H   0  0  0  0  0  0  0  0  0  0  0  0  # atno 8008 bound_to 7997
  156.1487  140.3166  155.8578 H   0  0  0  0  0  0  0  0  0  0  0  0  # atno 8009 bound_to 7997
  155.3982  140.0482  157.3028 H   0  0  0  0  0  0  0  0  0  0  0  0  # atno 8010 bound_to 7997
  140.5039  143.2356  151.7706 H   0  0  0  0  0  0  0  0  0  0  0  0  # atno 10167 bound_to 10162
  157.5600  130.8828  149.9096 H   0  0  0  0  0  0  0  0  0  0  0  0  # atno 10718 bound_to 10713
  153.9250  135.6778  153.4747 H   0  0  0  0  0  0  0  0  0  0  0  0  # atno 10763 bound_to 10752
  153.1009  135.4828  154.8862 H   0  0  0  0  0  0  0  0  0  0  0  0  # atno 10764 bound_to 10752
  154.7458  135.3172  154.8604 H   0  0  0  0  0  0  0  0  0  0  0  0  # atno 10765 bound_to 10752
  140.4379  134.1352  155.7687 H   0  0  0  0  0  0  0  0  0  0  0  0  # atno 11005 bound_to 11000
  144.6741  140.1788  143.7407 LP  0  0  0  0  0  0  0  0  0  0  0  0  # atno 17320 bound_to 7965
  145.8701  139.2268  143.1666 LP  0  0  0  0  0  0  0  0  0  0  0  0  # atno 17321 bound_to 7965
  139.4879  144.4484  151.9683 LP  0  0  0  0  0  0  0  0  0  0  0  0  # atno 17342 bound_to 10162
  140.3574  144.3015  150.5939 LP  0  0  0  0  0  0  0  0  0  0  0  0  # atno 17343 bound_to 10162
  156.0654  130.3693  150.0890 LP  0  0  0  0  0  0  0  0  0  0  0  0  # atno 17370 bound_to 10713
  156.9055  130.9634  151.3570 LP  0  0  0  0  0  0  0  0  0  0  0  0  # atno 17371 bound_to 10713
  141.1718  133.8594  157.1547 LP  0  0  0  0  0  0  0  0  0  0  0  0  # atno 17394 bound_to 11000
  140.0089  134.9996  157.0353 LP  0  0  0  0  0  0  0  0  0  0  0  0  # atno 17395 bound_to 11000

$$$$
