AV-unprocessed.smi:437|AV-procd|sdf|2562|dock7
  -GOLD-   2262022533D 1   1.00000     0.00000
 Structure written by MMmdl.
 48 49  0  0  0  0  0  0  0  0  1 V2000
  148.5753  137.5026  159.1434 C   0  0  0  0  0  0  0  0  0  0  0  0
  149.4391  137.4209  157.9137 C   0  0  0  0  0  0  0  0  0  0  0  0
  149.4553  136.2886  157.2906 N   0  0  0  0  0  0  0  0  0  0  0  0
  150.2194  136.1030  156.1547 N   0  0  0  0  0  0  0  0  0  0  0  0
  150.1235  134.7512  155.5839 C   0  0  0  0  0  0  0  0  0  0  0  0
  148.6767  134.2929  155.3430 C   0  0  0  0  0  0  0  0  0  0  0  0
  148.1007  133.5841  156.1729 O   0  0  0  0  0  0  0  0  0  0  0  0
  148.1291  134.7341  154.1926 N   0  0  0  0  0  0  0  0  0  0  0  0
  146.8883  134.4933  153.7276 C   0  0  0  0  0  0  0  0  0  0  0  0
  145.9473  134.0433  154.3852 O   0  0  0  0  0  0  0  0  0  0  0  0
  146.7935  134.8127  152.4285 N   0  0  0  0  0  0  0  0  0  0  0  0
  145.7656  134.3286  151.5088 C   0  0  1  0  0  0  0  0  0  0  0  0
  146.0788  132.8771  151.0854 C   0  0  0  0  0  0  0  0  0  0  0  0
  144.9900  132.3072  150.1651 C   0  0  0  0  0  0  0  0  0  0  0  0
  143.6090  132.3940  150.8282 C   0  0  0  0  0  0  0  0  0  0  0  0
  143.2850  133.8385  151.2377 C   0  0  0  0  0  0  0  0  0  0  0  0
  144.3657  134.4305  152.1654 C   0  0  2  0  0  0  0  0  0  0  0  0
  144.0033  135.8725  152.5636 C   0  0  0  0  0  0  0  0  0  0  0  0
  151.0071  137.0592  155.5838 C   0  0  0  0  0  0  0  0  0  0  0  0
  151.6725  136.8496  154.5683 O   0  0  0  0  0  0  0  0  0  0  0  0
  150.9825  138.3402  156.2935 C   0  0  0  0  0  0  0  0  0  0  0  0
  151.7983  139.3681  155.7323 C   0  0  0  0  0  0  0  0  0  0  0  0
  152.4756  140.1881  155.2752 N   0  0  0  0  0  0  0  0  0  0  0  0
  150.2355  138.5349  157.4091 C   0  0  0  0  0  0  0  0  0  0  0  0
  150.1749  139.8454  158.1818 C   0  0  0  0  0  0  0  0  0  0  0  0
  147.7532  138.2023  158.9915 H   0  0  0  0  0  0  0  0  0  0  0  0
  149.1543  137.8414  160.0028 H   0  0  0  0  0  0  0  0  0  0  0  0
  148.1419  136.5349  159.4014 H   0  0  0  0  0  0  0  0  0  0  0  0
  150.6552  134.7100  154.6314 H   0  0  0  0  0  0  0  0  0  0  0  0
  150.6290  134.0307  156.2301 H   0  0  0  0  0  0  0  0  0  0  0  0
  148.7180  135.3146  153.6141 H   0  0  0  0  0  0  0  0  0  0  0  0
  147.4896  135.4317  152.0397 H   0  0  0  0  0  0  0  0  0  0  0  0
  145.7672  134.9590  150.6171 H   0  0  0  0  0  0  0  0  0  0  0  0
  147.0418  132.8312  150.5755 H   0  0  0  0  0  0  0  0  0  0  0  0
  146.1697  132.2454  151.9704 H   0  0  0  0  0  0  0  0  0  0  0  0
  144.9806  132.8585  149.2240 H   0  0  0  0  0  0  0  0  0  0  0  0
  145.2185  131.2707  149.9152 H   0  0  0  0  0  0  0  0  0  0  0  0
  142.8449  132.0209  150.1458 H   0  0  0  0  0  0  0  0  0  0  0  0
  143.5821  131.7483  151.7067 H   0  0  0  0  0  0  0  0  0  0  0  0
  143.1896  134.4555  150.3432 H   0  0  0  0  0  0  0  0  0  0  0  0
  142.3138  133.8641  151.7332 H   0  0  0  0  0  0  0  0  0  0  0  0
  144.3770  133.8328  153.0785 H   0  0  0  0  0  0  0  0  0  0  0  0
  144.0062  136.5340  151.6967 H   0  0  0  0  0  0  0  0  0  0  0  0
  144.7034  136.2782  153.2940 H   0  0  0  0  0  0  0  0  0  0  0  0
  143.0099  135.9167  153.0109 H   0  0  0  0  0  0  0  0  0  0  0  0
  150.7089  140.6480  157.6737 H   0  0  0  0  0  0  0  0  0  0  0  0
  150.6203  139.7248  159.1698 H   0  0  0  0  0  0  0  0  0  0  0  0
  149.1424  140.1727  158.3075 H   0  0  0  0  0  0  0  0  0  0  0  0
  1  2  1  0  0  0  0
  1 26  1  0  0  0  0
  1 27  1  0  0  0  0
  1 28  1  0  0  0  0
  2 24  1  0  0  0  0
  2  3  2  0  0  0  0
  3  4  1  0  0  0  0
  4  5  1  0  0  0  0
  4 19  1  0  0  0  0
  5  6  1  0  0  0  0
  5 29  1  0  0  0  0
  5 30  1  0  0  0  0
  6  7  2  0  0  0  0
  6  8  1  0  0  0  0
  8  9  1  0  0  0  0
  8 31  1  0  0  0  0
  9 10  2  0  0  0  0
  9 11  1  0  0  0  0
 11 12  1  0  0  0  0
 11 32  1  0  0  0  0
 12 17  1  0  0  0  0
 12 13  1  0  0  0  0
 12 33  1  0  0  0  0
 13 14  1  0  0  0  0
 13 34  1  0  0  0  0
 13 35  1  0  0  0  0
 14 15  1  0  0  0  0
 14 36  1  0  0  0  0
 14 37  1  0  0  0  0
 15 16  1  0  0  0  0
 15 38  1  0  0  0  0
 15 39  1  0  0  0  0
 16 17  1  0  0  0  0
 16 40  1  0  0  0  0
 16 41  1  0  0  0  0
 17 18  1  0  0  0  0
 17 42  1  0  0  0  0
 18 43  1  0  0  0  0
 18 44  1  0  0  0  0
 18 45  1  0  0  0  0
 19 20  2  0  0  0  0
 19 21  1  0  0  0  0
 21 22  1  0  0  0  0
 21 24  2  0  0  0  0
 22 23  3  0  0  0  0
 24 25  1  0  0  0  0
 25 46  1  0  0  0  0
 25 47  1  0  0  0  0
 25 48  1  0  0  0  0
M  END
> <s_m_source_file>
AV-unprocessed.smi

> <i_m_source_file_index>
437

> <i_lp_mmshare_version>
43012

> <i_f3d_flags>
0

> <s_epik_input>
TiNDYyhjMVtDSDNdKWMoPU8pbihuYzFbQ0gzXSlbQ0gyXUMoPU8pW05IXUMoPU8pW05IXVtDQEBIXTJbQ0gyXVtDSDJdW0NIMl1bQ0gyXVtDQEhdMltDSDNd

> <s_epik_cmdline>
J2VwaWtfcHl0aG9uJywgJy1waCcsICc3LjAnLCAnLXRuJywgJzgnLCAnLW1hJywgJzIwMCcsICctbWV0YWxfYmluZGluZycsICctaW1hZScsICc8aW5maWxlLm1hZT4nLCAnLW9tYWUnLCAnPG91dGZpbGUubWFlPic=

> <r_lp_tautomer_probability>
1

> <r_epik_Ionization_Penalty>
3.27035e-05

> <r_epik_Ionization_Penalty_Charging>
1.6965e-11

> <r_epik_Ionization_Penalty_Neutral>
3.27035e-05

> <r_epik_State_Penalty>
-0

> <r_epik_Charging_Adjusted_Penalty>
1.6965e-11

> <i_epik_Tot_Q>
0

> <i_epik_Tot_abs_Q>
0

> <r_epik_Metal_State_Penalty>
-0

> <b_epik_Metal_Only>
0

> <s_lp_Force_Field>
OPLS_2005

> <r_lp_Energy>
26.7465

> <b_lp_Chiralities_Consistent>
1

> <s_lp_Variant>
AV-unprocessed.smi:437-4

> <Gold.Version>
5.8.1

> <Gold.Id.Protein>
6NUR|6NUR_protein|mol2

> <Gold.PLP.Fitness>
47.5288

> <Gold.PLP.PLP>
-35.6233

> <Gold.PLP.part.hbond>
-4.9612

> <Gold.PLP.part.metal>
0.0000

> <Gold.PLP.part.buried>
-5.0921

> <Gold.PLP.part.nonpolar>
-26.4959

> <Gold.PLP.part.repulsive>
0.6929

> <Gold.PLP.ligand.clash>
0.0000

> <Gold.PLP.ligand.torsion>
0.7160

> <Gold.PLP.Chemscore.Hbond>
4.4380

> <Gold.PLP.Chemscore.CHOScore>
0.0000

> <Gold.PLP.Chemscore.Metal>
0.0000

> <Gold.Chemscore.Hbonds>
donor molecule, donor type, donor heavy atom, donor atom, acceptor molecule, acceptor atom, score
      L1  H     8    31       P1  7948  0.94
      L1  H    11    32       P1  7948  1.00
      P1  H  7989  7998       L1    23  0.53
      P1  H  7997  8008       L1    23  0.94
      P1  H 10752 10765       L1    20  0.98

> <Gold.PLP.Chemscore.Internal.Correction>
0.0237

> <Gold.Rescore>
     Score         DG    S(hbond)    S(metal)    S(lipo)     H(rot)  DE(clash)    DE(int)     intcor
     18.11     -21.68       3.72        0.00      66.46       1.57       0.48       3.09       ----

> <Gold.Chemscore.Fitness>
18.1141

> <Gold.Chemscore.DG>
-21.6818

> <Gold.Chemscore.ZeroCoef>
-5.4800

> <Gold.Chemscore.Hbond>
3.7226

> <Gold.Chemscore.Metal>
0.0000

> <Gold.Chemscore.Lipo>
66.4635

> <Gold.Chemscore.Internal_Hbond>
0.0000

> <Gold.Chemscore.DEClash>
0.4802

> <Gold.Chemscore.DEInternal>
3.0875

> <Gold.Chemscore.Rot>
1.5656

> <Gold.Chemscore.Internal.Correction>
   9.000000E+99

> <Gold.Chemscore.Hbonds>
donor molecule, donor type, donor heavy atom, donor atom, acceptor molecule, acceptor atom, score
      L1  H     8    31       P1  7948  0.79
      L1  H    11    32       P1  7948  0.99
      P1  H  7989  7998       L1    23  0.40
      P1  H  7997  8008       L1    23  0.79
      P1  H 10752 10765       L1    20  0.93

> <Gold.Chemscore.Hbond.Weighted>
-12.4334

> <Gold.Chemscore.Metal.Weighted>
-0.0000

> <Gold.Chemscore.Lipo.Weighted>
-7.7762

> <Gold.Chemscore.Internal_Hbond.Weighted>
0.0000

> <Gold.Chemscore.DEClash.Weighted>
0.4802

> <Gold.Chemscore.DEInternal.Weighted>
3.0875

> <Gold.Chemscore.Rot.Weighted>
4.0079

> <Gold.Chemscore.Internal.Correction.Weighted>
   9.000000E+99

> <Gold.Protein.RotatedTorsions>
[ 6907 6896 6895 6894 ] final -104.50 input  -60.11 | X-H torsion
[ 7974 7965 7964 7962 ] final  -71.91 input  175.53 | X-H torsion
[ 8008 7997 7996 7995 ] final  -25.00 input   59.86 | X-H torsion
[ 10167 10162 10161 10158 ] final -133.43 input  -65.29 | X-H torsion
[ 10718 10713 10712 10709 ] final  -32.93 input   66.30 | X-H torsion
[ 10763 10752 10751 10750 ] final  149.79 input  -60.55 | X-H torsion
[ 11005 11000 10999 10996 ] final -153.70 input  -57.11 | X-H torsion

> <Gold.Protein.ActiveResidues>
 VAL166  LYS551  ARG553  GLY616  TRP617  ASP618  TYR619  PRO620  LYS621  CYS622 
 ASP623  PHE694  ASN695  SER759  ASP760  ASP761  ALA762  ILE779  LEU786  VAL792 
 PHE793  MET794  SER795  GLU796  ALA797  LYS798  CYS799  TRP800  GLU811  SER814 

> <Gold.Protein.RotatedAtoms>
  150.7290  134.0269  159.3719 H   0  0  0  0  0  0  0  0  0  0  0  0  # atno 6907 bound_to 6896
  151.8236  135.0642  160.0437 H   0  0  0  0  0  0  0  0  0  0  0  0  # atno 6908 bound_to 6896
  152.2985  133.5596  159.5640 H   0  0  0  0  0  0  0  0  0  0  0  0  # atno 6909 bound_to 6896
  145.6720  140.9218  143.0878 H   0  0  0  0  0  0  0  0  0  0  0  0  # atno 7974 bound_to 7965
  154.4499  140.1938  156.0552 H   0  0  0  0  0  0  0  0  0  0  0  0  # atno 8008 bound_to 7997
  156.0624  140.3295  155.7450 H   0  0  0  0  0  0  0  0  0  0  0  0  # atno 8009 bound_to 7997
  155.5391  140.0585  157.2864 H   0  0  0  0  0  0  0  0  0  0  0  0  # atno 8010 bound_to 7997
  139.8984  143.6637  152.2599 H   0  0  0  0  0  0  0  0  0  0  0  0  # atno 10167 bound_to 10162
  156.3688  130.4336  149.7562 H   0  0  0  0  0  0  0  0  0  0  0  0  # atno 10718 bound_to 10713
  154.0768  135.2862  155.3298 H   0  0  0  0  0  0  0  0  0  0  0  0  # atno 10763 bound_to 10752
  154.6710  135.5299  153.8141 H   0  0  0  0  0  0  0  0  0  0  0  0  # atno 10764 bound_to 10752
  153.0464  135.6557  154.0946 H   0  0  0  0  0  0  0  0  0  0  0  0  # atno 10765 bound_to 10752
  140.7053  134.3892  157.5205 H   0  0  0  0  0  0  0  0  0  0  0  0  # atno 11005 bound_to 11000
  144.7054  139.8584  143.7431 LP  0  0  0  0  0  0  0  0  0  0  0  0  # atno 17320 bound_to 7965
  146.1037  139.4035  143.0330 LP  0  0  0  0  0  0  0  0  0  0  0  0  # atno 17321 bound_to 7965
  139.7047  144.7630  151.1213 LP  0  0  0  0  0  0  0  0  0  0  0  0  # atno 17342 bound_to 10162
  140.7712  143.5410  150.9312 LP  0  0  0  0  0  0  0  0  0  0  0  0  # atno 17343 bound_to 10162
  156.4697  130.7991  151.3009 LP  0  0  0  0  0  0  0  0  0  0  0  0  # atno 17370 bound_to 10713
  157.7482  131.0040  150.3058 LP  0  0  0  0  0  0  0  0  0  0  0  0  # atno 17371 bound_to 10713
  139.8886  134.8852  156.2466 LP  0  0  0  0  0  0  0  0  0  0  0  0  # atno 17394 bound_to 11000
  141.0130  133.7085  156.1142 LP  0  0  0  0  0  0  0  0  0  0  0  0  # atno 17395 bound_to 11000

$$$$
