AV-unprocessed.smi:1572|AV-procd|sdf|6327|dock4
  -GOLD-   22720 6533D 1   1.00000     0.00000
 Structure written by MMmdl.
 43 44  0  0  0  0  0  0  0  0  2 V2000
  143.8274  132.7099  150.0511 C   0  0  0  0  0  0  0  0  0  0  0  0
  145.0778  133.4993  149.9632 N   0  3  0  0  0  0  0  0  0  0  0  0
  146.3068  132.7048  150.1865 C   0  0  0  0  0  0  0  0  0  0  0  0
  146.5111  132.3881  151.6817 C   0  0  0  0  0  0  0  0  0  0  0  0
  146.6013  133.6333  152.4623 N   0  0  0  0  0  0  0  0  0  0  0  0
  147.0433  133.4537  153.8721 C   0  0  0  0  0  0  0  0  0  0  0  0
  146.1715  132.3676  154.5524 C   0  0  0  0  0  0  0  0  0  0  0  0
  148.5264  133.0203  153.9595 C   0  0  0  0  0  0  0  0  0  0  0  0
  146.8676  134.7779  154.6750 C   0  0  0  0  0  0  0  0  0  0  0  0
  147.7214  135.8640  154.1931 N   0  0  0  0  0  0  0  0  0  0  0  0
  147.9752  137.0092  154.8424 C   0  0  0  0  0  0  0  0  0  0  0  0
  147.5164  137.2784  155.9523 O   0  0  0  0  0  0  0  0  0  0  0  0
  148.7772  137.8069  154.1190 N   0  0  0  0  0  0  0  0  0  0  0  0
  149.2596  139.0958  154.4567 C   0  0  0  0  0  0  0  0  0  0  0  0
  150.5566  139.2202  154.7617 N   0  0  0  0  0  0  0  0  0  0  0  0
  150.8944  140.5315  155.0731 N   0  0  0  0  0  0  0  0  0  0  0  0
  149.8373  141.3452  154.9911 C   0  0  0  0  0  0  0  0  0  0  0  0
  148.3229  140.5914  154.5249 S   0  0  0  0  0  0  0  0  0  0  0  0
  145.3232  134.3475  152.3013 C   0  0  0  0  0  0  0  0  0  0  0  0
  145.0880  134.7065  150.8202 C   0  0  0  0  0  0  0  0  0  0  0  0
  143.6739  132.2962  151.0477 H   0  0  0  0  0  0  0  0  0  0  0  0
  143.8490  131.8828  149.3410 H   0  0  0  0  0  0  0  0  0  0  0  0
  142.9658  133.3319  149.8066 H   0  0  0  0  0  0  0  0  0  0  0  0
  146.2666  131.7846  149.6023 H   0  0  0  0  0  0  0  0  0  0  0  0
  147.1619  133.2695  149.8118 H   0  0  0  0  0  0  0  0  0  0  0  0
  145.7031  131.7567  152.0518 H   0  0  0  0  0  0  0  0  0  0  0  0
  147.4261  131.8056  151.7617 H   0  0  0  0  0  0  0  0  0  0  0  0
  146.3159  132.3680  155.6333 H   0  0  0  0  0  0  0  0  0  0  0  0
  146.4209  131.3603  154.2197 H   0  0  0  0  0  0  0  0  0  0  0  0
  145.1080  132.5255  154.3689 H   0  0  0  0  0  0  0  0  0  0  0  0
  148.8251  132.8845  154.9997 H   0  0  0  0  0  0  0  0  0  0  0  0
  149.2010  133.7641  153.5360 H   0  0  0  0  0  0  0  0  0  0  0  0
  148.7140  132.0726  153.4557 H   0  0  0  0  0  0  0  0  0  0  0  0
  145.8203  135.0847  154.6568 H   0  0  0  0  0  0  0  0  0  0  0  0
  147.0784  134.6299  155.7336 H   0  0  0  0  0  0  0  0  0  0  0  0
  148.1394  135.7357  153.2834 H   0  0  0  0  0  0  0  0  0  0  0  0
  149.0733  137.4562  153.2204 H   0  0  0  0  0  0  0  0  0  0  0  0
  149.9506  142.3971  155.2074 H   0  0  0  0  0  0  0  0  0  0  0  0
  144.4954  133.7509  152.6847 H   0  0  0  0  0  0  0  0  0  0  0  0
  145.3212  135.2825  152.8572 H   0  0  0  0  0  0  0  0  0  0  0  0
  145.8791  135.3740  150.4755 H   0  0  0  0  0  0  0  0  0  0  0  0
  144.1519  135.2539  150.7035 H   0  0  0  0  0  0  0  0  0  0  0  0
  145.1193  133.8271  149.0087 H   0  0  0  0  0  0  0  0  0  0  0  0
  1  2  1  0  0  0  0
  1 21  1  0  0  0  0
  1 22  1  0  0  0  0
  1 23  1  0  0  0  0
  2 20  1  0  0  0  0
  2  3  1  0  0  0  0
  2 43  1  0  0  0  0
  3  4  1  0  0  0  0
  3 24  1  0  0  0  0
  3 25  1  0  0  0  0
  4  5  1  0  0  0  0
  4 26  1  0  0  0  0
  4 27  1  0  0  0  0
  5  6  1  0  0  0  0
  5 19  1  0  0  0  0
  6  7  1  0  0  0  0
  6  8  1  0  0  0  0
  6  9  1  0  0  0  0
  7 28  1  0  0  0  0
  7 29  1  0  0  0  0
  7 30  1  0  0  0  0
  8 31  1  0  0  0  0
  8 32  1  0  0  0  0
  8 33  1  0  0  0  0
  9 10  1  0  0  0  0
  9 34  1  0  0  0  0
  9 35  1  0  0  0  0
 10 11  1  0  0  0  0
 10 36  1  0  0  0  0
 11 12  2  0  0  0  0
 11 13  1  0  0  0  0
 13 14  1  0  0  0  0
 13 37  1  0  0  0  0
 14 18  1  0  0  0  0
 14 15  2  0  0  0  0
 15 16  1  0  0  0  0
 16 17  2  0  0  0  0
 17 18  1  0  0  0  0
 17 38  1  0  0  0  0
 19 20  1  0  0  0  0
 19 39  1  0  0  0  0
 19 40  1  0  0  0  0
 20 41  1  0  0  0  0
 20 42  1  0  0  0  0
M  CHG  1   2   1
M  END
> <s_m_source_file>
AV-unprocessed.smi

> <i_m_source_file_index>
1572

> <i_lp_mmshare_version>
43012

> <i_f3d_flags>
0

> <s_epik_input>
W0NIM11OMVtDSDJdW0NIMl1OKFtDSDJdW0NIMl0xKUMoW0NIM10pKFtDSDNdKVtDSDJdW05IXUMoPU8pW05IXWMybm5bY0hdczI=

> <s_epik_cmdline>
J2VwaWtfcHl0aG9uJywgJy1waCcsICc3LjAnLCAnLXRuJywgJzgnLCAnLW1hJywgJzIwMCcsICctbWV0YWxfYmluZGluZycsICctaW1hZScsICc8aW5maWxlLm1hZT4nLCAnLW9tYWUnLCAnPG91dGZpbGUubWFlPic=

> <r_lp_tautomer_probability>
1

> <r_epik_Ionization_Penalty>
0.0267369

> <r_epik_Ionization_Penalty_Charging>
0.0242302

> <r_epik_Ionization_Penalty_Neutral>
0.00250668

> <r_epik_State_Penalty>
0.128805

> <r_epik_Charging_Adjusted_Penalty>
0.153036

> <i_epik_Tot_Q>
1

> <i_epik_Tot_abs_Q>
1

> <r_epik_Metal_State_Penalty>
0.462629

> <b_epik_Metal_Only>
0

> <s_lp_Force_Field>
OPLS_2005

> <r_lp_Energy>
23.6119

> <b_lp_Chiralities_Consistent>
1

> <s_lp_Variant>
AV-unprocessed.smi:1572-1

> <Gold.Version>
5.8.1

> <Gold.Id.Protein>
6NUR|6NUR_protein|mol2

> <Gold.PLP.Fitness>
41.2068

> <Gold.PLP.PLP>
-29.1043

> <Gold.PLP.part.hbond>
-4.0427

> <Gold.PLP.part.metal>
0.0000

> <Gold.PLP.part.buried>
-2.8341

> <Gold.PLP.part.nonpolar>
-21.8985

> <Gold.PLP.part.repulsive>
0.4149

> <Gold.PLP.ligand.clash>
0.0000

> <Gold.PLP.ligand.torsion>
0.9828

> <Gold.PLP.Chemscore.Hbond>
3.6760

> <Gold.PLP.Chemscore.CHOScore>
1.0000

> <Gold.PLP.Chemscore.Metal>
0.0000

> <Gold.Chemscore.Hbonds>
donor molecule, donor type, donor heavy atom, donor atom, acceptor molecule, acceptor atom, score
      L1  H     2    43       P1  7921  0.96
      L1  H    10    36       P1  7948  1.00
      L1  H    13    37       P1  7948  1.00
      P1  H  7989  7998       L1    16  0.71
      L1  C    17    38       P1  8028  0.85

> <Gold.PLP.Chemscore.Internal.Correction>
0.0401

> <Gold.Rescore>
     Score         DG    S(hbond)    S(metal)    S(lipo)     H(rot)  DE(clash)    DE(int)     intcor
     17.19     -18.03       2.87        0.00      62.44       1.70       0.07       0.77       ----

> <Gold.Chemscore.Fitness>
17.1894

> <Gold.Chemscore.DG>
-18.0294

> <Gold.Chemscore.ZeroCoef>
-5.4800

> <Gold.Chemscore.Hbond>
2.8696

> <Gold.Chemscore.Metal>
0.0000

> <Gold.Chemscore.Lipo>
62.4430

> <Gold.Chemscore.Internal_Hbond>
0.0000

> <Gold.Chemscore.DEClash>
0.0650

> <Gold.Chemscore.DEInternal>
0.7750

> <Gold.Chemscore.Rot>
1.6956

> <Gold.Chemscore.Internal.Correction>
   9.000000E+99

> <Gold.Chemscore.Hbonds>
donor molecule, donor type, donor heavy atom, donor atom, acceptor molecule, acceptor atom, score
      L1  H     2    43       P1  7921  0.82
      L1  H    10    36       P1  7948  0.98
      L1  H    13    37       P1  7948  0.96
      P1  H  7989  7998       L1    16  0.02

> <Gold.Chemscore.Hbond.Weighted>
-9.5844

> <Gold.Chemscore.Metal.Weighted>
-0.0000

> <Gold.Chemscore.Lipo.Weighted>
-7.3058

> <Gold.Chemscore.Internal_Hbond.Weighted>
0.0000

> <Gold.Chemscore.DEClash.Weighted>
0.0650

> <Gold.Chemscore.DEInternal.Weighted>
0.7750

> <Gold.Chemscore.Rot.Weighted>
4.3407

> <Gold.Chemscore.Internal.Correction.Weighted>
   9.000000E+99

> <Gold.Protein.RotatedTorsions>
[ 6907 6896 6895 6894 ] final  162.79 input  -60.11 | X-H torsion
[ 7974 7965 7964 7962 ] final -147.58 input  175.53 | X-H torsion
[ 8008 7997 7996 7995 ] final   62.13 input   59.86 | X-H torsion
[ 10167 10162 10161 10158 ] final  101.08 input  -65.29 | X-H torsion
[ 10718 10713 10712 10709 ] final  175.51 input   66.30 | X-H torsion
[ 10763 10752 10751 10750 ] final -130.46 input  -60.55 | X-H torsion
[ 11005 11000 10999 10996 ] final   22.31 input  -57.11 | X-H torsion

> <Gold.Protein.ActiveResidues>
 VAL166  LYS551  ARG553  GLY616  TRP617  ASP618  TYR619  PRO620  LYS621  CYS622 
 ASP623  PHE694  ASN695  SER759  ASP760  ASP761  ALA762  ILE779  LEU786  VAL792 
 PHE793  MET794  SER795  GLU796  ALA797  LYS798  CYS799  TRP800  GLU811  SER814 

> <Gold.Protein.RotatedAtoms>
  151.9350  133.3622  159.3944 H   0  0  0  0  0  0  0  0  0  0  0  0  # atno 6907 bound_to 6896
  150.7009  134.4498  159.5340 H   0  0  0  0  0  0  0  0  0  0  0  0  # atno 6908 bound_to 6896
  152.2145  134.8470  160.0544 H   0  0  0  0  0  0  0  0  0  0  0  0  # atno 6909 bound_to 6896
  144.8084  140.5308  143.5659 H   0  0  0  0  0  0  0  0  0  0  0  0  # atno 7974 bound_to 7965
  155.6094  140.3495  155.4617 H   0  0  0  0  0  0  0  0  0  0  0  0  # atno 8008 bound_to 7997
  156.0166  140.1244  157.0424 H   0  0  0  0  0  0  0  0  0  0  0  0  # atno 8009 bound_to 7997
  154.4300  140.1071  156.5891 H   0  0  0  0  0  0  0  0  0  0  0  0  # atno 8010 bound_to 7997
  139.7470  144.6995  151.0489 H   0  0  0  0  0  0  0  0  0  0  0  0  # atno 10167 bound_to 10162
  156.9338  130.9979  151.2982 H   0  0  0  0  0  0  0  0  0  0  0  0  # atno 10718 bound_to 10713
  154.8755  135.3862  154.4087 H   0  0  0  0  0  0  0  0  0  0  0  0  # atno 10763 bound_to 10752
  153.4804  135.7030  153.5947 H   0  0  0  0  0  0  0  0  0  0  0  0  # atno 10764 bound_to 10752
  153.4365  135.3866  155.2170 H   0  0  0  0  0  0  0  0  0  0  0  0  # atno 10765 bound_to 10752
  140.3819  134.1911  155.7663 H   0  0  0  0  0  0  0  0  0  0  0  0  # atno 11005 bound_to 11000
  145.5382  139.1475  143.3462 LP  0  0  0  0  0  0  0  0  0  0  0  0  # atno 17320 bound_to 7965
  146.2379  140.5522  142.8947 LP  0  0  0  0  0  0  0  0  0  0  0  0  # atno 17321 bound_to 7965
  140.7793  143.4855  150.9962 LP  0  0  0  0  0  0  0  0  0  0  0  0  # atno 17342 bound_to 10162
  139.8543  143.7397  152.3176 LP  0  0  0  0  0  0  0  0  0  0  0  0  # atno 17343 bound_to 10162
  157.5830  130.8389  149.8549 LP  0  0  0  0  0  0  0  0  0  0  0  0  # atno 17370 bound_to 10713
  156.0435  130.3733  150.1375 LP  0  0  0  0  0  0  0  0  0  0  0  0  # atno 17371 bound_to 10713
  141.1920  133.8182  157.0855 LP  0  0  0  0  0  0  0  0  0  0  0  0  # atno 17394 bound_to 11000
  140.0472  134.9824  157.1070 LP  0  0  0  0  0  0  0  0  0  0  0  0  # atno 17395 bound_to 11000

$$$$
