AV-unprocessed.smi:183|AV-procd|sdf|1457|dock4
  -GOLD-   2262019263D 1   1.00000     0.00000
 Structure written by MMmdl.
 55 57  0  0  0  0  0  0  0  0  1 V2000
  141.7649  135.9852  162.5016 C   0  0  0  0  0  0  0  0  0  0  0  0
  143.2721  136.1700  162.3636 C   0  0  0  0  0  0  0  0  0  0  0  0
  144.0368  135.2525  162.6606 O   0  0  0  0  0  0  0  0  0  0  0  0
  143.6847  137.3629  161.9095 N   0  0  0  0  0  0  0  0  0  0  0  0
  145.0770  137.7436  161.7111 C   0  0  0  0  0  0  0  0  0  0  0  0
  145.7586  136.8418  160.6630 C   0  0  0  0  0  0  0  0  0  0  0  0
  147.1796  136.6026  160.9311 N   0  0  0  0  0  0  0  0  0  0  0  0
  147.8106  136.0931  159.8447 C   0  0  0  0  0  0  0  0  0  0  0  0
  147.3794  134.8911  159.3863 N   0  0  0  0  0  0  0  0  0  0  0  0
  147.9640  134.3294  158.3241 C   0  0  0  0  0  0  0  0  0  0  0  0
  148.9795  134.7884  157.5899 N   0  0  0  0  0  0  0  0  0  0  0  0
  149.4225  135.9923  158.0533 C   0  0  0  0  0  0  0  0  0  0  0  0
  148.9028  136.7094  159.1677 C   0  0  0  0  0  0  0  0  0  0  0  0
  149.6197  137.8869  159.3468 N   0  0  0  0  0  0  0  0  0  0  0  0
  150.5069  137.8694  158.3907 C   0  0  0  0  0  0  0  0  0  0  0  0
  150.4539  136.7726  157.5606 N   0  0  0  0  0  0  0  0  0  0  0  0
  151.3157  136.4989  156.4210 C   0  0  0  0  0  0  0  0  0  0  0  0
  150.8676  137.2169  155.1208 C   0  0  1  0  0  0  0  0  0  0  0  0
  150.8892  136.2705  154.0652 O   0  0  0  0  0  0  0  0  0  0  0  0
  149.4563  137.7943  155.1977 C   0  0  0  0  0  0  0  0  0  0  0  0
  149.5173  138.9798  154.2467 C   0  0  0  0  0  0  0  0  0  0  0  0
  150.8027  139.5132  154.5087 O   0  0  0  0  0  0  0  0  0  0  0  0
  151.7230  138.4378  154.6778 C   0  0  1  0  0  0  0  0  0  0  0  0
  152.8156  138.9090  155.6508 C   0  0  0  0  0  0  0  0  0  0  0  0
  147.6147  136.1362  162.2593 C   0  0  0  0  0  0  0  0  0  0  0  0
  146.7724  134.9443  162.7520 C   0  0  0  0  0  0  0  0  0  0  0  0
  147.5601  137.2536  163.3247 C   0  0  0  0  0  0  0  0  0  0  0  0
  141.2932  135.9712  161.5188 H   0  0  0  0  0  0  0  0  0  0  0  0
  141.3304  136.7991  163.0828 H   0  0  0  0  0  0  0  0  0  0  0  0
  141.5341  135.0463  163.0057 H   0  0  0  0  0  0  0  0  0  0  0  0
  142.9847  138.0560  161.6878 H   0  0  0  0  0  0  0  0  0  0  0  0
  145.0962  138.7842  161.3883 H   0  0  0  0  0  0  0  0  0  0  0  0
  145.6051  137.7042  162.6646 H   0  0  0  0  0  0  0  0  0  0  0  0
  145.2346  135.8859  160.6109 H   0  0  0  0  0  0  0  0  0  0  0  0
  145.6500  137.2772  159.6699 H   0  0  0  0  0  0  0  0  0  0  0  0
  147.5609  133.3748  158.0193 H   0  0  0  0  0  0  0  0  0  0  0  0
  151.2277  138.6637  158.2627 H   0  0  0  0  0  0  0  0  0  0  0  0
  152.3263  136.8020  156.6955 H   0  0  0  0  0  0  0  0  0  0  0  0
  151.3472  135.4193  156.2689 H   0  0  0  0  0  0  0  0  0  0  0  0
  150.0943  136.3637  153.5626 H   0  0  0  0  0  0  0  0  0  0  0  0
  148.6712  137.0800  154.9451 H   0  0  0  0  0  0  0  0  0  0  0  0
  149.2569  138.1647  156.2039 H   0  0  0  0  0  0  0  0  0  0  0  0
  149.4548  138.6563  153.2065 H   0  0  0  0  0  0  0  0  0  0  0  0
  148.7311  139.7119  154.4316 H   0  0  0  0  0  0  0  0  0  0  0  0
  152.1869  138.2455  153.7084 H   0  0  0  0  0  0  0  0  0  0  0  0
  153.5644  138.1341  155.8151 H   0  0  0  0  0  0  0  0  0  0  0  0
  152.3970  139.1919  156.6169 H   0  0  0  0  0  0  0  0  0  0  0  0
  153.3331  139.7819  155.2528 H   0  0  0  0  0  0  0  0  0  0  0  0
  148.6466  135.7946  162.1809 H   0  0  0  0  0  0  0  0  0  0  0  0
  147.0676  134.6451  163.7580 H   0  0  0  0  0  0  0  0  0  0  0  0
  146.8978  134.0675  162.1170 H   0  0  0  0  0  0  0  0  0  0  0  0
  145.7109  135.1930  162.7794 H   0  0  0  0  0  0  0  0  0  0  0  0
  147.8504  136.8727  164.3040 H   0  0  0  0  0  0  0  0  0  0  0  0
  146.5530  137.6619  163.4153 H   0  0  0  0  0  0  0  0  0  0  0  0
  148.2343  138.0797  163.1009 H   0  0  0  0  0  0  0  0  0  0  0  0
  1  2  1  0  0  0  0
  1 28  1  0  0  0  0
  1 29  1  0  0  0  0
  1 30  1  0  0  0  0
  2  3  2  0  0  0  0
  2  4  1  0  0  0  0
  4  5  1  0  0  0  0
  4 31  1  0  0  0  0
  5  6  1  0  0  0  0
  5 32  1  0  0  0  0
  5 33  1  0  0  0  0
  6  7  1  0  0  0  0
  6 34  1  0  0  0  0
  6 35  1  0  0  0  0
  7  8  1  0  0  0  0
  7 25  1  0  0  0  0
  8 13  1  0  0  0  0
  8  9  2  0  0  0  0
  9 10  1  0  0  0  0
 10 11  2  0  0  0  0
 10 36  1  0  0  0  0
 11 12  1  0  0  0  0
 12 16  1  0  0  0  0
 12 13  2  0  0  0  0
 13 14  1  0  0  0  0
 14 15  2  0  0  0  0
 15 16  1  0  0  0  0
 15 37  1  0  0  0  0
 16 17  1  0  0  0  0
 17 18  1  0  0  0  0
 17 38  1  0  0  0  0
 17 39  1  0  0  0  0
 18 23  1  0  0  0  0
 18 19  1  0  0  0  0
 18 20  1  0  0  0  0
 19 40  1  0  0  0  0
 20 21  1  0  0  0  0
 20 41  1  0  0  0  0
 20 42  1  0  0  0  0
 21 22  1  0  0  0  0
 21 43  1  0  0  0  0
 21 44  1  0  0  0  0
 22 23  1  0  0  0  0
 23 24  1  0  0  0  0
 23 45  1  0  0  0  0
 24 46  1  0  0  0  0
 24 47  1  0  0  0  0
 24 48  1  0  0  0  0
 25 26  1  0  0  0  0
 25 27  1  0  0  0  0
 25 49  1  0  0  0  0
 26 50  1  0  0  0  0
 26 51  1  0  0  0  0
 26 52  1  0  0  0  0
 27 53  1  0  0  0  0
 27 54  1  0  0  0  0
 27 55  1  0  0  0  0
M  END
> <s_m_source_file>
AV-unprocessed.smi

> <i_m_source_file_index>
183

> <i_lp_mmshare_version>
43012

> <i_f3d_flags>
0

> <s_epik_input>
W0NIM11DKD1PKVtOSF1bQ0gyXVtDSDJdTihbQ0hdKFtDSDNdKVtDSDNdKWMobltjSF1uMSljKGMxMiluW2NIXW4yW0NIMl1bQ0BAXTMoW09IXSlbQ0gyXVtDSDJdT1tDQEhdM1tDSDNd

> <s_epik_cmdline>
J2VwaWtfcHl0aG9uJywgJy1waCcsICc3LjAnLCAnLXRuJywgJzgnLCAnLW1hJywgJzIwMCcsICctbWV0YWxfYmluZGluZycsICctaW1hZScsICc8aW5maWxlLm1hZT4nLCAnLW9tYWUnLCAnPG91dGZpbGUubWFlPic=

> <r_lp_tautomer_probability>
1

> <r_epik_Ionization_Penalty>
0.00156158

> <r_epik_Ionization_Penalty_Charging>
0

> <r_epik_Ionization_Penalty_Neutral>
0.00156158

> <r_epik_State_Penalty>
0.000865808

> <r_epik_Charging_Adjusted_Penalty>
0.000865808

> <i_epik_Tot_Q>
0

> <i_epik_Tot_abs_Q>
0

> <r_epik_Metal_State_Penalty>
-0

> <b_epik_Metal_Only>
0

> <s_lp_Force_Field>
OPLS_2005

> <r_lp_Energy>
29.4164

> <b_lp_Chiralities_Consistent>
1

> <s_lp_Variant>
AV-unprocessed.smi:183-1

> <Gold.Version>
5.8.1

> <Gold.Id.Protein>
6NUR|6NUR_protein|mol2

> <Gold.PLP.Fitness>
44.9796

> <Gold.PLP.PLP>
-41.5778

> <Gold.PLP.part.hbond>
-4.8007

> <Gold.PLP.part.metal>
0.0000

> <Gold.PLP.part.buried>
-3.8140

> <Gold.PLP.part.nonpolar>
-33.7842

> <Gold.PLP.part.repulsive>
0.3190

> <Gold.PLP.ligand.clash>
0.0000

> <Gold.PLP.ligand.torsion>
2.4900

> <Gold.PLP.Chemscore.Hbond>
2.4203

> <Gold.PLP.Chemscore.CHOScore>
0.0000

> <Gold.PLP.Chemscore.Metal>
0.0000

> <Gold.Chemscore.Hbonds>
donor molecule, donor type, donor heavy atom, donor atom, acceptor molecule, acceptor atom, score
      L1  H    19    40       P1  7948  0.65
      P1  H  7989  7998       L1    22  1.00
      P1  H 10752 10763       L1    19  0.68

> <Gold.PLP.Chemscore.Internal.Correction>
1.1212

> <Gold.Rescore>
     Score         DG    S(hbond)    S(metal)    S(lipo)     H(rot)  DE(clash)    DE(int)     intcor
      6.14      -9.62       1.05        0.00      80.93       3.45       0.19       3.29       ----

> <Gold.Chemscore.Fitness>
6.1355

> <Gold.Chemscore.DG>
-9.6210

> <Gold.Chemscore.ZeroCoef>
-5.4800

> <Gold.Chemscore.Hbond>
1.0453

> <Gold.Chemscore.Metal>
0.0000

> <Gold.Chemscore.Lipo>
80.9328

> <Gold.Chemscore.Internal_Hbond>
0.0000

> <Gold.Chemscore.DEClash>
0.1918

> <Gold.Chemscore.DEInternal>
3.2937

> <Gold.Chemscore.Rot>
3.4451

> <Gold.Chemscore.Internal.Correction>
   9.000000E+99

> <Gold.Chemscore.Hbonds>
donor molecule, donor type, donor heavy atom, donor atom, acceptor molecule, acceptor atom, score
      L1  H    19    40       P1  7948  0.05
      P1  H  7989  7998       L1    22  0.70
      P1  H 10752 10763       L1    19  0.15

> <Gold.Chemscore.Hbond.Weighted>
-3.4913

> <Gold.Chemscore.Metal.Weighted>
-0.0000

> <Gold.Chemscore.Lipo.Weighted>
-9.4691

> <Gold.Chemscore.Internal_Hbond.Weighted>
0.0000

> <Gold.Chemscore.DEClash.Weighted>
0.1918

> <Gold.Chemscore.DEInternal.Weighted>
3.2937

> <Gold.Chemscore.Rot.Weighted>
8.8194

> <Gold.Chemscore.Internal.Correction.Weighted>
   9.000000E+99

> <Gold.Protein.RotatedTorsions>
[ 6907 6896 6895 6894 ] final  -87.83 input  -60.11 | X-H torsion
[ 7974 7965 7964 7962 ] final  -40.64 input  175.53 | X-H torsion
[ 8008 7997 7996 7995 ] final -163.28 input   59.86 | X-H torsion
[ 10167 10162 10161 10158 ] final   84.85 input  -65.29 | X-H torsion
[ 10718 10713 10712 10709 ] final  140.52 input   66.30 | X-H torsion
[ 10763 10752 10751 10750 ] final   37.49 input  -60.55 | X-H torsion
[ 11005 11000 10999 10996 ] final   61.58 input  -57.11 | X-H torsion

> <Gold.Protein.ActiveResidues>
 VAL166  LYS551  ARG553  GLY616  TRP617  ASP618  TYR619  PRO620  LYS621  CYS622 
 ASP623  PHE694  ASN695  SER759  ASP760  ASP761  ALA762  ILE779  LEU786  VAL792 
 PHE793  MET794  SER795  GLU796  ALA797  LYS798  CYS799  TRP800  GLU811  SER814 

> <Gold.Protein.RotatedAtoms>
  150.6867  134.2835  159.4636 H   0  0  0  0  0  0  0  0  0  0  0  0  # atno 6907 bound_to 6896
  152.0747  134.9508  160.0583 H   0  0  0  0  0  0  0  0  0  0  0  0  # atno 6908 bound_to 6896
  152.0884  133.4153  159.4569 H   0  0  0  0  0  0  0  0  0  0  0  0  # atno 6909 bound_to 6896
  146.0286  140.6760  142.9143 H   0  0  0  0  0  0  0  0  0  0  0  0  # atno 7974 bound_to 7965
  155.8190  140.0917  157.1860 H   0  0  0  0  0  0  0  0  0  0  0  0  # atno 8008 bound_to 7997
  154.3979  140.1440  156.3537 H   0  0  0  0  0  0  0  0  0  0  0  0  # atno 8009 bound_to 7997
  155.8286  140.3443  155.5561 H   0  0  0  0  0  0  0  0  0  0  0  0  # atno 8010 bound_to 7997
  139.9038  144.6313  150.8609 H   0  0  0  0  0  0  0  0  0  0  0  0  # atno 10167 bound_to 10162
  157.4023  131.1018  151.0539 H   0  0  0  0  0  0  0  0  0  0  0  0  # atno 10718 bound_to 10713
  153.0036  135.6276  154.2153 H   0  0  0  0  0  0  0  0  0  0  0  0  # atno 10763 bound_to 10752
  154.1896  135.2809  155.3028 H   0  0  0  0  0  0  0  0  0  0  0  0  # atno 10764 bound_to 10752
  154.5770  135.5659  153.7208 H   0  0  0  0  0  0  0  0  0  0  0  0  # atno 10765 bound_to 10752
  140.0151  134.6237  155.9721 H   0  0  0  0  0  0  0  0  0  0  0  0  # atno 11005 bound_to 11000
  144.7020  140.3695  143.7148 LP  0  0  0  0  0  0  0  0  0  0  0  0  # atno 17320 bound_to 7965
  145.7077  139.1677  143.2556 LP  0  0  0  0  0  0  0  0  0  0  0  0  # atno 17321 bound_to 7965
  140.7701  143.3417  151.2195 LP  0  0  0  0  0  0  0  0  0  0  0  0  # atno 17342 bound_to 10162
  139.7002  143.9545  152.2902 LP  0  0  0  0  0  0  0  0  0  0  0  0  # atno 17343 bound_to 10162
  157.1533  130.6193  149.5589 LP  0  0  0  0  0  0  0  0  0  0  0  0  # atno 17370 bound_to 10713
  155.9827  130.4842  150.6893 LP  0  0  0  0  0  0  0  0  0  0  0  0  # atno 17371 bound_to 10713
  141.1737  133.6539  156.4749 LP  0  0  0  0  0  0  0  0  0  0  0  0  # atno 17394 bound_to 11000
  140.4485  134.6951  157.5027 LP  0  0  0  0  0  0  0  0  0  0  0  0  # atno 17395 bound_to 11000

$$$$
