AV-unprocessed.smi:1644|AV-procd|sdf|6584|dock1
  -GOLD-   22720 7273D 1   1.00000     0.00000
 Structure written by MMmdl.
 49 51  0  0  0  0  0  0  0  0  1 V2000
  155.8786  139.9565  171.5093 C   0  0  0  0  0  0  0  0  0  0  0  0
  156.1953  140.8160  170.2805 C   0  0  0  0  0  0  0  0  0  0  0  0
  157.4030  140.2887  169.4892 C   0  0  0  0  0  0  0  0  0  0  0  0
  157.6023  141.0002  168.1363 C   0  0  2  0  0  0  0  0  0  0  0  0
  157.8024  142.4288  168.2788 N   0  0  0  0  0  0  0  0  0  0  0  0
  156.8652  143.1457  167.6459 C   0  0  0  0  0  0  0  0  0  0  0  0
  156.8092  144.3743  167.6211 O   0  0  0  0  0  0  0  0  0  0  0  0
  156.0054  142.2946  167.0576 N   0  0  0  0  0  0  0  0  0  0  0  0
  154.8240  142.7089  166.2938 C   0  0  0  0  0  0  0  0  0  0  0  0
  154.9135  142.2797  164.8149 C   0  0  2  0  0  0  0  0  0  0  0  0
  156.1422  142.7369  164.2838 O   0  0  0  0  0  0  0  0  0  0  0  0
  153.7643  142.8771  163.9802 C   0  0  0  0  0  0  0  0  0  0  0  0
  153.7089  142.3280  162.6369 N   0  0  0  0  0  0  0  0  0  0  0  0
  154.2656  141.1789  162.2086 C   0  0  0  0  0  0  0  0  0  0  0  0
  154.0968  140.8605  160.9284 N   0  0  0  0  0  0  0  0  0  0  0  0
  153.3417  141.9277  160.4727 C   0  0  0  0  0  0  0  0  0  0  0  0
  152.8258  142.2034  159.1876 C   0  0  0  0  0  0  0  0  0  0  0  0
  152.0730  143.3744  158.9445 C   0  0  0  0  0  0  0  0  0  0  0  0
  151.5399  143.6332  157.5465 C   0  0  0  0  0  0  0  0  0  0  0  0
  151.8248  144.2907  159.9978 C   0  0  0  0  0  0  0  0  0  0  0  0
  151.0195  145.5560  159.7603 C   0  0  0  0  0  0  0  0  0  0  0  0
  152.3320  144.0301  161.2879 C   0  0  0  0  0  0  0  0  0  0  0  0
  153.0805  142.8622  161.5170 C   0  0  0  0  0  0  0  0  0  0  0  0
  156.3416  141.0195  167.2924 C   0  0  0  0  0  0  0  0  0  0  0  0
  155.7532  140.0079  166.9104 O   0  0  0  0  0  0  0  0  0  0  0  0
  155.0136  140.3479  172.0452 H   0  0  0  0  0  0  0  0  0  0  0  0
  156.7188  139.9363  172.2038 H   0  0  0  0  0  0  0  0  0  0  0  0
  155.6550  138.9283  171.2235 H   0  0  0  0  0  0  0  0  0  0  0  0
  155.3158  140.8524  169.6368 H   0  0  0  0  0  0  0  0  0  0  0  0
  156.3873  141.8411  170.5990 H   0  0  0  0  0  0  0  0  0  0  0  0
  158.3026  140.4139  170.0937 H   0  0  0  0  0  0  0  0  0  0  0  0
  157.2911  139.2144  169.3314 H   0  0  0  0  0  0  0  0  0  0  0  0
  158.4236  140.5600  167.5695 H   0  0  0  0  0  0  0  0  0  0  0  0
  158.5678  142.8261  168.8039 H   0  0  0  0  0  0  0  0  0  0  0  0
  153.9484  142.2482  166.7545 H   0  0  0  0  0  0  0  0  0  0  0  0
  154.6566  143.7847  166.3744 H   0  0  0  0  0  0  0  0  0  0  0  0
  154.8792  141.1922  164.7331 H   0  0  0  0  0  0  0  0  0  0  0  0
  156.4266  142.1284  163.6186 H   0  0  0  0  0  0  0  0  0  0  0  0
  152.8072  142.6816  164.4657 H   0  0  0  0  0  0  0  0  0  0  0  0
  153.8617  143.9615  163.9121 H   0  0  0  0  0  0  0  0  0  0  0  0
  154.8280  140.5408  162.8745 H   0  0  0  0  0  0  0  0  0  0  0  0
  153.0154  141.5052  158.3857 H   0  0  0  0  0  0  0  0  0  0  0  0
  150.4505  143.6779  157.5557 H   0  0  0  0  0  0  0  0  0  0  0  0
  151.8367  142.8443  156.8547 H   0  0  0  0  0  0  0  0  0  0  0  0
  151.9229  144.5778  157.1597 H   0  0  0  0  0  0  0  0  0  0  0  0
  150.9086  146.1351  160.6775 H   0  0  0  0  0  0  0  0  0  0  0  0
  150.0211  145.3114  159.3966 H   0  0  0  0  0  0  0  0  0  0  0  0
  151.5125  146.1889  159.0220 H   0  0  0  0  0  0  0  0  0  0  0  0
  152.1537  144.7210  162.0989 H   0  0  0  0  0  0  0  0  0  0  0  0
  1  2  1  0  0  0  0
  1 26  1  0  0  0  0
  1 27  1  0  0  0  0
  1 28  1  0  0  0  0
  2  3  1  0  0  0  0
  2 29  1  0  0  0  0
  2 30  1  0  0  0  0
  3  4  1  0  0  0  0
  3 31  1  0  0  0  0
  3 32  1  0  0  0  0
  4 24  1  0  0  0  0
  4  5  1  0  0  0  0
  4 33  1  0  0  0  0
  5  6  1  0  0  0  0
  5 34  1  0  0  0  0
  6  7  2  0  0  0  0
  6  8  1  0  0  0  0
  8  9  1  0  0  0  0
  8 24  1  0  0  0  0
  9 10  1  0  0  0  0
  9 35  1  0  0  0  0
  9 36  1  0  0  0  0
 10 11  1  0  0  0  0
 10 12  1  0  0  0  0
 10 37  1  0  0  0  0
 11 38  1  0  0  0  0
 12 13  1  0  0  0  0
 12 39  1  0  0  0  0
 12 40  1  0  0  0  0
 13 23  1  0  0  0  0
 13 14  1  0  0  0  0
 14 15  2  0  0  0  0
 14 41  1  0  0  0  0
 15 16  1  0  0  0  0
 16 23  2  0  0  0  0
 16 17  1  0  0  0  0
 17 18  2  0  0  0  0
 17 42  1  0  0  0  0
 18 19  1  0  0  0  0
 18 20  1  0  0  0  0
 19 43  1  0  0  0  0
 19 44  1  0  0  0  0
 19 45  1  0  0  0  0
 20 21  1  0  0  0  0
 20 22  2  0  0  0  0
 21 46  1  0  0  0  0
 21 47  1  0  0  0  0
 21 48  1  0  0  0  0
 22 23  1  0  0  0  0
 22 49  1  0  0  0  0
 24 25  2  0  0  0  0
M  END
> <s_m_source_file>
AV-unprocessed.smi

> <i_m_source_file_index>
1644

> <i_lp_mmshare_version>
43012

> <i_f3d_flags>
0

> <s_epik_input>
W0NIM11bQ0gyXVtDSDJdW0NAQEhdMVtOSF1DKD1PKU4oQzE9TylbQ0gyXVtDQEhdKFtPSF0pW0NIMl1uKFtjSF1uMiljKGMyMylbY0hdYyhbQ0gzXSljKFtjSF0zKVtDSDNd

> <s_epik_cmdline>
J2VwaWtfcHl0aG9uJywgJy1waCcsICc3LjAnLCAnLXRuJywgJzgnLCAnLW1hJywgJzIwMCcsICctbWV0YWxfYmluZGluZycsICctaW1hZScsICc8aW5maWxlLm1hZT4nLCAnLW9tYWUnLCAnPG91dGZpbGUubWFlPic=

> <r_lp_tautomer_probability>
1

> <r_epik_Ionization_Penalty>
0.10693

> <r_epik_Ionization_Penalty_Charging>
0

> <r_epik_Ionization_Penalty_Neutral>
0.10693

> <r_epik_State_Penalty>
0.096713

> <r_epik_Charging_Adjusted_Penalty>
0.096713

> <i_epik_Tot_Q>
0

> <i_epik_Tot_abs_Q>
0

> <r_epik_Metal_State_Penalty>
0.102757

> <b_epik_Metal_Only>
0

> <s_lp_Force_Field>
OPLS_2005

> <r_lp_Energy>
24.4016

> <b_lp_Chiralities_Consistent>
1

> <s_lp_Variant>
AV-unprocessed.smi:1644-1

> <Gold.Version>
5.8.1

> <Gold.Id.Protein>
6NUR|6NUR_protein|mol2

> <Gold.PLP.Fitness>
51.5747

> <Gold.PLP.PLP>
-52.2115

> <Gold.PLP.part.hbond>
-1.0784

> <Gold.PLP.part.metal>
0.0000

> <Gold.PLP.part.buried>
-2.6497

> <Gold.PLP.part.nonpolar>
-45.2460

> <Gold.PLP.part.repulsive>
0.0841

> <Gold.PLP.ligand.clash>
0.0000

> <Gold.PLP.ligand.torsion>
0.3926

> <Gold.PLP.Chemscore.Hbond>
0.0000

> <Gold.PLP.Chemscore.CHOScore>
0.0000

> <Gold.PLP.Chemscore.Metal>
0.0000

> <Gold.PLP.Chemscore.Internal.Correction>
0.1484

> <Gold.Rescore>
     Score         DG    S(hbond)    S(metal)    S(lipo)     H(rot)  DE(clash)    DE(int)     intcor
     11.74     -14.54       0.00        0.00     136.94       2.72       2.45       0.35       ----

> <Gold.Chemscore.Fitness>
11.7396

> <Gold.Chemscore.DG>
-14.5352

> <Gold.Chemscore.ZeroCoef>
-5.4800

> <Gold.Chemscore.Hbond>
0.0000

> <Gold.Chemscore.Metal>
0.0000

> <Gold.Chemscore.Lipo>
136.9359

> <Gold.Chemscore.Internal_Hbond>
0.0000

> <Gold.Chemscore.DEClash>
2.4475

> <Gold.Chemscore.DEInternal>
0.3482

> <Gold.Chemscore.Rot>
2.7212

> <Gold.Chemscore.Internal.Correction>
   9.000000E+99

> <Gold.Chemscore.Hbond.Weighted>
-0.0000

> <Gold.Chemscore.Metal.Weighted>
-0.0000

> <Gold.Chemscore.Lipo.Weighted>
-16.0215

> <Gold.Chemscore.Internal_Hbond.Weighted>
0.0000

> <Gold.Chemscore.DEClash.Weighted>
2.4475

> <Gold.Chemscore.DEInternal.Weighted>
0.3482

> <Gold.Chemscore.Rot.Weighted>
6.9663

> <Gold.Chemscore.Internal.Correction.Weighted>
   9.000000E+99

> <Gold.Protein.RotatedTorsions>
[ 6907 6896 6895 6894 ] final  153.80 input  -60.11 | X-H torsion
[ 7974 7965 7964 7962 ] final   31.01 input  175.53 | X-H torsion
[ 8008 7997 7996 7995 ] final   24.77 input   59.86 | X-H torsion
[ 10167 10162 10161 10158 ] final  -36.07 input  -65.29 | X-H torsion
[ 10718 10713 10712 10709 ] final -115.31 input   66.30 | X-H torsion
[ 10763 10752 10751 10750 ] final   14.60 input  -60.55 | X-H torsion
[ 11005 11000 10999 10996 ] final -106.36 input  -57.11 | X-H torsion

> <Gold.Protein.ActiveResidues>
 VAL166  LYS551  ARG553  GLY616  TRP617  ASP618  TYR619  PRO620  LYS621  CYS622 
 ASP623  PHE694  ASN695  SER759  ASP760  ASP761  ALA762  ILE779  LEU786  VAL792 
 PHE793  MET794  SER795  GLU796  ALA797  LYS798  CYS799  TRP800  GLU811  SER814 

> <Gold.Protein.RotatedAtoms>
  152.0675  133.4091  159.4444 H   0  0  0  0  0  0  0  0  0  0  0  0  # atno 6907 bound_to 6896
  150.6864  134.3129  159.4763 H   0  0  0  0  0  0  0  0  0  0  0  0  # atno 6908 bound_to 6896
  152.0957  134.9376  160.0621 H   0  0  0  0  0  0  0  0  0  0  0  0  # atno 6909 bound_to 6896
  146.1576  139.6712  142.9055 H   0  0  0  0  0  0  0  0  0  0  0  0  # atno 7974 bound_to 7965
  155.0014  140.3126  155.4865 H   0  0  0  0  0  0  0  0  0  0  0  0  # atno 8008 bound_to 7997
  156.2924  140.2231  156.5065 H   0  0  0  0  0  0  0  0  0  0  0  0  # atno 8009 bound_to 7997
  154.7615  140.0459  157.0965 H   0  0  0  0  0  0  0  0  0  0  0  0  # atno 8010 bound_to 7997
  140.7151  143.3434  151.2309 H   0  0  0  0  0  0  0  0  0  0  0  0  # atno 10167 bound_to 10162
  156.0887  130.6074  150.8889 H   0  0  0  0  0  0  0  0  0  0  0  0  # atno 10718 bound_to 10713
  153.1606  135.6795  153.8747 H   0  0  0  0  0  0  0  0  0  0  0  0  # atno 10763 bound_to 10752
  153.8144  135.3138  155.3405 H   0  0  0  0  0  0  0  0  0  0  0  0  # atno 10764 bound_to 10752
  154.7930  135.4824  154.0184 H   0  0  0  0  0  0  0  0  0  0  0  0  # atno 10765 bound_to 10752
  141.1008  133.8887  157.1847 H   0  0  0  0  0  0  0  0  0  0  0  0  # atno 11005 bound_to 11000
  145.4669  141.0435  143.2720 LP  0  0  0  0  0  0  0  0  0  0  0  0  # atno 17320 bound_to 7965
  144.7984  139.6188  143.7082 LP  0  0  0  0  0  0  0  0  0  0  0  0  # atno 17321 bound_to 7965
  139.6947  143.9633  152.2876 LP  0  0  0  0  0  0  0  0  0  0  0  0  # atno 17342 bound_to 10162
  139.9306  144.6743  150.8366 LP  0  0  0  0  0  0  0  0  0  0  0  0  # atno 17343 bound_to 10162
  157.6029  131.0940  150.8928 LP  0  0  0  0  0  0  0  0  0  0  0  0  # atno 17370 bound_to 10713
  156.9082  130.5271  149.5281 LP  0  0  0  0  0  0  0  0  0  0  0  0  # atno 17371 bound_to 10713
  139.9859  135.0082  156.9861 LP  0  0  0  0  0  0  0  0  0  0  0  0  # atno 17394 bound_to 11000
  140.5026  134.1082  155.7253 LP  0  0  0  0  0  0  0  0  0  0  0  0  # atno 17395 bound_to 11000

$$$$
