AV-unprocessed.smi:184|AV-procd|sdf|1461|dock4
  -GOLD-   2262019273D 1   1.00000     0.00000
 Structure written by MMmdl.
 54 58  0  0  0  0  0  0  0  0  1 V2000
  142.0328  135.4174  152.7791 O   0  0  0  0  0  0  0  0  0  0  0  0
  143.1877  135.0804  152.5296 C   0  0  0  0  0  0  0  0  0  0  0  0
  144.3185  135.4800  153.4950 C   0  0  0  0  0  0  0  0  0  0  0  0
  145.6647  135.0943  153.0397 N   0  0  0  0  0  0  0  0  0  0  0  0
  146.7270  135.4627  153.8020 C   0  0  0  0  0  0  0  0  0  0  0  0
  147.5831  134.5111  154.2605 N   0  0  0  0  0  0  0  0  0  0  0  0
  148.6387  134.8523  155.0046 C   0  0  0  0  0  0  0  0  0  0  0  0
  149.0176  136.0661  155.4070 N   0  0  0  0  0  0  0  0  0  0  0  0
  148.1584  137.0259  154.9607 C   0  0  0  0  0  0  0  0  0  0  0  0
  146.9984  136.8138  154.1625 C   0  0  0  0  0  0  0  0  0  0  0  0
  146.3633  138.0276  153.9250 N   0  0  0  0  0  0  0  0  0  0  0  0
  147.1129  138.9059  154.5328 C   0  0  0  0  0  0  0  0  0  0  0  0
  148.2172  138.3922  155.1743 N   0  0  0  0  0  0  0  0  0  0  0  0
  149.2129  139.1403  155.9284 C   0  0  0  0  0  0  0  0  0  0  0  0
  150.5240  139.4203  155.1439 C   0  0  0  0  0  0  0  0  0  0  0  0
  150.1641  139.7381  153.8117 O   0  0  0  0  0  0  0  0  0  0  0  0
  151.2830  140.6349  155.7145 C   0  0  0  0  0  0  0  0  0  0  0  0
  151.9977  140.2906  157.0341 C   0  0  0  0  0  0  0  0  0  0  0  0
  152.8700  139.1824  156.8410 O   0  0  0  0  0  0  0  0  0  0  0  0
  152.1868  137.9978  156.4461 C   0  0  0  0  0  0  0  0  0  0  0  0
  151.4945  138.2206  155.0900 C   0  0  0  0  0  0  0  0  0  0  0  0
  145.7991  133.8708  152.2467 C   0  0  1  0  0  0  0  0  0  0  0  0
  145.5480  132.6091  153.1087 C   0  0  0  0  0  0  0  0  0  0  0  0
  145.5593  131.3278  152.2625 C   0  0  0  0  0  0  0  0  0  0  0  0
  144.5365  131.4156  151.1204 C   0  0  0  0  0  0  0  0  0  0  0  0
  144.8130  132.6395  150.2329 C   0  0  0  0  0  0  0  0  0  0  0  0
  144.8358  133.9532  151.0388 C   0  0  1  0  0  0  0  0  0  0  0  0
  143.4869  134.3536  151.4395 N   0  0  0  0  0  0  0  0  0  0  0  0
  144.2841  136.5609  153.6386 H   0  0  0  0  0  0  0  0  0  0  0  0
  144.1031  135.0187  154.4599 H   0  0  0  0  0  0  0  0  0  0  0  0
  149.2707  134.0363  155.3227 H   0  0  0  0  0  0  0  0  0  0  0  0
  146.8807  139.9610  154.5287 H   0  0  0  0  0  0  0  0  0  0  0  0
  148.7574  140.0805  156.2433 H   0  0  0  0  0  0  0  0  0  0  0  0
  149.4206  138.5908  156.8462 H   0  0  0  0  0  0  0  0  0  0  0  0
  149.4657  139.1606  153.5438 H   0  0  0  0  0  0  0  0  0  0  0  0
  152.0360  140.9674  154.9980 H   0  0  0  0  0  0  0  0  0  0  0  0
  150.6071  141.4785  155.8598 H   0  0  0  0  0  0  0  0  0  0  0  0
  152.5880  141.1431  157.3697 H   0  0  0  0  0  0  0  0  0  0  0  0
  151.2846  140.0728  157.8296 H   0  0  0  0  0  0  0  0  0  0  0  0
  152.9111  137.1873  156.3648 H   0  0  0  0  0  0  0  0  0  0  0  0
  151.4729  137.7054  157.2162 H   0  0  0  0  0  0  0  0  0  0  0  0
  150.9887  137.3110  154.7660 H   0  0  0  0  0  0  0  0  0  0  0  0
  152.2680  138.4113  154.3443 H   0  0  0  0  0  0  0  0  0  0  0  0
  146.8072  133.7873  151.8428 H   0  0  0  0  0  0  0  0  0  0  0  0
  146.3041  132.5366  153.8914 H   0  0  0  0  0  0  0  0  0  0  0  0
  144.5882  132.6806  153.6211 H   0  0  0  0  0  0  0  0  0  0  0  0
  146.5571  131.1666  151.8528 H   0  0  0  0  0  0  0  0  0  0  0  0
  145.3396  130.4655  152.8926 H   0  0  0  0  0  0  0  0  0  0  0  0
  144.5721  130.5066  150.5194 H   0  0  0  0  0  0  0  0  0  0  0  0
  143.5280  131.4746  151.5317 H   0  0  0  0  0  0  0  0  0  0  0  0
  145.7771  132.5077  149.7400 H   0  0  0  0  0  0  0  0  0  0  0  0
  144.0720  132.6985  149.4350 H   0  0  0  0  0  0  0  0  0  0  0  0
  145.1907  134.7439  150.3757 H   0  0  0  0  0  0  0  0  0  0  0  0
  142.7293  134.0868  150.8277 H   0  0  0  0  0  0  0  0  0  0  0  0
  1  2  2  0  0  0  0
  2 28  1  0  0  0  0
  2  3  1  0  0  0  0
  3  4  1  0  0  0  0
  3 29  1  0  0  0  0
  3 30  1  0  0  0  0
  4  5  1  0  0  0  0
  4 22  1  0  0  0  0
  5 10  1  0  0  0  0
  5  6  2  0  0  0  0
  6  7  1  0  0  0  0
  7  8  2  0  0  0  0
  7 31  1  0  0  0  0
  8  9  1  0  0  0  0
  9 13  1  0  0  0  0
  9 10  2  0  0  0  0
 10 11  1  0  0  0  0
 11 12  2  0  0  0  0
 12 13  1  0  0  0  0
 12 32  1  0  0  0  0
 13 14  1  0  0  0  0
 14 15  1  0  0  0  0
 14 33  1  0  0  0  0
 14 34  1  0  0  0  0
 15 21  1  0  0  0  0
 15 16  1  0  0  0  0
 15 17  1  0  0  0  0
 16 35  1  0  0  0  0
 17 18  1  0  0  0  0
 17 36  1  0  0  0  0
 17 37  1  0  0  0  0
 18 19  1  0  0  0  0
 18 38  1  0  0  0  0
 18 39  1  0  0  0  0
 19 20  1  0  0  0  0
 20 21  1  0  0  0  0
 20 40  1  0  0  0  0
 20 41  1  0  0  0  0
 21 42  1  0  0  0  0
 21 43  1  0  0  0  0
 22 27  1  0  0  0  0
 22 23  1  0  0  0  0
 22 44  1  0  0  0  0
 23 24  1  0  0  0  0
 23 45  1  0  0  0  0
 23 46  1  0  0  0  0
 24 25  1  0  0  0  0
 24 47  1  0  0  0  0
 24 48  1  0  0  0  0
 25 26  1  0  0  0  0
 25 49  1  0  0  0  0
 25 50  1  0  0  0  0
 26 27  1  0  0  0  0
 26 51  1  0  0  0  0
 26 52  1  0  0  0  0
 27 28  1  0  0  0  0
 27 53  1  0  0  0  0
 28 54  1  0  0  0  0
M  END
> <s_m_source_file>
AV-unprocessed.smi

> <i_m_source_file_index>
184

> <i_lp_mmshare_version>
43012

> <i_f3d_flags>
0

> <s_epik_input>
W0NIMl0xW0NIMl1bQ0gyXVtDSDJdW0NASF0oW0NASF0xMilbTkhdQyg9TylbQ0gyXU4yYyhuW2NIXW4zKWMoYzM0KW5bY0hdbjRbQ0gyXUM1KFtPSF0pW0NIMl1bQ0gyXU9bQ0gyXVtDSDJdNQ==

> <s_epik_cmdline>
J2VwaWtfcHl0aG9uJywgJy1waCcsICc3LjAnLCAnLXRuJywgJzgnLCAnLW1hJywgJzIwMCcsICctbWV0YWxfYmluZGluZycsICctaW1hZScsICc8aW5maWxlLm1hZT4nLCAnLW9tYWUnLCAnPG91dGZpbGUubWFlPic=

> <r_lp_tautomer_probability>
1

> <r_epik_Ionization_Penalty>
0.000822761

> <r_epik_Ionization_Penalty_Charging>
0

> <r_epik_Ionization_Penalty_Neutral>
0.000822761

> <r_epik_State_Penalty>
0.000403048

> <r_epik_Charging_Adjusted_Penalty>
0.000403048

> <i_epik_Tot_Q>
0

> <i_epik_Tot_abs_Q>
0

> <r_epik_Metal_State_Penalty>
-0

> <b_epik_Metal_Only>
0

> <s_lp_Force_Field>
OPLS_2005

> <r_lp_Energy>
37.4229

> <b_lp_Chiralities_Consistent>
1

> <s_lp_Variant>
AV-unprocessed.smi:184-1

> <Gold.Version>
5.8.1

> <Gold.Id.Protein>
6NUR|6NUR_protein|mol2

> <Gold.PLP.Fitness>
38.3829

> <Gold.PLP.PLP>
-33.0777

> <Gold.PLP.part.hbond>
-3.6548

> <Gold.PLP.part.metal>
0.0000

> <Gold.PLP.part.buried>
-3.8406

> <Gold.PLP.part.nonpolar>
-25.9334

> <Gold.PLP.part.repulsive>
1.0390

> <Gold.PLP.ligand.clash>
0.0000

> <Gold.PLP.ligand.torsion>
1.2637

> <Gold.PLP.Chemscore.Hbond>
2.5458

> <Gold.PLP.Chemscore.CHOScore>
0.0000

> <Gold.PLP.Chemscore.Metal>
0.0000

> <Gold.Chemscore.Hbonds>
donor molecule, donor type, donor heavy atom, donor atom, acceptor molecule, acceptor atom, score
      L1  H    28    54       P1 10186  0.67
      P1  H  7989  7998       L1    16  0.79
      P1  H  7997  8008       L1    19  0.90

> <Gold.PLP.Chemscore.Internal.Correction>
0.1954

> <Gold.Rescore>
     Score         DG    S(hbond)    S(metal)    S(lipo)     H(rot)  DE(clash)    DE(int)     intcor
     12.50     -14.85       1.73        0.00      70.67       1.83       0.18       2.18       ----

> <Gold.Chemscore.Fitness>
12.4953

> <Gold.Chemscore.DG>
-14.8537

> <Gold.Chemscore.ZeroCoef>
-5.4800

> <Gold.Chemscore.Hbond>
1.7303

> <Gold.Chemscore.Metal>
0.0000

> <Gold.Chemscore.Lipo>
70.6651

> <Gold.Chemscore.Internal_Hbond>
0.0000

> <Gold.Chemscore.DEClash>
0.1768

> <Gold.Chemscore.DEInternal>
2.1816

> <Gold.Chemscore.Rot>
1.8255

> <Gold.Chemscore.Internal.Correction>
   9.000000E+99

> <Gold.Chemscore.Hbonds>
donor molecule, donor type, donor heavy atom, donor atom, acceptor molecule, acceptor atom, score
      L1  H    28    54       P1 10186  0.39
      P1  H  7989  7998       L1    16  0.13
      P1  H  7997  8008       L1    19  0.18

> <Gold.Chemscore.Hbond.Weighted>
-5.7790

> <Gold.Chemscore.Metal.Weighted>
-0.0000

> <Gold.Chemscore.Lipo.Weighted>
-8.2678

> <Gold.Chemscore.Internal_Hbond.Weighted>
0.0000

> <Gold.Chemscore.DEClash.Weighted>
0.1768

> <Gold.Chemscore.DEInternal.Weighted>
2.1816

> <Gold.Chemscore.Rot.Weighted>
4.6732

> <Gold.Chemscore.Internal.Correction.Weighted>
   9.000000E+99

> <Gold.Protein.RotatedTorsions>
[ 6907 6896 6895 6894 ] final   72.52 input  -60.11 | X-H torsion
[ 7974 7965 7964 7962 ] final   -2.18 input  175.53 | X-H torsion
[ 8008 7997 7996 7995 ] final  -58.27 input   59.86 | X-H torsion
[ 10167 10162 10161 10158 ] final  -22.88 input  -65.29 | X-H torsion
[ 10718 10713 10712 10709 ] final  -48.18 input   66.30 | X-H torsion
[ 10763 10752 10751 10750 ] final   98.97 input  -60.55 | X-H torsion
[ 11005 11000 10999 10996 ] final -171.09 input  -57.11 | X-H torsion

> <Gold.Protein.ActiveResidues>
 VAL166  LYS551  ARG553  GLY616  TRP617  ASP618  TYR619  PRO620  LYS621  CYS622 
 ASP623  PHE694  ASN695  SER759  ASP760  ASP761  ALA762  ILE779  LEU786  VAL792 
 PHE793  MET794  SER795  GLU796  ALA797  LYS798  CYS799  TRP800  GLU811  SER814 

> <Gold.Protein.RotatedAtoms>
  152.4872  134.4559  159.9589 H   0  0  0  0  0  0  0  0  0  0  0  0  # atno 6907 bound_to 6896
  151.4552  133.3601  159.2809 H   0  0  0  0  0  0  0  0  0  0  0  0  # atno 6908 bound_to 6896
  150.8994  134.8429  159.7410 H   0  0  0  0  0  0  0  0  0  0  0  0  # atno 6909 bound_to 6896
  146.2408  140.1533  142.8333 H   0  0  0  0  0  0  0  0  0  0  0  0  # atno 7974 bound_to 7965
  154.4302  140.1088  156.5930 H   0  0  0  0  0  0  0  0  0  0  0  0  # atno 8008 bound_to 7997
  155.5992  140.3493  155.4570 H   0  0  0  0  0  0  0  0  0  0  0  0  # atno 8009 bound_to 7997
  156.0187  140.1235  157.0369 H   0  0  0  0  0  0  0  0  0  0  0  0  # atno 8010 bound_to 7997
  140.7287  143.4494  151.0539 H   0  0  0  0  0  0  0  0  0  0  0  0  # atno 10167 bound_to 10162
  156.2012  130.4156  149.9238 H   0  0  0  0  0  0  0  0  0  0  0  0  # atno 10718 bound_to 10713
  153.2956  135.4130  155.1206 H   0  0  0  0  0  0  0  0  0  0  0  0  # atno 10763 bound_to 10752
  154.8534  135.3529  154.5922 H   0  0  0  0  0  0  0  0  0  0  0  0  # atno 10764 bound_to 10752
  153.6345  135.7059  153.5321 H   0  0  0  0  0  0  0  0  0  0  0  0  # atno 10765 bound_to 10752
  140.5122  134.5791  157.5022 H   0  0  0  0  0  0  0  0  0  0  0  0  # atno 11005 bound_to 11000
  145.0150  140.8746  143.5201 LP  0  0  0  0  0  0  0  0  0  0  0  0  # atno 17320 bound_to 7965
  145.1572  139.2479  143.5410 LP  0  0  0  0  0  0  0  0  0  0  0  0  # atno 17321 bound_to 7965
  139.8168  143.7874  152.3175 LP  0  0  0  0  0  0  0  0  0  0  0  0  # atno 17342 bound_to 10162
  139.7943  144.7398  150.9912 LP  0  0  0  0  0  0  0  0  0  0  0  0  # atno 17343 bound_to 10162
  156.6947  130.8909  151.3592 LP  0  0  0  0  0  0  0  0  0  0  0  0  # atno 17370 bound_to 10713
  157.6987  130.9309  150.0720 LP  0  0  0  0  0  0  0  0  0  0  0  0  # atno 17371 bound_to 10713
  139.9653  134.7384  156.0152 LP  0  0  0  0  0  0  0  0  0  0  0  0  # atno 17394 bound_to 11000
  141.1380  133.6571  156.3647 LP  0  0  0  0  0  0  0  0  0  0  0  0  # atno 17395 bound_to 11000

$$$$
