AV-unprocessed.smi:2632|AV-procd|sdf|10250|dock3
  -GOLD-   2272014263D 1   1.00000     0.00000
 Structure written by MMmdl.
 38 39  0  0  0  0  0  0  0  0  1 V2000
  152.3003  138.8454  155.3011 C   0  0  0  0  0  0  0  0  0  0  0  0
  151.1713  139.5190  154.7745 O   0  0  0  0  0  0  0  0  0  0  0  0
  150.2034  138.6285  154.2440 C   0  0  0  0  0  0  0  0  0  0  0  0
  148.8001  139.0691  154.6932 C   0  0  0  0  0  0  0  0  0  0  0  0
  147.8167  138.0091  154.5920 N   0  0  0  0  0  0  0  0  0  0  0  0
  146.5717  138.1610  153.9756 C   0  0  0  0  0  0  0  0  0  0  0  0
  146.2448  139.3800  153.4058 N   0  0  0  0  0  0  0  0  0  0  0  0
  145.6774  137.1390  153.9457 C   0  0  0  0  0  0  0  0  0  0  0  0
  144.0560  137.2115  153.2222 S   0  0  0  0  0  0  0  0  0  0  0  0
  144.1026  135.8083  152.1555 C   0  0  0  0  0  0  0  0  0  0  0  0
  143.2005  134.7441  152.3529 C   0  0  0  0  0  0  0  0  0  0  0  0
  143.2451  133.6198  151.5059 C   0  0  0  0  0  0  0  0  0  0  0  0
  144.1891  133.5582  150.4596 C   0  0  0  0  0  0  0  0  0  0  0  0
  144.2347  132.3457  149.5525 C   0  0  0  0  0  0  0  0  0  0  0  0
  145.0906  134.6260  150.2657 C   0  0  0  0  0  0  0  0  0  0  0  0
  145.0468  135.7511  151.1119 C   0  0  0  0  0  0  0  0  0  0  0  0
  145.9597  135.8328  154.5449 C   0  0  0  0  0  0  0  0  0  0  0  0
  145.2168  134.8515  154.5546 O   0  0  0  0  0  0  0  0  0  0  0  0
  147.2112  135.7545  155.1550 N   0  0  0  0  0  0  0  0  0  0  0  0
  148.1518  136.7813  155.2170 C   0  0  0  0  0  0  0  0  0  0  0  0
  149.2166  136.5891  155.8053 O   0  0  0  0  0  0  0  0  0  0  0  0
  147.4552  134.8789  155.5946 H   0  0  0  0  0  0  0  0  0  0  0  0
  153.0076  139.5733  155.6984 H   0  0  0  0  0  0  0  0  0  0  0  0
  152.8089  138.2658  154.5296 H   0  0  0  0  0  0  0  0  0  0  0  0
  152.0162  138.1753  156.1136 H   0  0  0  0  0  0  0  0  0  0  0  0
  150.2577  138.6390  153.1545 H   0  0  0  0  0  0  0  0  0  0  0  0
  150.4074  137.6067  154.5674 H   0  0  0  0  0  0  0  0  0  0  0  0
  148.8014  139.4189  155.7248 H   0  0  0  0  0  0  0  0  0  0  0  0
  148.4345  139.9137  154.1064 H   0  0  0  0  0  0  0  0  0  0  0  0
  146.8843  140.1614  153.4249 H   0  0  0  0  0  0  0  0  0  0  0  0
  145.4179  139.4934  152.8370 H   0  0  0  0  0  0  0  0  0  0  0  0
  142.4769  134.7843  153.1538 H   0  0  0  0  0  0  0  0  0  0  0  0
  142.5533  132.8051  151.6620 H   0  0  0  0  0  0  0  0  0  0  0  0
  144.7455  132.5731  148.6165 H   0  0  0  0  0  0  0  0  0  0  0  0
  143.2261  132.0075  149.3128 H   0  0  0  0  0  0  0  0  0  0  0  0
  144.7642  131.5286  150.0427 H   0  0  0  0  0  0  0  0  0  0  0  0
  145.8189  134.5860  149.4689 H   0  0  0  0  0  0  0  0  0  0  0  0
  145.7410  136.5651  150.9621 H   0  0  0  0  0  0  0  0  0  0  0  0
  1  2  1  0  0  0  0
  1 23  1  0  0  0  0
  1 24  1  0  0  0  0
  1 25  1  0  0  0  0
  2  3  1  0  0  0  0
  3  4  1  0  0  0  0
  3 26  1  0  0  0  0
  3 27  1  0  0  0  0
  4  5  1  0  0  0  0
  4 28  1  0  0  0  0
  4 29  1  0  0  0  0
  5 20  1  0  0  0  0
  5  6  1  0  0  0  0
  6  7  1  0  0  0  0
  6  8  2  0  0  0  0
  7 30  1  0  0  0  0
  7 31  1  0  0  0  0
  8  9  1  0  0  0  0
  8 17  1  0  0  0  0
  9 10  1  0  0  0  0
 10 16  1  0  0  0  0
 10 11  2  0  0  0  0
 11 12  1  0  0  0  0
 11 32  1  0  0  0  0
 12 13  2  0  0  0  0
 12 33  1  0  0  0  0
 13 14  1  0  0  0  0
 13 15  1  0  0  0  0
 14 34  1  0  0  0  0
 14 35  1  0  0  0  0
 14 36  1  0  0  0  0
 15 16  2  0  0  0  0
 15 37  1  0  0  0  0
 16 38  1  0  0  0  0
 17 18  2  0  0  0  0
 17 19  1  0  0  0  0
 19 22  1  0  0  0  0
 19 20  1  0  0  0  0
 20 21  2  0  0  0  0
M  END
> <s_m_source_file>
AV-unprocessed.smi

> <i_m_source_file_index>
2632

> <i_lp_mmshare_version>
43012

> <i_f3d_flags>
0

> <s_epik_input>
W0NIM11PW0NIMl1bQ0gyXW4xYyhbTkgyXSljKGMoPU8pW25IXWMxPU8pU2MyW2NIXVtjSF1jKFtDSDNdKVtjSF1bY0hdMg==

> <s_epik_cmdline>
J2VwaWtfcHl0aG9uJywgJy1waCcsICc3LjAnLCAnLXRuJywgJzgnLCAnLW1hJywgJzIwMCcsICctbWV0YWxfYmluZGluZycsICctaW1hZScsICc8aW5maWxlLm1hZT4nLCAnLW9tYWUnLCAnPG91dGZpbGUubWFlPic=

> <r_lp_tautomer_probability>
1

> <r_epik_Ionization_Penalty>
1.3786e-05

> <r_epik_Ionization_Penalty_Charging>
1.17844e-05

> <r_epik_Ionization_Penalty_Neutral>
2.00164e-06

> <r_epik_State_Penalty>
-0

> <r_epik_Charging_Adjusted_Penalty>
1.17844e-05

> <i_epik_Tot_Q>
0

> <i_epik_Tot_abs_Q>
0

> <r_epik_Metal_State_Penalty>
0.0115847

> <b_epik_Metal_Only>
0

> <s_epik_Chemistry_Notes>
This compound has an imine and may undergo hydrolysis.

> <s_lp_Force_Field>
OPLS_2005

> <r_lp_Energy>
18.7052

> <b_lp_Chiralities_Consistent>
1

> <s_lp_Variant>
AV-unprocessed.smi:2632-1

> <Gold.Version>
5.8.1

> <Gold.Id.Protein>
6NUR|6NUR_protein|mol2

> <Gold.PLP.Fitness>
36.2930

> <Gold.PLP.PLP>
-31.4527

> <Gold.PLP.part.hbond>
-2.0000

> <Gold.PLP.part.metal>
0.0000

> <Gold.PLP.part.buried>
-4.1093

> <Gold.PLP.part.nonpolar>
-26.4232

> <Gold.PLP.part.repulsive>
0.2118

> <Gold.PLP.ligand.clash>
0.0000

> <Gold.PLP.ligand.torsion>
0.5318

> <Gold.PLP.Chemscore.Hbond>
1.9600

> <Gold.PLP.Chemscore.CHOScore>
0.0000

> <Gold.PLP.Chemscore.Metal>
0.0000

> <Gold.Chemscore.Hbonds>
donor molecule, donor type, donor heavy atom, donor atom, acceptor molecule, acceptor atom, score
      L1  H     7    31       P1 10175  0.99
      P1  H  7989  7998       L1     2  1.00

> <Gold.PLP.Chemscore.Internal.Correction>
0.0240

> <Gold.Rescore>
     Score         DG    S(hbond)    S(metal)    S(lipo)     H(rot)  DE(clash)    DE(int)     intcor
     11.42     -14.78       1.91        0.00      69.19       2.02       0.09       3.27       ----

> <Gold.Chemscore.Fitness>
11.4208

> <Gold.Chemscore.DG>
-14.7805

> <Gold.Chemscore.ZeroCoef>
-5.4800

> <Gold.Chemscore.Hbond>
1.9075

> <Gold.Chemscore.Metal>
0.0000

> <Gold.Chemscore.Lipo>
69.1917

> <Gold.Chemscore.Internal_Hbond>
0.0000

> <Gold.Chemscore.DEClash>
0.0937

> <Gold.Chemscore.DEInternal>
3.2660

> <Gold.Chemscore.Rot>
2.0180

> <Gold.Chemscore.Internal.Correction>
   9.000000E+99

> <Gold.Chemscore.Hbonds>
donor molecule, donor type, donor heavy atom, donor atom, acceptor molecule, acceptor atom, score
      L1  H     7    31       P1 10175  0.87
      P1  H  7989  7998       L1     2  0.67

> <Gold.Chemscore.Hbond.Weighted>
-6.3712

> <Gold.Chemscore.Metal.Weighted>
-0.0000

> <Gold.Chemscore.Lipo.Weighted>
-8.0954

> <Gold.Chemscore.Internal_Hbond.Weighted>
0.0000

> <Gold.Chemscore.DEClash.Weighted>
0.0937

> <Gold.Chemscore.DEInternal.Weighted>
3.2660

> <Gold.Chemscore.Rot.Weighted>
5.1661

> <Gold.Chemscore.Internal.Correction.Weighted>
   9.000000E+99

> <Gold.Protein.RotatedTorsions>
[ 6907 6896 6895 6894 ] final -173.79 input  -60.11 | X-H torsion
[ 7974 7965 7964 7962 ] final   37.54 input  175.53 | X-H torsion
[ 8008 7997 7996 7995 ] final   70.27 input   59.86 | X-H torsion
[ 10167 10162 10161 10158 ] final -101.24 input  -65.29 | X-H torsion
[ 10718 10713 10712 10709 ] final  -70.84 input   66.30 | X-H torsion
[ 10763 10752 10751 10750 ] final -126.75 input  -60.55 | X-H torsion
[ 11005 11000 10999 10996 ] final  149.91 input  -57.11 | X-H torsion

> <Gold.Protein.ActiveResidues>
 VAL166  LYS551  ARG553  GLY616  TRP617  ASP618  TYR619  PRO620  LYS621  CYS622 
 ASP623  PHE694  ASN695  SER759  ASP760  ASP761  ALA762  ILE779  LEU786  VAL792 
 PHE793  MET794  SER795  GLU796  ALA797  LYS798  CYS799  TRP800  GLU811  SER814 

> <Gold.Protein.RotatedAtoms>
  151.5618  133.3402  159.2972 H   0  0  0  0  0  0  0  0  0  0  0  0  # atno 6907 bound_to 6896
  150.8418  134.7716  159.6950 H   0  0  0  0  0  0  0  0  0  0  0  0  # atno 6908 bound_to 6896
  152.4484  134.5453  159.9902 H   0  0  0  0  0  0  0  0  0  0  0  0  # atno 6909 bound_to 6896
  146.1130  139.5882  142.9340 H   0  0  0  0  0  0  0  0  0  0  0  0  # atno 7974 bound_to 7965
  155.7363  140.3491  155.5083 H   0  0  0  0  0  0  0  0  0  0  0  0  # atno 8008 bound_to 7997
  155.9136  140.1054  157.1282 H   0  0  0  0  0  0  0  0  0  0  0  0  # atno 8009 bound_to 7997
  154.4059  140.1263  156.4575 H   0  0  0  0  0  0  0  0  0  0  0  0  # atno 8010 bound_to 7997
  140.2434  143.3523  152.0781 H   0  0  0  0  0  0  0  0  0  0  0  0  # atno 10167 bound_to 10162
  156.0389  130.4339  150.2355 H   0  0  0  0  0  0  0  0  0  0  0  0  # atno 10718 bound_to 10713
  154.8748  135.3985  154.3481 H   0  0  0  0  0  0  0  0  0  0  0  0  # atno 10763 bound_to 10752
  153.4270  135.7024  153.6261 H   0  0  0  0  0  0  0  0  0  0  0  0  # atno 10764 bound_to 10752
  153.4899  135.3750  155.2456 H   0  0  0  0  0  0  0  0  0  0  0  0  # atno 10765 bound_to 10752
  140.1085  134.8939  157.1902 H   0  0  0  0  0  0  0  0  0  0  0  0  # atno 11005 bound_to 11000
  145.5625  141.0403  143.2218 LP  0  0  0  0  0  0  0  0  0  0  0  0  # atno 17320 bound_to 7965
  144.7528  139.7150  143.7266 LP  0  0  0  0  0  0  0  0  0  0  0  0  # atno 17321 bound_to 7965
  139.5070  144.6824  151.5975 LP  0  0  0  0  0  0  0  0  0  0  0  0  # atno 17342 bound_to 10162
  140.6096  143.9460  150.6444 LP  0  0  0  0  0  0  0  0  0  0  0  0  # atno 17343 bound_to 10162
  157.0452  131.0046  151.3271 LP  0  0  0  0  0  0  0  0  0  0  0  0  # atno 17370 bound_to 10713
  157.5181  130.7980  149.7778 LP  0  0  0  0  0  0  0  0  0  0  0  0  # atno 17371 bound_to 10713
  140.3123  134.3010  155.7264 LP  0  0  0  0  0  0  0  0  0  0  0  0  # atno 17394 bound_to 11000
  141.2124  133.7658  156.9793 LP  0  0  0  0  0  0  0  0  0  0  0  0  # atno 17395 bound_to 11000

$$$$
