AV-unprocessed.smi:1737|AV-procd|sdf|6996|dock4
  -GOLD-   22720 8213D 1   1.00000     0.00000
 Structure written by MMmdl.
 43 44  0  0  0  0  0  0  0  0  2 V2000
  147.8187  133.0257  152.3466 C   0  0  0  0  0  0  0  0  0  0  0  0
  146.4344  132.9584  151.7218 C   0  0  0  0  0  0  0  0  0  0  0  0
  145.8450  131.6983  151.4844 C   0  0  0  0  0  0  0  0  0  0  0  0
  144.5655  131.6379  150.9061 C   0  0  0  0  0  0  0  0  0  0  0  0
  143.9253  132.8478  150.5873 C   0  0  0  0  0  0  0  0  0  0  0  0
  144.4812  134.0560  150.8112 N   0  0  0  0  0  0  0  0  0  0  0  0
  145.7162  134.1321  151.3675 C   0  0  0  0  0  0  0  0  0  0  0  0
  146.3615  135.3724  151.6351 N   0  0  0  0  0  0  0  0  0  0  0  0
  145.8214  136.5123  152.1010 C   0  0  0  0  0  0  0  0  0  0  0  0
  144.6285  136.6888  152.3476 O   0  0  0  0  0  0  0  0  0  0  0  0
  146.7573  137.4570  152.2713 N   0  0  0  0  0  0  0  0  0  0  0  0
  146.5140  138.8136  152.7608 C   0  0  0  0  0  0  0  0  0  0  0  0
  147.7632  139.4732  153.4050 C   0  0  1  0  0  0  0  0  0  0  0  0
  147.3351  140.3793  154.5802 C   0  0  0  0  0  0  0  0  0  0  0  0
  148.8048  138.4689  153.7979 N   0  3  0  0  0  0  0  0  0  0  0  0
  150.1387  139.0807  154.0469 C   0  0  0  0  0  0  0  0  0  0  0  0
  151.1848  138.0090  154.3936 C   0  0  0  0  0  0  0  0  0  0  0  0
  150.7548  137.2753  155.5303 O   0  0  0  0  0  0  0  0  0  0  0  0
  149.5353  136.5939  155.2774 C   0  0  0  0  0  0  0  0  0  0  0  0
  148.4261  137.6089  154.9528 C   0  0  0  0  0  0  0  0  0  0  0  0
  148.2143  132.0290  152.5451 H   0  0  0  0  0  0  0  0  0  0  0  0
  147.7851  133.5673  153.2925 H   0  0  0  0  0  0  0  0  0  0  0  0
  148.5143  133.5346  151.6786 H   0  0  0  0  0  0  0  0  0  0  0  0
  146.3642  130.7867  151.7415 H   0  0  0  0  0  0  0  0  0  0  0  0
  144.0870  130.6893  150.7119 H   0  0  0  0  0  0  0  0  0  0  0  0
  142.9416  132.8466  150.1417 H   0  0  0  0  0  0  0  0  0  0  0  0
  147.3548  135.3864  151.4580 H   0  0  0  0  0  0  0  0  0  0  0  0
  147.7094  137.2274  152.0267 H   0  0  0  0  0  0  0  0  0  0  0  0
  146.1789  139.4080  151.9112 H   0  0  0  0  0  0  0  0  0  0  0  0
  145.6708  138.8254  153.4537 H   0  0  0  0  0  0  0  0  0  0  0  0
  148.2058  140.1299  152.6542 H   0  0  0  0  0  0  0  0  0  0  0  0
  146.4846  141.0042  154.3063 H   0  0  0  0  0  0  0  0  0  0  0  0
  148.1299  141.0630  154.8778 H   0  0  0  0  0  0  0  0  0  0  0  0
  147.0462  139.7963  155.4550 H   0  0  0  0  0  0  0  0  0  0  0  0
  150.4890  139.6245  153.1709 H   0  0  0  0  0  0  0  0  0  0  0  0
  150.0629  139.8026  154.8616 H   0  0  0  0  0  0  0  0  0  0  0  0
  151.3514  137.3382  153.5490 H   0  0  0  0  0  0  0  0  0  0  0  0
  152.1421  138.4789  154.6199 H   0  0  0  0  0  0  0  0  0  0  0  0
  149.6637  135.8824  154.4597 H   0  0  0  0  0  0  0  0  0  0  0  0
  149.2663  136.0153  156.1613 H   0  0  0  0  0  0  0  0  0  0  0  0
  148.2229  138.2344  155.8233 H   0  0  0  0  0  0  0  0  0  0  0  0
  147.5193  137.0446  154.7393 H   0  0  0  0  0  0  0  0  0  0  0  0
  148.9114  137.8480  153.0083 H   0  0  0  0  0  0  0  0  0  0  0  0
  1  2  1  0  0  0  0
  1 21  1  0  0  0  0
  1 22  1  0  0  0  0
  1 23  1  0  0  0  0
  2  7  1  0  0  0  0
  2  3  2  0  0  0  0
  3  4  1  0  0  0  0
  3 24  1  0  0  0  0
  4  5  2  0  0  0  0
  4 25  1  0  0  0  0
  5  6  1  0  0  0  0
  5 26  1  0  0  0  0
  6  7  2  0  0  0  0
  7  8  1  0  0  0  0
  8  9  1  0  0  0  0
  8 27  1  0  0  0  0
  9 10  2  0  0  0  0
  9 11  1  0  0  0  0
 11 12  1  0  0  0  0
 11 28  1  0  0  0  0
 12 13  1  0  0  0  0
 12 29  1  0  0  0  0
 12 30  1  0  0  0  0
 13 14  1  0  0  0  0
 13 15  1  0  0  0  0
 13 31  1  0  0  0  0
 14 32  1  0  0  0  0
 14 33  1  0  0  0  0
 14 34  1  0  0  0  0
 15 20  1  0  0  0  0
 15 16  1  0  0  0  0
 15 43  1  0  0  0  0
 16 17  1  0  0  0  0
 16 35  1  0  0  0  0
 16 36  1  0  0  0  0
 17 18  1  0  0  0  0
 17 37  1  0  0  0  0
 17 38  1  0  0  0  0
 18 19  1  0  0  0  0
 19 20  1  0  0  0  0
 19 39  1  0  0  0  0
 19 40  1  0  0  0  0
 20 41  1  0  0  0  0
 20 42  1  0  0  0  0
M  CHG  1  15   1
M  END
> <s_m_source_file>
AV-unprocessed.smi

> <i_m_source_file_index>
1737

> <i_lp_mmshare_version>
43012

> <i_f3d_flags>
0

> <s_epik_input>
W0NIM11jMVtjSF1bY0hdW2NIXW5jMVtOSF1DKD1PKVtOSF1bQ0gyXVtDQEhdKFtDSDNdKU4yW0NIMl1bQ0gyXU9bQ0gyXVtDSDJdMg==

> <s_epik_cmdline>
J2VwaWtfcHl0aG9uJywgJy1waCcsICc3LjAnLCAnLXRuJywgJzgnLCAnLW1hJywgJzIwMCcsICctbWV0YWxfYmluZGluZycsICctaW1hZScsICc8aW5maWxlLm1hZT4nLCAnLW9tYWUnLCAnPG91dGZpbGUubWFlPic=

> <r_epik_Ionization_Penalty>
0.602573

> <r_epik_Ionization_Penalty_Charging>
0.602531

> <r_epik_Ionization_Penalty_Neutral>
4.25912e-05

> <r_epik_State_Penalty>
0.617039

> <r_epik_Charging_Adjusted_Penalty>
1.21957

> <i_epik_Tot_Q>
1

> <i_epik_Tot_abs_Q>
1

> <r_epik_Metal_State_Penalty>
0.617042

> <b_epik_Metal_Only>
0

> <s_lp_Force_Field>
OPLS_2005

> <r_lp_Energy>
29.9094

> <b_lp_Chiralities_Consistent>
1

> <s_lp_Variant>
AV-unprocessed.smi:1737-4

> <Gold.Version>
5.8.1

> <Gold.Id.Protein>
6NUR|6NUR_protein|mol2

> <Gold.PLP.Fitness>
45.3635

> <Gold.PLP.PLP>
-32.7360

> <Gold.PLP.part.hbond>
-3.3159

> <Gold.PLP.part.metal>
0.0000

> <Gold.PLP.part.buried>
-3.4014

> <Gold.PLP.part.nonpolar>
-27.3463

> <Gold.PLP.part.repulsive>
0.5848

> <Gold.PLP.ligand.clash>
0.0000

> <Gold.PLP.ligand.torsion>
1.1269

> <Gold.PLP.Chemscore.Hbond>
3.9440

> <Gold.PLP.Chemscore.CHOScore>
1.0000

> <Gold.PLP.Chemscore.Metal>
0.0000

> <Gold.Chemscore.Hbonds>
donor molecule, donor type, donor heavy atom, donor atom, acceptor molecule, acceptor atom, score
      L1  H     8    27       P1  7948  0.93
      L1  H    11    28       P1  7948  1.00
      L1  H    15    43       P1  7948  2.00
      L1  C     5    26       P1 10186  0.92

> <Gold.PLP.Chemscore.Internal.Correction>
0.0493

> <Gold.Rescore>
     Score         DG    S(hbond)    S(metal)    S(lipo)     H(rot)  DE(clash)    DE(int)     intcor
     18.90     -20.06       2.84        0.00      76.65       1.51       0.02       1.14       ----

> <Gold.Chemscore.Fitness>
18.8972

> <Gold.Chemscore.DG>
-20.0578

> <Gold.Chemscore.ZeroCoef>
-5.4800

> <Gold.Chemscore.Hbond>
2.8391

> <Gold.Chemscore.Metal>
0.0000

> <Gold.Chemscore.Lipo>
76.6482

> <Gold.Chemscore.Internal_Hbond>
0.0000

> <Gold.Chemscore.DEClash>
0.0225

> <Gold.Chemscore.DEInternal>
1.1381

> <Gold.Chemscore.Rot>
1.5128

> <Gold.Chemscore.Internal.Correction>
   9.000000E+99

> <Gold.Chemscore.Hbonds>
donor molecule, donor type, donor heavy atom, donor atom, acceptor molecule, acceptor atom, score
      L1  H     8    27       P1  7948  0.82
      L1  H    11    28       P1  7948  0.96
      L1  H    15    43       P1  7948  0.99

> <Gold.Chemscore.Hbond.Weighted>
-9.4826

> <Gold.Chemscore.Metal.Weighted>
-0.0000

> <Gold.Chemscore.Lipo.Weighted>
-8.9678

> <Gold.Chemscore.Internal_Hbond.Weighted>
0.0000

> <Gold.Chemscore.DEClash.Weighted>
0.0225

> <Gold.Chemscore.DEInternal.Weighted>
1.1381

> <Gold.Chemscore.Rot.Weighted>
3.8726

> <Gold.Chemscore.Internal.Correction.Weighted>
   9.000000E+99

> <Gold.Protein.RotatedTorsions>
[ 6907 6896 6895 6894 ] final  -53.31 input  -60.11 | X-H torsion
[ 7974 7965 7964 7962 ] final  144.51 input  175.53 | X-H torsion
[ 8008 7997 7996 7995 ] final -137.35 input   59.86 | X-H torsion
[ 10167 10162 10161 10158 ] final   80.53 input  -65.29 | X-H torsion
[ 10718 10713 10712 10709 ] final  138.56 input   66.30 | X-H torsion
[ 10763 10752 10751 10750 ] final  -43.80 input  -60.55 | X-H torsion
[ 11005 11000 10999 10996 ] final  -86.45 input  -57.11 | X-H torsion

> <Gold.Protein.ActiveResidues>
 VAL166  LYS551  ARG553  GLY616  TRP617  ASP618  TYR619  PRO620  LYS621  CYS622 
 ASP623  PHE694  ASN695  SER759  ASP760  ASP761  ALA762  ILE779  LEU786  VAL792 
 PHE793  MET794  SER795  GLU796  ALA797  LYS798  CYS799  TRP800  GLU811  SER814 

> <Gold.Protein.RotatedAtoms>
  150.8438  134.7739  159.6953 H   0  0  0  0  0  0  0  0  0  0  0  0  # atno 6907 bound_to 6896
  152.4519  134.5371  159.9838 H   0  0  0  0  0  0  0  0  0  0  0  0  # atno 6908 bound_to 6896
  151.5506  133.3380  159.2988 H   0  0  0  0  0  0  0  0  0  0  0  0  # atno 6909 bound_to 6896
  144.8830  139.5671  143.5834 H   0  0  0  0  0  0  0  0  0  0  0  0  # atno 7974 bound_to 7965
  155.4103  140.0512  157.3032 H   0  0  0  0  0  0  0  0  0  0  0  0  # atno 8008 bound_to 7997
  154.4949  140.2134  155.9428 H   0  0  0  0  0  0  0  0  0  0  0  0  # atno 8009 bound_to 7997
  156.1392  140.3157  155.8474 H   0  0  0  0  0  0  0  0  0  0  0  0  # atno 8010 bound_to 7997
  139.9488  144.6040  150.8181 H   0  0  0  0  0  0  0  0  0  0  0  0  # atno 10167 bound_to 10162
  157.4240  131.1041  151.0323 H   0  0  0  0  0  0  0  0  0  0  0  0  # atno 10718 bound_to 10713
  154.0015  135.6693  153.4759 H   0  0  0  0  0  0  0  0  0  0  0  0  # atno 10763 bound_to 10752
  153.0660  135.5000  154.8197 H   0  0  0  0  0  0  0  0  0  0  0  0  # atno 10764 bound_to 10752
  154.7050  135.3086  154.9247 H   0  0  0  0  0  0  0  0  0  0  0  0  # atno 10765 bound_to 10752
  141.1630  133.7455  156.9163 H   0  0  0  0  0  0  0  0  0  0  0  0  # atno 11005 bound_to 11000
  146.3006  139.7416  142.9094 LP  0  0  0  0  0  0  0  0  0  0  0  0  # atno 17320 bound_to 7965
  145.3920  141.0373  143.3119 LP  0  0  0  0  0  0  0  0  0  0  0  0  # atno 17321 bound_to 7965
  140.7589  143.3117  151.2828 LP  0  0  0  0  0  0  0  0  0  0  0  0  # atno 17342 bound_to 10162
  139.6645  144.0129  152.2714 LP  0  0  0  0  0  0  0  0  0  0  0  0  # atno 17343 bound_to 10162
  157.1243  130.6075  149.5513 LP  0  0  0  0  0  0  0  0  0  0  0  0  # atno 17370 bound_to 10713
  155.9890  130.4936  150.7195 LP  0  0  0  0  0  0  0  0  0  0  0  0  # atno 17371 bound_to 10713
  140.1482  134.9248  157.2558 LP  0  0  0  0  0  0  0  0  0  0  0  0  # atno 17394 bound_to 11000
  140.2754  134.3411  155.7360 LP  0  0  0  0  0  0  0  0  0  0  0  0  # atno 17395 bound_to 11000

$$$$
