AV-unprocessed.smi:901|AV-procd|sdf|4090|dock7
  -GOLD-   22720 1583D 1   1.00000     0.00000
 Structure written by MMmdl.
 43 44  0  0  0  0  0  0  0  0  1 V2000
  151.3220  145.6095  159.8202 C   0  0  0  0  0  0  0  0  0  0  0  0
  151.9718  144.4226  159.1371 C   0  0  0  0  0  0  0  0  0  0  0  0
  151.8749  144.4359  157.6214 C   0  0  0  0  0  0  0  0  0  0  0  0
  152.5782  143.4480  159.8421 C   0  0  0  0  0  0  0  0  0  0  0  0
  153.2370  142.2282  159.3034 C   0  0  2  0  0  0  0  0  0  0  0  0
  152.5882  140.8589  159.4132 C   0  0  1  0  0  0  0  0  0  0  0  0
  152.7049  139.9165  158.2546 C   0  0  0  0  0  0  0  0  0  0  0  0
  153.7544  139.3420  157.9645 O   0  0  0  0  0  0  0  0  0  0  0  0
  151.5548  139.7845  157.5695 N   0  0  0  0  0  0  0  0  0  0  0  0
  151.2893  138.9887  156.4250 C   0  0  0  0  0  0  0  0  0  0  0  0
  151.6963  139.2741  155.0869 C   0  0  0  0  0  0  0  0  0  0  0  0
  151.1987  138.2194  154.3766 C   0  0  0  0  0  0  0  0  0  0  0  0
  150.5496  137.3871  155.2665 N   0  0  0  0  0  0  0  0  0  0  0  0
  149.8640  136.1364  154.9944 C   0  0  0  0  0  0  0  0  0  0  0  0
  148.3877  136.2195  155.3859 C   0  0  0  0  0  0  0  0  0  0  0  0
  147.4882  136.0770  154.4088 N   0  0  0  0  0  0  0  0  0  0  0  0
  148.0624  136.4096  156.5557 O   0  0  0  0  0  0  0  0  0  0  0  0
  150.6037  137.8633  156.5302 N   0  0  0  0  0  0  0  0  0  0  0  0
  153.8273  141.1877  160.2399 C   0  0  0  0  0  0  0  0  0  0  0  0
  155.2080  140.6200  159.9306 C   0  0  0  0  0  0  0  0  0  0  0  0
  153.6558  141.2958  161.7479 C   0  0  0  0  0  0  0  0  0  0  0  0
  151.7900  146.5379  159.4918 H   0  0  0  0  0  0  0  0  0  0  0  0
  151.4134  145.5493  160.9053 H   0  0  0  0  0  0  0  0  0  0  0  0
  150.2613  145.6533  159.5715 H   0  0  0  0  0  0  0  0  0  0  0  0
  150.8332  144.3529  157.3110 H   0  0  0  0  0  0  0  0  0  0  0  0
  152.4327  143.6237  157.1575 H   0  0  0  0  0  0  0  0  0  0  0  0
  152.2733  145.3723  157.2301 H   0  0  0  0  0  0  0  0  0  0  0  0
  152.6071  143.5396  160.9181 H   0  0  0  0  0  0  0  0  0  0  0  0
  153.8185  142.4558  158.4117 H   0  0  0  0  0  0  0  0  0  0  0  0
  151.6517  140.8011  159.9671 H   0  0  0  0  0  0  0  0  0  0  0  0
  150.7694  140.3171  157.9141 H   0  0  0  0  0  0  0  0  0  0  0  0
  152.2589  140.1070  154.6938 H   0  0  0  0  0  0  0  0  0  0  0  0
  151.2539  137.9924  153.3222 H   0  0  0  0  0  0  0  0  0  0  0  0
  149.9526  135.8954  153.9337 H   0  0  0  0  0  0  0  0  0  0  0  0
  150.3592  135.3366  155.5464 H   0  0  0  0  0  0  0  0  0  0  0  0
  146.5019  136.1264  154.6175 H   0  0  0  0  0  0  0  0  0  0  0  0
  147.8006  135.9220  153.4610 H   0  0  0  0  0  0  0  0  0  0  0  0
  155.2520  139.5646  160.2008 H   0  0  0  0  0  0  0  0  0  0  0  0
  155.9730  141.1532  160.4954 H   0  0  0  0  0  0  0  0  0  0  0  0
  155.4579  140.7187  158.8750 H   0  0  0  0  0  0  0  0  0  0  0  0
  153.8007  140.3217  162.2159 H   0  0  0  0  0  0  0  0  0  0  0  0
  152.6571  141.6490  162.0062 H   0  0  0  0  0  0  0  0  0  0  0  0
  154.3825  141.9938  162.1644 H   0  0  0  0  0  0  0  0  0  0  0  0
  1  2  1  0  0  0  0
  1 22  1  0  0  0  0
  1 23  1  0  0  0  0
  1 24  1  0  0  0  0
  2  3  1  0  0  0  0
  2  4  2  0  0  0  0
  3 25  1  0  0  0  0
  3 26  1  0  0  0  0
  3 27  1  0  0  0  0
  4  5  1  0  0  0  0
  4 28  1  0  0  0  0
  5 19  1  0  0  0  0
  5  6  1  0  0  0  0
  5 29  1  0  0  0  0
  6  7  1  0  0  0  0
  6 19  1  0  0  0  0
  6 30  1  0  0  0  0
  7  8  2  0  0  0  0
  7  9  1  0  0  0  0
  9 10  1  0  0  0  0
  9 31  1  0  0  0  0
 10 18  2  0  0  0  0
 10 11  1  0  0  0  0
 11 12  2  0  0  0  0
 11 32  1  0  0  0  0
 12 13  1  0  0  0  0
 12 33  1  0  0  0  0
 13 14  1  0  0  0  0
 13 18  1  0  0  0  0
 14 15  1  0  0  0  0
 14 34  1  0  0  0  0
 14 35  1  0  0  0  0
 15 16  1  0  0  0  0
 15 17  2  0  0  0  0
 16 36  1  0  0  0  0
 16 37  1  0  0  0  0
 19 20  1  0  0  0  0
 19 21  1  0  0  0  0
 20 38  1  0  0  0  0
 20 39  1  0  0  0  0
 20 40  1  0  0  0  0
 21 41  1  0  0  0  0
 21 42  1  0  0  0  0
 21 43  1  0  0  0  0
M  END
> <s_m_source_file>
AV-unprocessed.smi

> <i_m_source_file_index>
901

> <i_lp_mmshare_version>
43012

> <i_f3d_flags>
0

> <s_epik_input>
W0NIM11DKFtDSDNdKT1bQ0hdW0NAQEhdKEMxKFtDSDNdKVtDSDNdKVtDQEhdMUMoPU8pW05IXWMyW2NIXVtjSF1uKG4yKVtDSDJdQyg9TylbTkgyXQ==

> <s_epik_cmdline>
J2VwaWtfcHl0aG9uJywgJy1waCcsICc3LjAnLCAnLXRuJywgJzgnLCAnLW1hJywgJzIwMCcsICctbWV0YWxfYmluZGluZycsICctaW1hZScsICc8aW5maWxlLm1hZT4nLCAnLW9tYWUnLCAnPG91dGZpbGUubWFlPic=

> <r_lp_tautomer_probability>
1

> <r_epik_Ionization_Penalty>
1.01454e-05

> <r_epik_Ionization_Penalty_Charging>
0

> <r_epik_Ionization_Penalty_Neutral>
1.01454e-05

> <r_epik_State_Penalty>
-0

> <r_epik_Charging_Adjusted_Penalty>
0

> <i_epik_Tot_Q>
0

> <i_epik_Tot_abs_Q>
0

> <r_epik_Metal_State_Penalty>
-0

> <b_epik_Metal_Only>
0

> <s_lp_Force_Field>
OPLS_2005

> <r_lp_Energy>
20.5353

> <b_lp_Chiralities_Consistent>
1

> <s_lp_Variant>
AV-unprocessed.smi:901-1

> <Gold.Version>
5.8.1

> <Gold.Id.Protein>
6NUR|6NUR_protein|mol2

> <Gold.PLP.Fitness>
52.0313

> <Gold.PLP.PLP>
-45.4501

> <Gold.PLP.part.hbond>
-1.7587

> <Gold.PLP.part.metal>
0.0000

> <Gold.PLP.part.buried>
-3.6802

> <Gold.PLP.part.nonpolar>
-39.7422

> <Gold.PLP.part.repulsive>
0.0714

> <Gold.PLP.ligand.clash>
0.0000

> <Gold.PLP.ligand.torsion>
0.9655

> <Gold.PLP.Chemscore.Hbond>
2.0000

> <Gold.PLP.Chemscore.CHOScore>
0.7774

> <Gold.PLP.Chemscore.Metal>
0.0000

> <Gold.Chemscore.Hbonds>
donor molecule, donor type, donor heavy atom, donor atom, acceptor molecule, acceptor atom, score
      L1  H    16    37       P1  7948  1.00
      P1  H  7997  8009       L1     8  0.89
      L1  C    12    33       P1  7949  0.55

> <Gold.PLP.Chemscore.Internal.Correction>
0.1799

> <Gold.Rescore>
     Score         DG    S(hbond)    S(metal)    S(lipo)     H(rot)  DE(clash)    DE(int)     intcor
     17.74     -20.30       1.92        0.00     118.51       2.13       0.02       2.54       ----

> <Gold.Chemscore.Fitness>
17.7394

> <Gold.Chemscore.DG>
-20.2991

> <Gold.Chemscore.ZeroCoef>
-5.4800

> <Gold.Chemscore.Hbond>
1.9186

> <Gold.Chemscore.Metal>
0.0000

> <Gold.Chemscore.Lipo>
118.5146

> <Gold.Chemscore.Internal_Hbond>
0.0000

> <Gold.Chemscore.DEClash>
0.0211

> <Gold.Chemscore.DEInternal>
2.5386

> <Gold.Chemscore.Rot>
2.1309

> <Gold.Chemscore.Internal.Correction>
   9.000000E+99

> <Gold.Chemscore.Hbonds>
donor molecule, donor type, donor heavy atom, donor atom, acceptor molecule, acceptor atom, score
      L1  H    16    37       P1  7948  0.95
      P1  H  7997  8009       L1     8  0.69

> <Gold.Chemscore.Hbond.Weighted>
-6.4081

> <Gold.Chemscore.Metal.Weighted>
-0.0000

> <Gold.Chemscore.Lipo.Weighted>
-13.8662

> <Gold.Chemscore.Internal_Hbond.Weighted>
0.0000

> <Gold.Chemscore.DEClash.Weighted>
0.0211

> <Gold.Chemscore.DEInternal.Weighted>
2.5386

> <Gold.Chemscore.Rot.Weighted>
5.4552

> <Gold.Chemscore.Internal.Correction.Weighted>
   9.000000E+99

> <Gold.Protein.RotatedTorsions>
[ 6907 6896 6895 6894 ] final   79.72 input  -60.11 | X-H torsion
[ 7974 7965 7964 7962 ] final   62.84 input  175.53 | X-H torsion
[ 8008 7997 7996 7995 ] final  166.30 input   59.86 | X-H torsion
[ 10167 10162 10161 10158 ] final   35.91 input  -65.29 | X-H torsion
[ 10718 10713 10712 10709 ] final  -77.21 input   66.30 | X-H torsion
[ 10763 10752 10751 10750 ] final   29.57 input  -60.55 | X-H torsion
[ 11005 11000 10999 10996 ] final  178.96 input  -57.11 | X-H torsion

> <Gold.Protein.ActiveResidues>
 VAL166  LYS551  ARG553  GLY616  TRP617  ASP618  TYR619  PRO620  LYS621  CYS622 
 ASP623  PHE694  ASN695  SER759  ASP760  ASP761  ALA762  ILE779  LEU786  VAL792 
 PHE793  MET794  SER795  GLU796  ALA797  LYS798  CYS799  TRP800  GLU811  SER814 

> <Gold.Protein.RotatedAtoms>
  152.5209  134.3467  159.9236 H   0  0  0  0  0  0  0  0  0  0  0  0  # atno 6907 bound_to 6896
  151.3418  133.3953  159.2679 H   0  0  0  0  0  0  0  0  0  0  0  0  # atno 6908 bound_to 6896
  150.9797  134.9173  159.7895 H   0  0  0  0  0  0  0  0  0  0  0  0  # atno 6909 bound_to 6896
  145.8687  139.3363  143.0775 H   0  0  0  0  0  0  0  0  0  0  0  0  # atno 7974 bound_to 7965
  156.1730  140.1647  156.8413 H   0  0  0  0  0  0  0  0  0  0  0  0  # atno 8008 bound_to 7997
  154.5277  140.0764  156.8322 H   0  0  0  0  0  0  0  0  0  0  0  0  # atno 8009 bound_to 7997
  155.3473  140.3388  155.4241 H   0  0  0  0  0  0  0  0  0  0  0  0  # atno 8010 bound_to 7997
  140.4178  144.1503  150.6145 H   0  0  0  0  0  0  0  0  0  0  0  0  # atno 10167 bound_to 10162
  156.0152  130.4485  150.3310 H   0  0  0  0  0  0  0  0  0  0  0  0  # atno 10718 bound_to 10713
  153.0422  135.6485  154.0911 H   0  0  0  0  0  0  0  0  0  0  0  0  # atno 10763 bound_to 10752
  154.0615  135.2887  155.3325 H   0  0  0  0  0  0  0  0  0  0  0  0  # atno 10764 bound_to 10752
  154.6654  135.5376  153.8136 H   0  0  0  0  0  0  0  0  0  0  0  0  # atno 10765 bound_to 10752
  140.4008  134.6779  157.4561 H   0  0  0  0  0  0  0  0  0  0  0  0  # atno 11005 bound_to 11000
  145.9162  140.9146  143.0428 LP  0  0  0  0  0  0  0  0  0  0  0  0  # atno 17320 bound_to 7965
  144.6726  140.1227  143.7449 LP  0  0  0  0  0  0  0  0  0  0  0  0  # atno 17321 bound_to 7965
  140.4567  143.2465  151.9274 LP  0  0  0  0  0  0  0  0  0  0  0  0  # atno 17342 bound_to 10162
  139.4782  144.5508  151.8389 LP  0  0  0  0  0  0  0  0  0  0  0  0  # atno 17343 bound_to 10162
  157.1408  131.0296  151.2928 LP  0  0  0  0  0  0  0  0  0  0  0  0  # atno 17370 bound_to 10713
  157.4473  130.7578  149.7121 LP  0  0  0  0  0  0  0  0  0  0  0  0  # atno 17371 bound_to 10713
  140.0337  134.6368  155.9071 LP  0  0  0  0  0  0  0  0  0  0  0  0  # atno 17394 bound_to 11000
  141.1857  133.6555  156.5210 LP  0  0  0  0  0  0  0  0  0  0  0  0  # atno 17395 bound_to 11000

$$$$
