AV-unprocessed.smi:2801|AV-procd|sdf|10798|dock9
  -GOLD-   2272015233D 1   1.00000     0.00000
 Structure written by MMmdl.
 32 32  0  0  0  0  0  0  0  0  3 V2000
  151.9095  145.6023  159.9199 C   0  0  0  0  0  0  0  0  0  0  0  0
  152.5167  144.5389  159.0023 C   0  0  0  0  0  0  0  0  0  0  0  0
  151.6369  143.4220  158.9602 O   0  0  0  0  0  0  0  0  0  0  0  0
  152.2406  142.1799  158.6054 C   0  0  1  0  0  0  0  0  0  0  0  0
  152.6195  141.4494  159.9075 C   0  0  0  0  0  0  0  0  0  0  0  0
  153.4277  142.3293  160.8693 C   0  0  0  0  0  0  0  0  0  0  0  0
  151.2663  141.3418  157.7614 C   0  0  0  0  0  0  0  0  0  0  0  0
  150.1087  141.1838  158.1487 O   0  0  0  0  0  0  0  0  0  0  0  0
  151.7663  140.8552  156.6108 N   0  0  0  0  0  0  0  0  0  0  0  0
  151.1398  140.0576  155.6115 C   0  0  0  0  0  0  0  0  0  0  0  0
  149.8037  140.2492  155.1744 C   0  0  0  0  0  0  0  0  0  0  0  0
  149.2667  139.3957  154.1898 C   0  0  0  0  0  0  0  0  0  0  0  0
  150.0186  138.3996  153.6768 N   0  3  0  0  0  0  0  0  0  0  0  0
  151.2887  138.1693  154.0688 C   0  0  0  0  0  0  0  0  0  0  0  0
  151.8835  138.9893  155.0491 C   0  0  0  0  0  0  0  0  0  0  0  0
  153.1700  138.7354  155.4353 O   0  5  0  0  0  0  0  0  0  0  0  0
  152.5547  146.4786  159.9816 H   0  0  0  0  0  0  0  0  0  0  0  0
  151.7721  145.2152  160.9298 H   0  0  0  0  0  0  0  0  0  0  0  0
  150.9367  145.9278  159.5501 H   0  0  0  0  0  0  0  0  0  0  0  0
  152.6687  144.9599  158.0080 H   0  0  0  0  0  0  0  0  0  0  0  0
  153.4918  144.2340  159.3847 H   0  0  0  0  0  0  0  0  0  0  0  0
  153.1525  142.3663  158.0339 H   0  0  0  0  0  0  0  0  0  0  0  0
  151.7198  141.0963  160.4136 H   0  0  0  0  0  0  0  0  0  0  0  0
  153.2078  140.5610  159.6734 H   0  0  0  0  0  0  0  0  0  0  0  0
  153.6914  141.7772  161.7714 H   0  0  0  0  0  0  0  0  0  0  0  0
  152.8596  143.2090  161.1729 H   0  0  0  0  0  0  0  0  0  0  0  0
  154.3536  142.6710  160.4061 H   0  0  0  0  0  0  0  0  0  0  0  0
  152.7112  141.1361  156.3892 H   0  0  0  0  0  0  0  0  0  0  0  0
  149.1724  141.0234  155.5803 H   0  0  0  0  0  0  0  0  0  0  0  0
  148.2610  139.4764  153.8047 H   0  0  0  0  0  0  0  0  0  0  0  0
  151.7880  137.3388  153.5911 H   0  0  0  0  0  0  0  0  0  0  0  0
  149.6095  137.7924  152.9668 H   0  0  0  0  0  0  0  0  0  0  0  0
  1  2  1  0  0  0  0
  1 17  1  0  0  0  0
  1 18  1  0  0  0  0
  1 19  1  0  0  0  0
  2  3  1  0  0  0  0
  2 20  1  0  0  0  0
  2 21  1  0  0  0  0
  3  4  1  0  0  0  0
  4  5  1  0  0  0  0
  4  7  1  0  0  0  0
  4 22  1  0  0  0  0
  5  6  1  0  0  0  0
  5 23  1  0  0  0  0
  5 24  1  0  0  0  0
  6 25  1  0  0  0  0
  6 26  1  0  0  0  0
  6 27  1  0  0  0  0
  7  8  2  0  0  0  0
  7  9  1  0  0  0  0
  9 28  1  0  0  0  0
  9 10  1  0  0  0  0
 10 11  2  0  0  0  0
 10 15  1  0  0  0  0
 11 12  1  0  0  0  0
 11 29  1  0  0  0  0
 12 13  2  0  0  0  0
 12 30  1  0  0  0  0
 13 14  1  0  0  0  0
 13 32  1  0  0  0  0
 14 15  2  0  0  0  0
 14 31  1  0  0  0  0
 15 16  1  0  0  0  0
M  CHG  1  13   1
M  CHG  1  16  -1
M  END
> <s_m_source_file>
AV-unprocessed.smi

> <i_m_source_file_index>
2801

> <i_lp_mmshare_version>
43012

> <i_f3d_flags>
0

> <s_epik_input>
W0NIM11bQ0gyXU9bQ0BIXShbQ0gyXVtDSDNdKUMoPU8pW05IXWMxW2NIXVtjSF1uW2NIXWMxW09IXQ==

> <s_epik_cmdline>
J2VwaWtfcHl0aG9uJywgJy1waCcsICc3LjAnLCAnLXRuJywgJzgnLCAnLW1hJywgJzIwMCcsICctbWV0YWxfYmluZGluZycsICctaW1hZScsICc8aW5maWxlLm1hZT4nLCAnLW9tYWUnLCAnPG91dGZpbGUubWFlPic=

> <r_lp_tautomer_probability>
0.56342

> <r_epik_Ionization_Penalty>
0.0170685

> <r_epik_Ionization_Penalty_Charging>
0.0170685

> <r_epik_Ionization_Penalty_Neutral>
1.5328e-09

> <r_epik_State_Penalty>
0.331557

> <r_epik_Charging_Adjusted_Penalty>
0.348625

> <i_epik_Tot_Q>
0

> <i_epik_Tot_abs_Q>
2

> <r_epik_Metal_State_Penalty>
0.590147

> <b_epik_Metal_Only>
0

> <s_lp_Force_Field>
OPLS_2005

> <r_lp_Energy>
9.87866

> <b_lp_Chiralities_Consistent>
1

> <s_lp_Variant>
AV-unprocessed.smi:2801-2

> <Gold.Version>
5.8.1

> <Gold.Id.Protein>
6NUR|6NUR_protein|mol2

> <Gold.PLP.Fitness>
47.6578

> <Gold.PLP.PLP>
-37.8936

> <Gold.PLP.part.hbond>
-2.9961

> <Gold.PLP.part.metal>
0.0000

> <Gold.PLP.part.buried>
-3.8543

> <Gold.PLP.part.nonpolar>
-30.7295

> <Gold.PLP.part.repulsive>
0.2679

> <Gold.PLP.ligand.clash>
0.0000

> <Gold.PLP.ligand.torsion>
1.1352

> <Gold.PLP.Chemscore.Hbond>
4.0000

> <Gold.PLP.Chemscore.CHOScore>
0.0000

> <Gold.PLP.Chemscore.Metal>
0.0000

> <Gold.Chemscore.Hbonds>
donor molecule, donor type, donor heavy atom, donor atom, acceptor molecule, acceptor atom, score
      L1  H    13    32       P1  7948  2.00
      P1  H  7997  8009       L1    16  2.00

> <Gold.PLP.Chemscore.Internal.Correction>
0.0346

> <Gold.Rescore>
     Score         DG    S(hbond)    S(metal)    S(lipo)     H(rot)  DE(clash)    DE(int)     intcor
     17.31     -18.46       1.89        0.00      91.84       1.59       0.04       1.11       ----

> <Gold.Chemscore.Fitness>
17.3076

> <Gold.Chemscore.DG>
-18.4578

> <Gold.Chemscore.ZeroCoef>
-5.4800

> <Gold.Chemscore.Hbond>
1.8895

> <Gold.Chemscore.Metal>
0.0000

> <Gold.Chemscore.Lipo>
91.8430

> <Gold.Chemscore.Internal_Hbond>
0.0000

> <Gold.Chemscore.DEClash>
0.0433

> <Gold.Chemscore.DEInternal>
1.1069

> <Gold.Chemscore.Rot>
1.5933

> <Gold.Chemscore.Internal.Correction>
   9.000000E+99

> <Gold.Chemscore.Hbonds>
donor molecule, donor type, donor heavy atom, donor atom, acceptor molecule, acceptor atom, score
      L1  H    13    32       P1  7948  0.72
      P1  H  7997  8009       L1    16  0.95

> <Gold.Chemscore.Hbond.Weighted>
-6.3110

> <Gold.Chemscore.Metal.Weighted>
-0.0000

> <Gold.Chemscore.Lipo.Weighted>
-10.7456

> <Gold.Chemscore.Internal_Hbond.Weighted>
0.0000

> <Gold.Chemscore.DEClash.Weighted>
0.0433

> <Gold.Chemscore.DEInternal.Weighted>
1.1069

> <Gold.Chemscore.Rot.Weighted>
4.0789

> <Gold.Chemscore.Internal.Correction.Weighted>
   9.000000E+99

> <Gold.Protein.RotatedTorsions>
[ 6907 6896 6895 6894 ] final  133.65 input  -60.11 | X-H torsion
[ 7974 7965 7964 7962 ] final  103.74 input  175.53 | X-H torsion
[ 8008 7997 7996 7995 ] final -145.88 input   59.86 | X-H torsion
[ 10167 10162 10161 10158 ] final -153.94 input  -65.29 | X-H torsion
[ 10718 10713 10712 10709 ] final  137.34 input   66.30 | X-H torsion
[ 10763 10752 10751 10750 ] final  -53.82 input  -60.55 | X-H torsion
[ 11005 11000 10999 10996 ] final   58.86 input  -57.11 | X-H torsion

> <Gold.Protein.ActiveResidues>
 VAL166  LYS551  ARG553  GLY616  TRP617  ASP618  TYR619  PRO620  LYS621  CYS622 
 ASP623  PHE694  ASN695  SER759  ASP760  ASP761  ALA762  ILE779  LEU786  VAL792 
 PHE793  MET794  SER795  GLU796  ALA797  LYS798  CYS799  TRP800  GLU811  SER814 

> <Gold.Protein.RotatedAtoms>
  152.3197  133.5840  159.5735 H   0  0  0  0  0  0  0  0  0  0  0  0  # atno 6907 bound_to 6896
  150.7365  134.0029  159.3653 H   0  0  0  0  0  0  0  0  0  0  0  0  # atno 6908 bound_to 6896
  151.7915  135.0735  160.0439 H   0  0  0  0  0  0  0  0  0  0  0  0  # atno 6909 bound_to 6896
  145.3420  139.2460  143.3604 H   0  0  0  0  0  0  0  0  0  0  0  0  # atno 7974 bound_to 7965
  155.5504  140.0616  157.2851 H   0  0  0  0  0  0  0  0  0  0  0  0  # atno 8008 bound_to 7997
  154.4422  140.1903  156.0725 H   0  0  0  0  0  0  0  0  0  0  0  0  # atno 8009 bound_to 7997
  156.0520  140.3283  155.7366 H   0  0  0  0  0  0  0  0  0  0  0  0  # atno 8010 bound_to 7997
  139.7055  143.9193  152.2447 H   0  0  0  0  0  0  0  0  0  0  0  0  # atno 10167 bound_to 10162
  157.4371  131.1054  151.0185 H   0  0  0  0  0  0  0  0  0  0  0  0  # atno 10718 bound_to 10713
  154.1650  135.6468  153.4995 H   0  0  0  0  0  0  0  0  0  0  0  0  # atno 10763 bound_to 10752
  153.0100  135.5369  154.6672 H   0  0  0  0  0  0  0  0  0  0  0  0  # atno 10764 bound_to 10752
  154.5996  135.2942  155.0522 H   0  0  0  0  0  0  0  0  0  0  0  0  # atno 10765 bound_to 10752
  140.0346  134.5962  155.9461 H   0  0  0  0  0  0  0  0  0  0  0  0  # atno 11005 bound_to 11000
  146.3003  140.4019  142.8706 LP  0  0  0  0  0  0  0  0  0  0  0  0  # atno 17320 bound_to 7965
  144.8783  140.7366  143.6003 LP  0  0  0  0  0  0  0  0  0  0  0  0  # atno 17321 bound_to 7965
  139.9048  144.6891  150.8626 LP  0  0  0  0  0  0  0  0  0  0  0  0  # atno 17342 bound_to 10162
  140.7720  143.3487  151.2059 LP  0  0  0  0  0  0  0  0  0  0  0  0  # atno 17343 bound_to 10162
  157.1061  130.6002  149.5471 LP  0  0  0  0  0  0  0  0  0  0  0  0  # atno 17370 bound_to 10713
  155.9934  130.4995  150.7381 LP  0  0  0  0  0  0  0  0  0  0  0  0  # atno 17371 bound_to 10713
  141.1850  133.6554  156.5180 LP  0  0  0  0  0  0  0  0  0  0  0  0  # atno 17394 bound_to 11000
  140.4169  134.7222  157.4868 LP  0  0  0  0  0  0  0  0  0  0  0  0  # atno 17395 bound_to 11000

$$$$
