AV-unprocessed.smi:937|AV-procd|sdf|4211|dock7
  -GOLD-   22720 2123D 1   1.00000     0.00000
 Structure written by MMmdl.
 45 46  0  0  0  0  0  0  0  0  1 V2000
  152.4218  141.9391  159.4255 C   0  0  0  0  0  0  0  0  0  0  0  0
  152.0333  141.0880  158.2348 C   0  0  0  0  0  0  0  0  0  0  0  0
  151.5666  141.6814  157.0430 C   0  0  0  0  0  0  0  0  0  0  0  0
  151.2166  140.8415  155.9686 C   0  0  0  0  0  0  0  0  0  0  0  0
  151.3453  139.4462  156.1256 C   0  0  0  0  0  0  0  0  0  0  0  0
  150.9825  138.5028  154.9956 C   0  0  0  0  0  0  0  0  0  0  0  0
  150.7989  137.0597  155.4833 C   0  0  0  0  0  0  0  0  0  0  0  0
  149.9963  136.2976  154.5376 N   0  0  0  0  0  0  0  0  0  0  0  0
  149.2867  135.2026  154.8537 C   0  0  0  0  0  0  0  0  0  0  0  0
  149.2485  134.7261  155.9865 O   0  0  0  0  0  0  0  0  0  0  0  0
  148.6087  134.6523  153.8299 N   0  0  0  0  0  0  0  0  0  0  0  0
  147.7493  133.4665  153.8378 C   0  0  2  0  0  0  0  0  0  0  0  0
  148.5975  132.1794  153.8909 C   0  0  0  0  0  0  0  0  0  0  0  0
  147.7145  130.9261  153.8118 C   0  0  0  0  0  0  0  0  0  0  0  0
  146.8304  130.9460  152.5555 C   0  0  0  0  0  0  0  0  0  0  0  0
  145.9626  132.2205  152.4912 C   0  0  2  0  0  0  0  0  0  0  0  0
  145.0603  132.2420  151.2399 C   0  0  0  0  0  0  0  0  0  0  0  0
  144.2018  133.2610  151.2910 F   0  0  0  0  0  0  0  0  0  0  0  0
  145.8055  132.3616  150.1410 F   0  0  0  0  0  0  0  0  0  0  0  0
  144.3724  131.1033  151.1535 F   0  0  0  0  0  0  0  0  0  0  0  0
  146.8572  133.4763  152.5810 C   0  0  0  0  0  0  0  0  0  0  0  0
  151.8224  138.9544  157.3589 C   0  0  0  0  0  0  0  0  0  0  0  0
  152.1599  139.7522  158.3951 N   0  0  0  0  0  0  0  0  0  0  0  0
  152.4156  142.9994  159.1715 H   0  0  0  0  0  0  0  0  0  0  0  0
  153.4228  141.6788  159.7705 H   0  0  0  0  0  0  0  0  0  0  0  0
  151.7222  141.7808  160.2464 H   0  0  0  0  0  0  0  0  0  0  0  0
  151.4781  142.7540  156.9512 H   0  0  0  0  0  0  0  0  0  0  0  0
  150.8573  141.2619  155.0407 H   0  0  0  0  0  0  0  0  0  0  0  0
  150.0696  138.8543  154.5122 H   0  0  0  0  0  0  0  0  0  0  0  0
  151.7683  138.5459  154.2401 H   0  0  0  0  0  0  0  0  0  0  0  0
  151.7719  136.5803  155.6055 H   0  0  0  0  0  0  0  0  0  0  0  0
  150.3085  137.0502  156.4581 H   0  0  0  0  0  0  0  0  0  0  0  0
  149.9746  136.6239  153.5824 H   0  0  0  0  0  0  0  0  0  0  0  0
  148.7099  135.1093  152.9350 H   0  0  0  0  0  0  0  0  0  0  0  0
  147.0935  133.4997  154.7097 H   0  0  0  0  0  0  0  0  0  0  0  0
  149.3095  132.1721  153.0642 H   0  0  0  0  0  0  0  0  0  0  0  0
  149.1889  132.1484  154.8064 H   0  0  0  0  0  0  0  0  0  0  0  0
  148.3389  130.0323  153.8121 H   0  0  0  0  0  0  0  0  0  0  0  0
  147.0864  130.8646  154.7013 H   0  0  0  0  0  0  0  0  0  0  0  0
  147.4610  130.8827  151.6679 H   0  0  0  0  0  0  0  0  0  0  0  0
  146.1969  130.0588  152.5461 H   0  0  0  0  0  0  0  0  0  0  0  0
  145.3071  132.2183  153.3636 H   0  0  0  0  0  0  0  0  0  0  0  0
  146.2354  134.3723  152.5853 H   0  0  0  0  0  0  0  0  0  0  0  0
  147.4816  133.5416  151.6886 H   0  0  0  0  0  0  0  0  0  0  0  0
  151.9379  137.8928  157.5209 H   0  0  0  0  0  0  0  0  0  0  0  0
  1  2  1  0  0  0  0
  1 24  1  0  0  0  0
  1 25  1  0  0  0  0
  1 26  1  0  0  0  0
  2 23  1  0  0  0  0
  2  3  2  0  0  0  0
  3  4  1  0  0  0  0
  3 27  1  0  0  0  0
  4  5  2  0  0  0  0
  4 28  1  0  0  0  0
  5  6  1  0  0  0  0
  5 22  1  0  0  0  0
  6  7  1  0  0  0  0
  6 29  1  0  0  0  0
  6 30  1  0  0  0  0
  7  8  1  0  0  0  0
  7 31  1  0  0  0  0
  7 32  1  0  0  0  0
  8  9  1  0  0  0  0
  8 33  1  0  0  0  0
  9 10  2  0  0  0  0
  9 11  1  0  0  0  0
 11 12  1  0  0  0  0
 11 34  1  0  0  0  0
 12 21  1  0  0  0  0
 12 13  1  0  0  0  0
 12 35  1  0  0  0  0
 13 14  1  0  0  0  0
 13 36  1  0  0  0  0
 13 37  1  0  0  0  0
 14 15  1  0  0  0  0
 14 38  1  0  0  0  0
 14 39  1  0  0  0  0
 15 16  1  0  0  0  0
 15 40  1  0  0  0  0
 15 41  1  0  0  0  0
 16 17  1  0  0  0  0
 16 21  1  0  0  0  0
 16 42  1  0  0  0  0
 17 18  1  0  0  0  0
 17 19  1  0  0  0  0
 17 20  1  0  0  0  0
 21 43  1  0  0  0  0
 21 44  1  0  0  0  0
 22 23  2  0  0  0  0
 22 45  1  0  0  0  0
M  END
> <s_m_source_file>
AV-unprocessed.smi

> <i_m_source_file_index>
937

> <i_lp_mmshare_version>
43012

> <i_f3d_flags>
0

> <s_epik_input>
W0NIM11jMVtjSF1bY0hdYyhbY0hdbjEpW0NIMl1bQ0gyXVtOSF1DKD1PKVtOSF1bQ0BASF0yW0NIMl1bQ0gyXVtDSDJdW0NAQEhdKEMoRikoRilGKVtDSDJdMg==

> <s_epik_cmdline>
J2VwaWtfcHl0aG9uJywgJy1waCcsICc3LjAnLCAnLXRuJywgJzgnLCAnLW1hJywgJzIwMCcsICctbWV0YWxfYmluZGluZycsICctaW1hZScsICc8aW5maWxlLm1hZT4nLCAnLW9tYWUnLCAnPG91dGZpbGUubWFlPic=

> <r_epik_Ionization_Penalty>
0.0563445

> <r_epik_Ionization_Penalty_Charging>
0

> <r_epik_Ionization_Penalty_Neutral>
0.0563445

> <r_epik_State_Penalty>
0.0485409

> <r_epik_Charging_Adjusted_Penalty>
0.0485409

> <i_epik_Tot_Q>
0

> <i_epik_Tot_abs_Q>
0

> <r_epik_Metal_State_Penalty>
0.0443056

> <b_epik_Metal_Only>
0

> <s_lp_Force_Field>
OPLS_2005

> <r_lp_Energy>
18.9934

> <b_lp_Chiralities_Consistent>
1

> <s_lp_Variant>
AV-unprocessed.smi:937-3

> <Gold.Version>
5.8.1

> <Gold.Id.Protein>
6NUR|6NUR_protein|mol2

> <Gold.PLP.Fitness>
42.7161

> <Gold.PLP.PLP>
-38.8235

> <Gold.PLP.part.hbond>
-1.9403

> <Gold.PLP.part.metal>
0.0000

> <Gold.PLP.part.buried>
-3.8861

> <Gold.PLP.part.nonpolar>
-33.4254

> <Gold.PLP.part.repulsive>
0.0769

> <Gold.PLP.ligand.clash>
0.0000

> <Gold.PLP.ligand.torsion>
0.7738

> <Gold.PLP.Chemscore.Hbond>
1.8000

> <Gold.PLP.Chemscore.CHOScore>
0.0000

> <Gold.PLP.Chemscore.Metal>
0.0000

> <Gold.Chemscore.Hbonds>
donor molecule, donor type, donor heavy atom, donor atom, acceptor molecule, acceptor atom, score
      L1  H     8    33       P1  7948  0.74
      L1  H    11    34       P1  7948  1.00

> <Gold.PLP.Chemscore.Internal.Correction>
0.0402

> <Gold.Rescore>
     Score         DG    S(hbond)    S(metal)    S(lipo)     H(rot)  DE(clash)    DE(int)     intcor
     15.93     -16.62       1.52        0.00      86.46       1.58       0.05       0.64       ----

> <Gold.Chemscore.Fitness>
15.9260

> <Gold.Chemscore.DG>
-16.6169

> <Gold.Chemscore.ZeroCoef>
-5.4800

> <Gold.Chemscore.Hbond>
1.5206

> <Gold.Chemscore.Metal>
0.0000

> <Gold.Chemscore.Lipo>
86.4570

> <Gold.Chemscore.Internal_Hbond>
0.0000

> <Gold.Chemscore.DEClash>
0.0508

> <Gold.Chemscore.DEInternal>
0.6400

> <Gold.Chemscore.Rot>
1.5849

> <Gold.Chemscore.Internal.Correction>
   9.000000E+99

> <Gold.Chemscore.Hbonds>
donor molecule, donor type, donor heavy atom, donor atom, acceptor molecule, acceptor atom, score
      L1  H     8    33       P1  7948  0.16
      L1  H    11    34       P1  7948  0.47

> <Gold.Chemscore.Hbond.Weighted>
-5.0788

> <Gold.Chemscore.Metal.Weighted>
-0.0000

> <Gold.Chemscore.Lipo.Weighted>
-10.1155

> <Gold.Chemscore.Internal_Hbond.Weighted>
0.0000

> <Gold.Chemscore.DEClash.Weighted>
0.0508

> <Gold.Chemscore.DEInternal.Weighted>
0.6400

> <Gold.Chemscore.Rot.Weighted>
4.0574

> <Gold.Chemscore.Internal.Correction.Weighted>
   9.000000E+99

> <Gold.Protein.RotatedTorsions>
[ 6907 6896 6895 6894 ] final    1.71 input  -60.11 | X-H torsion
[ 7974 7965 7964 7962 ] final   36.86 input  175.53 | X-H torsion
[ 8008 7997 7996 7995 ] final  105.19 input   59.86 | X-H torsion
[ 10167 10162 10161 10158 ] final -131.38 input  -65.29 | X-H torsion
[ 10718 10713 10712 10709 ] final -131.38 input   66.30 | X-H torsion
[ 10763 10752 10751 10750 ] final  -10.74 input  -60.55 | X-H torsion
[ 11005 11000 10999 10996 ] final  -86.53 input  -57.11 | X-H torsion

> <Gold.Protein.ActiveResidues>
 VAL166  LYS551  ARG553  GLY616  TRP617  ASP618  TYR619  PRO620  LYS621  CYS622 
 ASP623  PHE694  ASN695  SER759  ASP760  ASP761  ALA762  ILE779  LEU786  VAL792 
 PHE793  MET794  SER795  GLU796  ALA797  LYS798  CYS799  TRP800  GLU811  SER814 

> <Gold.Protein.RotatedAtoms>
  151.5970  135.1050  160.0051 H   0  0  0  0  0  0  0  0  0  0  0  0  # atno 6907 bound_to 6896
  152.4277  133.7220  159.6549 H   0  0  0  0  0  0  0  0  0  0  0  0  # atno 6908 bound_to 6896
  150.8167  133.8252  159.3179 H   0  0  0  0  0  0  0  0  0  0  0  0  # atno 6909 bound_to 6896
  146.1180  139.5965  142.9308 H   0  0  0  0  0  0  0  0  0  0  0  0  # atno 7974 bound_to 7965
  156.1638  140.3134  155.8853 H   0  0  0  0  0  0  0  0  0  0  0  0  # atno 8008 bound_to 7997
  155.3728  140.0483  157.3062 H   0  0  0  0  0  0  0  0  0  0  0  0  # atno 8009 bound_to 7997
  154.5172  140.2185  155.9054 H   0  0  0  0  0  0  0  0  0  0  0  0  # atno 8010 bound_to 7997
  139.9195  143.6399  152.2557 H   0  0  0  0  0  0  0  0  0  0  0  0  # atno 10167 bound_to 10162
  156.2238  130.6995  151.0785 H   0  0  0  0  0  0  0  0  0  0  0  0  # atno 10718 bound_to 10713
  153.4736  135.7017  153.5979 H   0  0  0  0  0  0  0  0  0  0  0  0  # atno 10763 bound_to 10752
  153.4223  135.3822  155.2119 H   0  0  0  0  0  0  0  0  0  0  0  0  # atno 10764 bound_to 10752
  154.8724  135.3930  154.4176 H   0  0  0  0  0  0  0  0  0  0  0  0  # atno 10765 bound_to 10752
  141.1629  133.7460  156.9175 H   0  0  0  0  0  0  0  0  0  0  0  0  # atno 11005 bound_to 11000
  145.5525  141.0412  143.2270 LP  0  0  0  0  0  0  0  0  0  0  0  0  # atno 17320 bound_to 7965
  144.7571  139.7048  143.7249 LP  0  0  0  0  0  0  0  0  0  0  0  0  # atno 17321 bound_to 7965
  139.6874  144.7650  151.1500 LP  0  0  0  0  0  0  0  0  0  0  0  0  # atno 17342 bound_to 10162
  140.7666  143.5638  150.9070 LP  0  0  0  0  0  0  0  0  0  0  0  0  # atno 17343 bound_to 10162
  157.7100  131.0738  150.6533 LP  0  0  0  0  0  0  0  0  0  0  0  0  # atno 17370 bound_to 10713
  156.6597  130.4508  149.5692 LP  0  0  0  0  0  0  0  0  0  0  0  0  # atno 17371 bound_to 10713
  140.1474  134.9253  157.2548 LP  0  0  0  0  0  0  0  0  0  0  0  0  # atno 17394 bound_to 11000
  140.2763  134.3401  155.7357 LP  0  0  0  0  0  0  0  0  0  0  0  0  # atno 17395 bound_to 11000

$$$$
