AV-unprocessed.smi:1606|AV-procd|sdf|6461|dock8
  -GOLD-   22720 7113D 1   1.00000     0.00000
 Structure written by MMmdl.
 35 36  0  0  0  0  0  0  0  0  1 V2000
  153.1602  138.9945  157.4534 O   0  0  0  0  0  0  0  0  0  0  0  0
  152.1461  139.5458  157.8821 C   0  0  0  0  0  0  0  0  0  0  0  0
  152.1328  140.2978  158.9932 N   0  0  0  0  0  0  0  0  0  0  0  0
  153.3035  140.6148  159.8050 C   0  0  0  0  0  0  0  0  0  0  0  0
  153.0679  141.7943  160.7712 C   0  0  0  0  0  0  0  0  0  0  0  0
  152.4638  143.0215  160.1072 C   0  0  0  0  0  0  0  0  0  0  0  0
  152.2112  144.1897  160.8573 C   0  0  0  0  0  0  0  0  0  0  0  0
  151.6373  145.2970  160.2029 C   0  0  0  0  0  0  0  0  0  0  0  0
  151.3371  145.1937  158.8311 C   0  0  0  0  0  0  0  0  0  0  0  0
  151.6265  143.9829  158.1712 C   0  0  0  0  0  0  0  0  0  0  0  0
  152.1777  142.9165  158.7890 N   0  0  0  0  0  0  0  0  0  0  0  0
  150.8129  139.4091  157.1361 C   0  0  0  0  0  0  0  0  0  0  0  0
  150.9613  138.5643  155.8579 C   0  0  0  0  0  0  0  0  0  0  0  0
  149.6351  138.5267  155.0814 C   0  0  0  0  0  0  0  0  0  0  0  0
  149.2123  139.8512  154.7745 O   0  0  0  0  0  0  0  0  0  0  0  0
  148.9587  140.6374  155.9341 C   0  0  0  0  0  0  0  0  0  0  0  0
  150.2472  140.7895  156.7586 C   0  0  0  0  0  0  0  0  0  0  0  0
  151.2566  140.7139  159.2737 H   0  0  0  0  0  0  0  0  0  0  0  0
  153.5557  139.7227  160.3786 H   0  0  0  0  0  0  0  0  0  0  0  0
  154.1610  140.8181  159.1619 H   0  0  0  0  0  0  0  0  0  0  0  0
  152.4141  141.4737  161.5831 H   0  0  0  0  0  0  0  0  0  0  0  0
  154.0096  142.0777  161.2440 H   0  0  0  0  0  0  0  0  0  0  0  0
  152.4482  144.2366  161.9100 H   0  0  0  0  0  0  0  0  0  0  0  0
  151.4292  146.2081  160.7441 H   0  0  0  0  0  0  0  0  0  0  0  0
  150.8954  146.0222  158.2973 H   0  0  0  0  0  0  0  0  0  0  0  0
  151.4091  143.8669  157.1197 H   0  0  0  0  0  0  0  0  0  0  0  0
  150.0955  138.9121  157.7919 H   0  0  0  0  0  0  0  0  0  0  0  0
  151.7381  138.9797  155.2138 H   0  0  0  0  0  0  0  0  0  0  0  0
  151.2727  137.5494  156.1079 H   0  0  0  0  0  0  0  0  0  0  0  0
  149.7626  137.9742  154.1504 H   0  0  0  0  0  0  0  0  0  0  0  0
  148.8628  138.0110  155.6544 H   0  0  0  0  0  0  0  0  0  0  0  0
  148.5964  141.6171  155.6227 H   0  0  0  0  0  0  0  0  0  0  0  0
  148.1669  140.1805  156.5297 H   0  0  0  0  0  0  0  0  0  0  0  0
  150.0437  141.3742  157.6568 H   0  0  0  0  0  0  0  0  0  0  0  0
  150.9784  141.3540  156.1781 H   0  0  0  0  0  0  0  0  0  0  0  0
  1  2  2  0  0  0  0
  2  3  1  0  0  0  0
  2 12  1  0  0  0  0
  3  4  1  0  0  0  0
  3 18  1  0  0  0  0
  4  5  1  0  0  0  0
  4 19  1  0  0  0  0
  4 20  1  0  0  0  0
  5  6  1  0  0  0  0
  5 21  1  0  0  0  0
  5 22  1  0  0  0  0
  6 11  1  0  0  0  0
  6  7  2  0  0  0  0
  7  8  1  0  0  0  0
  7 23  1  0  0  0  0
  8  9  2  0  0  0  0
  8 24  1  0  0  0  0
  9 10  1  0  0  0  0
  9 25  1  0  0  0  0
 10 11  2  0  0  0  0
 10 26  1  0  0  0  0
 12 17  1  0  0  0  0
 12 13  1  0  0  0  0
 12 27  1  0  0  0  0
 13 14  1  0  0  0  0
 13 28  1  0  0  0  0
 13 29  1  0  0  0  0
 14 15  1  0  0  0  0
 14 30  1  0  0  0  0
 14 31  1  0  0  0  0
 15 16  1  0  0  0  0
 16 17  1  0  0  0  0
 16 32  1  0  0  0  0
 16 33  1  0  0  0  0
 17 34  1  0  0  0  0
 17 35  1  0  0  0  0
M  END
> <s_m_source_file>
AV-unprocessed.smi

> <i_m_source_file_index>
1606

> <i_lp_mmshare_version>
43012

> <i_f3d_flags>
0

> <s_epik_input>
W0NIMl0xW0NIMl1PW0NIMl1bQ0gyXVtDSF0xQyg9TylbTkhdW0NIMl1bQ0gyXWMyW2NIXVtjSF1bY0hdW2NIXW4y

> <s_epik_cmdline>
J2VwaWtfcHl0aG9uJywgJy1waCcsICc3LjAnLCAnLXRuJywgJzgnLCAnLW1hJywgJzIwMCcsICctbWV0YWxfYmluZGluZycsICctaW1hZScsICc8aW5maWxlLm1hZT4nLCAnLW9tYWUnLCAnPG91dGZpbGUubWFlPic=

> <r_epik_Ionization_Penalty>
0.0277532

> <r_epik_Ionization_Penalty_Charging>
0

> <r_epik_Ionization_Penalty_Neutral>
0.0277532

> <r_epik_State_Penalty>
0.022734

> <r_epik_Charging_Adjusted_Penalty>
0.022734

> <i_epik_Tot_Q>
0

> <i_epik_Tot_abs_Q>
0

> <r_epik_Metal_State_Penalty>
0.0217131

> <b_epik_Metal_Only>
0

> <s_lp_Force_Field>
OPLS_2005

> <r_lp_Energy>
8.37046

> <b_lp_Chiralities_Consistent>
1

> <s_lp_Variant>
AV-unprocessed.smi:1606-1

> <Gold.Version>
5.8.1

> <Gold.Id.Protein>
6NUR|6NUR_protein|mol2

> <Gold.PLP.Fitness>
49.6072

> <Gold.PLP.PLP>
-43.9127

> <Gold.PLP.part.hbond>
-1.8144

> <Gold.PLP.part.metal>
0.0000

> <Gold.PLP.part.buried>
-5.2930

> <Gold.PLP.part.nonpolar>
-37.3165

> <Gold.PLP.part.repulsive>
0.8605

> <Gold.PLP.ligand.clash>
0.0000

> <Gold.PLP.ligand.torsion>
0.1472

> <Gold.PLP.Chemscore.Hbond>
1.9920

> <Gold.PLP.Chemscore.CHOScore>
0.0000

> <Gold.PLP.Chemscore.Metal>
0.0000

> <Gold.Chemscore.Hbonds>
donor molecule, donor type, donor heavy atom, donor atom, acceptor molecule, acceptor atom, score
      P1  H  7997  8010       L1     1  1.00

> <Gold.PLP.Chemscore.Internal.Correction>
0.0128

> <Gold.Rescore>
     Score         DG    S(hbond)    S(metal)    S(lipo)     H(rot)  DE(clash)    DE(int)     intcor
     18.97     -21.07       1.82        0.00     113.46       1.47       0.08       2.02       ----

> <Gold.Chemscore.Fitness>
18.9705

> <Gold.Chemscore.DG>
-21.0701

> <Gold.Chemscore.ZeroCoef>
-5.4800

> <Gold.Chemscore.Hbond>
1.8180

> <Gold.Chemscore.Metal>
0.0000

> <Gold.Chemscore.Lipo>
113.4596

> <Gold.Chemscore.Internal_Hbond>
0.0000

> <Gold.Chemscore.DEClash>
0.0816

> <Gold.Chemscore.DEInternal>
2.0180

> <Gold.Chemscore.Rot>
1.4674

> <Gold.Chemscore.Internal.Correction>
   9.000000E+99

> <Gold.Chemscore.Hbonds>
donor molecule, donor type, donor heavy atom, donor atom, acceptor molecule, acceptor atom, score
      P1  H  7997  8010       L1     1  0.93

> <Gold.Chemscore.Hbond.Weighted>
-6.0720

> <Gold.Chemscore.Metal.Weighted>
-0.0000

> <Gold.Chemscore.Lipo.Weighted>
-13.2748

> <Gold.Chemscore.Internal_Hbond.Weighted>
0.0000

> <Gold.Chemscore.DEClash.Weighted>
0.0816

> <Gold.Chemscore.DEInternal.Weighted>
2.0180

> <Gold.Chemscore.Rot.Weighted>
3.7567

> <Gold.Chemscore.Internal.Correction.Weighted>
   9.000000E+99

> <Gold.Protein.RotatedTorsions>
[ 6907 6896 6895 6894 ] final   22.15 input  -60.11 | X-H torsion
[ 7974 7965 7964 7962 ] final  -18.46 input  175.53 | X-H torsion
[ 8008 7997 7996 7995 ] final   27.24 input   59.86 | X-H torsion
[ 10167 10162 10161 10158 ] final   81.60 input  -65.29 | X-H torsion
[ 10718 10713 10712 10709 ] final -124.73 input   66.30 | X-H torsion
[ 10763 10752 10751 10750 ] final   -1.79 input  -60.55 | X-H torsion
[ 11005 11000 10999 10996 ] final   86.43 input  -57.11 | X-H torsion

> <Gold.Protein.ActiveResidues>
 VAL166  LYS551  ARG553  GLY616  TRP617  ASP618  TYR619  PRO620  LYS621  CYS622 
 ASP623  PHE694  ASN695  SER759  ASP760  ASP761  ALA762  ILE779  LEU786  VAL792 
 PHE793  MET794  SER795  GLU796  ALA797  LYS798  CYS799  TRP800  GLU811  SER814 

> <Gold.Protein.RotatedAtoms>
  151.9227  135.0291  160.0523 H   0  0  0  0  0  0  0  0  0  0  0  0  # atno 6907 bound_to 6896
  152.2186  133.4961  159.5158 H   0  0  0  0  0  0  0  0  0  0  0  0  # atno 6908 bound_to 6896
  150.6994  134.1289  159.4105 H   0  0  0  0  0  0  0  0  0  0  0  0  # atno 6909 bound_to 6896
  146.1891  140.3924  142.8465 H   0  0  0  0  0  0  0  0  0  0  0  0  # atno 7974 bound_to 7965
  155.0399  140.3168  155.4728 H   0  0  0  0  0  0  0  0  0  0  0  0  # atno 8008 bound_to 7997
  156.2857  140.2165  156.5466 H   0  0  0  0  0  0  0  0  0  0  0  0  # atno 8009 bound_to 7997
  154.7299  140.0482  157.0704 H   0  0  0  0  0  0  0  0  0  0  0  0  # atno 8010 bound_to 7997
  139.9376  144.6111  150.8283 H   0  0  0  0  0  0  0  0  0  0  0  0  # atno 10167 bound_to 10162
  156.1613  130.6603  151.0053 H   0  0  0  0  0  0  0  0  0  0  0  0  # atno 10718 bound_to 10713
  153.3495  135.6985  153.6801 H   0  0  0  0  0  0  0  0  0  0  0  0  # atno 10763 bound_to 10752
  153.5533  135.3549  155.2769 H   0  0  0  0  0  0  0  0  0  0  0  0  # atno 10764 bound_to 10752
  154.8651  135.4232  154.2727 H   0  0  0  0  0  0  0  0  0  0  0  0  # atno 10765 bound_to 10752
  139.8945  134.8355  156.2720 H   0  0  0  0  0  0  0  0  0  0  0  0  # atno 11005 bound_to 11000
  144.8452  140.6918  143.6203 LP  0  0  0  0  0  0  0  0  0  0  0  0  # atno 17320 bound_to 7965
  145.3848  139.1629  143.4261 LP  0  0  0  0  0  0  0  0  0  0  0  0  # atno 17321 bound_to 7965
  140.7620  143.3188  151.2671 LP  0  0  0  0  0  0  0  0  0  0  0  0  # atno 17342 bound_to 10162
  139.6731  143.9985  152.2765 LP  0  0  0  0  0  0  0  0  0  0  0  0  # atno 17343 bound_to 10162
  157.6734  131.0856  150.7555 LP  0  0  0  0  0  0  0  0  0  0  0  0  # atno 17370 bound_to 10713
  156.7617  130.4801  149.5435 LP  0  0  0  0  0  0  0  0  0  0  0  0  # atno 17371 bound_to 10713
  141.0095  133.7104  156.1088 LP  0  0  0  0  0  0  0  0  0  0  0  0  # atno 17394 bound_to 11000
  140.7388  134.4173  157.5557 LP  0  0  0  0  0  0  0  0  0  0  0  0  # atno 17395 bound_to 11000

$$$$
