AV-unprocessed.smi:2567|AV-procd|sdf|10081|dock3
  -GOLD-   2272014103D 1   1.00000     0.00000
 Structure written by MMmdl.
 33 34  0  0  0  0  0  0  0  0  1 V2000
  152.5070  142.9708  160.0114 C   0  0  0  0  0  0  0  0  0  0  0  0
  151.7084  143.6369  158.8740 C   0  0  0  0  0  0  0  0  0  0  0  0
  150.4035  144.2036  159.4766 C   0  0  0  0  0  0  0  0  0  0  0  0
  152.5175  144.8100  158.2881 C   0  0  0  0  0  0  0  0  0  0  0  0
  151.4284  142.6243  157.7890 C   0  0  0  0  0  0  0  0  0  0  0  0
  150.6835  142.8849  156.7089 N   0  0  0  0  0  0  0  0  0  0  0  0
  150.6381  141.7966  155.9130 N   0  0  0  0  0  0  0  0  0  0  0  0
  151.3740  140.9225  156.5967 C   0  0  0  0  0  0  0  0  0  0  0  0
  151.6413  139.5532  156.0536 C   0  0  1  0  0  0  0  0  0  0  0  0
  151.0481  138.4483  156.9497 C   0  0  0  0  0  0  0  0  0  0  0  0
  151.2429  137.1368  156.3330 N   0  0  0  0  0  0  0  0  0  0  0  0
  150.6936  137.1038  154.9781 C   0  0  0  0  0  0  0  0  0  0  0  0
  151.2882  138.2426  154.1298 C   0  0  0  0  0  0  0  0  0  0  0  0
  151.0371  139.4924  154.7635 O   0  0  0  0  0  0  0  0  0  0  0  0
  151.9136  141.3849  157.7661 N   0  0  0  0  0  0  0  0  0  0  0  0
  152.7172  143.6758  160.8163 H   0  0  0  0  0  0  0  0  0  0  0  0
  153.4648  142.5873  159.6580 H   0  0  0  0  0  0  0  0  0  0  0  0
  151.9574  142.1330  160.4424 H   0  0  0  0  0  0  0  0  0  0  0  0
  149.7899  143.4159  159.9153 H   0  0  0  0  0  0  0  0  0  0  0  0
  149.8016  144.7141  158.7237 H   0  0  0  0  0  0  0  0  0  0  0  0
  150.6129  144.9270  160.2656 H   0  0  0  0  0  0  0  0  0  0  0  0
  152.7322  145.5638  159.0463 H   0  0  0  0  0  0  0  0  0  0  0  0
  151.9738  145.3008  157.4800 H   0  0  0  0  0  0  0  0  0  0  0  0
  153.4732  144.4742  157.8836 H   0  0  0  0  0  0  0  0  0  0  0  0
  152.7207  139.4194  155.9540 H   0  0  0  0  0  0  0  0  0  0  0  0
  151.5140  138.4717  157.9349 H   0  0  0  0  0  0  0  0  0  0  0  0
  149.9831  138.6294  157.1018 H   0  0  0  0  0  0  0  0  0  0  0  0
  150.9032  136.1406  154.5127 H   0  0  0  0  0  0  0  0  0  0  0  0
  149.6081  137.2049  155.0151 H   0  0  0  0  0  0  0  0  0  0  0  0
  152.3601  138.1018  153.9822 H   0  0  0  0  0  0  0  0  0  0  0  0
  150.8298  138.2517  153.1408 H   0  0  0  0  0  0  0  0  0  0  0  0
  150.7930  136.4247  156.8996 H   0  0  0  0  0  0  0  0  0  0  0  0
  150.2164  143.7514  156.4835 H   0  0  0  0  0  0  0  0  0  0  0  0
  1  2  1  0  0  0  0
  1 16  1  0  0  0  0
  1 17  1  0  0  0  0
  1 18  1  0  0  0  0
  2  3  1  0  0  0  0
  2  4  1  0  0  0  0
  2  5  1  0  0  0  0
  3 19  1  0  0  0  0
  3 20  1  0  0  0  0
  3 21  1  0  0  0  0
  4 22  1  0  0  0  0
  4 23  1  0  0  0  0
  4 24  1  0  0  0  0
  5 15  2  0  0  0  0
  5  6  1  0  0  0  0
  6  7  1  0  0  0  0
  6 33  1  0  0  0  0
  7  8  2  0  0  0  0
  8  9  1  0  0  0  0
  8 15  1  0  0  0  0
  9 14  1  0  0  0  0
  9 10  1  0  0  0  0
  9 25  1  0  0  0  0
 10 11  1  0  0  0  0
 10 26  1  0  0  0  0
 10 27  1  0  0  0  0
 11 12  1  0  0  0  0
 11 32  1  0  0  0  0
 12 13  1  0  0  0  0
 12 28  1  0  0  0  0
 12 29  1  0  0  0  0
 13 14  1  0  0  0  0
 13 30  1  0  0  0  0
 13 31  1  0  0  0  0
M  END
> <s_m_source_file>
AV-unprocessed.smi

> <i_m_source_file_index>
2567

> <i_lp_mmshare_version>
43012

> <i_f3d_flags>
0

> <s_epik_input>
W0NIM11DKFtDSDNdKShbQ0gzXSljMW5bbkhdYyhuMSlbQ0BASF0yW0NIMl1bTkhdW0NIMl1bQ0gyXU8y

> <s_epik_cmdline>
J2VwaWtfcHl0aG9uJywgJy1waCcsICc3LjAnLCAnLXRuJywgJzgnLCAnLW1hJywgJzIwMCcsICctbWV0YWxfYmluZGluZycsICctaW1hZScsICc8aW5maWxlLm1hZT4nLCAnLW9tYWUnLCAnPG91dGZpbGUubWFlPic=

> <r_lp_tautomer_probability>
0.948284

> <r_epik_Ionization_Penalty>
1.10045

> <r_epik_Ionization_Penalty_Charging>
0

> <r_epik_Ionization_Penalty_Neutral>
1.10045

> <r_epik_State_Penalty>
1.2625

> <r_epik_Charging_Adjusted_Penalty>
1.2625

> <i_epik_Tot_Q>
0

> <i_epik_Tot_abs_Q>
0

> <r_epik_Metal_State_Penalty>
1.57133

> <b_epik_Metal_Only>
0

> <s_lp_Force_Field>
OPLS_2005

> <r_lp_Energy>
14.8987

> <b_lp_Chiralities_Consistent>
1

> <s_lp_Variant>
AV-unprocessed.smi:2567-6

> <Gold.Version>
5.8.1

> <Gold.Id.Protein>
6NUR|6NUR_protein|mol2

> <Gold.PLP.Fitness>
35.9139

> <Gold.PLP.PLP>
-30.1348

> <Gold.PLP.part.hbond>
-2.0000

> <Gold.PLP.part.metal>
0.0000

> <Gold.PLP.part.buried>
-4.7706

> <Gold.PLP.part.nonpolar>
-22.8467

> <Gold.PLP.part.repulsive>
0.2097

> <Gold.PLP.ligand.clash>
0.0000

> <Gold.PLP.ligand.torsion>
0.1203

> <Gold.PLP.Chemscore.Hbond>
2.0000

> <Gold.PLP.Chemscore.CHOScore>
0.0000

> <Gold.PLP.Chemscore.Metal>
0.0000

> <Gold.Chemscore.Hbonds>
donor molecule, donor type, donor heavy atom, donor atom, acceptor molecule, acceptor atom, score
      L1  H     6    33       P1  8028  1.00
      P1  H  7989  7998       L1    14  1.00

> <Gold.PLP.Chemscore.Internal.Correction>
0.0197

> <Gold.Rescore>
     Score         DG    S(hbond)    S(metal)    S(lipo)     H(rot)  DE(clash)    DE(int)     intcor
     16.34     -16.68       1.81        0.00      71.40       1.25       0.18       0.16       ----

> <Gold.Chemscore.Fitness>
16.3410

> <Gold.Chemscore.DG>
-16.6800

> <Gold.Chemscore.ZeroCoef>
-5.4800

> <Gold.Chemscore.Hbond>
1.8065

> <Gold.Chemscore.Metal>
0.0000

> <Gold.Chemscore.Lipo>
71.3968

> <Gold.Chemscore.Internal_Hbond>
0.0000

> <Gold.Chemscore.DEClash>
0.1757

> <Gold.Chemscore.DEInternal>
0.1633

> <Gold.Chemscore.Rot>
1.2450

> <Gold.Chemscore.Internal.Correction>
   9.000000E+99

> <Gold.Chemscore.Hbonds>
donor molecule, donor type, donor heavy atom, donor atom, acceptor molecule, acceptor atom, score
      L1  H     6    33       P1  8028  0.98
      P1  H  7989  7998       L1    14  0.49

> <Gold.Chemscore.Hbond.Weighted>
-6.0338

> <Gold.Chemscore.Metal.Weighted>
-0.0000

> <Gold.Chemscore.Lipo.Weighted>
-8.3534

> <Gold.Chemscore.Internal_Hbond.Weighted>
0.0000

> <Gold.Chemscore.DEClash.Weighted>
0.1757

> <Gold.Chemscore.DEInternal.Weighted>
0.1633

> <Gold.Chemscore.Rot.Weighted>
3.1872

> <Gold.Chemscore.Internal.Correction.Weighted>
   9.000000E+99

> <Gold.Protein.RotatedTorsions>
[ 6907 6896 6895 6894 ] final -151.65 input  -60.11 | X-H torsion
[ 7974 7965 7964 7962 ] final  168.21 input  175.53 | X-H torsion
[ 8008 7997 7996 7995 ] final -101.53 input   59.86 | X-H torsion
[ 10167 10162 10161 10158 ] final   26.01 input  -65.29 | X-H torsion
[ 10718 10713 10712 10709 ] final   26.50 input   66.30 | X-H torsion
[ 10763 10752 10751 10750 ] final  127.53 input  -60.55 | X-H torsion
[ 11005 11000 10999 10996 ] final   74.42 input  -57.11 | X-H torsion

> <Gold.Protein.ActiveResidues>
 VAL166  LYS551  ARG553  GLY616  TRP617  ASP618  TYR619  PRO620  LYS621  CYS622 
 ASP623  PHE694  ASN695  SER759  ASP760  ASP761  ALA762  ILE779  LEU786  VAL792 
 PHE793  MET794  SER795  GLU796  ALA797  LYS798  CYS799  TRP800  GLU811  SER814 

> <Gold.Protein.RotatedAtoms>
  151.2162  133.4528  159.2599 H   0  0  0  0  0  0  0  0  0  0  0  0  # atno 6907 bound_to 6896
  151.0929  134.9927  159.8421 H   0  0  0  0  0  0  0  0  0  0  0  0  # atno 6908 bound_to 6896
  152.5436  134.2094  159.8797 H   0  0  0  0  0  0  0  0  0  0  0  0  # atno 6909 bound_to 6896
  144.7396  139.8874  143.6400 H   0  0  0  0  0  0  0  0  0  0  0  0  # atno 7974 bound_to 7965
  154.8438  140.0434  157.1559 H   0  0  0  0  0  0  0  0  0  0  0  0  # atno 8008 bound_to 7997
  154.9017  140.3001  155.5293 H   0  0  0  0  0  0  0  0  0  0  0  0  # atno 8009 bound_to 7997
  156.2993  140.2374  156.4046 H   0  0  0  0  0  0  0  0  0  0  0  0  # atno 8010 bound_to 7997
  140.5059  144.0240  150.6352 H   0  0  0  0  0  0  0  0  0  0  0  0  # atno 10167 bound_to 10162
  157.2076  130.6919  149.6215 H   0  0  0  0  0  0  0  0  0  0  0  0  # atno 10718 bound_to 10713
  153.7108  135.3268  155.3246 H   0  0  0  0  0  0  0  0  0  0  0  0  # atno 10763 bound_to 10752
  154.8385  135.4476  154.1316 H   0  0  0  0  0  0  0  0  0  0  0  0  # atno 10764 bound_to 10752
  153.2409  135.6971  153.7863 H   0  0  0  0  0  0  0  0  0  0  0  0  # atno 10765 bound_to 10752
  139.9392  134.7431  156.1145 H   0  0  0  0  0  0  0  0  0  0  0  0  # atno 11005 bound_to 11000
  146.1167  139.4178  143.0254 LP  0  0  0  0  0  0  0  0  0  0  0  0  # atno 17320 bound_to 7965
  145.7365  141.0023  143.1324 LP  0  0  0  0  0  0  0  0  0  0  0  0  # atno 17321 bound_to 7965
  140.3549  143.2941  152.0447 LP  0  0  0  0  0  0  0  0  0  0  0  0  # atno 17342 bound_to 10162
  139.4883  144.6346  151.7000 LP  0  0  0  0  0  0  0  0  0  0  0  0  # atno 17343 bound_to 10162
  155.9694  130.4562  150.5915 LP  0  0  0  0  0  0  0  0  0  0  0  0  # atno 17370 bound_to 10713
  157.3704  131.0764  151.1562 LP  0  0  0  0  0  0  0  0  0  0  0  0  # atno 17371 bound_to 10713
  141.1019  133.6674  156.2774 LP  0  0  0  0  0  0  0  0  0  0  0  0  # atno 17394 bound_to 11000
  140.5996  134.5568  157.5515 LP  0  0  0  0  0  0  0  0  0  0  0  0  # atno 17395 bound_to 11000

$$$$
