AV-unprocessed.smi:1807|AV-procd|sdf|7301|dock6
  -GOLD-   22720 8553D 1   1.00000     0.00000
 Structure written by MMmdl.
 44 45  0  0  0  0  0  0  0  0  1 V2000
  150.6630  137.7079  154.0945 C   0  0  0  0  0  0  0  0  0  0  0  0
  150.3954  139.2055  154.3274 C   0  0  2  0  0  0  0  0  0  0  0  0
  151.1601  139.7069  155.5694 C   0  0  0  0  0  0  0  0  0  0  0  0
  150.9271  141.2047  155.8190 C   0  0  0  0  0  0  0  0  0  0  0  0
  149.4303  141.5151  155.9538 C   0  0  0  0  0  0  0  0  0  0  0  0
  148.6571  141.0307  154.7198 C   0  0  0  0  0  0  0  0  0  0  0  0
  148.8855  139.5276  154.4528 C   0  0  1  0  0  0  0  0  0  0  0  0
  148.1778  139.1436  153.2343 N   0  0  0  0  0  0  0  0  0  0  0  0
  147.0490  138.4211  153.1856 C   0  0  0  0  0  0  0  0  0  0  0  0
  146.5142  137.9272  154.1792 O   0  0  0  0  0  0  0  0  0  0  0  0
  146.4293  138.2361  151.7955 C   0  0  0  0  0  0  0  0  0  0  0  0
  146.5828  136.8725  151.2985 N   0  0  0  0  0  0  0  0  0  0  0  0
  145.4975  135.9871  151.3560 C   0  0  0  0  0  0  0  0  0  0  0  0
  144.2304  136.3749  151.8700 C   0  0  0  0  0  0  0  0  0  0  0  0
  143.4704  135.2511  151.7079 C   0  0  0  0  0  0  0  0  0  0  0  0
  144.2732  134.2846  151.1336 N   0  0  0  0  0  0  0  0  0  0  0  0
  143.9212  132.9300  150.7453 C   0  0  0  0  0  0  0  0  0  0  0  0
  143.9083  132.7631  149.2229 C   0  0  0  0  0  0  0  0  0  0  0  0
  142.9182  133.3545  148.5484 N   0  0  0  0  0  0  0  0  0  0  0  0
  144.7766  132.0981  148.6624 O   0  0  0  0  0  0  0  0  0  0  0  0
  145.5315  134.7322  150.9330 N   0  0  0  0  0  0  0  0  0  0  0  0
  150.2663  137.1042  154.9110 H   0  0  0  0  0  0  0  0  0  0  0  0
  151.7323  137.5079  154.0230 H   0  0  0  0  0  0  0  0  0  0  0  0
  150.2072  137.3559  153.1688 H   0  0  0  0  0  0  0  0  0  0  0  0
  150.7850  139.7449  153.4625 H   0  0  0  0  0  0  0  0  0  0  0  0
  150.8468  139.1407  156.4477 H   0  0  0  0  0  0  0  0  0  0  0  0
  152.2283  139.5219  155.4500 H   0  0  0  0  0  0  0  0  0  0  0  0
  151.4543  141.5185  156.7202 H   0  0  0  0  0  0  0  0  0  0  0  0
  151.3482  141.7832  154.9958 H   0  0  0  0  0  0  0  0  0  0  0  0
  149.0332  141.0330  156.8482 H   0  0  0  0  0  0  0  0  0  0  0  0
  149.2825  142.5872  156.0869 H   0  0  0  0  0  0  0  0  0  0  0  0
  147.5941  141.2355  154.8526 H   0  0  0  0  0  0  0  0  0  0  0  0
  148.9738  141.6079  153.8502 H   0  0  0  0  0  0  0  0  0  0  0  0
  148.4865  138.9583  155.2948 H   0  0  0  0  0  0  0  0  0  0  0  0
  148.5461  139.5002  152.3645 H   0  0  0  0  0  0  0  0  0  0  0  0
  145.3738  138.5136  151.7997 H   0  0  0  0  0  0  0  0  0  0  0  0
  146.9271  138.9139  151.1021 H   0  0  0  0  0  0  0  0  0  0  0  0
  147.5156  136.5013  151.1926 H   0  0  0  0  0  0  0  0  0  0  0  0
  143.9233  137.3261  152.2792 H   0  0  0  0  0  0  0  0  0  0  0  0
  142.4335  135.0624  151.9435 H   0  0  0  0  0  0  0  0  0  0  0  0
  144.6343  132.2359  151.1931 H   0  0  0  0  0  0  0  0  0  0  0  0
  142.9385  132.6869  151.1510 H   0  0  0  0  0  0  0  0  0  0  0  0
  142.8669  133.2660  147.5441 H   0  0  0  0  0  0  0  0  0  0  0  0
  142.2193  133.8845  149.0487 H   0  0  0  0  0  0  0  0  0  0  0  0
  1  2  1  0  0  0  0
  1 22  1  0  0  0  0
  1 23  1  0  0  0  0
  1 24  1  0  0  0  0
  2  7  1  0  0  0  0
  2  3  1  0  0  0  0
  2 25  1  0  0  0  0
  3  4  1  0  0  0  0
  3 26  1  0  0  0  0
  3 27  1  0  0  0  0
  4  5  1  0  0  0  0
  4 28  1  0  0  0  0
  4 29  1  0  0  0  0
  5  6  1  0  0  0  0
  5 30  1  0  0  0  0
  5 31  1  0  0  0  0
  6  7  1  0  0  0  0
  6 32  1  0  0  0  0
  6 33  1  0  0  0  0
  7  8  1  0  0  0  0
  7 34  1  0  0  0  0
  8  9  1  0  0  0  0
  8 35  1  0  0  0  0
  9 10  2  0  0  0  0
  9 11  1  0  0  0  0
 11 12  1  0  0  0  0
 11 36  1  0  0  0  0
 11 37  1  0  0  0  0
 12 13  1  0  0  0  0
 12 38  1  0  0  0  0
 13 21  2  0  0  0  0
 13 14  1  0  0  0  0
 14 15  2  0  0  0  0
 14 39  1  0  0  0  0
 15 16  1  0  0  0  0
 15 40  1  0  0  0  0
 16 17  1  0  0  0  0
 16 21  1  0  0  0  0
 17 18  1  0  0  0  0
 17 41  1  0  0  0  0
 17 42  1  0  0  0  0
 18 19  1  0  0  0  0
 18 20  2  0  0  0  0
 19 43  1  0  0  0  0
 19 44  1  0  0  0  0
M  END
> <s_m_source_file>
AV-unprocessed.smi

> <i_m_source_file_index>
1807

> <i_lp_mmshare_version>
43012

> <i_f3d_flags>
0

> <s_epik_input>
W0NIM11bQ0BASF0xW0NIMl1bQ0gyXVtDSDJdW0NIMl1bQ0BIXTFbTkhdQyg9TylbQ0gyXVtOSF1jMltjSF1bY0hdbihuMilbQ0gyXUMoPU8pW05IMl0=

> <s_epik_cmdline>
J2VwaWtfcHl0aG9uJywgJy1waCcsICc3LjAnLCAnLXRuJywgJzgnLCAnLW1hJywgJzIwMCcsICctbWV0YWxfYmluZGluZycsICctaW1hZScsICc8aW5maWxlLm1hZT4nLCAnLW9tYWUnLCAnPG91dGZpbGUubWFlPic=

> <r_lp_tautomer_probability>
1

> <r_epik_Ionization_Penalty>
0.000167642

> <r_epik_Ionization_Penalty_Charging>
0

> <r_epik_Ionization_Penalty_Neutral>
0.000167642

> <r_epik_State_Penalty>
-0

> <r_epik_Charging_Adjusted_Penalty>
0

> <i_epik_Tot_Q>
0

> <i_epik_Tot_abs_Q>
0

> <r_epik_Metal_State_Penalty>
-0

> <b_epik_Metal_Only>
0

> <s_lp_Force_Field>
OPLS_2005

> <r_lp_Energy>
5.76299

> <b_lp_Chiralities_Consistent>
1

> <s_lp_Variant>
AV-unprocessed.smi:1807-1

> <Gold.Version>
5.8.1

> <Gold.Id.Protein>
6NUR|6NUR_protein|mol2

> <Gold.PLP.Fitness>
50.8919

> <Gold.PLP.PLP>
-41.9519

> <Gold.PLP.part.hbond>
-4.8543

> <Gold.PLP.part.metal>
0.0000

> <Gold.PLP.part.buried>
-2.4846

> <Gold.PLP.part.nonpolar>
-36.1264

> <Gold.PLP.part.repulsive>
1.3606

> <Gold.PLP.ligand.clash>
0.0000

> <Gold.PLP.ligand.torsion>
0.5830

> <Gold.PLP.Chemscore.Hbond>
3.3640

> <Gold.PLP.Chemscore.CHOScore>
0.0000

> <Gold.PLP.Chemscore.Metal>
0.0000

> <Gold.Chemscore.Hbonds>
donor molecule, donor type, donor heavy atom, donor atom, acceptor molecule, acceptor atom, score
      L1  H     8    35       P1  7957  1.00
      L1  H    12    38       P1  7948  0.99
      L1  H    19    43       P1 10195  0.39
      L1  H    19    44       P1 10186  0.70

> <Gold.PLP.Chemscore.Internal.Correction>
0.0142

> <Gold.Rescore>
     Score         DG    S(hbond)    S(metal)    S(lipo)     H(rot)  DE(clash)    DE(int)     intcor
     18.09     -18.93       3.47        0.00      73.44       2.64       0.12       0.71       ----

> <Gold.Chemscore.Fitness>
18.0945

> <Gold.Chemscore.DG>
-18.9250

> <Gold.Chemscore.ZeroCoef>
-5.4800

> <Gold.Chemscore.Hbond>
3.4738

> <Gold.Chemscore.Metal>
0.0000

> <Gold.Chemscore.Lipo>
73.4436

> <Gold.Chemscore.Internal_Hbond>
0.0000

> <Gold.Chemscore.DEClash>
0.1245

> <Gold.Chemscore.DEInternal>
0.7060

> <Gold.Chemscore.Rot>
2.6369

> <Gold.Chemscore.Internal.Correction>
   9.000000E+99

> <Gold.Chemscore.Hbonds>
donor molecule, donor type, donor heavy atom, donor atom, acceptor molecule, acceptor atom, score
      L1  H     8    35       P1  7957  1.00
      L1  H    12    38       P1  7948  0.90
      L1  H    19    43       P1 10195  0.38
      L1  H    19    44       P1 10186  0.69

> <Gold.Chemscore.Hbond.Weighted>
-11.6025

> <Gold.Chemscore.Metal.Weighted>
-0.0000

> <Gold.Chemscore.Lipo.Weighted>
-8.5929

> <Gold.Chemscore.Internal_Hbond.Weighted>
0.0000

> <Gold.Chemscore.DEClash.Weighted>
0.1245

> <Gold.Chemscore.DEInternal.Weighted>
0.7060

> <Gold.Chemscore.Rot.Weighted>
6.7504

> <Gold.Chemscore.Internal.Correction.Weighted>
   9.000000E+99

> <Gold.Protein.RotatedTorsions>
[ 6907 6896 6895 6894 ] final   99.25 input  -60.11 | X-H torsion
[ 7974 7965 7964 7962 ] final  -30.51 input  175.53 | X-H torsion
[ 8008 7997 7996 7995 ] final  148.33 input   59.86 | X-H torsion
[ 10167 10162 10161 10158 ] final -131.80 input  -65.29 | X-H torsion
[ 10718 10713 10712 10709 ] final    9.43 input   66.30 | X-H torsion
[ 10763 10752 10751 10750 ] final  -69.23 input  -60.55 | X-H torsion
[ 11005 11000 10999 10996 ] final   96.37 input  -57.11 | X-H torsion

> <Gold.Protein.ActiveResidues>
 VAL166  LYS551  ARG553  GLY616  TRP617  ASP618  TYR619  PRO620  LYS621  CYS622 
 ASP623  PHE694  ASN695  SER759  ASP760  ASP761  ALA762  ILE779  LEU786  VAL792 
 PHE793  MET794  SER795  GLU796  ALA797  LYS798  CYS799  TRP800  GLU811  SER814 

> <Gold.Protein.RotatedAtoms>
  152.5395  134.0456  159.8086 H   0  0  0  0  0  0  0  0  0  0  0  0  # atno 6907 bound_to 6896
  151.0606  133.5540  159.2642 H   0  0  0  0  0  0  0  0  0  0  0  0  # atno 6908 bound_to 6896
  151.2440  135.0607  159.9090 H   0  0  0  0  0  0  0  0  0  0  0  0  # atno 6909 bound_to 6896
  146.1137  140.5550  142.8766 H   0  0  0  0  0  0  0  0  0  0  0  0  # atno 7974 bound_to 7965
  156.2795  140.2131  156.5681 H   0  0  0  0  0  0  0  0  0  0  0  0  # atno 8008 bound_to 7997
  154.7158  140.0508  157.0616 H   0  0  0  0  0  0  0  0  0  0  0  0  # atno 8009 bound_to 7997
  155.0544  140.3160  155.4684 H   0  0  0  0  0  0  0  0  0  0  0  0  # atno 8010 bound_to 7997
  139.9151  143.6448  152.2566 H   0  0  0  0  0  0  0  0  0  0  0  0  # atno 10167 bound_to 10162
  156.9662  130.5952  149.5665 H   0  0  0  0  0  0  0  0  0  0  0  0  # atno 10718 bound_to 10713
  154.4005  135.6032  153.5894 H   0  0  0  0  0  0  0  0  0  0  0  0  # atno 10763 bound_to 10752
  152.9788  135.5905  154.4190 H   0  0  0  0  0  0  0  0  0  0  0  0  # atno 10764 bound_to 10752
  154.3988  135.2842  155.2088 H   0  0  0  0  0  0  0  0  0  0  0  0  # atno 10765 bound_to 10752
  139.8782  134.8947  156.4149 H   0  0  0  0  0  0  0  0  0  0  0  0  # atno 11005 bound_to 11000
  144.7534  140.5247  143.6786 LP  0  0  0  0  0  0  0  0  0  0  0  0  # atno 17320 bound_to 7965
  145.5611  139.1479  143.3341 LP  0  0  0  0  0  0  0  0  0  0  0  0  # atno 17321 bound_to 7965
  139.6909  144.7647  151.1440 LP  0  0  0  0  0  0  0  0  0  0  0  0  # atno 17342 bound_to 10162
  140.7676  143.5590  150.9119 LP  0  0  0  0  0  0  0  0  0  0  0  0  # atno 17343 bound_to 10162
  156.0301  130.5393  150.8512 LP  0  0  0  0  0  0  0  0  0  0  0  0  # atno 17370 bound_to 10713
  157.5624  131.0946  150.9540 LP  0  0  0  0  0  0  0  0  0  0  0  0  # atno 17371 bound_to 10713
  140.9174  133.7669  155.9865 LP  0  0  0  0  0  0  0  0  0  0  0  0  # atno 17394 bound_to 11000
  140.8478  134.2990  157.5288 LP  0  0  0  0  0  0  0  0  0  0  0  0  # atno 17395 bound_to 11000

$$$$
