AV-unprocessed.smi:1703|AV-procd|sdf|6874|dock5
  -GOLD-   22720 8 73D 1   1.00000     0.00000
 Structure written by MMmdl.
 50 52  0  0  0  0  0  0  0  0  3 V2000
  144.9990  134.6567  155.7780 C   0  0  0  0  0  0  0  0  0  0  0  0
  144.9893  135.2559  154.3674 C   0  0  1  0  0  0  0  0  0  0  0  0
  146.3870  135.7431  153.9354 C   0  0  0  0  0  0  0  0  0  0  0  0
  146.3742  136.2462  152.5404 N   0  3  2  0  0  0  0  0  0  0  0  0
  145.7927  137.6085  152.4014 C   0  0  0  0  0  0  0  0  0  0  0  0
  146.7886  138.7157  152.8082 C   0  0  2  0  0  0  0  0  0  0  0  0
  148.0073  138.5067  152.1249 O   0  0  0  0  0  0  0  0  0  0  0  0
  147.0991  138.7549  154.3184 C   0  0  0  0  0  0  0  0  0  0  0  0
  148.0164  139.8453  154.6889 N   0  0  0  0  0  0  0  0  0  0  0  0
  147.7980  141.1920  154.7424 C   0  0  0  0  0  0  0  0  0  0  0  0
  146.5317  141.9149  154.4201 C   0  0  0  0  0  0  0  0  0  0  0  0
  146.7309  143.3036  154.2793 O   0  0  0  0  0  0  0  0  0  0  0  0
  148.9652  141.7761  155.1328 N   0  3  0  0  0  0  0  0  0  0  0  0
  149.9417  140.7993  155.3267 C   0  0  0  0  0  0  0  0  0  0  0  0
  151.2719  140.9097  155.7198 C   0  0  0  0  0  0  0  0  0  0  0  0
  152.0041  139.7088  155.8194 C   0  0  0  0  0  0  0  0  0  0  0  0
  151.4108  138.4621  155.5334 C   0  0  0  0  0  0  0  0  0  0  0  0
  150.0608  138.3626  155.1363 C   0  0  0  0  0  0  0  0  0  0  0  0
  149.3423  139.5552  155.0393 C   0  0  0  0  0  0  0  0  0  0  0  0
  145.7970  135.2272  151.6261 C   0  0  0  0  0  0  0  0  0  0  0  0
  144.4257  134.7200  152.1247 C   0  0  1  0  0  0  0  0  0  0  0  0
  143.8930  133.5697  151.2635 C   0  0  0  0  0  0  0  0  0  0  0  0
  144.5547  134.2475  153.4615 O   0  0  0  0  0  0  0  0  0  0  0  0
  145.3264  135.3908  156.5146 H   0  0  0  0  0  0  0  0  0  0  0  0
  145.6707  133.7997  155.8384 H   0  0  0  0  0  0  0  0  0  0  0  0
  144.0028  134.3194  156.0658 H   0  0  0  0  0  0  0  0  0  0  0  0
  144.2808  136.0859  154.3515 H   0  0  0  0  0  0  0  0  0  0  0  0
  146.7620  136.5093  154.6150 H   0  0  0  0  0  0  0  0  0  0  0  0
  147.0946  134.9144  153.9917 H   0  0  0  0  0  0  0  0  0  0  0  0
  145.4522  137.7504  151.3770 H   0  0  0  0  0  0  0  0  0  0  0  0
  144.9034  137.6993  153.0271 H   0  0  0  0  0  0  0  0  0  0  0  0
  146.4078  139.6914  152.5098 H   0  0  0  0  0  0  0  0  0  0  0  0
  148.3486  137.6570  152.3599 H   0  0  0  0  0  0  0  0  0  0  0  0
  146.1858  138.8290  154.9085 H   0  0  0  0  0  0  0  0  0  0  0  0
  147.5759  137.8222  154.6235 H   0  0  0  0  0  0  0  0  0  0  0  0
  146.0977  141.5214  153.5014 H   0  0  0  0  0  0  0  0  0  0  0  0
  145.8066  141.7408  155.2155 H   0  0  0  0  0  0  0  0  0  0  0  0
  147.5630  143.5307  154.6660 H   0  0  0  0  0  0  0  0  0  0  0  0
  151.7294  141.8641  155.9374 H   0  0  0  0  0  0  0  0  0  0  0  0
  153.0417  139.7451  156.1190 H   0  0  0  0  0  0  0  0  0  0  0  0
  152.0048  137.5635  155.6185 H   0  0  0  0  0  0  0  0  0  0  0  0
  149.6229  137.3995  154.9212 H   0  0  0  0  0  0  0  0  0  0  0  0
  145.7165  135.6117  150.6101 H   0  0  0  0  0  0  0  0  0  0  0  0
  146.4951  134.3903  151.5781 H   0  0  0  0  0  0  0  0  0  0  0  0
  143.6912  135.5262  152.1015 H   0  0  0  0  0  0  0  0  0  0  0  0
  143.7600  133.8832  150.2276 H   0  0  0  0  0  0  0  0  0  0  0  0
  142.9274  133.2216  151.6314 H   0  0  0  0  0  0  0  0  0  0  0  0
  144.5770  132.7204  151.2710 H   0  0  0  0  0  0  0  0  0  0  0  0
  147.3446  136.3523  152.2785 H   0  0  0  0  0  0  0  0  0  0  0  0
  149.0843  142.7749  155.2469 H   0  0  0  0  0  0  0  0  0  0  0  0
  1  2  1  0  0  0  0
  1 24  1  0  0  0  0
  1 25  1  0  0  0  0
  1 26  1  0  0  0  0
  2 23  1  0  0  0  0
  2  3  1  0  0  0  0
  2 27  1  0  0  0  0
  3  4  1  0  0  0  0
  3 28  1  0  0  0  0
  3 29  1  0  0  0  0
  4  5  1  0  0  0  0
  4 20  1  0  0  0  0
  4 49  1  0  0  0  0
  5  6  1  0  0  0  0
  5 30  1  0  0  0  0
  5 31  1  0  0  0  0
  6  7  1  0  0  0  0
  6  8  1  0  0  0  0
  6 32  1  0  0  0  0
  7 33  1  0  0  0  0
  8  9  1  0  0  0  0
  8 34  1  0  0  0  0
  8 35  1  0  0  0  0
  9 19  1  0  0  0  0
  9 10  1  0  0  0  0
 10 11  1  0  0  0  0
 10 13  2  0  0  0  0
 11 12  1  0  0  0  0
 11 36  1  0  0  0  0
 11 37  1  0  0  0  0
 12 38  1  0  0  0  0
 13 14  1  0  0  0  0
 13 50  1  0  0  0  0
 14 19  2  0  0  0  0
 14 15  1  0  0  0  0
 15 16  2  0  0  0  0
 15 39  1  0  0  0  0
 16 17  1  0  0  0  0
 16 40  1  0  0  0  0
 17 18  2  0  0  0  0
 17 41  1  0  0  0  0
 18 19  1  0  0  0  0
 18 42  1  0  0  0  0
 20 21  1  0  0  0  0
 20 43  1  0  0  0  0
 20 44  1  0  0  0  0
 21 22  1  0  0  0  0
 21 23  1  0  0  0  0
 21 45  1  0  0  0  0
 22 46  1  0  0  0  0
 22 47  1  0  0  0  0
 22 48  1  0  0  0  0
M  CHG  1   4   1
M  CHG  1  13   1
M  END
> <s_m_source_file>
AV-unprocessed.smi

> <i_m_source_file_index>
1703

> <i_lp_mmshare_version>
43012

> <i_f3d_flags>
0

> <s_epik_input>
W0NIM11bQ0BASF0xW0NIMl1OKFtDSDJdW0NASF0oTzEpW0NIM10pW0NIMl1bQ0BIXShbT0hdKVtDSDJdbihjKG4yKVtDSDJdW09IXSljKGMyMylbY0hdW2NIXVtjSF1bY0hdMw==

> <s_epik_cmdline>
J2VwaWtfcHl0aG9uJywgJy1waCcsICc3LjAnLCAnLXRuJywgJzgnLCAnLW1hJywgJzIwMCcsICctbWV0YWxfYmluZGluZycsICctaW1hZScsICc8aW5maWxlLm1hZT4nLCAnLW9tYWUnLCAnPG91dGZpbGUubWFlPic=

> <r_epik_Ionization_Penalty>
2.22579

> <r_epik_Ionization_Penalty_Charging>
2.22492

> <r_epik_Ionization_Penalty_Neutral>
0.000870007

> <r_epik_State_Penalty>
2.3141

> <r_epik_Charging_Adjusted_Penalty>
4.53902

> <i_epik_Tot_Q>
2

> <i_epik_Tot_abs_Q>
2

> <r_epik_Metal_State_Penalty>
6.36517

> <b_epik_Metal_Only>
0

> <s_lp_Force_Field>
OPLS_2005

> <r_lp_Energy>
32.0601

> <b_lp_Chiralities_Consistent>
1

> <s_lp_Variant>
AV-unprocessed.smi:1703-22

> <Gold.Version>
5.8.1

> <Gold.Id.Protein>
6NUR|6NUR_protein|mol2

> <Gold.PLP.Fitness>
52.9887

> <Gold.PLP.PLP>
-35.4474

> <Gold.PLP.part.hbond>
-5.9768

> <Gold.PLP.part.metal>
0.0000

> <Gold.PLP.part.buried>
-1.3902

> <Gold.PLP.part.nonpolar>
-28.6706

> <Gold.PLP.part.repulsive>
0.2948

> <Gold.PLP.ligand.clash>
0.0000

> <Gold.PLP.ligand.torsion>
0.5777

> <Gold.PLP.Chemscore.Hbond>
6.2117

> <Gold.PLP.Chemscore.CHOScore>
0.0000

> <Gold.PLP.Chemscore.Metal>
0.0000

> <Gold.Chemscore.Hbonds>
donor molecule, donor type, donor heavy atom, donor atom, acceptor molecule, acceptor atom, score
      L1  H     4    49       P1  7948  2.00
      L1  H     7    33       P1  7948  0.93
      L1  H    12    38       P1  8028  1.00
      L1  H    13    50       P1  8028  2.00
      P1  H  7954  7966       L1     7  0.10

> <Gold.PLP.Chemscore.Internal.Correction>
0.0617

> <Gold.Rescore>
     Score         DG    S(hbond)    S(metal)    S(lipo)     H(rot)  DE(clash)    DE(int)     intcor
     16.98     -17.74       3.25        0.00      78.43       3.04       0.06       0.70       ----

> <Gold.Chemscore.Fitness>
16.9843

> <Gold.Chemscore.DG>
-17.7445

> <Gold.Chemscore.ZeroCoef>
-5.4800

> <Gold.Chemscore.Hbond>
3.2531

> <Gold.Chemscore.Metal>
0.0000

> <Gold.Chemscore.Lipo>
78.4271

> <Gold.Chemscore.Internal_Hbond>
0.0000

> <Gold.Chemscore.DEClash>
0.0621

> <Gold.Chemscore.DEInternal>
0.6981

> <Gold.Chemscore.Rot>
3.0378

> <Gold.Chemscore.Internal.Correction>
   9.000000E+99

> <Gold.Chemscore.Hbonds>
donor molecule, donor type, donor heavy atom, donor atom, acceptor molecule, acceptor atom, score
      L1  H     4    49       P1  7948  1.00
      L1  H     7    33       P1  7948  0.88
      L1  H    12    38       P1  8028  0.24
      L1  H    13    50       P1  8028  0.97

> <Gold.Chemscore.Hbond.Weighted>
-10.8652

> <Gold.Chemscore.Metal.Weighted>
-0.0000

> <Gold.Chemscore.Lipo.Weighted>
-9.1760

> <Gold.Chemscore.Internal_Hbond.Weighted>
0.0000

> <Gold.Chemscore.DEClash.Weighted>
0.0621

> <Gold.Chemscore.DEInternal.Weighted>
0.6981

> <Gold.Chemscore.Rot.Weighted>
7.7767

> <Gold.Chemscore.Internal.Correction.Weighted>
   9.000000E+99

> <Gold.Protein.RotatedTorsions>
[ 6907 6896 6895 6894 ] final -149.38 input  -60.11 | X-H torsion
[ 7974 7965 7964 7962 ] final  -78.82 input  175.53 | X-H torsion
[ 8008 7997 7996 7995 ] final -143.58 input   59.86 | X-H torsion
[ 10167 10162 10161 10158 ] final   49.17 input  -65.29 | X-H torsion
[ 10718 10713 10712 10709 ] final   78.56 input   66.30 | X-H torsion
[ 10763 10752 10751 10750 ] final  -43.31 input  -60.55 | X-H torsion
[ 11005 11000 10999 10996 ] final  161.39 input  -57.11 | X-H torsion

> <Gold.Protein.ActiveResidues>
 VAL166  LYS551  ARG553  GLY616  TRP617  ASP618  TYR619  PRO620  LYS621  CYS622 
 ASP623  PHE694  ASN695  SER759  ASP760  ASP761  ALA762  ILE779  LEU786  VAL792 
 PHE793  MET794  SER795  GLU796  ALA797  LYS798  CYS799  TRP800  GLU811  SER814 

> <Gold.Protein.RotatedAtoms>
  151.1833  133.4711  159.2594 H   0  0  0  0  0  0  0  0  0  0  0  0  # atno 6907 bound_to 6896
  151.1237  135.0093  159.8560 H   0  0  0  0  0  0  0  0  0  0  0  0  # atno 6908 bound_to 6896
  152.5457  134.1742  159.8662 H   0  0  0  0  0  0  0  0  0  0  0  0  # atno 6909 bound_to 6896
  145.5815  140.9447  143.1341 H   0  0  0  0  0  0  0  0  0  0  0  0  # atno 7974 bound_to 7965
  155.5129  140.0585  157.2920 H   0  0  0  0  0  0  0  0  0  0  0  0  # atno 8008 bound_to 7997
  154.4545  140.1966  156.0368 H   0  0  0  0  0  0  0  0  0  0  0  0  # atno 8009 bound_to 7997
  156.0772  140.3252  155.7652 H   0  0  0  0  0  0  0  0  0  0  0  0  # atno 8010 bound_to 7997
  140.2857  144.3105  150.6253 H   0  0  0  0  0  0  0  0  0  0  0  0  # atno 10167 bound_to 10162
  157.6749  130.9874  150.1804 H   0  0  0  0  0  0  0  0  0  0  0  0  # atno 10718 bound_to 10713
  153.9934  135.6702  153.4755 H   0  0  0  0  0  0  0  0  0  0  0  0  # atno 10763 bound_to 10752
  153.0694  135.4982  154.8269 H   0  0  0  0  0  0  0  0  0  0  0  0  # atno 10764 bound_to 10752
  154.7095  135.3094  154.9181 H   0  0  0  0  0  0  0  0  0  0  0  0  # atno 10765 bound_to 10752
  140.2153  134.8237  157.3164 H   0  0  0  0  0  0  0  0  0  0  0  0  # atno 11005 bound_to 11000
  144.7392  139.7498  143.7317 LP  0  0  0  0  0  0  0  0  0  0  0  0  # atno 17320 bound_to 7965
  146.1713  139.4865  142.9926 LP  0  0  0  0  0  0  0  0  0  0  0  0  # atno 17321 bound_to 7965
  140.5775  143.2175  151.7489 LP  0  0  0  0  0  0  0  0  0  0  0  0  # atno 17342 bound_to 10162
  139.4951  144.4129  152.0061 LP  0  0  0  0  0  0  0  0  0  0  0  0  # atno 17343 bound_to 10162
  156.2538  130.3703  149.8204 LP  0  0  0  0  0  0  0  0  0  0  0  0  # atno 17370 bound_to 10713
  156.5969  130.8530  151.3422 LP  0  0  0  0  0  0  0  0  0  0  0  0  # atno 17371 bound_to 10713
  140.1907  134.4375  155.7717 LP  0  0  0  0  0  0  0  0  0  0  0  0  # atno 17394 bound_to 11000
  141.2225  133.7026  156.8022 LP  0  0  0  0  0  0  0  0  0  0  0  0  # atno 17395 bound_to 11000

$$$$
