AV-unprocessed.smi:1180|AV-procd|sdf|4963|dock10
  -GOLD-   22720 3553D 1   1.00000     0.00000
 Structure written by MMmdl.
 38 39  0  0  0  0  0  0  0  0  1 V2000
  145.0632  137.3738  154.3078 C   0  0  0  0  0  0  0  0  0  0  0  0
  146.1493  138.4276  154.3352 C   0  0  0  0  0  0  0  0  0  0  0  0
  145.6806  139.7014  154.6103 N   0  0  0  0  0  0  0  0  0  0  0  0
  146.6011  140.7329  154.6687 C   0  0  0  0  0  0  0  0  0  0  0  0
  146.0006  142.0908  154.9884 C   0  0  0  0  0  0  0  0  0  0  0  0
  147.9230  140.5067  154.4573 C   0  0  0  0  0  0  0  0  0  0  0  0
  148.9791  141.6084  154.5140 C   0  0  0  0  0  0  0  0  0  0  0  0
  150.1243  141.3641  155.4970 C   0  0  0  0  0  0  0  0  0  0  0  0
  150.9244  140.4507  155.2984 O   0  0  0  0  0  0  0  0  0  0  0  0
  150.1866  142.1885  156.5540 N   0  0  0  0  0  0  0  0  0  0  0  0
  151.1823  142.1312  157.6192 C   0  0  0  0  0  0  0  0  0  0  0  0
  150.9366  143.2055  158.6952 C   0  0  1  0  0  0  0  0  0  0  0  0
  151.8708  143.1049  159.8835 C   0  0  0  0  0  0  0  0  0  0  0  0
  151.7277  144.4855  160.5174 C   0  0  0  0  0  0  0  0  0  0  0  0
  151.4479  145.3804  159.4447 O   0  0  0  0  0  0  0  0  0  0  0  0
  151.1927  144.6468  158.2508 C   0  0  0  0  0  0  0  0  0  0  0  0
  148.3622  139.1243  154.1523 C   0  0  0  0  0  0  0  0  0  0  0  0
  149.5434  138.8598  153.9305 O   0  0  0  0  0  0  0  0  0  0  0  0
  147.3894  138.1123  154.1153 N   0  0  0  0  0  0  0  0  0  0  0  0
  144.7074  139.9122  154.7785 H   0  0  0  0  0  0  0  0  0  0  0  0
  145.4801  136.3889  154.0934 H   0  0  0  0  0  0  0  0  0  0  0  0
  144.3268  137.6066  153.5381 H   0  0  0  0  0  0  0  0  0  0  0  0
  144.5549  137.3265  155.2715 H   0  0  0  0  0  0  0  0  0  0  0  0
  146.2058  142.7990  154.1860 H   0  0  0  0  0  0  0  0  0  0  0  0
  146.4191  142.4855  155.9143 H   0  0  0  0  0  0  0  0  0  0  0  0
  144.9184  142.0320  155.1114 H   0  0  0  0  0  0  0  0  0  0  0  0
  148.5090  142.5687  154.7315 H   0  0  0  0  0  0  0  0  0  0  0  0
  149.4153  141.7404  153.5240 H   0  0  0  0  0  0  0  0  0  0  0  0
  149.4831  142.9090  156.6300 H   0  0  0  0  0  0  0  0  0  0  0  0
  151.1181  141.1423  158.0736 H   0  0  0  0  0  0  0  0  0  0  0  0
  152.1921  142.2137  157.2130 H   0  0  0  0  0  0  0  0  0  0  0  0
  149.9098  143.1274  159.0573 H   0  0  0  0  0  0  0  0  0  0  0  0
  151.6113  142.2961  160.5671 H   0  0  0  0  0  0  0  0  0  0  0  0
  152.8982  142.9529  159.5495 H   0  0  0  0  0  0  0  0  0  0  0  0
  150.8845  144.5011  161.2090 H   0  0  0  0  0  0  0  0  0  0  0  0
  152.6209  144.7860  161.0654 H   0  0  0  0  0  0  0  0  0  0  0  0
  152.0795  144.7040  157.6180 H   0  0  0  0  0  0  0  0  0  0  0  0
  150.3544  145.0700  157.6970 H   0  0  0  0  0  0  0  0  0  0  0  0
  1 21  1  0  0  0  0
  1 22  1  0  0  0  0
  1 23  1  0  0  0  0
  1  2  1  0  0  0  0
  2  3  1  0  0  0  0
  2 19  2  0  0  0  0
  3  4  1  0  0  0  0
  3 20  1  0  0  0  0
  4  6  2  0  0  0  0
  4  5  1  0  0  0  0
  5 24  1  0  0  0  0
  5 25  1  0  0  0  0
  5 26  1  0  0  0  0
  6 17  1  0  0  0  0
  6  7  1  0  0  0  0
  7  8  1  0  0  0  0
  7 27  1  0  0  0  0
  7 28  1  0  0  0  0
  8  9  2  0  0  0  0
  8 10  1  0  0  0  0
 10 11  1  0  0  0  0
 10 29  1  0  0  0  0
 11 12  1  0  0  0  0
 11 30  1  0  0  0  0
 11 31  1  0  0  0  0
 12 16  1  0  0  0  0
 12 13  1  0  0  0  0
 12 32  1  0  0  0  0
 13 14  1  0  0  0  0
 13 33  1  0  0  0  0
 13 34  1  0  0  0  0
 14 15  1  0  0  0  0
 14 35  1  0  0  0  0
 14 36  1  0  0  0  0
 15 16  1  0  0  0  0
 16 37  1  0  0  0  0
 16 38  1  0  0  0  0
 17 18  2  0  0  0  0
 17 19  1  0  0  0  0
M  END
> <s_m_source_file>
AV-unprocessed.smi

> <i_m_source_file_index>
1180

> <i_lp_mmshare_version>
43012

> <i_f3d_flags>
0

> <s_epik_input>
W0NIM11jMW5jKFtDSDNdKWMoYyg9TylbbkhdMSlbQ0gyXUMoPU8pW05IXVtDSDJdW0NAQEhdMltDSDJdW0NIMl1PW0NIMl0y

> <s_epik_cmdline>
J2VwaWtfcHl0aG9uJywgJy1waCcsICc3LjAnLCAnLXRuJywgJzgnLCAnLW1hJywgJzIwMCcsICctbWV0YWxfYmluZGluZycsICctaW1hZScsICc8aW5maWxlLm1hZT4nLCAnLW9tYWUnLCAnPG91dGZpbGUubWFlPic=

> <r_lp_tautomer_probability>
0.156392

> <r_epik_Ionization_Penalty>
0.014237

> <r_epik_Ionization_Penalty_Charging>
0.0141173

> <r_epik_Ionization_Penalty_Neutral>
0.000119724

> <r_epik_State_Penalty>
1.52876

> <r_epik_Charging_Adjusted_Penalty>
1.54288

> <i_epik_Tot_Q>
0

> <i_epik_Tot_abs_Q>
0

> <r_epik_Metal_State_Penalty>
1.70686

> <b_epik_Metal_Only>
0

> <s_lp_Force_Field>
OPLS_2005

> <r_lp_Energy>
23.3722

> <b_lp_Chiralities_Consistent>
1

> <s_lp_Variant>
AV-unprocessed.smi:1180-4

> <Gold.Version>
5.8.1

> <Gold.Id.Protein>
6NUR|6NUR_protein|mol2

> <Gold.PLP.Fitness>
39.6230

> <Gold.PLP.PLP>
-34.2416

> <Gold.PLP.part.hbond>
-3.6625

> <Gold.PLP.part.metal>
0.0000

> <Gold.PLP.part.buried>
-4.9611

> <Gold.PLP.part.nonpolar>
-26.3861

> <Gold.PLP.part.repulsive>
0.8454

> <Gold.PLP.ligand.clash>
0.0000

> <Gold.PLP.ligand.torsion>
0.0962

> <Gold.PLP.Chemscore.Hbond>
1.8542

> <Gold.PLP.Chemscore.CHOScore>
0.0000

> <Gold.PLP.Chemscore.Metal>
0.0000

> <Gold.Chemscore.Hbonds>
donor molecule, donor type, donor heavy atom, donor atom, acceptor molecule, acceptor atom, score
      L1  H    10    29       P1  8028  0.59
      P1  H  7989  7998       L1     9  1.00

> <Gold.PLP.Chemscore.Internal.Correction>
0.0114

> <Gold.Rescore>
     Score         DG    S(hbond)    S(metal)    S(lipo)     H(rot)  DE(clash)    DE(int)     intcor
     13.24     -15.26       1.69        0.00      75.02       1.81       0.23       1.79       ----

> <Gold.Chemscore.Fitness>
13.2377

> <Gold.Chemscore.DG>
-15.2638

> <Gold.Chemscore.ZeroCoef>
-5.4800

> <Gold.Chemscore.Hbond>
1.6860

> <Gold.Chemscore.Metal>
0.0000

> <Gold.Chemscore.Lipo>
75.0194

> <Gold.Chemscore.Internal_Hbond>
0.0000

> <Gold.Chemscore.DEClash>
0.2331

> <Gold.Chemscore.DEInternal>
1.7930

> <Gold.Chemscore.Rot>
1.8065

> <Gold.Chemscore.Internal.Correction>
   9.000000E+99

> <Gold.Chemscore.Hbonds>
donor molecule, donor type, donor heavy atom, donor atom, acceptor molecule, acceptor atom, score
      L1  H    10    29       P1  8028  0.58
      P1  H  7989  7998       L1     9  0.37

> <Gold.Chemscore.Hbond.Weighted>
-5.6311

> <Gold.Chemscore.Metal.Weighted>
-0.0000

> <Gold.Chemscore.Lipo.Weighted>
-8.7773

> <Gold.Chemscore.Internal_Hbond.Weighted>
0.0000

> <Gold.Chemscore.DEClash.Weighted>
0.2331

> <Gold.Chemscore.DEInternal.Weighted>
1.7930

> <Gold.Chemscore.Rot.Weighted>
4.6246

> <Gold.Chemscore.Internal.Correction.Weighted>
   9.000000E+99

> <Gold.Protein.RotatedTorsions>
[ 6907 6896 6895 6894 ] final  113.23 input  -60.11 | X-H torsion
[ 7974 7965 7964 7962 ] final  179.45 input  175.53 | X-H torsion
[ 8008 7997 7996 7995 ] final   38.32 input   59.86 | X-H torsion
[ 10167 10162 10161 10158 ] final   -0.34 input  -65.29 | X-H torsion
[ 10718 10713 10712 10709 ] final   84.24 input   66.30 | X-H torsion
[ 10763 10752 10751 10750 ] final  -86.11 input  -60.55 | X-H torsion
[ 11005 11000 10999 10996 ] final -159.14 input  -57.11 | X-H torsion

> <Gold.Protein.ActiveResidues>
 VAL166  LYS551  ARG553  GLY616  TRP617  ASP618  TYR619  PRO620  LYS621  CYS622 
 ASP623  PHE694  ASN695  SER759  ASP760  ASP761  ALA762  ILE779  LEU786  VAL792 
 PHE793  MET794  SER795  GLU796  ALA797  LYS798  CYS799  TRP800  GLU811  SER814 

> <Gold.Protein.RotatedAtoms>
  152.4872  133.8405  159.7149 H   0  0  0  0  0  0  0  0  0  0  0  0  # atno 6907 bound_to 6896
  150.8970  133.7159  159.2896 H   0  0  0  0  0  0  0  0  0  0  0  0  # atno 6908 bound_to 6896
  151.4613  135.1042  159.9778 H   0  0  0  0  0  0  0  0  0  0  0  0  # atno 6909 bound_to 6896
  144.7145  140.0550  143.6434 H   0  0  0  0  0  0  0  0  0  0  0  0  # atno 7974 bound_to 7965
  155.2182  140.3329  155.4319 H   0  0  0  0  0  0  0  0  0  0  0  0  # atno 8008 bound_to 7997
  156.2343  140.1865  156.7207 H   0  0  0  0  0  0  0  0  0  0  0  0  # atno 8009 bound_to 7997
  154.6033  140.0620  156.9382 H   0  0  0  0  0  0  0  0  0  0  0  0  # atno 8010 bound_to 7997
  140.6763  143.6906  150.8031 H   0  0  0  0  0  0  0  0  0  0  0  0  # atno 10167 bound_to 10162
  157.6894  131.0125  150.2644 H   0  0  0  0  0  0  0  0  0  0  0  0  # atno 10718 bound_to 10713
  154.6188  135.5461  153.7552 H   0  0  0  0  0  0  0  0  0  0  0  0  # atno 10763 bound_to 10752
  153.0228  135.6407  154.1471 H   0  0  0  0  0  0  0  0  0  0  0  0  # atno 10764 bound_to 10752
  154.1406  135.2908  155.3141 H   0  0  0  0  0  0  0  0  0  0  0  0  # atno 10765 bound_to 10752
  140.6459  134.4502  157.5234 H   0  0  0  0  0  0  0  0  0  0  0  0  # atno 11005 bound_to 11000
  145.9912  139.3016  143.0983 LP  0  0  0  0  0  0  0  0  0  0  0  0  # atno 17320 bound_to 7965
  145.8900  140.9309  143.0557 LP  0  0  0  0  0  0  0  0  0  0  0  0  # atno 17321 bound_to 7965
  140.0600  143.5164  152.2632 LP  0  0  0  0  0  0  0  0  0  0  0  0  # atno 17342 bound_to 10162
  139.6057  144.7595  151.3067 LP  0  0  0  0  0  0  0  0  0  0  0  0  # atno 17343 bound_to 10162
  156.3218  130.3787  149.7569 LP  0  0  0  0  0  0  0  0  0  0  0  0  # atno 17370 bound_to 10713
  156.5137  130.8183  151.3178 LP  0  0  0  0  0  0  0  0  0  0  0  0  # atno 17371 bound_to 10713
  139.9063  134.8442  156.1694 LP  0  0  0  0  0  0  0  0  0  0  0  0  # atno 17394 bound_to 11000
  141.0573  133.6859  156.1884 LP  0  0  0  0  0  0  0  0  0  0  0  0  # atno 17395 bound_to 11000

$$$$
