AV-unprocessed.smi:1629|AV-procd|sdf|6524|dock6
  -GOLD-   22720 7203D 1   1.00000     0.00000
 Structure written by MMmdl.
 44 45  0  0  0  0  0  0  0  0  3 V2000
  148.9725  132.3647  157.8238 C   0  0  0  0  0  0  0  0  0  0  0  0
  150.3040  132.9087  156.6817 S   0  0  0  0  0  0  0  0  0  0  0  0
  151.5647  132.7139  157.4159 O   0  0  0  0  0  0  0  0  0  0  0  0
  150.1169  132.1286  155.4478 O   0  0  0  0  0  0  0  0  0  0  0  0
  149.9180  134.4729  156.4971 N   0  5  0  0  0  0  0  0  0  0  0  0
  150.9351  135.4240  156.0729 C   0  0  0  0  0  0  0  0  0  0  0  0
  151.2142  136.4725  157.1842 C   0  0  0  0  0  0  0  0  0  0  0  0
  152.1001  137.6555  156.7042 C   0  0  0  0  0  0  0  0  0  0  0  0
  151.4927  138.3233  155.5320 N   0  0  0  0  0  0  0  0  0  0  0  0
  150.9281  139.5560  155.4971 C   0  0  0  0  0  0  0  0  0  0  0  0
  150.6839  140.1593  154.4511 O   0  0  0  0  0  0  0  0  0  0  0  0
  150.6475  140.0790  156.7028 N   0  0  0  0  0  0  0  0  0  0  0  0
  150.0122  141.3708  156.9331 C   0  0  0  0  0  0  0  0  0  0  0  0
  150.9450  142.5346  156.5572 C   0  0  0  0  0  0  0  0  0  0  0  0
  151.3594  143.3505  157.7656 C   0  0  0  0  0  0  0  0  0  0  0  0
  152.4056  142.9452  158.6226 C   0  0  0  0  0  0  0  0  0  0  0  0
  152.7354  143.7479  159.7347 C   0  0  0  0  0  0  0  0  0  0  0  0
  152.0125  144.9364  159.9667 C   0  0  0  0  0  0  0  0  0  0  0  0
  150.9759  145.2923  159.0799 C   0  0  0  0  0  0  0  0  0  0  0  0
  150.6898  144.4967  158.0257 N   0  3  0  0  0  0  0  0  0  0  0  0
  151.3867  137.3681  154.4133 C   0  0  0  0  0  0  0  0  0  0  0  0
  150.4687  136.1735  154.7969 C   0  0  0  0  0  0  0  0  0  0  0  0
  149.0936  131.3035  158.0389 H   0  0  0  0  0  0  0  0  0  0  0  0
  148.0025  132.5322  157.3568 H   0  0  0  0  0  0  0  0  0  0  0  0
  149.0343  132.9330  158.7513 H   0  0  0  0  0  0  0  0  0  0  0  0
  151.8756  134.9268  155.8325 H   0  0  0  0  0  0  0  0  0  0  0  0
  150.2695  136.8745  157.5542 H   0  0  0  0  0  0  0  0  0  0  0  0
  151.6924  135.9900  158.0369 H   0  0  0  0  0  0  0  0  0  0  0  0
  152.2757  138.3285  157.5430 H   0  0  0  0  0  0  0  0  0  0  0  0
  153.0949  137.2997  156.4271 H   0  0  0  0  0  0  0  0  0  0  0  0
  150.8796  139.5299  157.5178 H   0  0  0  0  0  0  0  0  0  0  0  0
  149.1035  141.4103  156.3318 H   0  0  0  0  0  0  0  0  0  0  0  0
  149.6992  141.4513  157.9756 H   0  0  0  0  0  0  0  0  0  0  0  0
  151.8418  142.1580  156.0636 H   0  0  0  0  0  0  0  0  0  0  0  0
  150.4531  143.1915  155.8382 H   0  0  0  0  0  0  0  0  0  0  0  0
  152.9485  142.0304  158.4326 H   0  0  0  0  0  0  0  0  0  0  0  0
  153.5330  143.4551  160.4018 H   0  0  0  0  0  0  0  0  0  0  0  0
  152.2497  145.5651  160.8126 H   0  0  0  0  0  0  0  0  0  0  0  0
  150.3714  146.1820  159.1812 H   0  0  0  0  0  0  0  0  0  0  0  0
  151.0002  137.8377  153.5081 H   0  0  0  0  0  0  0  0  0  0  0  0
  152.3864  137.0190  154.1456 H   0  0  0  0  0  0  0  0  0  0  0  0
  150.4119  135.4745  153.9615 H   0  0  0  0  0  0  0  0  0  0  0  0
  149.4558  136.5522  154.9440 H   0  0  0  0  0  0  0  0  0  0  0  0
  149.9358  144.7736  157.3965 H   0  0  0  0  0  0  0  0  0  0  0  0
  1  2  1  0  0  0  0
  1 23  1  0  0  0  0
  1 24  1  0  0  0  0
  1 25  1  0  0  0  0
  2  3  2  0  0  0  0
  2  4  2  0  0  0  0
  2  5  1  0  0  0  0
  5  6  1  0  0  0  0
  6 22  1  0  0  0  0
  6  7  1  0  0  0  0
  6 26  1  0  0  0  0
  7  8  1  0  0  0  0
  7 27  1  0  0  0  0
  7 28  1  0  0  0  0
  8  9  1  0  0  0  0
  8 29  1  0  0  0  0
  8 30  1  0  0  0  0
  9 10  1  0  0  0  0
  9 21  1  0  0  0  0
 10 11  2  0  0  0  0
 10 12  1  0  0  0  0
 12 13  1  0  0  0  0
 12 31  1  0  0  0  0
 13 14  1  0  0  0  0
 13 32  1  0  0  0  0
 13 33  1  0  0  0  0
 14 15  1  0  0  0  0
 14 34  1  0  0  0  0
 14 35  1  0  0  0  0
 15 20  1  0  0  0  0
 15 16  2  0  0  0  0
 16 17  1  0  0  0  0
 16 36  1  0  0  0  0
 17 18  2  0  0  0  0
 17 37  1  0  0  0  0
 18 19  1  0  0  0  0
 18 38  1  0  0  0  0
 19 20  2  0  0  0  0
 19 39  1  0  0  0  0
 20 44  1  0  0  0  0
 21 22  1  0  0  0  0
 21 40  1  0  0  0  0
 21 41  1  0  0  0  0
 22 42  1  0  0  0  0
 22 43  1  0  0  0  0
M  CHG  1   5  -1
M  CHG  1  20   1
M  END
> <s_m_source_file>
AV-unprocessed.smi

> <i_m_source_file_index>
1629

> <i_lp_mmshare_version>
43012

> <i_f3d_flags>
0

> <s_epik_input>
W0NIM11TKD1PKSg9TylbTkhdW0NIXTFbQ0gyXVtDSDJdTihbQ0gyXVtDSDJdMSlDKD1PKVtOSF1bQ0gyXVtDSDJdYzJbY0hdW2NIXVtjSF1bY0hdbjI=

> <s_epik_cmdline>
J2VwaWtfcHl0aG9uJywgJy1waCcsICc3LjAnLCAnLXRuJywgJzgnLCAnLW1hJywgJzIwMCcsICctbWV0YWxfYmluZGluZycsICctaW1hZScsICc8aW5maWxlLm1hZT4nLCAnLW9tYWUnLCAnPG91dGZpbGUubWFlPic=

> <r_epik_Ionization_Penalty>
8.25917

> <r_epik_Ionization_Penalty_Charging>
8.2591

> <r_epik_Ionization_Penalty_Neutral>
6.17235e-05

> <r_epik_State_Penalty>
8.35449

> <r_epik_Charging_Adjusted_Penalty>
16.6136

> <i_epik_Tot_Q>
0

> <i_epik_Tot_abs_Q>
2

> <r_epik_Metal_State_Penalty>
4.3175

> <b_epik_Metal_Only>
1

> <s_lp_Force_Field>
OPLS_2005

> <r_lp_Energy>
28.7999

> <b_lp_Chiralities_Consistent>
1

> <s_lp_Variant>
AV-unprocessed.smi:1629-4

> <Gold.Version>
5.8.1

> <Gold.Id.Protein>
6NUR|6NUR_protein|mol2

> <Gold.PLP.Fitness>
47.4449

> <Gold.PLP.PLP>
-39.0108

> <Gold.PLP.part.hbond>
-3.2613

> <Gold.PLP.part.metal>
0.0000

> <Gold.PLP.part.buried>
-4.7509

> <Gold.PLP.part.nonpolar>
-31.5550

> <Gold.PLP.part.repulsive>
0.2416

> <Gold.PLP.ligand.clash>
0.0000

> <Gold.PLP.ligand.torsion>
1.5421

> <Gold.PLP.Chemscore.Hbond>
3.4913

> <Gold.PLP.Chemscore.CHOScore>
0.0000

> <Gold.PLP.Chemscore.Metal>
0.0000

> <Gold.Chemscore.Hbonds>
donor molecule, donor type, donor heavy atom, donor atom, acceptor molecule, acceptor atom, score
      L1  H    20    44       P1  8028  1.40
      P1  H  6896  6907       L1     3  1.00
      P1  H  7989  7998       L1    11  0.98

> <Gold.PLP.Chemscore.Internal.Correction>
1.0445

> <Gold.Rescore>
     Score         DG    S(hbond)    S(metal)    S(lipo)     H(rot)  DE(clash)    DE(int)     intcor
     19.25     -20.82       2.38        0.00     101.75       1.77       0.07       1.50       ----

> <Gold.Chemscore.Fitness>
19.2478

> <Gold.Chemscore.DG>
-20.8171

> <Gold.Chemscore.ZeroCoef>
-5.4800

> <Gold.Chemscore.Hbond>
2.3813

> <Gold.Chemscore.Metal>
0.0000

> <Gold.Chemscore.Lipo>
101.7482

> <Gold.Chemscore.Internal_Hbond>
0.0000

> <Gold.Chemscore.DEClash>
0.0716

> <Gold.Chemscore.DEInternal>
1.4976

> <Gold.Chemscore.Rot>
1.7661

> <Gold.Chemscore.Internal.Correction>
   9.000000E+99

> <Gold.Chemscore.Hbonds>
donor molecule, donor type, donor heavy atom, donor atom, acceptor molecule, acceptor atom, score
      L1  H    20    44       P1  8028  0.07
      P1  H  6896  6907       L1     3  0.81
      P1  H  7989  7998       L1    11  0.91

> <Gold.Chemscore.Hbond.Weighted>
-7.9536

> <Gold.Chemscore.Metal.Weighted>
-0.0000

> <Gold.Chemscore.Lipo.Weighted>
-11.9045

> <Gold.Chemscore.Internal_Hbond.Weighted>
0.0000

> <Gold.Chemscore.DEClash.Weighted>
0.0716

> <Gold.Chemscore.DEInternal.Weighted>
1.4976

> <Gold.Chemscore.Rot.Weighted>
4.5211

> <Gold.Chemscore.Internal.Correction.Weighted>
   9.000000E+99

> <Gold.Protein.RotatedTorsions>
[ 6907 6896 6895 6894 ] final -169.45 input  -60.11 | X-H torsion
[ 7974 7965 7964 7962 ] final  -83.57 input  175.53 | X-H torsion
[ 8008 7997 7996 7995 ] final  145.95 input   59.86 | X-H torsion
[ 10167 10162 10161 10158 ] final  149.70 input  -65.29 | X-H torsion
[ 10718 10713 10712 10709 ] final  -78.88 input   66.30 | X-H torsion
[ 10763 10752 10751 10750 ] final  -31.39 input  -60.55 | X-H torsion
[ 11005 11000 10999 10996 ] final   43.78 input  -57.11 | X-H torsion

> <Gold.Protein.ActiveResidues>
 VAL166  LYS551  ARG553  GLY616  TRP617  ASP618  TYR619  PRO620  LYS621  CYS622 
 ASP623  PHE694  ASN695  SER759  ASP760  ASP761  ALA762  ILE779  LEU786  VAL792 
 PHE793  MET794  SER795  GLU796  ALA797  LYS798  CYS799  TRP800  GLU811  SER814 

> <Gold.Protein.RotatedAtoms>
  151.4919  133.3523  159.2854 H   0  0  0  0  0  0  0  0  0  0  0  0  # atno 6907 bound_to 6896
  150.8829  134.8225  159.7249 H   0  0  0  0  0  0  0  0  0  0  0  0  # atno 6908 bound_to 6896
  152.4774  134.4819  159.9720 H   0  0  0  0  0  0  0  0  0  0  0  0  # atno 6909 bound_to 6896
  145.5183  140.9534  143.1669 H   0  0  0  0  0  0  0  0  0  0  0  0  # atno 7974 bound_to 7965
  156.2869  140.2195  156.5299 H   0  0  0  0  0  0  0  0  0  0  0  0  # atno 8008 bound_to 7997
  154.7458  140.0484  157.0873 H   0  0  0  0  0  0  0  0  0  0  0  0  # atno 8009 bound_to 7997
  155.0173  140.3120  155.4810 H   0  0  0  0  0  0  0  0  0  0  0  0  # atno 8010 bound_to 7997
  139.4858  144.5581  151.7281 H   0  0  0  0  0  0  0  0  0  0  0  0  # atno 10167 bound_to 10162
  156.0106  130.4530  150.3563 H   0  0  0  0  0  0  0  0  0  0  0  0  # atno 10718 bound_to 10713
  153.7966  135.6893  153.4862 H   0  0  0  0  0  0  0  0  0  0  0  0  # atno 10763 bound_to 10752
  153.1715  135.4541  154.9907 H   0  0  0  0  0  0  0  0  0  0  0  0  # atno 10764 bound_to 10752
  154.8023  135.3343  154.7458 H   0  0  0  0  0  0  0  0  0  0  0  0  # atno 10765 bound_to 10752
  140.1613  134.4338  155.8316 H   0  0  0  0  0  0  0  0  0  0  0  0  # atno 11005 bound_to 11000
  144.7690  139.6779  143.7203 LP  0  0  0  0  0  0  0  0  0  0  0  0  # atno 17320 bound_to 7965
  146.2123  139.5487  142.9673 LP  0  0  0  0  0  0  0  0  0  0  0  0  # atno 17321 bound_to 7965
  140.5146  144.0973  150.6005 LP  0  0  0  0  0  0  0  0  0  0  0  0  # atno 17342 bound_to 10162
  140.3910  143.2752  152.0060 LP  0  0  0  0  0  0  0  0  0  0  0  0  # atno 17343 bound_to 10162
  157.1654  131.0355  151.2821 LP  0  0  0  0  0  0  0  0  0  0  0  0  # atno 17370 bound_to 10713
  157.4275  130.7472  149.6963 LP  0  0  0  0  0  0  0  0  0  0  0  0  # atno 17371 bound_to 10713
  141.2209  133.6914  156.7598 LP  0  0  0  0  0  0  0  0  0  0  0  0  # atno 17394 bound_to 11000
  140.2487  134.8557  157.3646 LP  0  0  0  0  0  0  0  0  0  0  0  0  # atno 17395 bound_to 11000

$$$$
