AV-unprocessed.smi:2057|AV-procd|sdf|8343|dock2
  -GOLD-   2272011 13D 1   1.00000     0.00000
 Structure written by MMmdl.
 45 47  0  0  0  0  0  0  0  0  2 V2000
  154.9474  140.1436  162.1647 C   0  0  0  0  0  0  0  0  0  0  0  0
  154.0568  139.6663  161.1669 O   0  0  0  0  0  0  0  0  0  0  0  0
  153.4413  140.5909  160.3512 C   0  0  0  0  0  0  0  0  0  0  0  0
  153.6576  141.9868  160.4240 C   0  0  0  0  0  0  0  0  0  0  0  0
  152.9758  142.8602  159.5570 C   0  0  0  0  0  0  0  0  0  0  0  0
  152.0631  142.3626  158.5944 C   0  0  0  0  0  0  0  0  0  0  0  0
  151.3503  143.1762  157.7370 O   0  0  0  0  0  0  0  0  0  0  0  0
  151.5880  144.5752  157.7764 C   0  0  0  0  0  0  0  0  0  0  0  0
  151.8515  140.9640  158.5120 C   0  0  0  0  0  0  0  0  0  0  0  0
  150.8517  140.3879  157.5100 C   0  0  1  0  0  0  0  0  0  0  0  0
  149.5245  140.8026  157.7638 O   0  0  0  0  0  0  0  0  0  0  0  0
  151.1974  140.7520  156.0504 C   0  0  0  0  0  0  0  0  0  0  0  0
  150.3690  140.0275  155.0730 N   0  0  0  0  0  0  0  0  0  0  0  0
  150.5612  138.8046  154.4996 C   0  0  0  0  0  0  0  0  0  0  0  0
  151.6914  137.8629  154.7527 C   0  0  0  0  0  0  0  0  0  0  0  0
  151.4935  136.6121  154.1321 O   0  0  0  0  0  0  0  0  0  0  0  0
  149.5221  138.5909  153.6447 N   0  3  0  0  0  0  0  0  0  0  0  0
  148.6578  139.6856  153.6683 C   0  0  0  0  0  0  0  0  0  0  0  0
  147.4796  139.9292  152.9696 C   0  0  0  0  0  0  0  0  0  0  0  0
  146.8372  141.1591  153.2214 C   0  0  0  0  0  0  0  0  0  0  0  0
  147.3671  142.0894  154.1388 C   0  0  0  0  0  0  0  0  0  0  0  0
  148.5599  141.8288  154.8444 C   0  0  0  0  0  0  0  0  0  0  0  0
  149.1917  140.6116  154.5878 C   0  0  0  0  0  0  0  0  0  0  0  0
  152.5384  140.0972  159.3912 C   0  0  0  0  0  0  0  0  0  0  0  0
  155.3477  139.2979  162.7237 H   0  0  0  0  0  0  0  0  0  0  0  0
  154.4374  140.7962  162.8744 H   0  0  0  0  0  0  0  0  0  0  0  0
  155.7913  140.6768  161.7246 H   0  0  0  0  0  0  0  0  0  0  0  0
  154.3413  142.4157  161.1407 H   0  0  0  0  0  0  0  0  0  0  0  0
  153.1719  143.9168  159.6550 H   0  0  0  0  0  0  0  0  0  0  0  0
  150.9038  145.0733  157.0899 H   0  0  0  0  0  0  0  0  0  0  0  0
  152.6041  144.8172  157.4624 H   0  0  0  0  0  0  0  0  0  0  0  0
  151.4082  144.9824  158.7726 H   0  0  0  0  0  0  0  0  0  0  0  0
  150.8323  139.3030  157.6122 H   0  0  0  0  0  0  0  0  0  0  0  0
  148.9514  140.3718  157.1483 H   0  0  0  0  0  0  0  0  0  0  0  0
  151.0187  141.8150  155.8816 H   0  0  0  0  0  0  0  0  0  0  0  0
  152.2527  140.5865  155.8337 H   0  0  0  0  0  0  0  0  0  0  0  0
  152.6187  138.3014  154.3830 H   0  0  0  0  0  0  0  0  0  0  0  0
  151.8129  137.7146  155.8256 H   0  0  0  0  0  0  0  0  0  0  0  0
  151.2948  136.7564  153.2192 H   0  0  0  0  0  0  0  0  0  0  0  0
  147.0719  139.2181  152.2660 H   0  0  0  0  0  0  0  0  0  0  0  0
  145.9201  141.3937  152.7010 H   0  0  0  0  0  0  0  0  0  0  0  0
  146.8490  143.0228  154.3048 H   0  0  0  0  0  0  0  0  0  0  0  0
  148.9574  142.5533  155.5393 H   0  0  0  0  0  0  0  0  0  0  0  0
  152.3663  139.0319  159.3427 H   0  0  0  0  0  0  0  0  0  0  0  0
  149.4149  137.7537  153.0868 H   0  0  0  0  0  0  0  0  0  0  0  0
  1  2  1  0  0  0  0
  1 25  1  0  0  0  0
  1 26  1  0  0  0  0
  1 27  1  0  0  0  0
  2  3  1  0  0  0  0
  3 24  1  0  0  0  0
  3  4  2  0  0  0  0
  4  5  1  0  0  0  0
  4 28  1  0  0  0  0
  5  6  2  0  0  0  0
  5 29  1  0  0  0  0
  6  7  1  0  0  0  0
  6  9  1  0  0  0  0
  7  8  1  0  0  0  0
  8 30  1  0  0  0  0
  8 31  1  0  0  0  0
  8 32  1  0  0  0  0
  9 10  1  0  0  0  0
  9 24  2  0  0  0  0
 10 11  1  0  0  0  0
 10 12  1  0  0  0  0
 10 33  1  0  0  0  0
 11 34  1  0  0  0  0
 12 13  1  0  0  0  0
 12 35  1  0  0  0  0
 12 36  1  0  0  0  0
 13 23  1  0  0  0  0
 13 14  1  0  0  0  0
 14 15  1  0  0  0  0
 14 17  2  0  0  0  0
 15 16  1  0  0  0  0
 15 37  1  0  0  0  0
 15 38  1  0  0  0  0
 16 39  1  0  0  0  0
 17 18  1  0  0  0  0
 17 45  1  0  0  0  0
 18 23  2  0  0  0  0
 18 19  1  0  0  0  0
 19 20  2  0  0  0  0
 19 40  1  0  0  0  0
 20 21  1  0  0  0  0
 20 41  1  0  0  0  0
 21 22  2  0  0  0  0
 21 42  1  0  0  0  0
 22 23  1  0  0  0  0
 22 43  1  0  0  0  0
 24 44  1  0  0  0  0
M  CHG  1  17   1
M  END
> <s_m_source_file>
AV-unprocessed.smi

> <i_m_source_file_index>
2057

> <i_lp_mmshare_version>
43012

> <i_f3d_flags>
0

> <s_epik_input>
W0NIM11PYzFbY0hdW2NIXWMoT1tDSDNdKWMoW2NIXTEpW0NASF0oW09IXSlbQ0gyXW4oYyhuMilbQ0gyXVtPSF0pYyhjMjMpW2NIXVtjSF1bY0hdW2NIXTM=

> <s_epik_cmdline>
J2VwaWtfcHl0aG9uJywgJy1waCcsICc3LjAnLCAnLXRuJywgJzgnLCAnLW1hJywgJzIwMCcsICctbWV0YWxfYmluZGluZycsICctaW1hZScsICc8aW5maWxlLm1hZT4nLCAnLW9tYWUnLCAnPG91dGZpbGUubWFlPic=

> <r_lp_tautomer_probability>
1

> <r_epik_Ionization_Penalty>
1.35643

> <r_epik_Ionization_Penalty_Charging>
1.35557

> <r_epik_Ionization_Penalty_Neutral>
0.000857128

> <r_epik_State_Penalty>
1.43401

> <r_epik_Charging_Adjusted_Penalty>
2.78958

> <i_epik_Tot_Q>
1

> <i_epik_Tot_abs_Q>
1

> <r_epik_Metal_State_Penalty>
5.47166

> <b_epik_Metal_Only>
0

> <s_lp_Force_Field>
OPLS_2005

> <r_lp_Energy>
20.8596

> <b_lp_Chiralities_Consistent>
1

> <s_lp_Variant>
AV-unprocessed.smi:2057-4

> <Gold.Version>
5.8.1

> <Gold.Id.Protein>
6NUR|6NUR_protein|mol2

> <Gold.PLP.Fitness>
63.8481

> <Gold.PLP.PLP>
-52.7976

> <Gold.PLP.part.hbond>
-4.0000

> <Gold.PLP.part.metal>
0.0000

> <Gold.PLP.part.buried>
0.4471

> <Gold.PLP.part.nonpolar>
-49.4706

> <Gold.PLP.part.repulsive>
0.1746

> <Gold.PLP.ligand.clash>
0.0000

> <Gold.PLP.ligand.torsion>
0.4869

> <Gold.PLP.Chemscore.Hbond>
3.9440

> <Gold.PLP.Chemscore.CHOScore>
0.0000

> <Gold.PLP.Chemscore.Metal>
0.0000

> <Gold.Chemscore.Hbonds>
donor molecule, donor type, donor heavy atom, donor atom, acceptor molecule, acceptor atom, score
      L1  H    16    39       P1  7949  0.93
      L1  H    17    45       P1  7948  2.00
      P1  H 10752 10763       L1    16  1.00

> <Gold.PLP.Chemscore.Internal.Correction>
0.1922

> <Gold.Rescore>
     Score         DG    S(hbond)    S(metal)    S(lipo)     H(rot)  DE(clash)    DE(int)     intcor
     18.82     -21.12       2.48        0.00     134.05       3.25       1.81       0.49       ----

> <Gold.Chemscore.Fitness>
18.8193

> <Gold.Chemscore.DG>
-21.1226

> <Gold.Chemscore.ZeroCoef>
-5.4800

> <Gold.Chemscore.Hbond>
2.4815

> <Gold.Chemscore.Metal>
0.0000

> <Gold.Chemscore.Lipo>
134.0496

> <Gold.Chemscore.Internal_Hbond>
0.0000

> <Gold.Chemscore.DEClash>
1.8139

> <Gold.Chemscore.DEInternal>
0.4894

> <Gold.Chemscore.Rot>
3.2537

> <Gold.Chemscore.Internal.Correction>
   9.000000E+99

> <Gold.Chemscore.Hbonds>
donor molecule, donor type, donor heavy atom, donor atom, acceptor molecule, acceptor atom, score
      L1  H    16    39       P1  7949  0.63
      L1  H    17    45       P1  7948  0.91
      P1  H 10752 10763       L1    16  0.56

> <Gold.Chemscore.Hbond.Weighted>
-8.2883

> <Gold.Chemscore.Metal.Weighted>
-0.0000

> <Gold.Chemscore.Lipo.Weighted>
-15.6838

> <Gold.Chemscore.Internal_Hbond.Weighted>
0.0000

> <Gold.Chemscore.DEClash.Weighted>
1.8139

> <Gold.Chemscore.DEInternal.Weighted>
0.4894

> <Gold.Chemscore.Rot.Weighted>
8.3295

> <Gold.Chemscore.Internal.Correction.Weighted>
   9.000000E+99

> <Gold.Protein.RotatedTorsions>
[ 6907 6896 6895 6894 ] final  129.05 input  -60.11 | X-H torsion
[ 7974 7965 7964 7962 ] final -142.83 input  175.53 | X-H torsion
[ 8008 7997 7996 7995 ] final  -41.73 input   59.86 | X-H torsion
[ 10167 10162 10161 10158 ] final  140.33 input  -65.29 | X-H torsion
[ 10718 10713 10712 10709 ] final   89.79 input   66.30 | X-H torsion
[ 10763 10752 10751 10750 ] final   56.81 input  -60.55 | X-H torsion
[ 11005 11000 10999 10996 ] final   98.16 input  -57.11 | X-H torsion

> <Gold.Protein.ActiveResidues>
 VAL166  LYS551  ARG553  GLY616  TRP617  ASP618  TYR619  PRO620  LYS621  CYS622 
 ASP623  PHE694  ASN695  SER759  ASP760  ASP761  ALA762  ILE779  LEU786  VAL792 
 PHE793  MET794  SER795  GLU796  ALA797  LYS798  CYS799  TRP800  GLU811  SER814 

> <Gold.Protein.RotatedAtoms>
  152.3661  133.6358  159.6051 H   0  0  0  0  0  0  0  0  0  0  0  0  # atno 6907 bound_to 6896
  150.7635  133.9346  159.3446 H   0  0  0  0  0  0  0  0  0  0  0  0  # atno 6908 bound_to 6896
  151.7176  135.0901  160.0330 H   0  0  0  0  0  0  0  0  0  0  0  0  # atno 6909 bound_to 6896
  144.8414  140.5910  143.5450 H   0  0  0  0  0  0  0  0  0  0  0  0  # atno 7974 bound_to 7965
  154.4002  140.1492  156.3239 H   0  0  0  0  0  0  0  0  0  0  0  0  # atno 8008 bound_to 7997
  155.8505  140.3458  155.5669 H   0  0  0  0  0  0  0  0  0  0  0  0  # atno 8009 bound_to 7997
  155.7990  140.0867  157.1958 H   0  0  0  0  0  0  0  0  0  0  0  0  # atno 8010 bound_to 7997
  139.5052  144.6240  151.5981 H   0  0  0  0  0  0  0  0  0  0  0  0  # atno 10167 bound_to 10162
  157.6957  131.0346  150.3479 H   0  0  0  0  0  0  0  0  0  0  0  0  # atno 10718 bound_to 10713
  152.9838  135.5663  154.5289 H   0  0  0  0  0  0  0  0  0  0  0  0  # atno 10763 bound_to 10752
  154.4764  135.2787  155.1606 H   0  0  0  0  0  0  0  0  0  0  0  0  # atno 10764 bound_to 10752
  154.3133  135.6284  153.5528 H   0  0  0  0  0  0  0  0  0  0  0  0  # atno 10765 bound_to 10752
  139.8773  134.9036  156.4415 H   0  0  0  0  0  0  0  0  0  0  0  0  # atno 11005 bound_to 11000
  145.4686  139.1505  143.3827 LP  0  0  0  0  0  0  0  0  0  0  0  0  # atno 17320 bound_to 7965
  146.2706  140.4818  142.8816 LP  0  0  0  0  0  0  0  0  0  0  0  0  # atno 17321 bound_to 7965
  140.5951  143.9710  150.6349 LP  0  0  0  0  0  0  0  0  0  0  0  0  # atno 17342 bound_to 10162
  140.2903  143.3329  152.1069 LP  0  0  0  0  0  0  0  0  0  0  0  0  # atno 17343 bound_to 10162
  156.3931  130.3901  149.7015 LP  0  0  0  0  0  0  0  0  0  0  0  0  # atno 17370 bound_to 10713
  156.4358  130.7837  151.2858 LP  0  0  0  0  0  0  0  0  0  0  0  0  # atno 17371 bound_to 10713
  140.8996  133.7789  155.9664 LP  0  0  0  0  0  0  0  0  0  0  0  0  # atno 17394 bound_to 11000
  140.8666  134.2777  157.5210 LP  0  0  0  0  0  0  0  0  0  0  0  0  # atno 17395 bound_to 11000

$$$$
