#       Name:                AV-unprocessed.smi:2971
#       Creating user name   scv26
#       Creation time:       Fri Mar 27 16:24:38 2020


#       File generated by GOLD software.
#

@<TRIPOS>MOLECULE
AV-unprocessed.smi:2971
    41    43     1
SMALL
NO_CHARGES


@<TRIPOS>ATOM
      1 ****        -0.5356  -0.5859   1.0368 O.3            1 S1                 0.0000
      2 ****        -0.1058  -0.2878  -0.2771 C.3            1 S1                 0.0000
      3 ****         1.4301  -0.2353  -0.2857 C.3            1 S1                 0.0000
      4 ****         1.9354  -1.5627  -0.3453 O.3            1 S1                 0.0000
      5 ****         3.3023  -1.7421  -0.3828 C.ar           1 S1                 0.0000
      6 ****         4.2446  -0.6819  -0.3664 C.ar           1 S1                 0.0000
      7 ****         5.6260  -0.9537  -0.4080 C.ar           1 S1                 0.0000
      8 ****         6.0834  -2.2828  -0.4669 C.ar           1 S1                 0.0000
      9 ****         5.1565  -3.3412  -0.4843 C.ar           1 S1                 0.0000
     10 ****         3.7749  -3.0708  -0.4419 C.ar           1 S1                 0.0000
     11 ****         2.8937  -4.0994  -0.4589 F              1 S1                 0.0000
     12 ****        -0.7263   1.0510  -0.7239 C.3            1 S1                 0.0000
     13 ****        -2.1958   1.0186  -0.7597 N.pl3          1 S1                 0.0000
     14 ****        -3.0291   0.5857  -1.7444 C.2            1 S1                 0.0000
     15 ****        -4.3075   0.7656  -1.3113 N.pl3          1 S1                 1.0000
     16 ****        -4.2921   1.3193  -0.0295 C.ar           1 S1                 0.0000
     17 ****        -5.3344   1.6794   0.8191 C.ar           1 S1                 0.0000
     18 ****        -4.9736   2.2177   2.0717 C.ar           1 S1                 0.0000
     19 ****        -3.6221   2.3798   2.4396 C.ar           1 S1                 0.0000
     20 ****        -2.5735   2.0131   1.5704 C.ar           1 S1                 0.0000
     21 ****        -2.9380   1.4829   0.3329 C.ar           1 S1                 0.0000
     22 ****        -0.1599  -1.4150   1.2923 H              1 S1                 0.0000
     23 ****        -0.4486  -1.0765  -0.9484 H              1 S1                 0.0000
     24 ****         1.7655   0.2997  -1.1757 H              1 S1                 0.0000
     25 ****         1.8055   0.3013   0.5876 H              1 S1                 0.0000
     26 ****         3.9339   0.3506  -0.3229 H              1 S1                 0.0000
     27 ****         6.3357  -0.1397  -0.3950 H              1 S1                 0.0000
     28 ****         7.1430  -2.4901  -0.4990 H              1 S1                 0.0000
     29 ****         5.5050  -4.3625  -0.5302 H              1 S1                 0.0000
     30 ****        -0.3971   1.8737  -0.0884 H              1 S1                 0.0000
     31 ****        -0.3917   1.2945  -1.7330 H              1 S1                 0.0000
     32 ****        -2.7300   0.1753  -2.6981 H              1 S1                 0.0000
     33 ****        -6.3706   1.5547   0.5405 H              1 S1                 0.0000
     34 ****        -5.7487   2.5106   2.7651 H              1 S1                 0.0000
     35 ****        -3.3836   2.7924   3.4091 H              1 S1                 0.0000
     36 ****        -1.5420   2.1358   1.8657 H              1 S1                 0.0000
     37 ****        -5.1282   0.5266  -1.8529 H              1 S1                 0.0000
     38 ****        -1.5336  -0.6456   1.0604 LP             1 S1                 0.0000
     39 ****        -0.2296   0.1310   1.6632 LP             1 S1                 0.0000
     40 ****         1.5587  -1.9859  -1.1694 LP             1 S1                 0.0000
     41 ****         1.5957  -2.0451   0.4621 LP             1 S1                 0.0000
@<TRIPOS>BOND
    1    1    2 1     
    2    1   22 1     
    3    2    3 1     
    4    2   12 1     
    5    2   23 1     
    6    3    4 1     
    7    3   24 1     
    8    3   25 1     
    9    4    5 1     
   10    5   10 ar    
   11    5    6 ar    
   12    6    7 ar    
   13    6   26 1     
   14    7    8 ar    
   15    7   27 1     
   16    8    9 ar    
   17    8   28 1     
   18    9   10 ar    
   19    9   29 1     
   20   10   11 1     
   21   12   13 1     
   22   12   30 1     
   23   12   31 1     
   24   13   21 1     
   25   13   14 1     
   26   14   15 2     
   27   14   32 1     
   28   15   16 1     
   29   15   37 1     
   30   16   21 ar    
   31   16   17 ar    
   32   17   18 ar    
   33   17   33 1     
   34   18   19 ar    
   35   18   34 1     
   36   19   20 ar    
   37   19   35 1     
   38   20   21 ar    
   39   20   36 1     
   40    1   38 1     
   41    1   39 1     
   42    4   40 1     
   43    4   41 1     
@<TRIPOS>SUBSTRUCTURE
      1 S1             1
@<TRIPOS>SET
LONE_PAIRS      STATIC     ATOMS    <user>   **** ""
4 38 39 40 41
DONOR_HYDROGENS      STATIC     ATOMS    <user>   **** ""
2 22 37
ATOM$BLUE        STATIC     ATOMS    COLORGROUP SYSTEM
4 38 39 40 41
ATOM$RED        STATIC     ATOMS    COLORGROUP SYSTEM
2 22 37
