AV-unprocessed.smi:651|AV-procd|sdf|3185|dock3
  -GOLD-   22720 0113D 1   1.00000     0.00000
 Structure written by MMmdl.
 38 39  0  0  0  0  0  0  0  0  1 V2000
  152.7708  143.0176  162.6444 C   0  0  0  0  0  0  0  0  0  0  0  0
  152.4233  142.9176  161.1741 C   0  0  0  0  0  0  0  0  0  0  0  0
  153.1038  142.0154  160.3291 C   0  0  0  0  0  0  0  0  0  0  0  0
  152.7384  141.9637  158.9702 C   0  0  0  0  0  0  0  0  0  0  0  0
  151.7105  142.8125  158.5094 C   0  0  0  0  0  0  0  0  0  0  0  0
  151.2704  142.7879  157.0549 C   0  0  0  0  0  0  0  0  0  0  0  0
  150.0845  141.8422  156.8458 C   0  0  0  0  0  0  0  0  0  0  0  0
  149.8793  140.9296  157.6455 O   0  0  0  0  0  0  0  0  0  0  0  0
  149.3251  142.0542  155.7593 N   0  0  0  0  0  0  0  0  0  0  0  0
  148.1600  141.2585  155.3716 C   0  0  1  0  0  0  0  0  0  0  0  0
  147.4822  141.8438  154.1180 C   0  0  0  0  0  0  0  0  0  0  0  0
  147.1334  140.6611  153.2060 C   0  0  0  0  0  0  0  0  0  0  0  0
  147.3673  139.4026  154.0457 C   0  0  0  0  0  0  0  0  0  0  0  0
  148.4669  139.7707  155.0534 C   0  0  1  0  0  0  0  0  0  0  0  0
  149.8689  139.5016  154.4639 C   0  0  0  0  0  0  0  0  0  0  0  0
  149.9802  138.4800  153.6112 N   0  0  0  0  0  0  0  0  0  0  0  0
  150.8356  140.1952  154.7755 O   0  0  0  0  0  0  0  0  0  0  0  0
  151.0976  143.6823  159.4366 C   0  0  0  0  0  0  0  0  0  0  0  0
  151.4404  143.7374  160.7410 N   0  0  0  0  0  0  0  0  0  0  0  0
  153.3883  142.1766  162.9614 H   0  0  0  0  0  0  0  0  0  0  0  0
  151.8660  143.0211  163.2531 H   0  0  0  0  0  0  0  0  0  0  0  0
  153.3202  143.9388  162.8397 H   0  0  0  0  0  0  0  0  0  0  0  0
  153.8865  141.3763  160.7108 H   0  0  0  0  0  0  0  0  0  0  0  0
  153.2353  141.2814  158.2962 H   0  0  0  0  0  0  0  0  0  0  0  0
  150.9887  143.7908  156.7314 H   0  0  0  0  0  0  0  0  0  0  0  0
  152.1079  142.4769  156.4287 H   0  0  0  0  0  0  0  0  0  0  0  0
  149.5726  142.8232  155.1532 H   0  0  0  0  0  0  0  0  0  0  0  0
  147.4299  141.2863  156.1831 H   0  0  0  0  0  0  0  0  0  0  0  0
  146.5865  142.3996  154.3978 H   0  0  0  0  0  0  0  0  0  0  0  0
  148.1359  142.5376  153.5870 H   0  0  0  0  0  0  0  0  0  0  0  0
  146.1115  140.7165  152.8301 H   0  0  0  0  0  0  0  0  0  0  0  0
  147.7964  140.6571  152.3400 H   0  0  0  0  0  0  0  0  0  0  0  0
  146.4543  139.1509  154.5870 H   0  0  0  0  0  0  0  0  0  0  0  0
  147.6190  138.5402  153.4264 H   0  0  0  0  0  0  0  0  0  0  0  0
  148.3566  139.1708  155.9585 H   0  0  0  0  0  0  0  0  0  0  0  0
  150.8748  138.2651  153.1951 H   0  0  0  0  0  0  0  0  0  0  0  0
  149.1664  137.9276  153.3826 H   0  0  0  0  0  0  0  0  0  0  0  0
  150.3048  144.3470  159.1262 H   0  0  0  0  0  0  0  0  0  0  0  0
  1  2  1  0  0  0  0
  1 20  1  0  0  0  0
  1 21  1  0  0  0  0
  1 22  1  0  0  0  0
  2 19  1  0  0  0  0
  2  3  2  0  0  0  0
  3  4  1  0  0  0  0
  3 23  1  0  0  0  0
  4  5  2  0  0  0  0
  4 24  1  0  0  0  0
  5  6  1  0  0  0  0
  5 18  1  0  0  0  0
  6  7  1  0  0  0  0
  6 25  1  0  0  0  0
  6 26  1  0  0  0  0
  7  8  2  0  0  0  0
  7  9  1  0  0  0  0
  9 10  1  0  0  0  0
  9 27  1  0  0  0  0
 10 14  1  0  0  0  0
 10 11  1  0  0  0  0
 10 28  1  0  0  0  0
 11 12  1  0  0  0  0
 11 29  1  0  0  0  0
 11 30  1  0  0  0  0
 12 13  1  0  0  0  0
 12 31  1  0  0  0  0
 12 32  1  0  0  0  0
 13 14  1  0  0  0  0
 13 33  1  0  0  0  0
 13 34  1  0  0  0  0
 14 15  1  0  0  0  0
 14 35  1  0  0  0  0
 15 16  1  0  0  0  0
 15 17  2  0  0  0  0
 16 36  1  0  0  0  0
 16 37  1  0  0  0  0
 18 19  2  0  0  0  0
 18 38  1  0  0  0  0
M  END
> <s_m_source_file>
AV-unprocessed.smi

> <i_m_source_file_index>
651

> <i_lp_mmshare_version>
43012

> <i_f3d_flags>
0

> <s_epik_input>
W0NIM11jMVtjSF1bY0hdYyhbY0hdbjEpW0NIMl1DKD1PKVtOSF1bQ0BASF0yW0NIMl1bQ0gyXVtDSDJdW0NASF0yQyg9TylbTkgyXQ==

> <s_epik_cmdline>
J2VwaWtfcHl0aG9uJywgJy1waCcsICc3LjAnLCAnLXRuJywgJzgnLCAnLW1hJywgJzIwMCcsICctbWV0YWxfYmluZGluZycsICctaW1hZScsICc8aW5maWxlLm1hZT4nLCAnLW9tYWUnLCAnPG91dGZpbGUubWFlPic=

> <r_epik_Ionization_Penalty>
0.0159502

> <r_epik_Ionization_Penalty_Charging>
0

> <r_epik_Ionization_Penalty_Neutral>
0.0159502

> <r_epik_State_Penalty>
0.012563

> <r_epik_Charging_Adjusted_Penalty>
0.012563

> <i_epik_Tot_Q>
0

> <i_epik_Tot_abs_Q>
0

> <r_epik_Metal_State_Penalty>
0.0122326

> <b_epik_Metal_Only>
0

> <s_lp_Force_Field>
OPLS_2005

> <r_lp_Energy>
12.2285

> <b_lp_Chiralities_Consistent>
1

> <s_lp_Variant>
AV-unprocessed.smi:651-2

> <Gold.Version>
5.8.1

> <Gold.Id.Protein>
6NUR|6NUR_protein|mol2

> <Gold.PLP.Fitness>
44.5541

> <Gold.PLP.PLP>
-42.3753

> <Gold.PLP.part.hbond>
-4.1300

> <Gold.PLP.part.metal>
0.0000

> <Gold.PLP.part.buried>
-7.0733

> <Gold.PLP.part.nonpolar>
-31.6777

> <Gold.PLP.part.repulsive>
0.4372

> <Gold.PLP.ligand.clash>
0.0000

> <Gold.PLP.ligand.torsion>
1.4313

> <Gold.PLP.Chemscore.Hbond>
1.6695

> <Gold.PLP.Chemscore.CHOScore>
0.0000

> <Gold.PLP.Chemscore.Metal>
0.0000

> <Gold.Chemscore.Hbonds>
donor molecule, donor type, donor heavy atom, donor atom, acceptor molecule, acceptor atom, score
      L1  H     9    27       P1  8028  0.33
      L1  H    16    37       P1  7948  0.24
      P1  H  7989  7998       L1    17  1.00

> <Gold.PLP.Chemscore.Internal.Correction>
0.0330

> <Gold.Rescore>
     Score         DG    S(hbond)    S(metal)    S(lipo)     H(rot)  DE(clash)    DE(int)     intcor
     13.78     -18.42       1.85        0.00     100.98       1.97       0.11       4.52       ----

> <Gold.Chemscore.Fitness>
13.7820

> <Gold.Chemscore.DG>
-18.4175

> <Gold.Chemscore.ZeroCoef>
-5.4800

> <Gold.Chemscore.Hbond>
1.8463

> <Gold.Chemscore.Metal>
0.0000

> <Gold.Chemscore.Lipo>
100.9833

> <Gold.Chemscore.Internal_Hbond>
0.0000

> <Gold.Chemscore.DEClash>
0.1118

> <Gold.Chemscore.DEInternal>
4.5237

> <Gold.Chemscore.Rot>
1.9704

> <Gold.Chemscore.Internal.Correction>
   9.000000E+99

> <Gold.Chemscore.Hbonds>
donor molecule, donor type, donor heavy atom, donor atom, acceptor molecule, acceptor atom, score
      L1  H     9    27       P1  8028  0.33
      L1  H    16    37       P1  7948  0.23
      P1  H  7989  7998       L1    17  0.90

> <Gold.Chemscore.Hbond.Weighted>
-6.1668

> <Gold.Chemscore.Metal.Weighted>
-0.0000

> <Gold.Chemscore.Lipo.Weighted>
-11.8150

> <Gold.Chemscore.Internal_Hbond.Weighted>
0.0000

> <Gold.Chemscore.DEClash.Weighted>
0.1118

> <Gold.Chemscore.DEInternal.Weighted>
4.5237

> <Gold.Chemscore.Rot.Weighted>
5.0443

> <Gold.Chemscore.Internal.Correction.Weighted>
   9.000000E+99

> <Gold.Protein.RotatedTorsions>
[ 6907 6896 6895 6894 ] final   38.39 input  -60.11 | X-H torsion
[ 7974 7965 7964 7962 ] final  -20.57 input  175.53 | X-H torsion
[ 8008 7997 7996 7995 ] final  -29.34 input   59.86 | X-H torsion
[ 10167 10162 10161 10158 ] final -141.26 input  -65.29 | X-H torsion
[ 10718 10713 10712 10709 ] final  105.52 input   66.30 | X-H torsion
[ 10763 10752 10751 10750 ] final  171.13 input  -60.55 | X-H torsion
[ 11005 11000 10999 10996 ] final -105.85 input  -57.11 | X-H torsion

> <Gold.Protein.ActiveResidues>
 VAL166  LYS551  ARG553  GLY616  TRP617  ASP618  TYR619  PRO620  LYS621  CYS622 
 ASP623  PHE694  ASN695  SER759  ASP760  ASP761  ALA762  ILE779  LEU786  VAL792 
 PHE793  MET794  SER795  GLU796  ALA797  LYS798  CYS799  TRP800  GLU811  SER814 

> <Gold.Protein.RotatedAtoms>
  152.1559  134.8951  160.0544 H   0  0  0  0  0  0  0  0  0  0  0  0  # atno 6907 bound_to 6896
  151.9966  133.3805  159.4173 H   0  0  0  0  0  0  0  0  0  0  0  0  # atno 6908 bound_to 6896
  150.6881  134.3802  159.5074 H   0  0  0  0  0  0  0  0  0  0  0  0  # atno 6909 bound_to 6896
  146.1781  140.4220  142.8505 H   0  0  0  0  0  0  0  0  0  0  0  0  # atno 7974 bound_to 7965
  154.4294  140.1821  156.1233 H   0  0  0  0  0  0  0  0  0  0  0  0  # atno 8008 bound_to 7997
  156.0126  140.3349  155.6930 H   0  0  0  0  0  0  0  0  0  0  0  0  # atno 8009 bound_to 7997
  155.6090  140.0648  157.2702 H   0  0  0  0  0  0  0  0  0  0  0  0  # atno 8010 bound_to 7997
  139.8202  143.7585  152.2666 H   0  0  0  0  0  0  0  0  0  0  0  0  # atno 10167 bound_to 10162
  157.6702  131.0829  150.5869 H   0  0  0  0  0  0  0  0  0  0  0  0  # atno 10718 bound_to 10713
  154.4075  135.2756  155.2058 H   0  0  0  0  0  0  0  0  0  0  0  0  # atno 10763 bound_to 10752
  154.4057  135.6034  153.5927 H   0  0  0  0  0  0  0  0  0  0  0  0  # atno 10764 bound_to 10752
  152.9831  135.5937  154.4352 H   0  0  0  0  0  0  0  0  0  0  0  0  # atno 10765 bound_to 10752
  141.1033  133.8843  157.1785 H   0  0  0  0  0  0  0  0  0  0  0  0  # atno 11005 bound_to 11000
  144.8269  140.6644  143.6316 LP  0  0  0  0  0  0  0  0  0  0  0  0  # atno 17320 bound_to 7965
  145.4154  139.1573  143.4103 LP  0  0  0  0  0  0  0  0  0  0  0  0  # atno 17321 bound_to 7965
  139.7760  144.7460  151.0156 LP  0  0  0  0  0  0  0  0  0  0  0  0  # atno 17342 bound_to 10162
  140.7813  143.4593  151.0301 LP  0  0  0  0  0  0  0  0  0  0  0  0  # atno 17343 bound_to 10162
  156.6169  130.4395  149.5837 LP  0  0  0  0  0  0  0  0  0  0  0  0  # atno 17370 bound_to 10713
  156.2386  130.6837  151.1534 LP  0  0  0  0  0  0  0  0  0  0  0  0  # atno 17371 bound_to 10713
  139.9893  135.0070  156.9937 LP  0  0  0  0  0  0  0  0  0  0  0  0  # atno 17394 bound_to 11000
  140.4966  134.1139  155.7242 LP  0  0  0  0  0  0  0  0  0  0  0  0  # atno 17395 bound_to 11000

$$$$
