AV-unprocessed.smi:1760|AV-procd|sdf|7090|dock5
  -GOLD-   22720 8303D 1   1.00000     0.00000
 Structure written by MMmdl.
 44 46  0  0  0  0  0  0  0  0  2 V2000
  145.8517  138.8692  153.7488 O   0  0  0  0  0  0  0  0  0  0  0  0
  146.7735  138.3397  153.1286 C   0  0  0  0  0  0  0  0  0  0  0  0
  148.0858  138.5639  153.3250 N   0  0  0  0  0  0  0  0  0  0  0  0
  148.7143  139.4363  154.2298 C   0  0  0  0  0  0  0  0  0  0  0  0
  149.6550  139.0693  155.1389 C   0  0  0  0  0  0  0  0  0  0  0  0
  150.2597  140.0251  156.0520 C   0  0  0  0  0  0  0  0  0  0  0  0
  151.3738  139.6204  157.0048 C   0  0  0  0  0  0  0  0  0  0  0  0
  151.7387  140.6397  157.7837 F   0  0  0  0  0  0  0  0  0  0  0  0
  150.9594  138.6266  157.7893 F   0  0  0  0  0  0  0  0  0  0  0  0
  152.4473  139.2005  156.3351 F   0  0  0  0  0  0  0  0  0  0  0  0
  149.8427  141.3005  155.9485 C   0  0  0  0  0  0  0  0  0  0  0  0
  148.8583  141.6812  155.0339 N   0  0  0  0  0  0  0  0  0  0  0  0
  148.2616  140.8358  154.1640 C   0  0  0  0  0  0  0  0  0  0  0  0
  147.4023  141.2493  153.3861 O   0  0  0  0  0  0  0  0  0  0  0  0
  146.5861  137.4260  152.1649 N   0  0  0  0  0  0  0  0  0  0  0  0
  145.2960  136.9109  151.7129 C   0  0  2  0  0  0  0  0  0  0  0  0
  144.6198  136.1230  152.8472 C   0  0  0  0  0  0  0  0  0  0  0  0
  143.3068  135.4749  152.3687 C   0  0  0  0  0  0  0  0  0  0  0  0
  143.5103  134.6172  151.1728 N   0  3  2  0  0  0  0  0  0  0  0  0
  144.1696  133.3264  151.4819 C   0  0  0  0  0  0  0  0  0  0  0  0
  144.8806  132.7104  150.2997 C   0  0  0  0  0  0  0  0  0  0  0  0
  143.5566  132.1464  150.7647 C   0  0  0  0  0  0  0  0  0  0  0  0
  144.1574  135.3568  150.0583 C   0  0  0  0  0  0  0  0  0  0  0  0
  145.4886  136.0036  150.4863 C   0  0  0  0  0  0  0  0  0  0  0  0
  148.5863  142.6538  155.0305 H   0  0  0  0  0  0  0  0  0  0  0  0
  148.7226  137.9998  152.7811 H   0  0  0  0  0  0  0  0  0  0  0  0
  149.9723  138.0433  155.2272 H   0  0  0  0  0  0  0  0  0  0  0  0
  150.2276  142.1165  156.5423 H   0  0  0  0  0  0  0  0  0  0  0  0
  147.4062  137.0462  151.7149 H   0  0  0  0  0  0  0  0  0  0  0  0
  144.6339  137.7313  151.4293 H   0  0  0  0  0  0  0  0  0  0  0  0
  145.2958  135.3538  153.2229 H   0  0  0  0  0  0  0  0  0  0  0  0
  144.4147  136.7857  153.6889 H   0  0  0  0  0  0  0  0  0  0  0  0
  142.8541  134.8932  153.1723 H   0  0  0  0  0  0  0  0  0  0  0  0
  142.5891  136.2556  152.1135 H   0  0  0  0  0  0  0  0  0  0  0  0
  144.5728  133.2076  152.4855 H   0  0  0  0  0  0  0  0  0  0  0  0
  144.8903  133.2591  149.3595 H   0  0  0  0  0  0  0  0  0  0  0  0
  145.7721  132.1203  150.5022 H   0  0  0  0  0  0  0  0  0  0  0  0
  143.5757  131.1847  151.2737 H   0  0  0  0  0  0  0  0  0  0  0  0
  142.6871  132.3203  150.1332 H   0  0  0  0  0  0  0  0  0  0  0  0
  144.3131  134.6902  149.2094 H   0  0  0  0  0  0  0  0  0  0  0  0
  143.4707  136.1324  149.7167 H   0  0  0  0  0  0  0  0  0  0  0  0
  145.8972  136.5820  149.6568 H   0  0  0  0  0  0  0  0  0  0  0  0
  146.2223  135.2272  150.7068 H   0  0  0  0  0  0  0  0  0  0  0  0
  142.5871  134.3705  150.8456 H   0  0  0  0  0  0  0  0  0  0  0  0
  1  2  2  0  0  0  0
  2  3  1  0  0  0  0
  2 15  1  0  0  0  0
  3  4  1  0  0  0  0
  3 26  1  0  0  0  0
  4 13  1  0  0  0  0
  4  5  2  0  0  0  0
  5  6  1  0  0  0  0
  5 27  1  0  0  0  0
  6  7  1  0  0  0  0
  6 11  2  0  0  0  0
  7  8  1  0  0  0  0
  7  9  1  0  0  0  0
  7 10  1  0  0  0  0
 11 12  1  0  0  0  0
 11 28  1  0  0  0  0
 12 25  1  0  0  0  0
 12 13  1  0  0  0  0
 13 14  2  0  0  0  0
 15 16  1  0  0  0  0
 15 29  1  0  0  0  0
 16 24  1  0  0  0  0
 16 17  1  0  0  0  0
 16 30  1  0  0  0  0
 17 18  1  0  0  0  0
 17 31  1  0  0  0  0
 17 32  1  0  0  0  0
 18 19  1  0  0  0  0
 18 33  1  0  0  0  0
 18 34  1  0  0  0  0
 19 20  1  0  0  0  0
 19 23  1  0  0  0  0
 19 44  1  0  0  0  0
 20 22  1  0  0  0  0
 20 21  1  0  0  0  0
 20 35  1  0  0  0  0
 21 22  1  0  0  0  0
 21 36  1  0  0  0  0
 21 37  1  0  0  0  0
 22 38  1  0  0  0  0
 22 39  1  0  0  0  0
 23 24  1  0  0  0  0
 23 40  1  0  0  0  0
 23 41  1  0  0  0  0
 24 42  1  0  0  0  0
 24 43  1  0  0  0  0
M  CHG  1  19   1
M  END
> <s_m_source_file>
AV-unprocessed.smi

> <i_m_source_file_index>
1760

> <i_lp_mmshare_version>
43012

> <i_f3d_flags>
0

> <s_epik_input>
W0NIMl0xW0NIMl1bQ0hdMU4oW0NIMl1bQ0gyXTIpW0NIMl1bQ0gyXVtDSF0yW05IXUMoPU8pW05IXWMzW2NIXWMoQyhGKShGKUYpW2NIXVtuSF1jMz1P

> <s_epik_cmdline>
J2VwaWtfcHl0aG9uJywgJy1waCcsICc3LjAnLCAnLXRuJywgJzgnLCAnLW1hJywgJzIwMCcsICctbWV0YWxfYmluZGluZycsICctaW1hZScsICc8aW5maWxlLm1hZT4nLCAnLW9tYWUnLCAnPG91dGZpbGUubWFlPic=

> <r_lp_tautomer_probability>
0.999

> <r_epik_Ionization_Penalty>
0.131122

> <r_epik_Ionization_Penalty_Charging>
0.131104

> <r_epik_Ionization_Penalty_Neutral>
1.84439e-05

> <r_epik_State_Penalty>
0.116042

> <r_epik_Charging_Adjusted_Penalty>
0.247146

> <i_epik_Tot_Q>
1

> <i_epik_Tot_abs_Q>
1

> <r_epik_Metal_State_Penalty>
0.492282

> <b_epik_Metal_Only>
0

> <s_lp_Force_Field>
OPLS_2005

> <r_lp_Energy>
39.2626

> <b_lp_Chiralities_Consistent>
1

> <s_lp_Variant>
AV-unprocessed.smi:1760-2

> <Gold.Version>
5.8.1

> <Gold.Id.Protein>
6NUR|6NUR_protein|mol2

> <Gold.PLP.Fitness>
45.9511

> <Gold.PLP.PLP>
-35.2864

> <Gold.PLP.part.hbond>
-4.7837

> <Gold.PLP.part.metal>
0.0000

> <Gold.PLP.part.buried>
-0.2397

> <Gold.PLP.part.nonpolar>
-32.6097

> <Gold.PLP.part.repulsive>
1.3596

> <Gold.PLP.ligand.clash>
1.0794

> <Gold.PLP.ligand.torsion>
1.4639

> <Gold.PLP.Chemscore.Hbond>
4.4553

> <Gold.PLP.Chemscore.CHOScore>
0.0000

> <Gold.PLP.Chemscore.Metal>
0.0000

> <Gold.Chemscore.Hbonds>
donor molecule, donor type, donor heavy atom, donor atom, acceptor molecule, acceptor atom, score
      L1  H     3    26       P1  7948  0.91
      L1  H    12    25       P1  8028  0.67
      L1  H    15    29       P1  7948  1.00
      L1  H    19    44       P1 10186  1.98

> <Gold.PLP.Chemscore.Internal.Correction>
1.3061

> <Gold.Rescore>
     Score         DG    S(hbond)    S(metal)    S(lipo)     H(rot)  DE(clash)    DE(int)     intcor
     18.41     -20.10       2.64        0.00      77.88       1.29       0.02       1.68       ----

> <Gold.Chemscore.Fitness>
18.4059

> <Gold.Chemscore.DG>
-20.1025

> <Gold.Chemscore.ZeroCoef>
-5.4800

> <Gold.Chemscore.Hbond>
2.6366

> <Gold.Chemscore.Metal>
0.0000

> <Gold.Chemscore.Lipo>
77.8840

> <Gold.Chemscore.Internal_Hbond>
0.0000

> <Gold.Chemscore.DEClash>
0.0155

> <Gold.Chemscore.DEInternal>
1.6812

> <Gold.Chemscore.Rot>
1.2875

> <Gold.Chemscore.Internal.Correction>
   9.000000E+99

> <Gold.Chemscore.Hbonds>
donor molecule, donor type, donor heavy atom, donor atom, acceptor molecule, acceptor atom, score
      L1  H     3    26       P1  7948  0.87
      L1  H    12    25       P1  8028  0.64
      L1  H    15    29       P1  7948  0.94
      L1  H    19    44       P1 10186  0.23

> <Gold.Chemscore.Hbond.Weighted>
-8.8061

> <Gold.Chemscore.Metal.Weighted>
-0.0000

> <Gold.Chemscore.Lipo.Weighted>
-9.1124

> <Gold.Chemscore.Internal_Hbond.Weighted>
0.0000

> <Gold.Chemscore.DEClash.Weighted>
0.0155

> <Gold.Chemscore.DEInternal.Weighted>
1.6812

> <Gold.Chemscore.Rot.Weighted>
3.2960

> <Gold.Chemscore.Internal.Correction.Weighted>
   9.000000E+99

> <Gold.Protein.RotatedTorsions>
[ 6907 6896 6895 6894 ] final  174.65 input  -60.11 | X-H torsion
[ 7974 7965 7964 7962 ] final    0.79 input  175.53 | X-H torsion
[ 8008 7997 7996 7995 ] final   88.72 input   59.86 | X-H torsion
[ 10167 10162 10161 10158 ] final  123.63 input  -65.29 | X-H torsion
[ 10718 10713 10712 10709 ] final -134.23 input   66.30 | X-H torsion
[ 10763 10752 10751 10750 ] final   95.46 input  -60.55 | X-H torsion
[ 11005 11000 10999 10996 ] final   42.83 input  -57.11 | X-H torsion

> <Gold.Protein.ActiveResidues>
 VAL166  LYS551  ARG553  GLY616  TRP617  ASP618  TYR619  PRO620  LYS621  CYS622 
 ASP623  PHE694  ASN695  SER759  ASP760  ASP761  ALA762  ILE779  LEU786  VAL792 
 PHE793  MET794  SER795  GLU796  ALA797  LYS798  CYS799  TRP800  GLU811  SER814 

> <Gold.Protein.RotatedAtoms>
  151.7489  133.3326  159.3385 H   0  0  0  0  0  0  0  0  0  0  0  0  # atno 6907 bound_to 6896
  150.7543  134.6210  159.6145 H   0  0  0  0  0  0  0  0  0  0  0  0  # atno 6908 bound_to 6896
  152.3481  134.7045  160.0296 H   0  0  0  0  0  0  0  0  0  0  0  0  # atno 6909 bound_to 6896
  146.2436  140.1084  142.8345 H   0  0  0  0  0  0  0  0  0  0  0  0  # atno 7974 bound_to 7965
  155.9913  140.3368  155.6755 H   0  0  0  0  0  0  0  0  0  0  0  0  # atno 8008 bound_to 7997
  155.6417  140.0696  157.2634 H   0  0  0  0  0  0  0  0  0  0  0  0  # atno 8009 bound_to 7997
  154.4220  140.1741  156.1567 H   0  0  0  0  0  0  0  0  0  0  0  0  # atno 8010 bound_to 7997
  139.5788  144.6976  151.3583 H   0  0  0  0  0  0  0  0  0  0  0  0  # atno 10167 bound_to 10162
  156.2533  130.7166  151.1073 H   0  0  0  0  0  0  0  0  0  0  0  0  # atno 10718 bound_to 10713
  153.2534  135.4253  155.0821 H   0  0  0  0  0  0  0  0  0  0  0  0  # atno 10763 bound_to 10752
  154.8391  135.3431  154.6480 H   0  0  0  0  0  0  0  0  0  0  0  0  # atno 10764 bound_to 10752
  153.6901  135.7034  153.5149 H   0  0  0  0  0  0  0  0  0  0  0  0  # atno 10765 bound_to 10752
  140.1702  134.4231  155.8262 H   0  0  0  0  0  0  0  0  0  0  0  0  # atno 11005 bound_to 11000
  145.0508  140.9016  143.4997 LP  0  0  0  0  0  0  0  0  0  0  0  0  # atno 17320 bound_to 7965
  145.1182  139.2711  143.5602 LP  0  0  0  0  0  0  0  0  0  0  0  0  # atno 17321 bound_to 7965
  140.7068  143.7493  150.7496 LP  0  0  0  0  0  0  0  0  0  0  0  0  # atno 17342 bound_to 10162
  140.1020  143.4779  152.2420 LP  0  0  0  0  0  0  0  0  0  0  0  0  # atno 17343 bound_to 10162
  157.7223  131.0673  150.6084 LP  0  0  0  0  0  0  0  0  0  0  0  0  # atno 17370 bound_to 10713
  156.6166  130.4394  149.5838 LP  0  0  0  0  0  0  0  0  0  0  0  0  # atno 17371 bound_to 10713
  141.2217  133.6953  156.7750 LP  0  0  0  0  0  0  0  0  0  0  0  0  # atno 17394 bound_to 11000
  140.2386  134.8631  157.3550 LP  0  0  0  0  0  0  0  0  0  0  0  0  # atno 17395 bound_to 11000

$$$$
