AV-unprocessed.smi:1160|AV-procd|sdf|4916|dock3
  -GOLD-   22720 3493D 1   1.00000     0.00000
 Structure written by MMmdl.
 44 45  0  0  0  0  0  0  0  0  1 V2000
  144.9067  135.0686  150.8556 C   0  0  0  0  0  0  0  0  0  0  0  0
  145.5031  133.6654  150.9903 C   0  0  0  0  0  0  0  0  0  0  0  0
  146.6586  133.7377  151.8201 O   0  0  0  0  0  0  0  0  0  0  0  0
  147.0697  132.5991  152.4874 C   0  0  0  0  0  0  0  0  0  0  0  0
  146.4027  131.4404  152.2573 N   0  0  0  0  0  0  0  0  0  0  0  0
  146.8066  130.3274  152.9028 C   0  0  0  0  0  0  0  0  0  0  0  0
  147.8909  130.3074  153.7984 C   0  0  0  0  0  0  0  0  0  0  0  0
  148.5843  131.5080  154.0393 C   0  0  0  0  0  0  0  0  0  0  0  0
  148.1629  132.6891  153.3808 C   0  0  0  0  0  0  0  0  0  0  0  0
  148.7938  133.9549  153.5377 N   0  0  0  0  0  0  0  0  0  0  0  0
  149.6028  134.3808  154.5229 C   0  0  0  0  0  0  0  0  0  0  0  0
  149.9750  133.7061  155.4822 O   0  0  0  0  0  0  0  0  0  0  0  0
  149.9483  135.6629  154.3373 N   0  0  0  0  0  0  0  0  0  0  0  0
  150.7917  136.4594  155.2246 C   0  0  0  0  0  0  0  0  0  0  0  0
  149.9374  137.0283  156.3772 C   0  0  0  0  0  0  0  0  0  0  0  0
  150.7379  138.0377  157.2188 C   0  0  0  0  0  0  0  0  0  0  0  0
  151.2429  139.0955  156.3356 N   0  0  0  0  0  0  0  0  0  0  0  0
  150.7627  140.3621  156.3627 C   0  0  0  0  0  0  0  0  0  0  0  0
  149.6892  140.7345  157.3875 C   0  0  0  0  0  0  0  0  0  0  0  0
  151.1537  141.2385  155.5916 O   0  0  0  0  0  0  0  0  0  0  0  0
  152.2076  138.5714  155.3603 C   0  0  0  0  0  0  0  0  0  0  0  0
  151.4854  137.5843  154.4252 C   0  0  0  0  0  0  0  0  0  0  0  0
  144.0207  135.0556  150.2205 H   0  0  0  0  0  0  0  0  0  0  0  0
  145.6257  135.7580  150.4124 H   0  0  0  0  0  0  0  0  0  0  0  0
  144.6158  135.4663  151.8282 H   0  0  0  0  0  0  0  0  0  0  0  0
  144.7628  132.9934  151.4273 H   0  0  0  0  0  0  0  0  0  0  0  0
  145.7654  133.2844  150.0019 H   0  0  0  0  0  0  0  0  0  0  0  0
  146.2526  129.4242  152.6938 H   0  0  0  0  0  0  0  0  0  0  0  0
  148.1875  129.3911  154.2868 H   0  0  0  0  0  0  0  0  0  0  0  0
  149.4279  131.4915  154.7111 H   0  0  0  0  0  0  0  0  0  0  0  0
  148.5317  134.6485  152.8525 H   0  0  0  0  0  0  0  0  0  0  0  0
  149.5887  136.1329  153.5195 H   0  0  0  0  0  0  0  0  0  0  0  0
  151.5704  135.8383  155.6710 H   0  0  0  0  0  0  0  0  0  0  0  0
  149.0524  137.5236  155.9745 H   0  0  0  0  0  0  0  0  0  0  0  0
  149.5759  136.2175  157.0109 H   0  0  0  0  0  0  0  0  0  0  0  0
  150.1156  138.4224  158.0278 H   0  0  0  0  0  0  0  0  0  0  0  0
  151.5784  137.5393  157.7040 H   0  0  0  0  0  0  0  0  0  0  0  0
  150.0507  140.5738  158.4035 H   0  0  0  0  0  0  0  0  0  0  0  0
  148.7862  140.1437  157.2333 H   0  0  0  0  0  0  0  0  0  0  0  0
  149.4178  141.7866  157.2938 H   0  0  0  0  0  0  0  0  0  0  0  0
  152.6996  139.3446  154.7720 H   0  0  0  0  0  0  0  0  0  0  0  0
  153.0096  138.0586  155.8932 H   0  0  0  0  0  0  0  0  0  0  0  0
  152.1951  137.1562  153.7163 H   0  0  0  0  0  0  0  0  0  0  0  0
  150.7480  138.1291  153.8333 H   0  0  0  0  0  0  0  0  0  0  0  0
  1  2  1  0  0  0  0
  1 23  1  0  0  0  0
  1 24  1  0  0  0  0
  1 25  1  0  0  0  0
  2  3  1  0  0  0  0
  2 26  1  0  0  0  0
  2 27  1  0  0  0  0
  3  4  1  0  0  0  0
  4  9  1  0  0  0  0
  4  5  2  0  0  0  0
  5  6  1  0  0  0  0
  6  7  2  0  0  0  0
  6 28  1  0  0  0  0
  7  8  1  0  0  0  0
  7 29  1  0  0  0  0
  8  9  2  0  0  0  0
  8 30  1  0  0  0  0
  9 10  1  0  0  0  0
 10 11  1  0  0  0  0
 10 31  1  0  0  0  0
 11 12  2  0  0  0  0
 11 13  1  0  0  0  0
 13 14  1  0  0  0  0
 13 32  1  0  0  0  0
 14 22  1  0  0  0  0
 14 15  1  0  0  0  0
 14 33  1  0  0  0  0
 15 16  1  0  0  0  0
 15 34  1  0  0  0  0
 15 35  1  0  0  0  0
 16 17  1  0  0  0  0
 16 36  1  0  0  0  0
 16 37  1  0  0  0  0
 17 18  1  0  0  0  0
 17 21  1  0  0  0  0
 18 19  1  0  0  0  0
 18 20  2  0  0  0  0
 19 38  1  0  0  0  0
 19 39  1  0  0  0  0
 19 40  1  0  0  0  0
 21 22  1  0  0  0  0
 21 41  1  0  0  0  0
 21 42  1  0  0  0  0
 22 43  1  0  0  0  0
 22 44  1  0  0  0  0
M  END
> <s_m_source_file>
AV-unprocessed.smi

> <i_m_source_file_index>
1160

> <i_lp_mmshare_version>
43012

> <i_f3d_flags>
0

> <s_epik_input>
W0NIM11bQ0gyXU9jMW5bY0hdW2NIXVtjSF1jMVtOSF1DKD1PKVtOSF1bQ0hdMltDSDJdW0NIMl1OKEMoPU8pW0NIM10pW0NIMl1bQ0gyXTI=

> <s_epik_cmdline>
J2VwaWtfcHl0aG9uJywgJy1waCcsICc3LjAnLCAnLXRuJywgJzgnLCAnLW1hJywgJzIwMCcsICctbWV0YWxfYmluZGluZycsICctaW1hZScsICc8aW5maWxlLm1hZT4nLCAnLW9tYWUnLCAnPG91dGZpbGUubWFlPic=

> <r_lp_tautomer_probability>
1

> <r_epik_Ionization_Penalty>
0.00011666

> <r_epik_Ionization_Penalty_Charging>
0

> <r_epik_Ionization_Penalty_Neutral>
0.00011666

> <r_epik_State_Penalty>
-0

> <r_epik_Charging_Adjusted_Penalty>
0

> <i_epik_Tot_Q>
0

> <i_epik_Tot_abs_Q>
0

> <r_epik_Metal_State_Penalty>
-0

> <b_epik_Metal_Only>
0

> <s_lp_Force_Field>
OPLS_2005

> <r_lp_Energy>
24.4955

> <b_lp_Chiralities_Consistent>
1

> <s_lp_Variant>
AV-unprocessed.smi:1160-1

> <Gold.Version>
5.8.1

> <Gold.Id.Protein>
6NUR|6NUR_protein|mol2

> <Gold.PLP.Fitness>
37.9100

> <Gold.PLP.PLP>
-31.9229

> <Gold.PLP.part.hbond>
-3.8306

> <Gold.PLP.part.metal>
0.0000

> <Gold.PLP.part.buried>
-2.0899

> <Gold.PLP.part.nonpolar>
-27.2512

> <Gold.PLP.part.repulsive>
0.4641

> <Gold.PLP.ligand.clash>
0.0000

> <Gold.PLP.ligand.torsion>
0.5720

> <Gold.PLP.Chemscore.Hbond>
2.3701

> <Gold.PLP.Chemscore.CHOScore>
0.0000

> <Gold.PLP.Chemscore.Metal>
0.0000

> <Gold.Chemscore.Hbonds>
donor molecule, donor type, donor heavy atom, donor atom, acceptor molecule, acceptor atom, score
      L1  H    10    31       P1  7948  0.98
      L1  H    13    32       P1  7948  1.00
      P1  H  7989  7998       L1    20  0.37

> <Gold.PLP.Chemscore.Internal.Correction>
0.0207

> <Gold.Rescore>
     Score         DG    S(hbond)    S(metal)    S(lipo)     H(rot)  DE(clash)    DE(int)     intcor
     12.27     -14.47       1.65        0.00      61.06       1.43       0.37       1.84       ----

> <Gold.Chemscore.Fitness>
12.2681

> <Gold.Chemscore.DG>
-14.4733

> <Gold.Chemscore.ZeroCoef>
-5.4800

> <Gold.Chemscore.Hbond>
1.6496

> <Gold.Chemscore.Metal>
0.0000

> <Gold.Chemscore.Lipo>
61.0568

> <Gold.Chemscore.Internal_Hbond>
0.0000

> <Gold.Chemscore.DEClash>
0.3672

> <Gold.Chemscore.DEInternal>
1.8379

> <Gold.Chemscore.Rot>
1.4297

> <Gold.Chemscore.Internal.Correction>
   9.000000E+99

> <Gold.Chemscore.Hbonds>
donor molecule, donor type, donor heavy atom, donor atom, acceptor molecule, acceptor atom, score
      L1  H    10    31       P1  7948  0.24
      L1  H    13    32       P1  7948  0.39
      P1  H  7989  7998       L1    20  0.36

> <Gold.Chemscore.Hbond.Weighted>
-5.5096

> <Gold.Chemscore.Metal.Weighted>
-0.0000

> <Gold.Chemscore.Lipo.Weighted>
-7.1436

> <Gold.Chemscore.Internal_Hbond.Weighted>
0.0000

> <Gold.Chemscore.DEClash.Weighted>
0.3672

> <Gold.Chemscore.DEInternal.Weighted>
1.8379

> <Gold.Chemscore.Rot.Weighted>
3.6600

> <Gold.Chemscore.Internal.Correction.Weighted>
   9.000000E+99

> <Gold.Protein.RotatedTorsions>
[ 6907 6896 6895 6894 ] final   94.97 input  -60.11 | X-H torsion
[ 7974 7965 7964 7962 ] final  -23.75 input  175.53 | X-H torsion
[ 8008 7997 7996 7995 ] final   79.60 input   59.86 | X-H torsion
[ 10167 10162 10161 10158 ] final -125.29 input  -65.29 | X-H torsion
[ 10718 10713 10712 10709 ] final  162.85 input   66.30 | X-H torsion
[ 10763 10752 10751 10750 ] final   62.37 input  -60.55 | X-H torsion
[ 11005 11000 10999 10996 ] final  105.60 input  -57.11 | X-H torsion

> <Gold.Protein.ActiveResidues>
 VAL166  LYS551  ARG553  GLY616  TRP617  ASP618  TYR619  PRO620  LYS621  CYS622 
 ASP623  PHE694  ASN695  SER759  ASP760  ASP761  ALA762  ILE779  LEU786  VAL792 
 PHE793  MET794  SER795  GLU796  ALA797  LYS798  CYS799  TRP800  GLU811  SER814 

> <Gold.Protein.RotatedAtoms>
  152.5446  134.1111  159.8358 H   0  0  0  0  0  0  0  0  0  0  0  0  # atno 6907 bound_to 6896
  151.1178  133.5119  159.2610 H   0  0  0  0  0  0  0  0  0  0  0  0  # atno 6908 bound_to 6896
  151.1813  135.0371  159.8848 H   0  0  0  0  0  0  0  0  0  0  0  0  # atno 6909 bound_to 6896
  146.1597  140.4659  142.8576 H   0  0  0  0  0  0  0  0  0  0  0  0  # atno 7974 bound_to 7965
  155.8720  140.3448  155.5828 H   0  0  0  0  0  0  0  0  0  0  0  0  # atno 8008 bound_to 7997
  155.7817  140.0859  157.2075 H   0  0  0  0  0  0  0  0  0  0  0  0  # atno 8009 bound_to 7997
  154.4018  140.1499  156.3047 H   0  0  0  0  0  0  0  0  0  0  0  0  # atno 8010 bound_to 7997
  139.9837  143.5715  152.2368 H   0  0  0  0  0  0  0  0  0  0  0  0  # atno 10167 bound_to 10162
  157.1168  131.0482  151.2433 H   0  0  0  0  0  0  0  0  0  0  0  0  # atno 10718 bound_to 10713
  152.9981  135.5467  154.6183 H   0  0  0  0  0  0  0  0  0  0  0  0  # atno 10763 bound_to 10752
  154.5488  135.2825  155.1030 H   0  0  0  0  0  0  0  0  0  0  0  0  # atno 10764 bound_to 10752
  154.2278  135.6439  153.5218 H   0  0  0  0  0  0  0  0  0  0  0  0  # atno 10765 bound_to 10752
  139.8804  134.9341  156.5539 H   0  0  0  0  0  0  0  0  0  0  0  0  # atno 11005 bound_to 11000
  144.8010  140.6213  143.6478 LP  0  0  0  0  0  0  0  0  0  0  0  0  # atno 17320 bound_to 7965
  145.4620  139.1512  143.3861 LP  0  0  0  0  0  0  0  0  0  0  0  0  # atno 17321 bound_to 7965
  139.6391  144.7653  151.2376 LP  0  0  0  0  0  0  0  0  0  0  0  0  # atno 17342 bound_to 10162
  140.7480  143.6348  150.8389 LP  0  0  0  0  0  0  0  0  0  0  0  0  # atno 17343 bound_to 10162
  157.4511  130.7599  149.7152 LP  0  0  0  0  0  0  0  0  0  0  0  0  # atno 17370 bound_to 10713
  155.9837  130.3997  150.3347 LP  0  0  0  0  0  0  0  0  0  0  0  0  # atno 17371 bound_to 10713
  140.8219  133.8346  155.8904 LP  0  0  0  0  0  0  0  0  0  0  0  0  # atno 17394 bound_to 11000
  140.9410  134.1901  157.4798 LP  0  0  0  0  0  0  0  0  0  0  0  0  # atno 17395 bound_to 11000

$$$$
