#       Name:                AV-unprocessed.smi:215
#       Creating user name   scv26
#       Creation time:       Thu Mar 26 20:04:20 2020


#       File generated by GOLD software.
#

@<TRIPOS>MOLECULE
AV-unprocessed.smi:215
    69    72     1
SMALL
NO_CHARGES


@<TRIPOS>ATOM
      1 ****        -2.5100  -0.9499   2.8803 C.3            1 S1                 0.0000
      2 ****        -2.6025   0.4754   2.2989 C.3            1 S1                 0.0000
      3 ****        -4.0190   0.9647   1.9407 C.3            1 S1                 0.0000
      4 ****        -4.9708  -0.1059   1.5026 N.4            1 S1                 1.0000
      5 ****        -6.3834   0.3202   1.6614 C.3            1 S1                 0.0000
      6 ****        -4.6922  -0.7074   0.1665 C.3            1 S1                 0.0000
      7 ****        -5.3658  -2.0765  -0.0367 C.3            1 S1                 0.0000
      8 ****        -4.8652  -3.0138   0.8929 O.3            1 S1                 0.0000
      9 ****        -3.7600   2.0618   0.8962 C.3            1 S1                 0.0000
     10 ****        -2.4104   1.7097   0.2568 C.3            1 S1                 0.0000
     11 ****        -1.7934   0.6919   1.1005 N.3            1 S1                 0.0000
     12 ****        -0.4352   0.6825   1.1410 C.ar           1 S1                 0.0000
     13 ****         0.2087   0.6871   2.3381 N.ar           1 S1                 0.0000
     14 ****         1.5436   0.6867   2.3899 C.ar           1 S1                 0.0000
     15 ****         2.4166   0.6768   1.3818 N.ar           1 S1                 0.0000
     16 ****         1.7796   0.6652   0.1762 C.ar           1 S1                 0.0000
     17 ****         0.3711   0.6756  -0.0331 C.ar           1 S1                 0.0000
     18 ****         0.0976   0.6698  -1.3961 N.2            1 S1                 0.0000
     19 ****         1.2756   0.6650  -1.9586 C.2            1 S1                 0.0000
     20 ****         2.3414   0.6304  -1.0879 N.pl3          1 S1                 0.0000
     21 ****         3.7339   0.6476  -1.4283 C.3            1 S1                 0.0000
     22 ****         4.2402   0.0556  -2.7460 C.3            1 S1                 0.0000
     23 ****         5.5533  -0.3613  -2.0470 C.3            1 S1                 0.0000
     24 ****         6.0848  -1.7527  -2.4290 C.3            1 S1                 0.0000
     25 ****         6.4504  -1.8055  -3.7930 O.3            1 S1                 0.0000
     26 ****         6.7019   0.6635  -2.1406 C.3            1 S1                 0.0000
     27 ****         7.7011   0.4104  -1.1734 O.3            1 S1                 0.0000
     28 ****         4.7220  -0.3009  -0.7458 C.3            1 S1                 0.0000
     29 ****        -2.2263   1.1625   3.0586 H              1 S1                 0.0000
     30 ****        -4.4391   1.4150   2.8415 H              1 S1                 0.0000
     31 ****        -3.1908  -1.0703   3.7233 H              1 S1                 0.0000
     32 ****        -1.5075  -1.1727   3.2437 H              1 S1                 0.0000
     33 ****        -2.7573  -1.7079   2.1385 H              1 S1                 0.0000
     34 ****        -6.6394   1.1062   0.9504 H              1 S1                 0.0000
     35 ****        -6.5660   0.7008   2.6668 H              1 S1                 0.0000
     36 ****        -7.0740  -0.5086   1.5150 H              1 S1                 0.0000
     37 ****        -5.0127  -0.0215  -0.6184 H              1 S1                 0.0000
     38 ****        -3.6218  -0.8502   0.0296 H              1 S1                 0.0000
     39 ****        -6.4510  -2.0229   0.0386 H              1 S1                 0.0000
     40 ****        -5.1443  -2.4443  -1.0390 H              1 S1                 0.0000
     41 ****        -5.2384  -3.8607   0.6987 H              1 S1                 0.0000
     42 ****        -4.5590   2.1796   0.1641 H              1 S1                 0.0000
     43 ****        -3.6604   3.0186   1.4100 H              1 S1                 0.0000
     44 ****        -2.5622   1.2962  -0.7405 H              1 S1                 0.0000
     45 ****        -1.7807   2.5954   0.1583 H              1 S1                 0.0000
     46 ****         1.9736   0.6930   3.3807 H              1 S1                 0.0000
     47 ****         1.3979   0.6770  -3.0321 H              1 S1                 0.0000
     48 ****         4.0575   1.6840  -1.3204 H              1 S1                 0.0000
     49 ****         3.6476  -0.7999  -3.0763 H              1 S1                 0.0000
     50 ****         4.3596   0.7814  -3.5510 H              1 S1                 0.0000
     51 ****         6.9429  -2.0372  -1.8197 H              1 S1                 0.0000
     52 ****         5.3252  -2.5163  -2.2602 H              1 S1                 0.0000
     53 ****         6.7687  -2.6746  -3.9844 H              1 S1                 0.0000
     54 ****         7.1619   0.6589  -3.1289 H              1 S1                 0.0000
     55 ****         6.3382   1.6790  -1.9831 H              1 S1                 0.0000
     56 ****         8.3825   1.0581  -1.2698 H              1 S1                 0.0000
     57 ****         5.2362   0.1298   0.1138 H              1 S1                 0.0000
     58 ****         4.2656  -1.2576  -0.4849 H              1 S1                 0.0000
     59 ****        -4.8391  -0.8561   2.1665 H              1 S1                 0.0000
     60 ****        -5.1200  -2.7380   1.8198 LP             1 S1                 0.0000
     61 ****        -3.8689  -3.0603   0.8210 LP             1 S1                 0.0000
     62 ****        -1.8317  -0.2020   0.6539 LP             1 S1                 0.0000
     63 ****        -0.3209   0.6908   3.1864 LP             1 S1                 0.0000
     64 ****         3.4101   0.6777   1.4954 LP             1 S1                 0.0000
     65 ****        -0.7969   0.6694  -1.8433 LP             1 S1                 0.0000
     66 ****         7.1694  -1.1350  -3.9758 LP             1 S1                 0.0000
     67 ****         5.6542  -1.6045  -4.3637 LP             1 S1                 0.0000
     68 ****         8.0821  -0.5035  -1.3132 LP             1 S1                 0.0000
     69 ****         7.3061   0.4702  -0.2566 LP             1 S1                 0.0000
@<TRIPOS>BOND
    1    1    2 1     
    2    1   31 1     
    3    1   32 1     
    4    1   33 1     
    5    2   29 1     
    6    2   11 1     
    7    2    3 1     
    8    3   30 1     
    9    3    4 1     
   10    3    9 1     
   11    4    5 1     
   12    4    6 1     
   13    4   59 1     
   14    5   34 1     
   15    5   35 1     
   16    5   36 1     
   17    6    7 1     
   18    6   37 1     
   19    6   38 1     
   20    7    8 1     
   21    7   39 1     
   22    7   40 1     
   23    8   41 1     
   24    9   10 1     
   25    9   42 1     
   26    9   43 1     
   27   10   11 1     
   28   10   44 1     
   29   10   45 1     
   30   11   12 1     
   31   12   17 ar    
   32   12   13 ar    
   33   13   14 ar    
   34   14   15 ar    
   35   14   46 1     
   36   15   16 ar    
   37   16   20 1     
   38   16   17 ar    
   39   17   18 1     
   40   18   19 2     
   41   19   20 1     
   42   19   47 1     
   43   20   21 1     
   44   21   28 1     
   45   21   22 1     
   46   21   48 1     
   47   22   23 1     
   48   22   49 1     
   49   22   50 1     
   50   23   24 1     
   51   23   26 1     
   52   23   28 1     
   53   24   25 1     
   54   24   51 1     
   55   24   52 1     
   56   25   53 1     
   57   26   27 1     
   58   26   54 1     
   59   26   55 1     
   60   27   56 1     
   61   28   57 1     
   62   28   58 1     
   63    8   60 1     
   64    8   61 1     
   65   11   62 1     
   66   13   63 1     
   67   15   64 1     
   68   18   65 1     
   69   25   66 1     
   70   25   67 1     
   71   27   68 1     
   72   27   69 1     
@<TRIPOS>SUBSTRUCTURE
      1 S1             1
@<TRIPOS>SET
LONE_PAIRS      STATIC     ATOMS    <user>   **** ""
10 60 61 62 63 64 65 66 67 68 69
DONOR_HYDROGENS      STATIC     ATOMS    <user>   **** ""
4 59 41 53 56
ATOM$BLUE        STATIC     ATOMS    COLORGROUP SYSTEM
10 60 61 62 63 64 65 66 67 68 69
ATOM$RED        STATIC     ATOMS    COLORGROUP SYSTEM
4 59 41 53 56
