AV-unprocessed.smi:1599|AV-procd|sdf|6423|dock4
  -GOLD-   22720 7 63D 1   1.00000     0.00000
 Structure written by MMmdl.
 39 40  0  0  0  0  0  0  0  0  1 V2000
  150.4897  145.2236  159.4550 C   0  0  0  0  0  0  0  0  0  0  0  0
  151.6285  144.3153  158.9658 C   0  0  2  0  0  0  0  0  0  0  0  0
  151.2285  143.7127  157.6962 N   0  0  0  0  0  0  0  0  0  0  0  0
  150.3814  142.6833  157.5528 C   0  0  0  0  0  0  0  0  0  0  0  0
  149.8436  142.1030  158.4960 O   0  0  0  0  0  0  0  0  0  0  0  0
  150.2000  142.3807  156.2570 N   0  0  0  0  0  0  0  0  0  0  0  0
  149.3759  141.3607  155.7186 C   0  0  0  0  0  0  0  0  0  0  0  0
  148.5423  140.5052  156.4846 C   0  0  0  0  0  0  0  0  0  0  0  0
  147.8880  139.6538  155.7095 N   0  0  0  0  0  0  0  0  0  0  0  0
  148.2874  139.9488  154.4465 N   0  0  0  0  0  0  0  0  0  0  0  0
  147.7495  139.1964  153.3272 C   0  0  0  0  0  0  0  0  0  0  0  0
  147.0150  137.9422  153.8044 C   0  0  0  0  0  0  0  0  0  0  0  0
  145.7216  137.8354  153.4878 N   0  0  0  0  0  0  0  0  0  0  0  0
  147.6068  137.0821  154.4531 O   0  0  0  0  0  0  0  0  0  0  0  0
  149.1977  140.9873  154.4165 C   0  0  0  0  0  0  0  0  0  0  0  0
  151.9735  143.2096  159.9852 C   0  0  2  0  0  0  0  0  0  0  0  0
  152.1016  143.6892  161.4321 C   0  0  0  0  0  0  0  0  0  0  0  0
  153.0239  142.6637  162.0732 C   0  0  0  0  0  0  0  0  0  0  0  0
  153.6411  141.9217  160.8852 C   0  0  0  0  0  0  0  0  0  0  0  0
  153.2677  142.6787  159.7433 O   0  0  0  0  0  0  0  0  0  0  0  0
  150.7633  145.7457  160.3720 H   0  0  0  0  0  0  0  0  0  0  0  0
  149.5831  144.6515  159.6555 H   0  0  0  0  0  0  0  0  0  0  0  0
  150.2473  145.9828  158.7108 H   0  0  0  0  0  0  0  0  0  0  0  0
  152.5086  144.9428  158.8135 H   0  0  0  0  0  0  0  0  0  0  0  0
  151.6178  144.1232  156.8603 H   0  0  0  0  0  0  0  0  0  0  0  0
  150.6994  142.9439  155.5843 H   0  0  0  0  0  0  0  0  0  0  0  0
  148.3926  140.4737  157.5538 H   0  0  0  0  0  0  0  0  0  0  0  0
  147.0652  139.8393  152.7719 H   0  0  0  0  0  0  0  0  0  0  0  0
  148.5568  138.9230  152.6459 H   0  0  0  0  0  0  0  0  0  0  0  0
  145.1944  137.0284  153.7894 H   0  0  0  0  0  0  0  0  0  0  0  0
  145.2735  138.5668  152.9551 H   0  0  0  0  0  0  0  0  0  0  0  0
  149.6182  141.3532  153.4914 H   0  0  0  0  0  0  0  0  0  0  0  0
  151.2450  142.3980  159.9279 H   0  0  0  0  0  0  0  0  0  0  0  0
  152.5744  144.6720  161.4625 H   0  0  0  0  0  0  0  0  0  0  0  0
  151.1383  143.7643  161.9377 H   0  0  0  0  0  0  0  0  0  0  0  0
  153.7843  143.1528  162.6830 H   0  0  0  0  0  0  0  0  0  0  0  0
  152.4729  141.9735  162.7129 H   0  0  0  0  0  0  0  0  0  0  0  0
  154.7252  141.8350  160.9611 H   0  0  0  0  0  0  0  0  0  0  0  0
  153.2240  140.9172  160.8014 H   0  0  0  0  0  0  0  0  0  0  0  0
  1  2  1  0  0  0  0
  1 21  1  0  0  0  0
  1 22  1  0  0  0  0
  1 23  1  0  0  0  0
  2  3  1  0  0  0  0
  2 16  1  0  0  0  0
  2 24  1  0  0  0  0
  3  4  1  0  0  0  0
  3 25  1  0  0  0  0
  4  5  2  0  0  0  0
  4  6  1  0  0  0  0
  6  7  1  0  0  0  0
  6 26  1  0  0  0  0
  7 15  2  0  0  0  0
  7  8  1  0  0  0  0
  8  9  2  0  0  0  0
  8 27  1  0  0  0  0
  9 10  1  0  0  0  0
 10 11  1  0  0  0  0
 10 15  1  0  0  0  0
 11 12  1  0  0  0  0
 11 28  1  0  0  0  0
 11 29  1  0  0  0  0
 12 13  1  0  0  0  0
 12 14  2  0  0  0  0
 13 30  1  0  0  0  0
 13 31  1  0  0  0  0
 15 32  1  0  0  0  0
 16 20  1  0  0  0  0
 16 17  1  0  0  0  0
 16 33  1  0  0  0  0
 17 18  1  0  0  0  0
 17 34  1  0  0  0  0
 17 35  1  0  0  0  0
 18 19  1  0  0  0  0
 18 36  1  0  0  0  0
 18 37  1  0  0  0  0
 19 20  1  0  0  0  0
 19 38  1  0  0  0  0
 19 39  1  0  0  0  0
M  END
> <s_m_source_file>
AV-unprocessed.smi

> <i_m_source_file_index>
1599

> <i_lp_mmshare_version>
43012

> <i_f3d_flags>
0

> <s_epik_input>
TzFbQ0gyXVtDSDJdW0NIMl1bQ0BIXTFbQ0BIXShbQ0gzXSlbTkhdQyg9TylbTkhdYzJbY0hdbm4oW2NIXTIpW0NIMl1DKD1PKVtOSDJd

> <s_epik_cmdline>
J2VwaWtfcHl0aG9uJywgJy1waCcsICc3LjAnLCAnLXRuJywgJzgnLCAnLW1hJywgJzIwMCcsICctbWV0YWxfYmluZGluZycsICctaW1hZScsICc8aW5maWxlLm1hZT4nLCAnLW9tYWUnLCAnPG91dGZpbGUubWFlPic=

> <r_lp_tautomer_probability>
1

> <r_epik_Ionization_Penalty>
4.15391e-05

> <r_epik_Ionization_Penalty_Charging>
0

> <r_epik_Ionization_Penalty_Neutral>
4.15391e-05

> <r_epik_State_Penalty>
-0

> <r_epik_Charging_Adjusted_Penalty>
0

> <i_epik_Tot_Q>
0

> <i_epik_Tot_abs_Q>
0

> <r_epik_Metal_State_Penalty>
-0

> <b_epik_Metal_Only>
0

> <s_lp_Force_Field>
OPLS_2005

> <r_lp_Energy>
20.6042

> <b_lp_Chiralities_Consistent>
1

> <s_lp_Variant>
AV-unprocessed.smi:1599-1

> <Gold.Version>
5.8.1

> <Gold.Id.Protein>
6NUR|6NUR_protein|mol2

> <Gold.PLP.Fitness>
44.5298

> <Gold.PLP.PLP>
-40.0029

> <Gold.PLP.part.hbond>
-2.0000

> <Gold.PLP.part.metal>
0.0000

> <Gold.PLP.part.buried>
-4.6285

> <Gold.PLP.part.nonpolar>
-33.7977

> <Gold.PLP.part.repulsive>
0.2792

> <Gold.PLP.ligand.clash>
0.0000

> <Gold.PLP.ligand.torsion>
0.6110

> <Gold.PLP.Chemscore.Hbond>
1.0000

> <Gold.PLP.Chemscore.CHOScore>
0.9065

> <Gold.PLP.Chemscore.Metal>
0.0000

> <Gold.Chemscore.Hbonds>
donor molecule, donor type, donor heavy atom, donor atom, acceptor molecule, acceptor atom, score
      L1  C    15    32       P1  7957  0.61

> <Gold.PLP.Chemscore.Internal.Correction>
0.0294

> <Gold.Rescore>
     Score         DG    S(hbond)    S(metal)    S(lipo)     H(rot)  DE(clash)    DE(int)     intcor
     10.76     -14.02       0.98        0.00      95.04       2.28       0.17       3.09       ----

> <Gold.Chemscore.Fitness>
10.7590

> <Gold.Chemscore.DG>
-14.0232

> <Gold.Chemscore.ZeroCoef>
-5.4800

> <Gold.Chemscore.Hbond>
0.9780

> <Gold.Chemscore.Metal>
0.0000

> <Gold.Chemscore.Lipo>
95.0355

> <Gold.Chemscore.Internal_Hbond>
0.0000

> <Gold.Chemscore.DEClash>
0.1728

> <Gold.Chemscore.DEInternal>
3.0913

> <Gold.Chemscore.Rot>
2.2823

> <Gold.Chemscore.Internal.Correction>
   9.000000E+99

> <Gold.Chemscore.Hbonds>
donor molecule, donor type, donor heavy atom, donor atom, acceptor molecule, acceptor atom, score
      L1  H    13    31       P1 10175  0.01

> <Gold.Chemscore.Hbond.Weighted>
-3.2667

> <Gold.Chemscore.Metal.Weighted>
-0.0000

> <Gold.Chemscore.Lipo.Weighted>
-11.1192

> <Gold.Chemscore.Internal_Hbond.Weighted>
0.0000

> <Gold.Chemscore.DEClash.Weighted>
0.1728

> <Gold.Chemscore.DEInternal.Weighted>
3.0913

> <Gold.Chemscore.Rot.Weighted>
5.8427

> <Gold.Chemscore.Internal.Correction.Weighted>
   9.000000E+99

> <Gold.Protein.RotatedTorsions>
[ 6907 6896 6895 6894 ] final  -17.04 input  -60.11 | X-H torsion
[ 7974 7965 7964 7962 ] final    6.36 input  175.53 | X-H torsion
[ 8008 7997 7996 7995 ] final  168.17 input   59.86 | X-H torsion
[ 10167 10162 10161 10158 ] final    3.18 input  -65.29 | X-H torsion
[ 10718 10713 10712 10709 ] final  159.42 input   66.30 | X-H torsion
[ 10763 10752 10751 10750 ] final  -67.49 input  -60.55 | X-H torsion
[ 11005 11000 10999 10996 ] final  119.03 input  -57.11 | X-H torsion

> <Gold.Protein.ActiveResidues>
 VAL166  LYS551  ARG553  GLY616  TRP617  ASP618  TYR619  PRO620  LYS621  CYS622 
 ASP623  PHE694  ASN695  SER759  ASP760  ASP761  ALA762  ILE779  LEU786  VAL792 
 PHE793  MET794  SER795  GLU796  ALA797  LYS798  CYS799  TRP800  GLU811  SER814 

> <Gold.Protein.RotatedAtoms>
  151.2994  135.0764  159.9232 H   0  0  0  0  0  0  0  0  0  0  0  0  # atno 6907 bound_to 6896
  152.5301  133.9849  159.7834 H   0  0  0  0  0  0  0  0  0  0  0  0  # atno 6908 bound_to 6896
  151.0133  133.5893  159.2710 H   0  0  0  0  0  0  0  0  0  0  0  0  # atno 6909 bound_to 6896
  146.2435  140.0246  142.8395 H   0  0  0  0  0  0  0  0  0  0  0  0  # atno 7974 bound_to 7965
  156.1571  140.1597  156.8675 H   0  0  0  0  0  0  0  0  0  0  0  0  # atno 8008 bound_to 7997
  154.5125  140.0797  156.8053 H   0  0  0  0  0  0  0  0  0  0  0  0  # atno 8009 bound_to 7997
  155.3782  140.3404  155.4248 H   0  0  0  0  0  0  0  0  0  0  0  0  # atno 8010 bound_to 7997
  140.6598  143.7332  150.7719 H   0  0  0  0  0  0  0  0  0  0  0  0  # atno 10167 bound_to 10162
  157.1644  131.0595  151.2215 H   0  0  0  0  0  0  0  0  0  0  0  0  # atno 10718 bound_to 10713
  154.3753  135.6086  153.5762 H   0  0  0  0  0  0  0  0  0  0  0  0  # atno 10763 bound_to 10752
  152.9789  135.5848  154.4474 H   0  0  0  0  0  0  0  0  0  0  0  0  # atno 10764 bound_to 10752
  154.4234  135.2846  155.1938 H   0  0  0  0  0  0  0  0  0  0  0  0  # atno 10765 bound_to 10752
  139.9131  134.9625  156.7593 H   0  0  0  0  0  0  0  0  0  0  0  0  # atno 11005 bound_to 11000
  145.1210  140.9462  143.4600 LP  0  0  0  0  0  0  0  0  0  0  0  0  # atno 17320 bound_to 7965
  145.0481  139.3204  143.5942 LP  0  0  0  0  0  0  0  0  0  0  0  0  # atno 17321 bound_to 7965
  140.0999  143.4798  152.2431 LP  0  0  0  0  0  0  0  0  0  0  0  0  # atno 17342 bound_to 10162
  139.5830  144.7519  151.3592 LP  0  0  0  0  0  0  0  0  0  0  0  0  # atno 17343 bound_to 10162
  157.4102  130.7381  149.6833 LP  0  0  0  0  0  0  0  0  0  0  0  0  # atno 17370 bound_to 10713
  155.9748  130.4097  150.3893 LP  0  0  0  0  0  0  0  0  0  0  0  0  # atno 17371 bound_to 10713
  140.6710  133.9559  155.7857 LP  0  0  0  0  0  0  0  0  0  0  0  0  # atno 17394 bound_to 11000
  141.0577  134.0392  157.3700 LP  0  0  0  0  0  0  0  0  0  0  0  0  # atno 17395 bound_to 11000

$$$$
