#       Name:                AV-unprocessed.smi:3191
#       Creating user name   scv26
#       Creation time:       Fri Mar 27 18:03:18 2020


#       File generated by GOLD software.
#

@<TRIPOS>MOLECULE
AV-unprocessed.smi:3191
    38    39     1
SMALL
NO_CHARGES


@<TRIPOS>ATOM
      1 ****        -3.0359   1.0663  -1.6997 C.3            1 S1                 0.0000
      2 ****        -3.6792   0.5615  -0.4835 N.pl3          1 S1                 0.0000
      3 ****        -5.0110   0.5222  -0.3489 C.2            1 S1                 0.0000
      4 ****        -5.2634   0.0237   0.8637 N.pl3          1 S1                 1.0000
      5 ****        -4.0904  -0.2571   1.5087 C.2            1 S1                 0.0000
      6 ****        -3.0701   0.0813   0.6544 C.2            1 S1                 0.0000
      7 ****        -1.5879  -0.0167   0.8204 C.3            1 S1                 0.0000
      8 ****        -1.0413  -1.3326   0.2412 C.3            1 S1                 0.0000
      9 ****         0.4110  -1.3989   0.3484 N.am           1 S1                 0.0000
     10 ****         1.2684  -0.7898  -0.4852 C.2            1 S1                 0.0000
     11 ****         0.8947  -0.1120  -1.4437 O.2            1 S1                 0.0000
     12 ****         2.7080  -1.0140  -0.1390 C.3            1 S1                 0.0000
     13 ****         3.7479  -0.7335  -1.2044 C.3            1 S1                 0.0000
     14 ****         3.6600   0.1717   0.0041 C.3            1 S1                 0.0000
     15 ****         3.2135   1.6178  -0.1750 C.3            1 S1                 0.0000
     16 ****         4.7328   0.0967   1.0765 C.3            1 S1                 0.0000
     17 ****         2.9011  -1.8586   0.5211 H              1 S1                 0.0000
     18 ****        -3.7883   1.3181  -2.4481 H              1 S1                 0.0000
     19 ****        -2.3716   0.3012  -2.1014 H              1 S1                 0.0000
     20 ****        -2.4591   1.9584  -1.4539 H              1 S1                 0.0000
     21 ****        -5.7410   0.8327  -1.0753 H              1 S1                 0.0000
     22 ****        -4.0664  -0.6705   2.5065 H              1 S1                 0.0000
     23 ****        -1.1170   0.8427   0.3421 H              1 S1                 0.0000
     24 ****        -1.3480   0.0518   1.8822 H              1 S1                 0.0000
     25 ****        -1.4640  -2.1812   0.7797 H              1 S1                 0.0000
     26 ****        -1.3380  -1.4509  -0.8022 H              1 S1                 0.0000
     27 ****         0.7917  -1.9419   1.1100 H              1 S1                 0.0000
     28 ****         4.5846  -1.4265  -1.2673 H              1 S1                 0.0000
     29 ****         3.4203  -0.3317  -2.1617 H              1 S1                 0.0000
     30 ****         4.0791   2.2747  -0.2663 H              1 S1                 0.0000
     31 ****         2.6245   1.9404   0.6839 H              1 S1                 0.0000
     32 ****         2.6138   1.7460  -1.0753 H              1 S1                 0.0000
     33 ****         5.5981   0.6964   0.7930 H              1 S1                 0.0000
     34 ****         5.0662  -0.9316   1.2205 H              1 S1                 0.0000
     35 ****         4.3463   0.4681   2.0261 H              1 S1                 0.0000
     36 ****        -6.1889  -0.1239   1.2467 H              1 S1                 0.0000
     37 ****        -0.0821   0.0014  -1.6253 LP             1 S1                 0.0000
     38 ****         1.5682   0.3248  -2.0400 LP             1 S1                 0.0000
@<TRIPOS>BOND
    1    1    2 1     
    2    1   18 1     
    3    1   19 1     
    4    1   20 1     
    5    2    6 1     
    6    2    3 1     
    7    3    4 2     
    8    3   21 1     
    9    4    5 1     
   10    4   36 1     
   11    5    6 2     
   12    5   22 1     
   13    6    7 1     
   14    7    8 1     
   15    7   23 1     
   16    7   24 1     
   17    8    9 1     
   18    8   25 1     
   19    8   26 1     
   20    9   10 am    
   21    9   27 1     
   22   10   11 2     
   23   10   12 1     
   24   12   17 1     
   25   12   14 1     
   26   12   13 1     
   27   13   14 1     
   28   13   28 1     
   29   13   29 1     
   30   14   15 1     
   31   14   16 1     
   32   15   30 1     
   33   15   31 1     
   34   15   32 1     
   35   16   33 1     
   36   16   34 1     
   37   16   35 1     
   38   11   37 1     
   39   11   38 1     
@<TRIPOS>SUBSTRUCTURE
      1 S1             1
@<TRIPOS>SET
LONE_PAIRS      STATIC     ATOMS    <user>   **** ""
2 37 38
DONOR_HYDROGENS      STATIC     ATOMS    <user>   **** ""
2 36 27
ATOM$BLUE        STATIC     ATOMS    COLORGROUP SYSTEM
2 37 38
ATOM$RED        STATIC     ATOMS    COLORGROUP SYSTEM
2 36 27
