AV-unprocessed.smi:3101|AV-procd|sdf|11810|dock9
  -GOLD-   2272017183D 1   1.00000     0.00000
 Structure written by MMmdl.
 28 29  0  0  0  0  0  0  0  0  1 V2000
  147.5860  141.9227  156.4598 C   0  0  0  0  0  0  0  0  0  0  0  0
  148.1907  141.1488  155.2741 C   0  0  2  0  0  0  0  0  0  0  0  0
  148.1144  139.6410  155.4015 C   0  0  0  0  0  0  0  0  0  0  0  0
  149.0950  139.2048  154.3192 C   0  0  0  0  0  0  0  0  0  0  0  0
  150.1218  140.1934  154.3112 O   0  0  0  0  0  0  0  0  0  0  0  0
  149.6831  141.3902  154.9569 C   0  0  2  0  0  0  0  0  0  0  0  0
  150.5931  141.6189  156.1756 C   0  0  0  0  0  0  0  0  0  0  0  0
  151.3393  140.7193  156.5639 O   0  0  0  0  0  0  0  0  0  0  0  0
  150.5162  142.8388  156.7384 N   0  0  0  0  0  0  0  0  0  0  0  0
  151.2211  143.3292  157.8689 C   0  0  0  0  0  0  0  0  0  0  0  0
  151.3476  144.7360  157.9511 C   0  0  0  0  0  0  0  0  0  0  0  0
  151.9893  145.3528  158.9680 N   0  0  0  0  0  0  0  0  0  0  0  0
  152.5156  144.5553  159.9218 C   0  0  0  0  0  0  0  0  0  0  0  0
  152.3992  143.1525  159.8571 C   0  0  0  0  0  0  0  0  0  0  0  0
  151.7560  142.5427  158.8379 N   0  0  0  0  0  0  0  0  0  0  0  0
  148.0332  141.6322  157.4108 H   0  0  0  0  0  0  0  0  0  0  0  0
  146.5148  141.7349  156.5356 H   0  0  0  0  0  0  0  0  0  0  0  0
  147.7247  142.9970  156.3366 H   0  0  0  0  0  0  0  0  0  0  0  0
  147.6261  141.4329  154.3843 H   0  0  0  0  0  0  0  0  0  0  0  0
  148.4602  139.3138  156.3828 H   0  0  0  0  0  0  0  0  0  0  0  0
  147.1096  139.2477  155.2450 H   0  0  0  0  0  0  0  0  0  0  0  0
  149.5011  138.2089  154.4975 H   0  0  0  0  0  0  0  0  0  0  0  0
  148.6064  139.2023  153.3441 H   0  0  0  0  0  0  0  0  0  0  0  0
  149.7846  142.2267  154.2634 H   0  0  0  0  0  0  0  0  0  0  0  0
  149.8741  143.4889  156.3092 H   0  0  0  0  0  0  0  0  0  0  0  0
  150.9282  145.3789  157.1906 H   0  0  0  0  0  0  0  0  0  0  0  0
  153.0306  145.0375  160.7395 H   0  0  0  0  0  0  0  0  0  0  0  0
  152.8220  142.5196  160.6232 H   0  0  0  0  0  0  0  0  0  0  0  0
  1  2  1  0  0  0  0
  1 16  1  0  0  0  0
  1 17  1  0  0  0  0
  1 18  1  0  0  0  0
  2  6  1  0  0  0  0
  2  3  1  0  0  0  0
  2 19  1  0  0  0  0
  3  4  1  0  0  0  0
  3 20  1  0  0  0  0
  3 21  1  0  0  0  0
  4  5  1  0  0  0  0
  4 22  1  0  0  0  0
  4 23  1  0  0  0  0
  5  6  1  0  0  0  0
  6  7  1  0  0  0  0
  6 24  1  0  0  0  0
  7  8  2  0  0  0  0
  7  9  1  0  0  0  0
  9 10  1  0  0  0  0
  9 25  1  0  0  0  0
 10 15  1  0  0  0  0
 10 11  2  0  0  0  0
 11 12  1  0  0  0  0
 11 26  1  0  0  0  0
 12 13  2  0  0  0  0
 13 14  1  0  0  0  0
 13 27  1  0  0  0  0
 14 15  2  0  0  0  0
 14 28  1  0  0  0  0
M  END
> <s_m_source_file>
AV-unprocessed.smi

> <i_m_source_file_index>
3101

> <i_lp_mmshare_version>
43012

> <i_f3d_flags>
0

> <s_epik_input>
W0NIM11bQ0BASF0xW0NIMl1bQ0gyXU9bQ0BIXTFDKD1PKVtOSF1jMltjSF1uW2NIXVtjSF1uMg==

> <s_epik_cmdline>
J2VwaWtfcHl0aG9uJywgJy1waCcsICc3LjAnLCAnLXRuJywgJzgnLCAnLW1hJywgJzIwMCcsICctbWV0YWxfYmluZGluZycsICctaW1hZScsICc8aW5maWxlLm1hZT4nLCAnLW9tYWUnLCAnPG91dGZpbGUubWFlPic=

> <r_lp_tautomer_probability>
1

> <r_epik_Ionization_Penalty>
2.83174e-06

> <r_epik_Ionization_Penalty_Charging>
0

> <r_epik_Ionization_Penalty_Neutral>
2.83174e-06

> <r_epik_State_Penalty>
-0

> <r_epik_Charging_Adjusted_Penalty>
0

> <i_epik_Tot_Q>
0

> <i_epik_Tot_abs_Q>
0

> <r_epik_Metal_State_Penalty>
-0

> <b_epik_Metal_Only>
0

> <s_lp_Force_Field>
OPLS_2005

> <r_lp_Energy>
27.4183

> <b_lp_Chiralities_Consistent>
1

> <s_lp_Variant>
AV-unprocessed.smi:3101-3

> <Gold.Version>
5.8.1

> <Gold.Id.Protein>
6NUR|6NUR_protein|mol2

> <Gold.PLP.Fitness>
35.3712

> <Gold.PLP.PLP>
-27.9191

> <Gold.PLP.part.hbond>
-2.0468

> <Gold.PLP.part.metal>
0.0000

> <Gold.PLP.part.buried>
-5.4032

> <Gold.PLP.part.nonpolar>
-20.5543

> <Gold.PLP.part.repulsive>
0.2660

> <Gold.PLP.ligand.clash>
0.0000

> <Gold.PLP.ligand.torsion>
0.4806

> <Gold.PLP.Chemscore.Hbond>
1.9920

> <Gold.PLP.Chemscore.CHOScore>
0.8088

> <Gold.PLP.Chemscore.Metal>
0.0000

> <Gold.Chemscore.Hbonds>
donor molecule, donor type, donor heavy atom, donor atom, acceptor molecule, acceptor atom, score
      L1  H     9    25       P1  8028  1.00
      P1  H  7989  7998       L1     5  0.89
      L1  C    11    26       P1  8028  0.77

> <Gold.PLP.Chemscore.Internal.Correction>
0.0109

> <Gold.Rescore>
     Score         DG    S(hbond)    S(metal)    S(lipo)     H(rot)  DE(clash)    DE(int)     intcor
     14.38     -16.22       1.83        0.00      61.50       1.00       0.11       1.73       ----

> <Gold.Chemscore.Fitness>
14.3822

> <Gold.Chemscore.DG>
-16.2194

> <Gold.Chemscore.ZeroCoef>
-5.4800

> <Gold.Chemscore.Hbond>
1.8274

> <Gold.Chemscore.Metal>
0.0000

> <Gold.Chemscore.Lipo>
61.5039

> <Gold.Chemscore.Internal_Hbond>
0.0000

> <Gold.Chemscore.DEClash>
0.1053

> <Gold.Chemscore.DEInternal>
1.7319

> <Gold.Chemscore.Rot>
1.0000

> <Gold.Chemscore.Internal.Correction>
   9.000000E+99

> <Gold.Chemscore.Hbonds>
donor molecule, donor type, donor heavy atom, donor atom, acceptor molecule, acceptor atom, score
      L1  H     9    25       P1  8028  1.00
      P1  H  7989  7998       L1     5  0.17

> <Gold.Chemscore.Hbond.Weighted>
-6.1034

> <Gold.Chemscore.Metal.Weighted>
-0.0000

> <Gold.Chemscore.Lipo.Weighted>
-7.1960

> <Gold.Chemscore.Internal_Hbond.Weighted>
0.0000

> <Gold.Chemscore.DEClash.Weighted>
0.1053

> <Gold.Chemscore.DEInternal.Weighted>
1.7319

> <Gold.Chemscore.Rot.Weighted>
2.5600

> <Gold.Chemscore.Internal.Correction.Weighted>
   9.000000E+99

> <Gold.Protein.RotatedTorsions>
[ 6907 6896 6895 6894 ] final   82.21 input  -60.11 | X-H torsion
[ 7974 7965 7964 7962 ] final    6.43 input  175.53 | X-H torsion
[ 8008 7997 7996 7995 ] final   56.87 input   59.86 | X-H torsion
[ 10167 10162 10161 10158 ] final   15.44 input  -65.29 | X-H torsion
[ 10718 10713 10712 10709 ] final  105.07 input   66.30 | X-H torsion
[ 10763 10752 10751 10750 ] final  -12.91 input  -60.55 | X-H torsion
[ 11005 11000 10999 10996 ] final -136.64 input  -57.11 | X-H torsion

> <Gold.Protein.ActiveResidues>
 VAL166  LYS551  ARG553  GLY616  TRP617  ASP618  TYR619  PRO620  LYS621  CYS622 
 ASP623  PHE694  ASN695  SER759  ASP760  ASP761  ALA762  ILE779  LEU786  VAL792 
 PHE793  MET794  SER795  GLU796  ALA797  LYS798  CYS799  TRP800  GLU811  SER814 

> <Gold.Protein.RotatedAtoms>
  152.5292  134.3084  159.9104 H   0  0  0  0  0  0  0  0  0  0  0  0  # atno 6907 bound_to 6896
  151.3034  133.4106  159.2649 H   0  0  0  0  0  0  0  0  0  0  0  0  # atno 6908 bound_to 6896
  151.0100  134.9405  159.8059 H   0  0  0  0  0  0  0  0  0  0  0  0  # atno 6909 bound_to 6896
  146.2435  140.0235  142.8396 H   0  0  0  0  0  0  0  0  0  0  0  0  # atno 7974 bound_to 7965
  155.5244  140.3480  155.4413 H   0  0  0  0  0  0  0  0  0  0  0  0  # atno 8008 bound_to 7997
  156.0762  140.1375  156.9796 H   0  0  0  0  0  0  0  0  0  0  0  0  # atno 8009 bound_to 7997
  154.4554  140.0955  156.6718 H   0  0  0  0  0  0  0  0  0  0  0  0  # atno 8010 bound_to 7997
  140.5867  143.8875  150.6837 H   0  0  0  0  0  0  0  0  0  0  0  0  # atno 10167 bound_to 10162
  157.6718  131.0819  150.5802 H   0  0  0  0  0  0  0  0  0  0  0  0  # atno 10718 bound_to 10713
  153.5054  135.7017  153.5809 H   0  0  0  0  0  0  0  0  0  0  0  0  # atno 10763 bound_to 10752
  153.3922  135.3893  155.1931 H   0  0  0  0  0  0  0  0  0  0  0  0  # atno 10764 bound_to 10752
  154.8707  135.3861  154.4529 H   0  0  0  0  0  0  0  0  0  0  0  0  # atno 10765 bound_to 10752
  140.8786  134.1960  157.4606 H   0  0  0  0  0  0  0  0  0  0  0  0  # atno 11005 bound_to 11000
  145.1219  140.9467  143.4595 LP  0  0  0  0  0  0  0  0  0  0  0  0  # atno 17320 bound_to 7965
  145.0472  139.3211  143.5946 LP  0  0  0  0  0  0  0  0  0  0  0  0  # atno 17321 bound_to 7965
  140.2388  143.3679  152.1504 LP  0  0  0  0  0  0  0  0  0  0  0  0  # atno 17342 bound_to 10162
  139.5202  144.7030  151.5438 LP  0  0  0  0  0  0  0  0  0  0  0  0  # atno 17343 bound_to 10162
  156.6102  130.4378  149.5862 LP  0  0  0  0  0  0  0  0  0  0  0  0  # atno 17370 bound_to 10713
  156.2436  130.6866  151.1579 LP  0  0  0  0  0  0  0  0  0  0  0  0  # atno 17371 bound_to 10713
  139.8717  134.9807  156.5086 LP  0  0  0  0  0  0  0  0  0  0  0  0  # atno 17394 bound_to 11000
  140.8488  133.8148  155.9148 LP  0  0  0  0  0  0  0  0  0  0  0  0  # atno 17395 bound_to 11000

$$$$
