AV-unprocessed.smi:3321|AV-procd|sdf|12771|dock6
  -GOLD-   2272019113D 1   1.00000     0.00000
 Structure written by MMmdl.
 40 41  0  0  0  0  0  0  0  0  1 V2000
  154.4617  138.3392  159.6199 C   0  0  0  0  0  0  0  0  0  0  0  0
  153.3141  138.8859  158.7564 C   0  0  2  0  0  0  0  0  0  0  0  0
  152.5838  139.9237  159.5089 N   0  0  0  0  0  0  0  0  0  0  0  0
  153.4261  141.0339  159.9415 C   0  0  0  0  0  0  0  0  0  0  0  0
  152.5785  142.0381  160.7345 C   0  0  0  0  0  0  0  0  0  0  0  0
  152.3768  143.2659  159.9901 N   0  0  0  0  0  0  0  0  0  0  0  0
  151.8366  144.4558  160.4301 C   0  0  0  0  0  0  0  0  0  0  0  0
  151.8422  145.3196  159.3725 C   0  0  0  0  0  0  0  0  0  0  0  0
  152.4113  144.5556  158.3152 C   0  0  0  0  0  0  0  0  0  0  0  0
  152.7295  143.3263  158.6878 N   0  0  0  0  0  0  0  0  0  0  0  0
  152.4129  137.7227  158.2781 C   0  0  0  0  0  0  0  0  0  0  0  0
  151.8211  137.0608  159.1336 O   0  0  0  0  0  0  0  0  0  0  0  0
  152.2841  137.4571  156.9533 N   0  0  0  0  0  0  0  0  0  0  0  0
  151.3038  136.4926  156.4368 C   0  0  0  0  0  0  0  0  0  0  0  0
  150.1732  137.2754  155.7417 C   0  0  0  0  0  0  0  0  0  0  0  0
  150.7312  138.1981  154.6389 C   0  0  0  0  0  0  0  0  0  0  0  0
  151.9132  139.0499  155.1438 C   0  0  0  0  0  0  0  0  0  0  0  0
  152.9528  138.1642  155.8531 C   0  0  0  0  0  0  0  0  0  0  0  0
  155.0504  137.5966  159.0801 H   0  0  0  0  0  0  0  0  0  0  0  0
  154.0875  137.8674  160.5297 H   0  0  0  0  0  0  0  0  0  0  0  0
  155.1414  139.1381  159.9176 H   0  0  0  0  0  0  0  0  0  0  0  0
  153.7469  139.3939  157.8963 H   0  0  0  0  0  0  0  0  0  0  0  0
  151.7916  140.2716  158.9876 H   0  0  0  0  0  0  0  0  0  0  0  0
  154.2395  140.6579  160.5640 H   0  0  0  0  0  0  0  0  0  0  0  0
  153.8767  141.5375  159.0860 H   0  0  0  0  0  0  0  0  0  0  0  0
  151.6015  141.6123  160.9682 H   0  0  0  0  0  0  0  0  0  0  0  0
  153.0554  142.2796  161.6860 H   0  0  0  0  0  0  0  0  0  0  0  0
  151.4959  144.5867  161.4469 H   0  0  0  0  0  0  0  0  0  0  0  0
  151.4919  146.3410  159.3560 H   0  0  0  0  0  0  0  0  0  0  0  0
  152.6006  144.8554  157.2948 H   0  0  0  0  0  0  0  0  0  0  0  0
  151.7890  135.8204  155.7277 H   0  0  0  0  0  0  0  0  0  0  0  0
  150.8862  135.8498  157.2127 H   0  0  0  0  0  0  0  0  0  0  0  0
  149.4431  136.5855  155.3178 H   0  0  0  0  0  0  0  0  0  0  0  0
  149.6400  137.8739  156.4818 H   0  0  0  0  0  0  0  0  0  0  0  0
  151.0692  137.5846  153.8027 H   0  0  0  0  0  0  0  0  0  0  0  0
  149.9418  138.8410  154.2490 H   0  0  0  0  0  0  0  0  0  0  0  0
  152.3746  139.5797  154.3099 H   0  0  0  0  0  0  0  0  0  0  0  0
  151.5501  139.8124  155.8346 H   0  0  0  0  0  0  0  0  0  0  0  0
  153.8181  138.7477  156.1605 H   0  0  0  0  0  0  0  0  0  0  0  0
  153.3520  137.4328  155.1488 H   0  0  0  0  0  0  0  0  0  0  0  0
  1  2  1  0  0  0  0
  1 19  1  0  0  0  0
  1 20  1  0  0  0  0
  1 21  1  0  0  0  0
  2  3  1  0  0  0  0
  2 11  1  0  0  0  0
  2 22  1  0  0  0  0
  3  4  1  0  0  0  0
  3 23  1  0  0  0  0
  4  5  1  0  0  0  0
  4 24  1  0  0  0  0
  4 25  1  0  0  0  0
  5  6  1  0  0  0  0
  5 26  1  0  0  0  0
  5 27  1  0  0  0  0
  6 10  1  0  0  0  0
  6  7  1  0  0  0  0
  7  8  2  0  0  0  0
  7 28  1  0  0  0  0
  8  9  1  0  0  0  0
  8 29  1  0  0  0  0
  9 10  2  0  0  0  0
  9 30  1  0  0  0  0
 11 12  2  0  0  0  0
 11 13  1  0  0  0  0
 13 18  1  0  0  0  0
 13 14  1  0  0  0  0
 14 15  1  0  0  0  0
 14 31  1  0  0  0  0
 14 32  1  0  0  0  0
 15 16  1  0  0  0  0
 15 33  1  0  0  0  0
 15 34  1  0  0  0  0
 16 17  1  0  0  0  0
 16 35  1  0  0  0  0
 16 36  1  0  0  0  0
 17 18  1  0  0  0  0
 17 37  1  0  0  0  0
 17 38  1  0  0  0  0
 18 39  1  0  0  0  0
 18 40  1  0  0  0  0
M  END
> <s_m_source_file>
AV-unprocessed.smi

> <i_m_source_file_index>
3321

> <i_lp_mmshare_version>
43012

> <i_f3d_flags>
0

> <s_epik_input>
W0NIMl0xW0NIMl1bQ0gyXVtDSDJdW0NIMl1OMUMoPU8pW0NASF0oW0NIM10pW05IXVtDSDJdW0NIMl1uMltjSF1bY0hdW2NIXW4y

> <s_epik_cmdline>
J2VwaWtfcHl0aG9uJywgJy1waCcsICc3LjAnLCAnLXRuJywgJzgnLCAnLW1hJywgJzIwMCcsICctbWV0YWxfYmluZGluZycsICctaW1hZScsICc8aW5maWxlLm1hZT4nLCAnLW9tYWUnLCAnPG91dGZpbGUubWFlPic=

> <r_lp_tautomer_probability>
1

> <r_epik_Ionization_Penalty>
0.736446

> <r_epik_Ionization_Penalty_Charging>
0

> <r_epik_Ionization_Penalty_Neutral>
0.736446

> <r_epik_State_Penalty>
0.761204

> <r_epik_Charging_Adjusted_Penalty>
0.761204

> <i_epik_Tot_Q>
0

> <i_epik_Tot_abs_Q>
0

> <r_epik_Metal_State_Penalty>
0.760551

> <b_epik_Metal_Only>
0

> <s_lp_Force_Field>
OPLS_2005

> <r_lp_Energy>
27.234

> <b_lp_Chiralities_Consistent>
1

> <s_lp_Variant>
AV-unprocessed.smi:3321-3

> <Gold.Version>
5.8.1

> <Gold.Id.Protein>
6NUR|6NUR_protein|mol2

> <Gold.PLP.Fitness>
41.5781

> <Gold.PLP.PLP>
-39.7302

> <Gold.PLP.part.hbond>
-1.0000

> <Gold.PLP.part.metal>
0.0000

> <Gold.PLP.part.buried>
-5.7070

> <Gold.PLP.part.nonpolar>
-34.6143

> <Gold.PLP.part.repulsive>
0.0000

> <Gold.PLP.ligand.clash>
0.0000

> <Gold.PLP.ligand.torsion>
0.4654

> <Gold.PLP.Chemscore.Hbond>
0.8938

> <Gold.PLP.Chemscore.CHOScore>
0.0000

> <Gold.PLP.Chemscore.Metal>
0.0000

> <Gold.Chemscore.Hbonds>
donor molecule, donor type, donor heavy atom, donor atom, acceptor molecule, acceptor atom, score
      P1  H  6896  6909       L1    12  0.84

> <Gold.PLP.Chemscore.Internal.Correction>
0.0975

> <Gold.Rescore>
     Score         DG    S(hbond)    S(metal)    S(lipo)     H(rot)  DE(clash)    DE(int)     intcor
     15.70     -16.22       0.98        0.00     101.62       1.73       0.09       0.43       ----

> <Gold.Chemscore.Fitness>
15.6990

> <Gold.Chemscore.DG>
-16.2198

> <Gold.Chemscore.ZeroCoef>
-5.4800

> <Gold.Chemscore.Hbond>
0.9798

> <Gold.Chemscore.Metal>
0.0000

> <Gold.Chemscore.Lipo>
101.6233

> <Gold.Chemscore.Internal_Hbond>
0.0000

> <Gold.Chemscore.DEClash>
0.0900

> <Gold.Chemscore.DEInternal>
0.4308

> <Gold.Chemscore.Rot>
1.7277

> <Gold.Chemscore.Internal.Correction>
   9.000000E+99

> <Gold.Chemscore.Hbonds>
donor molecule, donor type, donor heavy atom, donor atom, acceptor molecule, acceptor atom, score
      P1  H  6896  6909       L1    12  0.79

> <Gold.Chemscore.Hbond.Weighted>
-3.2726

> <Gold.Chemscore.Metal.Weighted>
-0.0000

> <Gold.Chemscore.Lipo.Weighted>
-11.8899

> <Gold.Chemscore.Internal_Hbond.Weighted>
0.0000

> <Gold.Chemscore.DEClash.Weighted>
0.0900

> <Gold.Chemscore.DEInternal.Weighted>
0.4308

> <Gold.Chemscore.Rot.Weighted>
4.4228

> <Gold.Chemscore.Internal.Correction.Weighted>
   9.000000E+99

> <Gold.Protein.RotatedTorsions>
[ 6907 6896 6895 6894 ] final  113.34 input  -60.11 | X-H torsion
[ 7974 7965 7964 7962 ] final   97.15 input  175.53 | X-H torsion
[ 8008 7997 7996 7995 ] final -136.45 input   59.86 | X-H torsion
[ 10167 10162 10161 10158 ] final   67.05 input  -65.29 | X-H torsion
[ 10718 10713 10712 10709 ] final  -91.02 input   66.30 | X-H torsion
[ 10763 10752 10751 10750 ] final  -53.57 input  -60.55 | X-H torsion
[ 11005 11000 10999 10996 ] final  120.63 input  -57.11 | X-H torsion

> <Gold.Protein.ActiveResidues>
 VAL166  LYS551  ARG553  GLY616  TRP617  ASP618  TYR619  PRO620  LYS621  CYS622 
 ASP623  PHE694  ASN695  SER759  ASP760  ASP761  ALA762  ILE779  LEU786  VAL792 
 PHE793  MET794  SER795  GLU796  ALA797  LYS798  CYS799  TRP800  GLU811  SER814 

> <Gold.Protein.RotatedAtoms>
  152.4866  133.8389  159.7141 H   0  0  0  0  0  0  0  0  0  0  0  0  # atno 6907 bound_to 6896
  150.8958  133.7174  159.2899 H   0  0  0  0  0  0  0  0  0  0  0  0  # atno 6908 bound_to 6896
  151.4631  135.1044  159.9783 H   0  0  0  0  0  0  0  0  0  0  0  0  # atno 6909 bound_to 6896
  145.4293  139.2312  143.3153 H   0  0  0  0  0  0  0  0  0  0  0  0  # atno 7974 bound_to 7965
  155.3954  140.0502  157.3039 H   0  0  0  0  0  0  0  0  0  0  0  0  # atno 8008 bound_to 7997
  154.5016  140.2159  155.9296 H   0  0  0  0  0  0  0  0  0  0  0  0  # atno 8009 bound_to 7997
  156.1474  140.3142  155.8598 H   0  0  0  0  0  0  0  0  0  0  0  0  # atno 8010 bound_to 7997
  140.0937  144.4965  150.7082 H   0  0  0  0  0  0  0  0  0  0  0  0  # atno 10167 bound_to 10162
  155.9991  130.4932  150.5411 H   0  0  0  0  0  0  0  0  0  0  0  0  # atno 10718 bound_to 10713
  154.1609  135.6475  153.4985 H   0  0  0  0  0  0  0  0  0  0  0  0  # atno 10763 bound_to 10752
  153.0111  135.5360  154.6712 H   0  0  0  0  0  0  0  0  0  0  0  0  # atno 10764 bound_to 10752
  154.6025  135.2945  155.0492 H   0  0  0  0  0  0  0  0  0  0  0  0  # atno 10765 bound_to 10752
  139.9193  134.9635  156.7836 H   0  0  0  0  0  0  0  0  0  0  0  0  # atno 11005 bound_to 11000
  146.2616  140.5027  142.8851 LP  0  0  0  0  0  0  0  0  0  0  0  0  # atno 17320 bound_to 7965
  144.8193  140.6523  143.6363 LP  0  0  0  0  0  0  0  0  0  0  0  0  # atno 17321 bound_to 7965
  140.7015  143.2438  151.4851 LP  0  0  0  0  0  0  0  0  0  0  0  0  # atno 17342 bound_to 10162
  139.5710  144.1929  152.1836 LP  0  0  0  0  0  0  0  0  0  0  0  0  # atno 17343 bound_to 10162
  157.3347  131.0706  151.1834 LP  0  0  0  0  0  0  0  0  0  0  0  0  # atno 17370 bound_to 10713
  157.2702  130.6701  149.6016 LP  0  0  0  0  0  0  0  0  0  0  0  0  # atno 17371 bound_to 10713
  140.6524  133.9719  155.7762 LP  0  0  0  0  0  0  0  0  0  0  0  0  # atno 17394 bound_to 11000
  141.0699  134.0221  157.3541 LP  0  0  0  0  0  0  0  0  0  0  0  0  # atno 17395 bound_to 11000

$$$$
