#       Name:                AV-unprocessed.smi:849
#       Creating user name   scv26
#       Creation time:       Fri Mar 27 01:41:43 2020


#       File generated by GOLD software.
#

@<TRIPOS>MOLECULE
AV-unprocessed.smi:849
    41    43     1
SMALL
NO_CHARGES


@<TRIPOS>ATOM
      1 ****        -1.5844   3.4401  -0.4762 O.3            1 S1                 0.0000
      2 ****        -1.6733   2.8762   0.8130 C.3            1 S1                 0.0000
      3 ****        -2.0253   1.4254   0.7739 C.2            1 S1                 0.0000
      4 ****        -3.2908   0.9194   0.7867 N.pl3          1 S1                 1.0000
      5 ****        -3.2447  -0.4737   0.7277 C.ar           1 S1                 0.0000
      6 ****        -4.2647  -1.4201   0.7150 C.ar           1 S1                 0.0000
      7 ****        -3.8718  -2.7731   0.6482 C.ar           1 S1                 0.0000
      8 ****        -2.5116  -3.1410   0.5971 C.ar           1 S1                 0.0000
      9 ****        -1.4867  -2.1721   0.6098 C.ar           1 S1                 0.0000
     10 ****        -1.8837  -0.8368   0.6753 C.ar           1 S1                 0.0000
     11 ****        -1.1676   0.3651   0.7016 N.pl3          1 S1                 0.0000
     12 ****         0.3028   0.3189   0.6440 C.3            1 S1                 0.0000
     13 ****         0.8456   0.1591  -0.7907 C.3            1 S1                 0.0000
     14 ****         0.3633   1.2143  -1.6014 O.3            1 S1                 0.0000
     15 ****         2.3695   0.0687  -0.7943 C.ar           1 S1                 0.0000
     16 ****         3.1378   1.2560  -0.7926 C.ar           1 S1                 0.0000
     17 ****         4.5444   1.2018  -0.7905 C.ar           1 S1                 0.0000
     18 ****         5.1995  -0.0426  -0.7852 C.ar           1 S1                 0.0000
     19 ****         4.4458  -1.2305  -0.7756 C.ar           1 S1                 0.0000
     20 ****         3.0371  -1.1828  -0.7759 C.ar           1 S1                 0.0000
     21 ****         2.1671  -2.6771  -0.7417 Cl             1 S1                 0.0000
     22 ****        -0.8841   3.0085  -0.9433 H              1 S1                 0.0000
     23 ****        -0.7279   3.0194   1.3357 H              1 S1                 0.0000
     24 ****        -2.4331   3.4146   1.3803 H              1 S1                 0.0000
     25 ****        -5.3075  -1.1407   0.7537 H              1 S1                 0.0000
     26 ****        -4.6288  -3.5439   0.6362 H              1 S1                 0.0000
     27 ****        -2.2480  -4.1875   0.5468 H              1 S1                 0.0000
     28 ****        -0.4484  -2.4650   0.5700 H              1 S1                 0.0000
     29 ****         0.6876   1.2337   1.0945 H              1 S1                 0.0000
     30 ****         0.6455  -0.4970   1.2816 H              1 S1                 0.0000
     31 ****         0.4302  -0.7464  -1.2303 H              1 S1                 0.0000
     32 ****         0.6297   1.0510  -2.4936 H              1 S1                 0.0000
     33 ****         2.6512   2.2204  -0.7895 H              1 S1                 0.0000
     34 ****         5.1201   2.1156  -0.7914 H              1 S1                 0.0000
     35 ****         6.2787  -0.0863  -0.7835 H              1 S1                 0.0000
     36 ****         4.9529  -2.1843  -0.7648 H              1 S1                 0.0000
     37 ****        -4.1246   1.4912   0.8277 H              1 S1                 0.0000
     38 ****        -1.3898   4.4184  -0.4042 LP             1 S1                 0.0000
     39 ****        -2.4476   3.3070  -0.9633 LP             1 S1                 0.0000
     40 ****         0.7466   2.0832  -1.2881 LP             1 S1                 0.0000
     41 ****        -0.6346   1.2519  -1.5484 LP             1 S1                 0.0000
@<TRIPOS>BOND
    1    1    2 1     
    2    1   22 1     
    3    2    3 1     
    4    2   23 1     
    5    2   24 1     
    6    3   11 1     
    7    3    4 2     
    8    4    5 1     
    9    4   37 1     
   10    5   10 ar    
   11    5    6 ar    
   12    6    7 ar    
   13    6   25 1     
   14    7    8 ar    
   15    7   26 1     
   16    8    9 ar    
   17    8   27 1     
   18    9   10 ar    
   19    9   28 1     
   20   10   11 1     
   21   11   12 1     
   22   12   13 1     
   23   12   29 1     
   24   12   30 1     
   25   13   14 1     
   26   13   15 1     
   27   13   31 1     
   28   14   32 1     
   29   15   20 ar    
   30   15   16 ar    
   31   16   17 ar    
   32   16   33 1     
   33   17   18 ar    
   34   17   34 1     
   35   18   19 ar    
   36   18   35 1     
   37   19   20 ar    
   38   19   36 1     
   39   20   21 1     
   40    1   38 1     
   41    1   39 1     
   42   14   40 1     
   43   14   41 1     
@<TRIPOS>SUBSTRUCTURE
      1 S1             1
@<TRIPOS>SET
LONE_PAIRS      STATIC     ATOMS    <user>   **** ""
4 38 39 40 41
DONOR_HYDROGENS      STATIC     ATOMS    <user>   **** ""
3 22 37 32
ATOM$BLUE        STATIC     ATOMS    COLORGROUP SYSTEM
4 38 39 40 41
ATOM$RED        STATIC     ATOMS    COLORGROUP SYSTEM
3 22 37 32
