AV-unprocessed.smi:2198|AV-procd|sdf|8912|dock2
  -GOLD-   2272012133D 1   1.00000     0.00000
 Structure written by MMmdl.
 43 44  0  0  0  0  0  0  0  0  1 V2000
  146.4915  138.4000  151.9672 C   0  0  0  0  0  0  0  0  0  0  0  0
  147.2214  139.3858  152.8548 C   0  0  0  0  0  0  0  0  0  0  0  0
  146.6797  140.4514  153.3464 N   0  0  0  0  0  0  0  0  0  0  0  0
  147.4574  141.2898  154.1573 C   0  0  0  0  0  0  0  0  0  0  0  0
  146.7489  142.5181  154.7023 C   0  0  0  0  0  0  0  0  0  0  0  0
  148.7649  141.0084  154.4315 C   0  0  0  0  0  0  0  0  0  0  0  0
  149.6382  141.9004  155.3133 C   0  0  0  0  0  0  0  0  0  0  0  0
  149.9399  141.3748  156.7191 C   0  0  0  0  0  0  0  0  0  0  0  0
  149.0886  140.7498  157.3526 O   0  0  0  0  0  0  0  0  0  0  0  0
  151.1638  141.6457  157.1970 N   0  0  0  0  0  0  0  0  0  0  0  0
  151.6555  141.2668  158.5181 C   0  0  1  0  0  0  0  0  0  0  0  0
  152.9297  140.4161  158.3715 C   0  0  0  0  0  0  0  0  0  0  0  0
  153.5103  140.0425  159.7438 C   0  0  0  0  0  0  0  0  0  0  0  0
  153.7830  141.2940  160.5929 C   0  0  0  0  0  0  0  0  0  0  0  0
  152.5171  142.1582  160.7520 C   0  0  1  0  0  0  0  0  0  0  0  0
  152.7979  143.4147  161.5888 C   0  0  0  0  0  0  0  0  0  0  0  0
  151.9312  142.5209  159.3734 C   0  0  0  0  0  0  0  0  0  0  0  0
  149.3729  139.7884  153.8660 C   0  0  0  0  0  0  0  0  0  0  0  0
  150.5364  139.4370  154.0549 O   0  0  0  0  0  0  0  0  0  0  0  0
  148.5492  139.0392  153.0993 N   0  0  0  0  0  0  0  0  0  0  0  0
  148.9179  138.1927  152.6907 H   0  0  0  0  0  0  0  0  0  0  0  0
  145.6330  137.9843  152.4952 H   0  0  0  0  0  0  0  0  0  0  0  0
  147.1379  137.5751  151.6642 H   0  0  0  0  0  0  0  0  0  0  0  0
  146.1321  138.8995  151.0675 H   0  0  0  0  0  0  0  0  0  0  0  0
  147.1960  143.4270  154.2991 H   0  0  0  0  0  0  0  0  0  0  0  0
  146.8143  142.5513  155.7899 H   0  0  0  0  0  0  0  0  0  0  0  0
  145.6921  142.5175  154.4328 H   0  0  0  0  0  0  0  0  0  0  0  0
  150.5847  142.1162  154.8162 H   0  0  0  0  0  0  0  0  0  0  0  0
  149.1505  142.8702  155.4143 H   0  0  0  0  0  0  0  0  0  0  0  0
  151.7992  142.1621  156.6061 H   0  0  0  0  0  0  0  0  0  0  0  0
  150.8991  140.6582  159.0177 H   0  0  0  0  0  0  0  0  0  0  0  0
  152.7117  139.5092  157.8061 H   0  0  0  0  0  0  0  0  0  0  0  0
  153.6795  140.9652  157.7995 H   0  0  0  0  0  0  0  0  0  0  0  0
  152.8131  139.3884  160.2691 H   0  0  0  0  0  0  0  0  0  0  0  0
  154.4310  139.4729  159.6149 H   0  0  0  0  0  0  0  0  0  0  0  0
  154.1555  140.9946  161.5731 H   0  0  0  0  0  0  0  0  0  0  0  0
  154.5757  141.8821  160.1280 H   0  0  0  0  0  0  0  0  0  0  0  0
  151.7720  141.5674  161.2869 H   0  0  0  0  0  0  0  0  0  0  0  0
  153.5424  144.0516  161.1103 H   0  0  0  0  0  0  0  0  0  0  0  0
  153.1723  143.1518  162.5787 H   0  0  0  0  0  0  0  0  0  0  0  0
  151.8924  144.0064  161.7255 H   0  0  0  0  0  0  0  0  0  0  0  0
  152.6224  143.1796  158.8451 H   0  0  0  0  0  0  0  0  0  0  0  0
  151.0088  143.0878  159.5069 H   0  0  0  0  0  0  0  0  0  0  0  0
  1  2  1  0  0  0  0
  1 22  1  0  0  0  0
  1 23  1  0  0  0  0
  1 24  1  0  0  0  0
  2 20  1  0  0  0  0
  2  3  2  0  0  0  0
  3  4  1  0  0  0  0
  4  5  1  0  0  0  0
  4  6  2  0  0  0  0
  5 25  1  0  0  0  0
  5 26  1  0  0  0  0
  5 27  1  0  0  0  0
  6  7  1  0  0  0  0
  6 18  1  0  0  0  0
  7  8  1  0  0  0  0
  7 28  1  0  0  0  0
  7 29  1  0  0  0  0
  8  9  2  0  0  0  0
  8 10  1  0  0  0  0
 10 11  1  0  0  0  0
 10 30  1  0  0  0  0
 11 17  1  0  0  0  0
 11 12  1  0  0  0  0
 11 31  1  0  0  0  0
 12 13  1  0  0  0  0
 12 32  1  0  0  0  0
 12 33  1  0  0  0  0
 13 14  1  0  0  0  0
 13 34  1  0  0  0  0
 13 35  1  0  0  0  0
 14 15  1  0  0  0  0
 14 36  1  0  0  0  0
 14 37  1  0  0  0  0
 15 16  1  0  0  0  0
 15 17  1  0  0  0  0
 15 38  1  0  0  0  0
 16 39  1  0  0  0  0
 16 40  1  0  0  0  0
 16 41  1  0  0  0  0
 17 42  1  0  0  0  0
 17 43  1  0  0  0  0
 18 19  2  0  0  0  0
 18 20  1  0  0  0  0
 20 21  1  0  0  0  0
M  END
> <s_m_source_file>
AV-unprocessed.smi

> <i_m_source_file_index>
2198

> <i_lp_mmshare_version>
43012

> <i_f3d_flags>
0

> <s_epik_input>
W0NIM11jMW5jKFtDSDNdKWMoYyg9TylbbkhdMSlbQ0gyXUMoPU8pW05IXVtDQEBIXTJbQ0gyXVtDSDJdW0NIMl1bQ0BASF0oW0NIM10pW0NIMl0y

> <s_epik_cmdline>
J2VwaWtfcHl0aG9uJywgJy1waCcsICc3LjAnLCAnLXRuJywgJzgnLCAnLW1hJywgJzIwMCcsICctbWV0YWxfYmluZGluZycsICctaW1hZScsICc8aW5maWxlLm1hZT4nLCAnLW9tYWUnLCAnPG91dGZpbGUubWFlPic=

> <r_lp_tautomer_probability>
0.839158

> <r_epik_Ionization_Penalty>
0.000372587

> <r_epik_Ionization_Penalty_Charging>
0.000337977

> <r_epik_Ionization_Penalty_Neutral>
3.46101e-05

> <r_epik_State_Penalty>
0.09125

> <r_epik_Charging_Adjusted_Penalty>
0.091588

> <i_epik_Tot_Q>
0

> <i_epik_Tot_abs_Q>
0

> <r_epik_Metal_State_Penalty>
0.25197

> <b_epik_Metal_Only>
0

> <s_lp_Force_Field>
OPLS_2005

> <r_lp_Energy>
10.3452

> <b_lp_Chiralities_Consistent>
1

> <s_lp_Variant>
AV-unprocessed.smi:2198-2

> <Gold.Version>
5.8.1

> <Gold.Id.Protein>
6NUR|6NUR_protein|mol2

> <Gold.PLP.Fitness>
44.6597

> <Gold.PLP.PLP>
-39.7212

> <Gold.PLP.part.hbond>
-2.8956

> <Gold.PLP.part.metal>
0.0000

> <Gold.PLP.part.buried>
2.5921

> <Gold.PLP.part.nonpolar>
-38.3030

> <Gold.PLP.part.repulsive>
0.5611

> <Gold.PLP.ligand.clash>
0.0000

> <Gold.PLP.ligand.torsion>
0.5210

> <Gold.PLP.Chemscore.Hbond>
1.9913

> <Gold.PLP.Chemscore.CHOScore>
0.0000

> <Gold.PLP.Chemscore.Metal>
0.0000

> <Gold.Chemscore.Hbonds>
donor molecule, donor type, donor heavy atom, donor atom, acceptor molecule, acceptor atom, score
      L1  H    20    21       P1  7948  0.83
      P1  H  7989  7998       L1    19  1.00

> <Gold.PLP.Chemscore.Internal.Correction>
0.0068

> <Gold.Rescore>
     Score         DG    S(hbond)    S(metal)    S(lipo)     H(rot)  DE(clash)    DE(int)     intcor
     17.65     -18.60       1.72        0.00      95.43       1.48       0.23       0.72       ----

> <Gold.Chemscore.Fitness>
17.6476

> <Gold.Chemscore.DG>
-18.5999

> <Gold.Chemscore.ZeroCoef>
-5.4800

> <Gold.Chemscore.Hbond>
1.7198

> <Gold.Chemscore.Metal>
0.0000

> <Gold.Chemscore.Lipo>
95.4274

> <Gold.Chemscore.Internal_Hbond>
0.0000

> <Gold.Chemscore.DEClash>
0.2306

> <Gold.Chemscore.DEInternal>
0.7217

> <Gold.Chemscore.Rot>
1.4801

> <Gold.Chemscore.Internal.Correction>
   9.000000E+99

> <Gold.Chemscore.Hbonds>
donor molecule, donor type, donor heavy atom, donor atom, acceptor molecule, acceptor atom, score
      L1  H    20    21       P1  7948  0.82
      P1  H  7989  7998       L1    19  0.60

> <Gold.Chemscore.Hbond.Weighted>
-5.7440

> <Gold.Chemscore.Metal.Weighted>
-0.0000

> <Gold.Chemscore.Lipo.Weighted>
-11.1650

> <Gold.Chemscore.Internal_Hbond.Weighted>
0.0000

> <Gold.Chemscore.DEClash.Weighted>
0.2306

> <Gold.Chemscore.DEInternal.Weighted>
0.7217

> <Gold.Chemscore.Rot.Weighted>
3.7891

> <Gold.Chemscore.Internal.Correction.Weighted>
   9.000000E+99

> <Gold.Protein.RotatedTorsions>
[ 6907 6896 6895 6894 ] final   52.38 input  -60.11 | X-H torsion
[ 7974 7965 7964 7962 ] final -107.72 input  175.53 | X-H torsion
[ 8008 7997 7996 7995 ] final -162.57 input   59.86 | X-H torsion
[ 10167 10162 10161 10158 ] final   58.27 input  -65.29 | X-H torsion
[ 10718 10713 10712 10709 ] final -171.44 input   66.30 | X-H torsion
[ 10763 10752 10751 10750 ] final   31.66 input  -60.55 | X-H torsion
[ 11005 11000 10999 10996 ] final   79.50 input  -57.11 | X-H torsion

> <Gold.Protein.ActiveResidues>
 VAL166  LYS551  ARG553  GLY616  TRP617  ASP618  TYR619  PRO620  LYS621  CYS622 
 ASP623  PHE694  ASN695  SER759  ASP760  ASP761  ALA762  ILE779  LEU786  VAL792 
 PHE793  MET794  SER795  GLU796  ALA797  LYS798  CYS799  TRP800  GLU811  SER814 

> <Gold.Protein.RotatedAtoms>
  152.3226  134.7361  160.0309 H   0  0  0  0  0  0  0  0  0  0  0  0  # atno 6907 bound_to 6896
  151.7804  133.3344  159.3478 H   0  0  0  0  0  0  0  0  0  0  0  0  # atno 6908 bound_to 6896
  150.7378  134.5867  159.6011 H   0  0  0  0  0  0  0  0  0  0  0  0  # atno 6909 bound_to 6896
  145.2018  140.9060  143.3365 H   0  0  0  0  0  0  0  0  0  0  0  0  # atno 7974 bound_to 7965
  155.8087  140.0902  157.1916 H   0  0  0  0  0  0  0  0  0  0  0  0  # atno 8008 bound_to 7997
  154.3980  140.1458  156.3421 H   0  0  0  0  0  0  0  0  0  0  0  0  # atno 8009 bound_to 7997
  155.8387  140.3439  155.5621 H   0  0  0  0  0  0  0  0  0  0  0  0  # atno 8010 bound_to 7997
  140.1890  144.4105  150.6580 H   0  0  0  0  0  0  0  0  0  0  0  0  # atno 10167 bound_to 10162
  156.7409  130.9342  151.3110 H   0  0  0  0  0  0  0  0  0  0  0  0  # atno 10718 bound_to 10713
  153.0304  135.6433  154.1233 H   0  0  0  0  0  0  0  0  0  0  0  0  # atno 10763 bound_to 10752
  154.0956  135.2863  155.3264 H   0  0  0  0  0  0  0  0  0  0  0  0  # atno 10764 bound_to 10752
  154.6434  135.5451  153.7879 H   0  0  0  0  0  0  0  0  0  0  0  0  # atno 10765 bound_to 10752
  139.9170  134.7847  156.1787 H   0  0  0  0  0  0  0  0  0  0  0  0  # atno 11005 bound_to 11000
  144.9940  139.3662  143.6201 LP  0  0  0  0  0  0  0  0  0  0  0  0  # atno 17320 bound_to 7965
  146.3416  139.9135  142.8777 LP  0  0  0  0  0  0  0  0  0  0  0  0  # atno 17321 bound_to 7965
  140.6469  143.2215  151.6166 LP  0  0  0  0  0  0  0  0  0  0  0  0  # atno 17342 bound_to 10162
  139.5264  144.3047  152.1044 LP  0  0  0  0  0  0  0  0  0  0  0  0  # atno 17343 bound_to 10162
  157.6819  130.9148  150.0288 LP  0  0  0  0  0  0  0  0  0  0  0  0  # atno 17370 bound_to 10713
  156.1465  130.3642  149.9502 LP  0  0  0  0  0  0  0  0  0  0  0  0  # atno 17371 bound_to 10713
  141.0656  133.6821  156.2038 LP  0  0  0  0  0  0  0  0  0  0  0  0  # atno 17394 bound_to 11000
  140.6591  134.4987  157.5582 LP  0  0  0  0  0  0  0  0  0  0  0  0  # atno 17395 bound_to 11000

$$$$
