AV-unprocessed.smi:1088|AV-procd|sdf|4731|dock3
  -GOLD-   22720 3263D 1   1.00000     0.00000
 Structure written by MMmdl.
 48 49  0  0  0  0  0  0  0  0  2 V2000
  150.0879  134.4639  155.1053 C   0  0  0  0  0  0  0  0  0  0  0  0
  148.8438  134.9843  154.6703 O   0  0  0  0  0  0  0  0  0  0  0  0
  148.3199  135.9557  155.5603 C   0  0  0  0  0  0  0  0  0  0  0  0
  147.0384  136.5455  154.9541 C   0  0  0  0  0  0  0  0  0  0  0  0
  147.3201  137.4384  153.8037 N   0  3  1  0  0  0  0  0  0  0  0  0
  146.2247  137.5519  152.8176 C   0  0  0  0  0  0  0  0  0  0  0  0
  146.4700  138.8762  152.1067 C   0  0  0  0  0  0  0  0  0  0  0  0
  146.9945  139.7690  153.2249 C   0  0  0  0  0  0  0  0  0  0  0  0
  147.7319  138.8130  154.1845 C   0  0  2  0  0  0  0  0  0  0  0  0
  149.2691  138.9423  154.1293 C   0  0  0  0  0  0  0  0  0  0  0  0
  149.8624  139.0587  155.4565 N   0  0  0  0  0  0  0  0  0  0  0  0
  151.0294  139.6633  155.7242 C   0  0  0  0  0  0  0  0  0  0  0  0
  151.7074  140.2302  154.8664 O   0  0  0  0  0  0  0  0  0  0  0  0
  151.4934  139.6280  157.1856 C   0  0  0  0  0  0  0  0  0  0  0  0
  151.6069  140.9702  157.7694 N   0  0  0  0  0  0  0  0  0  0  0  0
  151.0335  142.0515  157.1252 C   0  0  0  0  0  0  0  0  0  0  0  0
  151.0965  143.3168  157.5942 C   0  0  0  0  0  0  0  0  0  0  0  0
  151.7942  143.6210  158.8378 C   0  0  0  0  0  0  0  0  0  0  0  0
  151.8576  144.7563  159.3108 O   0  0  0  0  0  0  0  0  0  0  0  0
  152.3853  142.4997  159.4681 N   0  0  0  0  0  0  0  0  0  0  0  0
  153.0894  142.6975  160.7183 C   0  0  0  0  0  0  0  0  0  0  0  0
  152.3019  141.1765  158.9811 C   0  0  0  0  0  0  0  0  0  0  0  0
  152.8106  140.2267  159.5826 O   0  0  0  0  0  0  0  0  0  0  0  0
  150.4471  133.7265  154.3874 H   0  0  0  0  0  0  0  0  0  0  0  0
  149.9919  133.9715  156.0739 H   0  0  0  0  0  0  0  0  0  0  0  0
  150.8396  135.2502  155.1845 H   0  0  0  0  0  0  0  0  0  0  0  0
  148.1266  135.5191  156.5410 H   0  0  0  0  0  0  0  0  0  0  0  0
  149.0531  136.7514  155.7016 H   0  0  0  0  0  0  0  0  0  0  0  0
  146.3667  135.7455  154.6396 H   0  0  0  0  0  0  0  0  0  0  0  0
  146.5111  137.1091  155.7255 H   0  0  0  0  0  0  0  0  0  0  0  0
  146.2129  136.7080  152.1270 H   0  0  0  0  0  0  0  0  0  0  0  0
  145.2621  137.5851  153.3309 H   0  0  0  0  0  0  0  0  0  0  0  0
  147.2368  138.7508  151.3411 H   0  0  0  0  0  0  0  0  0  0  0  0
  145.5750  139.2745  151.6280 H   0  0  0  0  0  0  0  0  0  0  0  0
  147.6168  140.5796  152.8447 H   0  0  0  0  0  0  0  0  0  0  0  0
  146.1530  140.2270  153.7467 H   0  0  0  0  0  0  0  0  0  0  0  0
  147.3877  139.0237  155.1991 H   0  0  0  0  0  0  0  0  0  0  0  0
  149.7056  138.0866  153.6109 H   0  0  0  0  0  0  0  0  0  0  0  0
  149.5490  139.8255  153.5540 H   0  0  0  0  0  0  0  0  0  0  0  0
  149.3643  138.6268  156.2218 H   0  0  0  0  0  0  0  0  0  0  0  0
  150.7806  139.0290  157.7539 H   0  0  0  0  0  0  0  0  0  0  0  0
  152.4493  139.1066  157.2666 H   0  0  0  0  0  0  0  0  0  0  0  0
  150.5073  141.8793  156.1975 H   0  0  0  0  0  0  0  0  0  0  0  0
  150.6231  144.1156  157.0421 H   0  0  0  0  0  0  0  0  0  0  0  0
  153.9966  142.0910  160.7048 H   0  0  0  0  0  0  0  0  0  0  0  0
  152.4123  142.3866  161.5152 H   0  0  0  0  0  0  0  0  0  0  0  0
  153.3798  143.7416  160.8342 H   0  0  0  0  0  0  0  0  0  0  0  0
  148.1077  137.0455  153.3079 H   0  0  0  0  0  0  0  0  0  0  0  0
  1  2  1  0  0  0  0
  1 24  1  0  0  0  0
  1 25  1  0  0  0  0
  1 26  1  0  0  0  0
  2  3  1  0  0  0  0
  3  4  1  0  0  0  0
  3 27  1  0  0  0  0
  3 28  1  0  0  0  0
  4  5  1  0  0  0  0
  4 29  1  0  0  0  0
  4 30  1  0  0  0  0
  5  9  1  0  0  0  0
  5  6  1  0  0  0  0
  5 48  1  0  0  0  0
  6  7  1  0  0  0  0
  6 31  1  0  0  0  0
  6 32  1  0  0  0  0
  7  8  1  0  0  0  0
  7 33  1  0  0  0  0
  7 34  1  0  0  0  0
  8  9  1  0  0  0  0
  8 35  1  0  0  0  0
  8 36  1  0  0  0  0
  9 10  1  0  0  0  0
  9 37  1  0  0  0  0
 10 11  1  0  0  0  0
 10 38  1  0  0  0  0
 10 39  1  0  0  0  0
 11 12  1  0  0  0  0
 11 40  1  0  0  0  0
 12 13  2  0  0  0  0
 12 14  1  0  0  0  0
 14 15  1  0  0  0  0
 14 41  1  0  0  0  0
 14 42  1  0  0  0  0
 15 22  1  0  0  0  0
 15 16  1  0  0  0  0
 16 17  2  0  0  0  0
 16 43  1  0  0  0  0
 17 18  1  0  0  0  0
 17 44  1  0  0  0  0
 18 19  2  0  0  0  0
 18 20  1  0  0  0  0
 20 21  1  0  0  0  0
 20 22  1  0  0  0  0
 21 45  1  0  0  0  0
 21 46  1  0  0  0  0
 21 47  1  0  0  0  0
 22 23  2  0  0  0  0
M  CHG  1   5   1
M  END
> <s_m_source_file>
AV-unprocessed.smi

> <i_m_source_file_index>
1088

> <i_lp_mmshare_version>
43012

> <i_f3d_flags>
0

> <s_epik_input>
W0NIM11PW0NIMl1bQ0gyXU4xW0NIMl1bQ0gyXVtDSDJdW0NASF0xW0NIMl1bTkhdQyg9TylbQ0gyXW4yW2NIXVtjSF1jKD1PKW4oW0NIM10pYzI9Tw==

> <s_epik_cmdline>
J2VwaWtfcHl0aG9uJywgJy1waCcsICc3LjAnLCAnLXRuJywgJzgnLCAnLW1hJywgJzIwMCcsICctbWV0YWxfYmluZGluZycsICctaW1hZScsICc8aW5maWxlLm1hZT4nLCAnLW9tYWUnLCAnPG91dGZpbGUubWFlPic=

> <r_lp_tautomer_probability>
1

> <r_epik_Ionization_Penalty>
0.0127388

> <r_epik_Ionization_Penalty_Charging>
0.0127387

> <r_epik_Ionization_Penalty_Neutral>
8.26414e-08

> <r_epik_State_Penalty>
0.00987716

> <r_epik_Charging_Adjusted_Penalty>
0.0226159

> <i_epik_Tot_Q>
1

> <i_epik_Tot_abs_Q>
1

> <r_epik_Metal_State_Penalty>
0.00987836

> <b_epik_Metal_Only>
0

> <s_lp_Force_Field>
OPLS_2005

> <r_lp_Energy>
36.9775

> <b_lp_Chiralities_Consistent>
1

> <s_lp_Variant>
AV-unprocessed.smi:1088-4

> <Gold.Version>
5.8.1

> <Gold.Id.Protein>
6NUR|6NUR_protein|mol2

> <Gold.PLP.Fitness>
46.3398

> <Gold.PLP.PLP>
-40.1452

> <Gold.PLP.part.hbond>
-1.8542

> <Gold.PLP.part.metal>
0.0000

> <Gold.PLP.part.buried>
-4.2407

> <Gold.PLP.part.nonpolar>
-35.2058

> <Gold.PLP.part.repulsive>
0.5365

> <Gold.PLP.ligand.clash>
0.0000

> <Gold.PLP.ligand.torsion>
1.3465

> <Gold.PLP.Chemscore.Hbond>
2.9440

> <Gold.PLP.Chemscore.CHOScore>
0.0000

> <Gold.PLP.Chemscore.Metal>
0.0000

> <Gold.Chemscore.Hbonds>
donor molecule, donor type, donor heavy atom, donor atom, acceptor molecule, acceptor atom, score
      L1  H     5    48       P1  7948  2.00
      P1  H  7989  7998       L1    13  0.87

> <Gold.PLP.Chemscore.Internal.Correction>
0.0555

> <Gold.Rescore>
     Score         DG    S(hbond)    S(metal)    S(lipo)     H(rot)  DE(clash)    DE(int)     intcor
     12.00     -13.89       1.89        0.00      74.17       2.57       0.25       1.64       ----

> <Gold.Chemscore.Fitness>
11.9977

> <Gold.Chemscore.DG>
-13.8880

> <Gold.Chemscore.ZeroCoef>
-5.4800

> <Gold.Chemscore.Hbond>
1.8885

> <Gold.Chemscore.Metal>
0.0000

> <Gold.Chemscore.Lipo>
74.1674

> <Gold.Chemscore.Internal_Hbond>
0.0000

> <Gold.Chemscore.DEClash>
0.2519

> <Gold.Chemscore.DEInternal>
1.6384

> <Gold.Chemscore.Rot>
2.5692

> <Gold.Chemscore.Internal.Correction>
   9.000000E+99

> <Gold.Chemscore.Hbonds>
donor molecule, donor type, donor heavy atom, donor atom, acceptor molecule, acceptor atom, score
      L1  H     5    48       P1  7948  0.98
      P1  H  7989  7998       L1    13  0.81

> <Gold.Chemscore.Hbond.Weighted>
-6.3075

> <Gold.Chemscore.Metal.Weighted>
-0.0000

> <Gold.Chemscore.Lipo.Weighted>
-8.6776

> <Gold.Chemscore.Internal_Hbond.Weighted>
0.0000

> <Gold.Chemscore.DEClash.Weighted>
0.2519

> <Gold.Chemscore.DEInternal.Weighted>
1.6384

> <Gold.Chemscore.Rot.Weighted>
6.5772

> <Gold.Chemscore.Internal.Correction.Weighted>
   9.000000E+99

> <Gold.Protein.RotatedTorsions>
[ 6907 6896 6895 6894 ] final  111.76 input  -60.11 | X-H torsion
[ 7974 7965 7964 7962 ] final   49.36 input  175.53 | X-H torsion
[ 8008 7997 7996 7995 ] final   83.10 input   59.86 | X-H torsion
[ 10167 10162 10161 10158 ] final  -70.15 input  -65.29 | X-H torsion
[ 10718 10713 10712 10709 ] final   60.42 input   66.30 | X-H torsion
[ 10763 10752 10751 10750 ] final   62.62 input  -60.55 | X-H torsion
[ 11005 11000 10999 10996 ] final  108.53 input  -57.11 | X-H torsion

> <Gold.Protein.ActiveResidues>
 VAL166  LYS551  ARG553  GLY616  TRP617  ASP618  TYR619  PRO620  LYS621  CYS622 
 ASP623  PHE694  ASN695  SER759  ASP760  ASP761  ALA762  ILE779  LEU786  VAL792 
 PHE793  MET794  SER795  GLU796  ALA797  LYS798  CYS799  TRP800  GLU811  SER814 

> <Gold.Protein.RotatedAtoms>
  152.4952  133.8612  159.7250 H   0  0  0  0  0  0  0  0  0  0  0  0  # atno 6907 bound_to 6896
  150.9123  133.6973  159.2858 H   0  0  0  0  0  0  0  0  0  0  0  0  # atno 6908 bound_to 6896
  151.4379  135.1021  159.9714 H   0  0  0  0  0  0  0  0  0  0  0  0  # atno 6909 bound_to 6896
  146.0116  139.4550  142.9952 H   0  0  0  0  0  0  0  0  0  0  0  0  # atno 7974 bound_to 7965
  155.9194  140.3422  155.6161 H   0  0  0  0  0  0  0  0  0  0  0  0  # atno 8008 bound_to 7997
  155.7292  140.0793  157.2315 H   0  0  0  0  0  0  0  0  0  0  0  0  # atno 8009 bound_to 7997
  154.4067  140.1591  156.2477 H   0  0  0  0  0  0  0  0  0  0  0  0  # atno 8010 bound_to 7997
  140.5375  143.2317  151.7150 H   0  0  0  0  0  0  0  0  0  0  0  0  # atno 10167 bound_to 10162
  157.5751  130.8938  149.9334 H   0  0  0  0  0  0  0  0  0  0  0  0  # atno 10718 bound_to 10713
  152.9989  135.5458  154.6222 H   0  0  0  0  0  0  0  0  0  0  0  0  # atno 10763 bound_to 10752
  154.5518  135.2827  155.1003 H   0  0  0  0  0  0  0  0  0  0  0  0  # atno 10764 bound_to 10752
  154.2240  135.6445  153.5206 H   0  0  0  0  0  0  0  0  0  0  0  0  # atno 10765 bound_to 10752
  139.8846  134.9433  156.5987 H   0  0  0  0  0  0  0  0  0  0  0  0  # atno 11005 bound_to 11000
  145.7333  141.0034  143.1340 LP  0  0  0  0  0  0  0  0  0  0  0  0  # atno 17320 bound_to 7965
  144.6955  139.9011  143.7458 LP  0  0  0  0  0  0  0  0  0  0  0  0  # atno 17321 bound_to 7965
  139.4976  144.4020  152.0171 LP  0  0  0  0  0  0  0  0  0  0  0  0  # atno 17342 bound_to 10162
  140.3126  144.3520  150.6030 LP  0  0  0  0  0  0  0  0  0  0  0  0  # atno 17343 bound_to 10162
  156.0796  130.3674  150.0607 LP  0  0  0  0  0  0  0  0  0  0  0  0  # atno 17370 bound_to 10713
  156.8754  130.9538  151.3605 LP  0  0  0  0  0  0  0  0  0  0  0  0  # atno 17371 bound_to 10713
  140.7900  133.8590  155.8638 LP  0  0  0  0  0  0  0  0  0  0  0  0  # atno 17394 bound_to 11000
  140.9685  134.1562  157.4596 LP  0  0  0  0  0  0  0  0  0  0  0  0  # atno 17395 bound_to 11000

$$$$
