AV-unprocessed.smi:3226|AV-procd|sdf|12316|dock10
  -GOLD-   2272018163D 1   1.00000     0.00000
 Structure written by MMmdl.
 41 43  0  0  0  0  0  0  0  0  2 V2000
  146.8959  142.6107  154.0209 C   0  0  0  0  0  0  0  0  0  0  0  0
  147.1026  141.3767  154.9062 C   0  0  0  0  0  0  0  0  0  0  0  0
  148.3161  140.5889  154.5196 C   0  0  0  0  0  0  0  0  0  0  0  0
  149.5664  141.0361  154.6874 N   0  0  0  0  0  0  0  0  0  0  0  0
  150.3892  140.0209  154.2426 N   0  0  0  0  0  0  0  0  0  0  0  0
  149.5541  139.0569  153.8601 C   0  0  0  0  0  0  0  0  0  0  0  0
  148.2506  139.3441  154.0008 N   0  0  0  0  0  0  0  0  0  0  0  0
  147.1050  138.5109  153.6769 C   0  0  0  0  0  0  0  0  0  0  0  0
  146.6617  138.6678  152.2131 C   0  0  0  0  0  0  0  0  0  0  0  0
  145.3325  138.0687  151.9772 N   0  3  0  0  0  0  0  0  0  0  0  0
  145.1469  136.7489  152.6108 C   0  0  0  0  0  0  0  0  0  0  0  0
  145.3983  135.6084  151.6070 C   0  0  1  0  0  0  0  0  0  0  0  0
  146.0059  134.3209  152.2497 C   0  0  0  0  0  0  0  0  0  0  0  0
  145.0125  133.2133  151.8288 C   0  0  2  0  0  0  0  0  0  0  0  0
  145.0677  133.0754  150.3217 C   0  0  0  0  0  0  0  0  0  0  0  0
  144.5157  134.1737  149.8027 C   0  0  0  0  0  0  0  0  0  0  0  0
  144.0998  135.0588  150.9598 C   0  0  1  0  0  0  0  0  0  0  0  0
  143.6973  133.9825  151.9769 C   0  0  0  0  0  0  0  0  0  0  0  0
  146.0045  143.1611  154.3227 H   0  0  0  0  0  0  0  0  0  0  0  0
  146.7747  142.3283  152.9745 H   0  0  0  0  0  0  0  0  0  0  0  0
  147.7455  143.2906  154.0881 H   0  0  0  0  0  0  0  0  0  0  0  0
  147.1724  141.6736  155.9523 H   0  0  0  0  0  0  0  0  0  0  0  0
  146.2298  140.7266  154.8336 H   0  0  0  0  0  0  0  0  0  0  0  0
  149.9034  138.1155  153.4618 H   0  0  0  0  0  0  0  0  0  0  0  0
  147.3568  137.4710  153.8898 H   0  0  0  0  0  0  0  0  0  0  0  0
  146.2851  138.7710  154.3468 H   0  0  0  0  0  0  0  0  0  0  0  0
  146.6192  139.7284  151.9621 H   0  0  0  0  0  0  0  0  0  0  0  0
  147.3908  138.2115  151.5423 H   0  0  0  0  0  0  0  0  0  0  0  0
  144.6275  138.6983  152.3336 H   0  0  0  0  0  0  0  0  0  0  0  0
  145.8108  136.6645  153.4715 H   0  0  0  0  0  0  0  0  0  0  0  0
  144.1254  136.6847  152.9882 H   0  0  0  0  0  0  0  0  0  0  0  0
  146.0575  135.9833  150.8215 H   0  0  0  0  0  0  0  0  0  0  0  0
  147.0169  134.1206  151.8925 H   0  0  0  0  0  0  0  0  0  0  0  0
  146.0491  134.3971  153.3371 H   0  0  0  0  0  0  0  0  0  0  0  0
  145.0713  132.2740  152.3791 H   0  0  0  0  0  0  0  0  0  0  0  0
  145.5056  132.2414  149.7934 H   0  0  0  0  0  0  0  0  0  0  0  0
  144.4082  134.4304  148.7592 H   0  0  0  0  0  0  0  0  0  0  0  0
  143.3278  135.7891  150.7159 H   0  0  0  0  0  0  0  0  0  0  0  0
  142.8278  133.4024  151.6607 H   0  0  0  0  0  0  0  0  0  0  0  0
  143.5158  134.3585  152.9849 H   0  0  0  0  0  0  0  0  0  0  0  0
  145.1986  137.9644  150.9815 H   0  0  0  0  0  0  0  0  0  0  0  0
  1  2  1  0  0  0  0
  1 19  1  0  0  0  0
  1 20  1  0  0  0  0
  1 21  1  0  0  0  0
  2  3  1  0  0  0  0
  2 22  1  0  0  0  0
  2 23  1  0  0  0  0
  3  7  1  0  0  0  0
  3  4  2  0  0  0  0
  4  5  1  0  0  0  0
  5  6  2  0  0  0  0
  6  7  1  0  0  0  0
  6 24  1  0  0  0  0
  7  8  1  0  0  0  0
  8  9  1  0  0  0  0
  8 25  1  0  0  0  0
  8 26  1  0  0  0  0
  9 10  1  0  0  0  0
  9 27  1  0  0  0  0
  9 28  1  0  0  0  0
 10 11  1  0  0  0  0
 10 29  1  0  0  0  0
 10 41  1  0  0  0  0
 11 12  1  0  0  0  0
 11 30  1  0  0  0  0
 11 31  1  0  0  0  0
 12 17  1  0  0  0  0
 12 13  1  0  0  0  0
 12 32  1  0  0  0  0
 13 14  1  0  0  0  0
 13 33  1  0  0  0  0
 13 34  1  0  0  0  0
 14 18  1  0  0  0  0
 14 15  1  0  0  0  0
 14 35  1  0  0  0  0
 15 16  2  0  0  0  0
 15 36  1  0  0  0  0
 16 17  1  0  0  0  0
 16 37  1  0  0  0  0
 17 18  1  0  0  0  0
 17 38  1  0  0  0  0
 18 39  1  0  0  0  0
 18 40  1  0  0  0  0
M  CHG  1  10   1
M  END
> <s_m_source_file>
AV-unprocessed.smi

> <i_m_source_file_index>
3226

> <i_lp_mmshare_version>
43012

> <i_f3d_flags>
0

> <s_epik_input>
W0NIM11bQ0gyXWMxbm5bY0hdbjFbQ0gyXVtDSDJdW05IXVtDSDJdW0NASF0oW0NIMl1bQ0BASF0yMylbQ0BASF0oW0NIMl0zKVtDSF09W0NIXTI=

> <s_epik_cmdline>
J2VwaWtfcHl0aG9uJywgJy1waCcsICc3LjAnLCAnLXRuJywgJzgnLCAnLW1hJywgJzIwMCcsICctbWV0YWxfYmluZGluZycsICctaW1hZScsICc8aW5maWxlLm1hZT4nLCAnLW9tYWUnLCAnPG91dGZpbGUubWFlPic=

> <r_lp_tautomer_probability>
1

> <r_epik_Ionization_Penalty>
0.00175008

> <r_epik_Ionization_Penalty_Charging>
0.00173932

> <r_epik_Ionization_Penalty_Neutral>
1.07546e-05

> <r_epik_State_Penalty>
-0

> <r_epik_Charging_Adjusted_Penalty>
0.00173932

> <i_epik_Tot_Q>
1

> <i_epik_Tot_abs_Q>
1

> <r_epik_Metal_State_Penalty>
-0

> <b_epik_Metal_Only>
0

> <s_lp_Force_Field>
OPLS_2005

> <r_lp_Energy>
64.6894

> <b_lp_Chiralities_Consistent>
1

> <s_lp_Variant>
AV-unprocessed.smi:3226-4

> <Gold.Version>
5.8.1

> <Gold.Id.Protein>
6NUR|6NUR_protein|mol2

> <Gold.PLP.Fitness>
44.8099

> <Gold.PLP.PLP>
-33.0966

> <Gold.PLP.part.hbond>
-3.8762

> <Gold.PLP.part.metal>
0.0000

> <Gold.PLP.part.buried>
-1.5627

> <Gold.PLP.part.nonpolar>
-29.5051

> <Gold.PLP.part.repulsive>
0.4061

> <Gold.PLP.ligand.clash>
0.0000

> <Gold.PLP.ligand.torsion>
1.2577

> <Gold.PLP.Chemscore.Hbond>
3.7200

> <Gold.PLP.Chemscore.CHOScore>
1.0000

> <Gold.PLP.Chemscore.Metal>
0.0000

> <Gold.Chemscore.Hbonds>
donor molecule, donor type, donor heavy atom, donor atom, acceptor molecule, acceptor atom, score
      L1  H    10    29       P1 10175  2.00
      L1  H    10    41       P1 10171  0.66
      P1  H  7989  7998       L1     5  1.00
      L1  C     6    24       P1  7948  0.81

> <Gold.PLP.Chemscore.Internal.Correction>
0.0688

> <Gold.Rescore>
     Score         DG    S(hbond)    S(metal)    S(lipo)     H(rot)  DE(clash)    DE(int)     intcor
     14.68     -17.07       2.68        0.00      67.59       2.06       1.16       1.24       ----

> <Gold.Chemscore.Fitness>
14.6788

> <Gold.Chemscore.DG>
-17.0742

> <Gold.Chemscore.ZeroCoef>
-5.4800

> <Gold.Chemscore.Hbond>
2.6843

> <Gold.Chemscore.Metal>
0.0000

> <Gold.Chemscore.Lipo>
67.5907

> <Gold.Chemscore.Internal_Hbond>
0.0000

> <Gold.Chemscore.DEClash>
1.1574

> <Gold.Chemscore.DEInternal>
1.2379

> <Gold.Chemscore.Rot>
2.0623

> <Gold.Chemscore.Internal.Correction>
   9.000000E+99

> <Gold.Chemscore.Hbonds>
donor molecule, donor type, donor heavy atom, donor atom, acceptor molecule, acceptor atom, score
      L1  H    10    29       P1 10175  0.94
      L1  H    10    41       P1 10171  0.66
      P1  H  7989  7998       L1     5  0.34

> <Gold.Chemscore.Hbond.Weighted>
-8.9657

> <Gold.Chemscore.Metal.Weighted>
-0.0000

> <Gold.Chemscore.Lipo.Weighted>
-7.9081

> <Gold.Chemscore.Internal_Hbond.Weighted>
0.0000

> <Gold.Chemscore.DEClash.Weighted>
1.1574

> <Gold.Chemscore.DEInternal.Weighted>
1.2379

> <Gold.Chemscore.Rot.Weighted>
5.2796

> <Gold.Chemscore.Internal.Correction.Weighted>
   9.000000E+99

> <Gold.Protein.RotatedTorsions>
[ 6907 6896 6895 6894 ] final   -3.61 input  -60.11 | X-H torsion
[ 7974 7965 7964 7962 ] final   18.41 input  175.53 | X-H torsion
[ 8008 7997 7996 7995 ] final  128.07 input   59.86 | X-H torsion
[ 10167 10162 10161 10158 ] final  117.27 input  -65.29 | X-H torsion
[ 10718 10713 10712 10709 ] final -139.37 input   66.30 | X-H torsion
[ 10763 10752 10751 10750 ] final   37.52 input  -60.55 | X-H torsion
[ 11005 11000 10999 10996 ] final  -15.64 input  -57.11 | X-H torsion

> <Gold.Protein.ActiveResidues>
 VAL166  LYS551  ARG553  GLY616  TRP617  ASP618  TYR619  PRO620  LYS621  CYS622 
 ASP623  PHE694  ASN695  SER759  ASP760  ASP761  ALA762  ILE779  LEU786  VAL792 
 PHE793  MET794  SER795  GLU796  ALA797  LYS798  CYS799  TRP800  GLU811  SER814 

> <Gold.Protein.RotatedAtoms>
  151.5110  135.1065  159.9853 H   0  0  0  0  0  0  0  0  0  0  0  0  # atno 6907 bound_to 6896
  152.4661  133.7923  159.6919 H   0  0  0  0  0  0  0  0  0  0  0  0  # atno 6908 bound_to 6896
  150.8646  133.7529  159.3006 H   0  0  0  0  0  0  0  0  0  0  0  0  # atno 6909 bound_to 6896
  146.2186  139.8462  142.8631 H   0  0  0  0  0  0  0  0  0  0  0  0  # atno 7974 bound_to 7965
  156.2906  140.2653  156.2376 H   0  0  0  0  0  0  0  0  0  0  0  0  # atno 8008 bound_to 7997
  155.0009  140.0388  157.2378 H   0  0  0  0  0  0  0  0  0  0  0  0  # atno 8009 bound_to 7997
  154.7602  140.2759  155.6225 H   0  0  0  0  0  0  0  0  0  0  0  0  # atno 8010 bound_to 7997
  139.6190  144.7097  151.2676 H   0  0  0  0  0  0  0  0  0  0  0  0  # atno 10167 bound_to 10162
  156.3099  130.7476  151.1549 H   0  0  0  0  0  0  0  0  0  0  0  0  # atno 10718 bound_to 10713
  153.0034  135.6275  154.2158 H   0  0  0  0  0  0  0  0  0  0  0  0  # atno 10763 bound_to 10752
  154.1901  135.2809  155.3026 H   0  0  0  0  0  0  0  0  0  0  0  0  # atno 10764 bound_to 10752
  154.5766  135.5660  153.7205 H   0  0  0  0  0  0  0  0  0  0  0  0  # atno 10765 bound_to 10752
  140.7987  133.8231  155.9449 H   0  0  0  0  0  0  0  0  0  0  0  0  # atno 11005 bound_to 11000
  145.2848  141.0150  143.3696 LP  0  0  0  0  0  0  0  0  0  0  0  0  # atno 17320 bound_to 7965
  144.9122  139.4515  143.6581 LP  0  0  0  0  0  0  0  0  0  0  0  0  # atno 17321 bound_to 7965
  140.7369  143.6692  150.8096 LP  0  0  0  0  0  0  0  0  0  0  0  0  # atno 17342 bound_to 10162
  140.0300  143.5454  152.2764 LP  0  0  0  0  0  0  0  0  0  0  0  0  # atno 17343 bound_to 10162
  157.7388  131.0536  150.5269 LP  0  0  0  0  0  0  0  0  0  0  0  0  # atno 17370 bound_to 10713
  156.5407  130.4207  149.6155 LP  0  0  0  0  0  0  0  0  0  0  0  0  # atno 17371 bound_to 10713
  140.9317  134.2014  157.4859 LP  0  0  0  0  0  0  0  0  0  0  0  0  # atno 17394 bound_to 11000
  139.8724  134.9835  156.5202 LP  0  0  0  0  0  0  0  0  0  0  0  0  # atno 17395 bound_to 11000

$$$$
