AV-unprocessed.smi:1158|AV-procd|sdf|4912|dock8
  -GOLD-   22720 3493D 1   1.00000     0.00000
 Structure written by MMmdl.
 43 44  0  0  0  0  0  0  0  0  2 V2000
  146.0338  133.0599  151.6846 C   0  0  0  0  0  0  0  0  0  0  0  0
  147.0892  133.5365  152.5125 O   0  0  0  0  0  0  0  0  0  0  0  0
  147.8163  132.6201  153.2483 C   0  0  0  0  0  0  0  0  0  0  0  0
  147.4889  131.3071  153.1472 N   0  0  0  0  0  0  0  0  0  0  0  0
  148.1936  130.4115  153.8685 C   0  0  0  0  0  0  0  0  0  0  0  0
  149.2473  130.7730  154.7274 C   0  0  0  0  0  0  0  0  0  0  0  0
  149.5891  132.1337  154.8339 C   0  0  0  0  0  0  0  0  0  0  0  0
  148.8693  133.0854  154.0708 C   0  0  0  0  0  0  0  0  0  0  0  0
  149.1191  134.4858  154.1115 N   0  0  0  0  0  0  0  0  0  0  0  0
  149.6610  135.2166  155.1006 C   0  0  0  0  0  0  0  0  0  0  0  0
  150.0393  134.7806  156.1873 O   0  0  0  0  0  0  0  0  0  0  0  0
  149.7581  136.5074  154.7506 N   0  0  0  0  0  0  0  0  0  0  0  0
  150.3256  137.5632  155.5845 C   0  0  2  0  0  0  0  0  0  0  0  0
  149.2186  138.4509  156.1793 C   0  0  0  0  0  0  0  0  0  0  0  0
  149.8171  139.6188  156.9801 C   0  0  0  0  0  0  0  0  0  0  0  0
  150.7378  140.4351  156.1456 N   0  3  1  0  0  0  0  0  0  0  0  0
  151.2198  141.6407  156.8698 C   0  0  0  0  0  0  0  0  0  0  0  0
  151.5646  141.3669  158.3442 C   0  0  0  0  0  0  0  0  0  0  0  0
  152.5492  140.4716  158.4090 F   0  0  0  0  0  0  0  0  0  0  0  0
  151.9569  142.4710  158.9782 F   0  0  0  0  0  0  0  0  0  0  0  0
  151.8347  139.6054  155.5786 C   0  0  0  0  0  0  0  0  0  0  0  0
  151.2814  138.4315  154.7523 C   0  0  0  0  0  0  0  0  0  0  0  0
  145.5607  133.9040  151.1833 H   0  0  0  0  0  0  0  0  0  0  0  0
  145.2665  132.5500  152.2689 H   0  0  0  0  0  0  0  0  0  0  0  0
  146.4054  132.3838  150.9134 H   0  0  0  0  0  0  0  0  0  0  0  0
  147.9049  129.3763  153.7624 H   0  0  0  0  0  0  0  0  0  0  0  0
  149.7789  130.0237  155.2951 H   0  0  0  0  0  0  0  0  0  0  0  0
  150.3830  132.4167  155.5069 H   0  0  0  0  0  0  0  0  0  0  0  0
  148.9261  134.9781  153.2514 H   0  0  0  0  0  0  0  0  0  0  0  0
  149.4260  136.7762  153.8357 H   0  0  0  0  0  0  0  0  0  0  0  0
  150.8957  137.1087  156.3973 H   0  0  0  0  0  0  0  0  0  0  0  0
  148.5868  138.8435  155.3810 H   0  0  0  0  0  0  0  0  0  0  0  0
  148.5679  137.8615  156.8265 H   0  0  0  0  0  0  0  0  0  0  0  0
  149.0047  140.2429  157.3545 H   0  0  0  0  0  0  0  0  0  0  0  0
  150.3535  139.2411  157.8522 H   0  0  0  0  0  0  0  0  0  0  0  0
  152.1346  141.9875  156.3866 H   0  0  0  0  0  0  0  0  0  0  0  0
  150.5015  142.4569  156.7789 H   0  0  0  0  0  0  0  0  0  0  0  0
  150.7183  140.9482  158.8899 H   0  0  0  0  0  0  0  0  0  0  0  0
  152.4724  140.2061  154.9331 H   0  0  0  0  0  0  0  0  0  0  0  0
  152.4651  139.2311  156.3869 H   0  0  0  0  0  0  0  0  0  0  0  0
  152.1070  137.8246  154.3782 H   0  0  0  0  0  0  0  0  0  0  0  0
  150.7617  138.8205  153.8753 H   0  0  0  0  0  0  0  0  0  0  0  0
  150.1880  140.7698  155.3673 H   0  0  0  0  0  0  0  0  0  0  0  0
  1  2  1  0  0  0  0
  1 23  1  0  0  0  0
  1 24  1  0  0  0  0
  1 25  1  0  0  0  0
  2  3  1  0  0  0  0
  3  8  1  0  0  0  0
  3  4  2  0  0  0  0
  4  5  1  0  0  0  0
  5  6  2  0  0  0  0
  5 26  1  0  0  0  0
  6  7  1  0  0  0  0
  6 27  1  0  0  0  0
  7  8  2  0  0  0  0
  7 28  1  0  0  0  0
  8  9  1  0  0  0  0
  9 10  1  0  0  0  0
  9 29  1  0  0  0  0
 10 11  2  0  0  0  0
 10 12  1  0  0  0  0
 12 13  1  0  0  0  0
 12 30  1  0  0  0  0
 13 22  1  0  0  0  0
 13 14  1  0  0  0  0
 13 31  1  0  0  0  0
 14 15  1  0  0  0  0
 14 32  1  0  0  0  0
 14 33  1  0  0  0  0
 15 16  1  0  0  0  0
 15 34  1  0  0  0  0
 15 35  1  0  0  0  0
 16 17  1  0  0  0  0
 16 21  1  0  0  0  0
 16 43  1  0  0  0  0
 17 18  1  0  0  0  0
 17 36  1  0  0  0  0
 17 37  1  0  0  0  0
 18 19  1  0  0  0  0
 18 20  1  0  0  0  0
 18 38  1  0  0  0  0
 21 22  1  0  0  0  0
 21 39  1  0  0  0  0
 21 40  1  0  0  0  0
 22 41  1  0  0  0  0
 22 42  1  0  0  0  0
M  CHG  1  16   1
M  END
> <s_m_source_file>
AV-unprocessed.smi

> <i_m_source_file_index>
1158

> <i_lp_mmshare_version>
43012

> <i_f3d_flags>
0

> <s_epik_input>
W0NIM11PYzFuW2NIXVtjSF1bY0hdYzFbTkhdQyg9TylbTkhdW0NIXTJbQ0gyXVtDSDJdTihbQ0gyXVtDSF0oRilGKVtDSDJdW0NIMl0y

> <s_epik_cmdline>
J2VwaWtfcHl0aG9uJywgJy1waCcsICc3LjAnLCAnLXRuJywgJzgnLCAnLW1hJywgJzIwMCcsICctbWV0YWxfYmluZGluZycsICctaW1hZScsICc8aW5maWxlLm1hZT4nLCAnLW9tYWUnLCAnPG91dGZpbGUubWFlPic=

> <r_lp_tautomer_probability>
1

> <r_epik_Ionization_Penalty>
0.802109

> <r_epik_Ionization_Penalty_Charging>
0.802031

> <r_epik_Ionization_Penalty_Neutral>
7.83352e-05

> <r_epik_State_Penalty>
0.833408

> <r_epik_Charging_Adjusted_Penalty>
1.63544

> <i_epik_Tot_Q>
1

> <i_epik_Tot_abs_Q>
1

> <r_epik_Metal_State_Penalty>
0.833416

> <b_epik_Metal_Only>
0

> <s_lp_Force_Field>
OPLS_2005

> <r_lp_Energy>
21.1994

> <b_lp_Chiralities_Consistent>
1

> <s_lp_Variant>
AV-unprocessed.smi:1158-2

> <Gold.Version>
5.8.1

> <Gold.Id.Protein>
6NUR|6NUR_protein|mol2

> <Gold.PLP.Fitness>
39.3354

> <Gold.PLP.PLP>
-34.8830

> <Gold.PLP.part.hbond>
-2.0000

> <Gold.PLP.part.metal>
0.0000

> <Gold.PLP.part.buried>
-5.6655

> <Gold.PLP.part.nonpolar>
-28.6771

> <Gold.PLP.part.repulsive>
1.2028

> <Gold.PLP.ligand.clash>
0.0000

> <Gold.PLP.ligand.torsion>
0.5614

> <Gold.PLP.Chemscore.Hbond>
1.8440

> <Gold.PLP.Chemscore.CHOScore>
0.0000

> <Gold.PLP.Chemscore.Metal>
0.0000

> <Gold.Chemscore.Hbonds>
donor molecule, donor type, donor heavy atom, donor atom, acceptor molecule, acceptor atom, score
      L1  H     9    29       P1  7948  1.00
      L1  H    12    30       P1  7948  0.86

> <Gold.PLP.Chemscore.Internal.Correction>
0.0432

> <Gold.Rescore>
     Score         DG    S(hbond)    S(metal)    S(lipo)     H(rot)  DE(clash)    DE(int)     intcor
     12.14     -12.96       1.31        0.00      61.00       1.58       0.00       0.82       ----

> <Gold.Chemscore.Fitness>
12.1408

> <Gold.Chemscore.DG>
-12.9643

> <Gold.Chemscore.ZeroCoef>
-5.4800

> <Gold.Chemscore.Hbond>
1.3127

> <Gold.Chemscore.Metal>
0.0000

> <Gold.Chemscore.Lipo>
60.9984

> <Gold.Chemscore.Internal_Hbond>
0.0000

> <Gold.Chemscore.DEClash>
0.0046

> <Gold.Chemscore.DEInternal>
0.8189

> <Gold.Chemscore.Rot>
1.5770

> <Gold.Chemscore.Internal.Correction>
   9.000000E+99

> <Gold.Chemscore.Hbonds>
donor molecule, donor type, donor heavy atom, donor atom, acceptor molecule, acceptor atom, score
      L1  H     9    29       P1  7948  0.30
      L1  H    12    30       P1  7948  0.71

> <Gold.Chemscore.Hbond.Weighted>
-4.3846

> <Gold.Chemscore.Metal.Weighted>
-0.0000

> <Gold.Chemscore.Lipo.Weighted>
-7.1368

> <Gold.Chemscore.Internal_Hbond.Weighted>
0.0000

> <Gold.Chemscore.DEClash.Weighted>
0.0046

> <Gold.Chemscore.DEInternal.Weighted>
0.8189

> <Gold.Chemscore.Rot.Weighted>
4.0371

> <Gold.Chemscore.Internal.Correction.Weighted>
   9.000000E+99

> <Gold.Protein.RotatedTorsions>
[ 6907 6896 6895 6894 ] final  -72.49 input  -60.11 | X-H torsion
[ 7974 7965 7964 7962 ] final -162.04 input  175.53 | X-H torsion
[ 8008 7997 7996 7995 ] final  134.41 input   59.86 | X-H torsion
[ 10167 10162 10161 10158 ] final   27.74 input  -65.29 | X-H torsion
[ 10718 10713 10712 10709 ] final -163.28 input   66.30 | X-H torsion
[ 10763 10752 10751 10750 ] final  104.26 input  -60.55 | X-H torsion
[ 11005 11000 10999 10996 ] final  143.01 input  -57.11 | X-H torsion

> <Gold.Protein.ActiveResidues>
 VAL166  LYS551  ARG553  GLY616  TRP617  ASP618  TYR619  PRO620  LYS621  CYS622 
 ASP623  PHE694  ASN695  SER759  ASP760  ASP761  ALA762  ILE779  LEU786  VAL792 
 PHE793  MET794  SER795  GLU796  ALA797  LYS798  CYS799  TRP800  GLU811  SER814 

> <Gold.Protein.RotatedAtoms>
  150.7168  134.5155  159.5627 H   0  0  0  0  0  0  0  0  0  0  0  0  # atno 6907 bound_to 6896
  152.2722  134.7917  160.0421 H   0  0  0  0  0  0  0  0  0  0  0  0  # atno 6908 bound_to 6896
  151.8593  133.3419  159.3735 H   0  0  0  0  0  0  0  0  0  0  0  0  # atno 6909 bound_to 6896
  144.7370  140.3310  143.6153 H   0  0  0  0  0  0  0  0  0  0  0  0  # atno 7974 bound_to 7965
  156.2999  140.2497  156.3412 H   0  0  0  0  0  0  0  0  0  0  0  0  # atno 8008 bound_to 7997
  154.9053  140.0405  157.1935 H   0  0  0  0  0  0  0  0  0  0  0  0  # atno 8009 bound_to 7997
  154.8460  140.2898  155.5633 H   0  0  0  0  0  0  0  0  0  0  0  0  # atno 8010 bound_to 7997
  140.4912  144.0464  150.6298 H   0  0  0  0  0  0  0  0  0  0  0  0  # atno 10167 bound_to 10162
  156.6224  130.8896  151.2960 H   0  0  0  0  0  0  0  0  0  0  0  0  # atno 10718 bound_to 10713
  153.3635  135.3949  155.1736 H   0  0  0  0  0  0  0  0  0  0  0  0  # atno 10763 bound_to 10752
  154.8683  135.3685  154.5069 H   0  0  0  0  0  0  0  0  0  0  0  0  # atno 10764 bound_to 10752
  153.5530  135.7082  153.5643 H   0  0  0  0  0  0  0  0  0  0  0  0  # atno 10765 bound_to 10752
  140.0520  134.9250  157.1034 H   0  0  0  0  0  0  0  0  0  0  0  0  # atno 11005 bound_to 11000
  145.7472  139.1782  143.2342 LP  0  0  0  0  0  0  0  0  0  0  0  0  # atno 17320 bound_to 7965
  146.1089  140.7453  142.9513 LP  0  0  0  0  0  0  0  0  0  0  0  0  # atno 17321 bound_to 7965
  140.3733  143.2842  152.0253 LP  0  0  0  0  0  0  0  0  0  0  0  0  # atno 17342 bound_to 10162
  139.4852  144.6212  151.7251 LP  0  0  0  0  0  0  0  0  0  0  0  0  # atno 17343 bound_to 10162
  157.7224  130.9576  150.1491 LP  0  0  0  0  0  0  0  0  0  0  0  0  # atno 17370 bound_to 10713
  156.2300  130.3681  149.8455 LP  0  0  0  0  0  0  0  0  0  0  0  0  # atno 17371 bound_to 10713
  140.3902  134.2193  155.7166 LP  0  0  0  0  0  0  0  0  0  0  0  0  # atno 17394 bound_to 11000
  141.1935  133.8150  157.0797 LP  0  0  0  0  0  0  0  0  0  0  0  0  # atno 17395 bound_to 11000

$$$$
