AV-unprocessed.smi:1230|AV-procd|sdf|5153|dock7
  -GOLD-   22720 4223D 1   1.00000     0.00000
 Structure written by MMmdl.
 38 39  0  0  0  0  0  0  0  0  2 V2000
  153.6176  141.7099  160.8042 C   0  0  0  0  0  0  0  0  0  0  0  0
  152.5953  142.5079  159.9802 C   0  0  1  0  0  0  0  0  0  0  0  0
  153.2765  143.5748  159.0997 C   0  0  0  0  0  0  0  0  0  0  0  0
  152.2439  144.4001  158.3152 C   0  0  0  0  0  0  0  0  0  0  0  0
  151.3320  143.4968  157.4714 C   0  0  0  0  0  0  0  0  0  0  0  0
  150.6499  142.4256  158.3392 C   0  0  0  0  0  0  0  0  0  0  0  0
  151.6719  141.5964  159.1385 C   0  0  1  0  0  0  0  0  0  0  0  0
  152.4450  140.8431  158.2104 O   0  0  0  0  0  0  0  0  0  0  0  0
  151.9977  139.5094  158.0284 C   0  0  0  0  0  0  0  0  0  0  0  0
  151.0616  139.4666  156.8132 C   0  0  0  0  0  0  0  0  0  0  0  0
  151.0014  138.1186  156.2343 N   0  0  0  0  0  0  0  0  0  0  0  0
  150.4878  137.0884  157.0402 C   0  0  0  0  0  0  0  0  0  0  0  0
  150.4030  135.8202  156.5960 C   0  0  0  0  0  0  0  0  0  0  0  0
  149.8899  134.7557  157.3941 C   0  0  0  0  0  0  0  0  0  0  0  0
  149.5026  133.8869  158.0543 N   0  0  0  0  0  0  0  0  0  0  0  0
  150.8610  135.5209  155.2412 C   0  0  0  0  0  0  0  0  0  0  0  0
  150.7901  134.3718  154.8072 O   0  0  0  0  0  0  0  0  0  0  0  0
  151.3592  136.5584  154.5060 N   0  5  0  0  0  0  0  0  0  0  0  0
  151.4453  137.8439  154.9709 C   0  0  0  0  0  0  0  0  0  0  0  0
  151.9108  138.7594  154.2917 O   0  0  0  0  0  0  0  0  0  0  0  0
  154.3226  141.1810  160.1621 H   0  0  0  0  0  0  0  0  0  0  0  0
  153.1230  140.9716  161.4357 H   0  0  0  0  0  0  0  0  0  0  0  0
  154.1941  142.3664  161.4562 H   0  0  0  0  0  0  0  0  0  0  0  0
  151.9611  143.0349  160.6947 H   0  0  0  0  0  0  0  0  0  0  0  0
  153.8781  144.2404  159.7196 H   0  0  0  0  0  0  0  0  0  0  0  0
  153.9667  143.0963  158.4036 H   0  0  0  0  0  0  0  0  0  0  0  0
  151.6385  144.9834  159.0102 H   0  0  0  0  0  0  0  0  0  0  0  0
  152.7536  145.1180  157.6721 H   0  0  0  0  0  0  0  0  0  0  0  0
  150.5776  144.0993  156.9649 H   0  0  0  0  0  0  0  0  0  0  0  0
  151.9187  143.0166  156.6874 H   0  0  0  0  0  0  0  0  0  0  0  0
  149.9599  142.9101  159.0310 H   0  0  0  0  0  0  0  0  0  0  0  0
  150.0453  141.7682  157.7137 H   0  0  0  0  0  0  0  0  0  0  0  0
  151.1171  140.9371  159.8096 H   0  0  0  0  0  0  0  0  0  0  0  0
  152.8492  138.8453  157.8742 H   0  0  0  0  0  0  0  0  0  0  0  0
  151.4718  139.1710  158.9226 H   0  0  0  0  0  0  0  0  0  0  0  0
  150.0638  139.7928  157.1095 H   0  0  0  0  0  0  0  0  0  0  0  0
  151.3880  140.1920  156.0659 H   0  0  0  0  0  0  0  0  0  0  0  0
  150.1775  137.3898  158.0302 H   0  0  0  0  0  0  0  0  0  0  0  0
  1  2  1  0  0  0  0
  1 21  1  0  0  0  0
  1 22  1  0  0  0  0
  1 23  1  0  0  0  0
  2  7  1  0  0  0  0
  2  3  1  0  0  0  0
  2 24  1  0  0  0  0
  3  4  1  0  0  0  0
  3 25  1  0  0  0  0
  3 26  1  0  0  0  0
  4  5  1  0  0  0  0
  4 27  1  0  0  0  0
  4 28  1  0  0  0  0
  5  6  1  0  0  0  0
  5 29  1  0  0  0  0
  5 30  1  0  0  0  0
  6  7  1  0  0  0  0
  6 31  1  0  0  0  0
  6 32  1  0  0  0  0
  7  8  1  0  0  0  0
  7 33  1  0  0  0  0
  8  9  1  0  0  0  0
  9 10  1  0  0  0  0
  9 34  1  0  0  0  0
  9 35  1  0  0  0  0
 10 11  1  0  0  0  0
 10 36  1  0  0  0  0
 10 37  1  0  0  0  0
 11 19  1  0  0  0  0
 11 12  1  0  0  0  0
 12 13  2  0  0  0  0
 12 38  1  0  0  0  0
 13 14  1  0  0  0  0
 13 16  1  0  0  0  0
 14 15  3  0  0  0  0
 16 17  2  0  0  0  0
 16 18  1  0  0  0  0
 18 19  1  0  0  0  0
 19 20  2  0  0  0  0
M  CHG  1  18  -1
M  END
> <s_m_source_file>
AV-unprocessed.smi

> <i_m_source_file_index>
1230

> <i_lp_mmshare_version>
43012

> <i_f3d_flags>
0

> <s_epik_input>
W0NIM11bQ0BASF0xW0NIMl1bQ0gyXVtDSDJdW0NIMl1bQ0BIXTFPW0NIMl1bQ0gyXW4yW2NIXWMoQyNOKWMoPU8pW25IXWMyPU8=

> <s_epik_cmdline>
J2VwaWtfcHl0aG9uJywgJy1waCcsICc3LjAnLCAnLXRuJywgJzgnLCAnLW1hJywgJzIwMCcsICctbWV0YWxfYmluZGluZycsICctaW1hZScsICc8aW5maWxlLm1hZT4nLCAnLW9tYWUnLCAnPG91dGZpbGUubWFlPic=

> <r_epik_Ionization_Penalty>
0.400014

> <r_epik_Ionization_Penalty_Charging>
4.81474e-10

> <r_epik_Ionization_Penalty_Neutral>
0.400014

> <r_epik_State_Penalty>
0.399305

> <r_epik_Charging_Adjusted_Penalty>
0.399305

> <i_epik_Tot_Q>
-1

> <i_epik_Tot_abs_Q>
1

> <r_epik_Metal_State_Penalty>
0.00056968

> <b_epik_Metal_Only>
0

> <s_lp_Force_Field>
OPLS_2005

> <r_lp_Energy>
24.4713

> <b_lp_Chiralities_Consistent>
1

> <s_lp_Variant>
AV-unprocessed.smi:1230-2

> <Gold.Version>
5.8.1

> <Gold.Id.Protein>
6NUR|6NUR_protein|mol2

> <Gold.PLP.Fitness>
39.5905

> <Gold.PLP.PLP>
-32.4272

> <Gold.PLP.part.hbond>
-2.4964

> <Gold.PLP.part.metal>
0.0000

> <Gold.PLP.part.buried>
-2.9296

> <Gold.PLP.part.nonpolar>
-27.5238

> <Gold.PLP.part.repulsive>
0.4176

> <Gold.PLP.ligand.clash>
0.0000

> <Gold.PLP.ligand.torsion>
0.8876

> <Gold.PLP.Chemscore.Hbond>
2.9782

> <Gold.PLP.Chemscore.CHOScore>
0.0000

> <Gold.PLP.Chemscore.Metal>
0.0000

> <Gold.Chemscore.Hbonds>
donor molecule, donor type, donor heavy atom, donor atom, acceptor molecule, acceptor atom, score
      P1  H  6896  6908       L1    15  1.00
      P1  H  7989  7998       L1    20  0.39
      P1  H 10752 10765       L1    18  1.30

> <Gold.PLP.Chemscore.Internal.Correction>
0.0038

> <Gold.Rescore>
     Score         DG    S(hbond)    S(metal)    S(lipo)     H(rot)  DE(clash)    DE(int)     intcor
     16.91     -17.72       1.91        0.00      91.76       1.90       0.09       0.73       ----

> <Gold.Chemscore.Fitness>
16.9101

> <Gold.Chemscore.DG>
-17.7223

> <Gold.Chemscore.ZeroCoef>
-5.4800

> <Gold.Chemscore.Hbond>
1.9061

> <Gold.Chemscore.Metal>
0.0000

> <Gold.Chemscore.Lipo>
91.7578

> <Gold.Chemscore.Internal_Hbond>
0.0000

> <Gold.Chemscore.DEClash>
0.0854

> <Gold.Chemscore.DEInternal>
0.7268

> <Gold.Chemscore.Rot>
1.8984

> <Gold.Chemscore.Internal.Correction>
   9.000000E+99

> <Gold.Chemscore.Hbonds>
donor molecule, donor type, donor heavy atom, donor atom, acceptor molecule, acceptor atom, score
      P1  H  6896  6908       L1    15  0.30
      P1  H  7989  7998       L1    20  0.39
      P1  H 10752 10765       L1    18  0.05

> <Gold.Chemscore.Hbond.Weighted>
-6.3665

> <Gold.Chemscore.Metal.Weighted>
-0.0000

> <Gold.Chemscore.Lipo.Weighted>
-10.7357

> <Gold.Chemscore.Internal_Hbond.Weighted>
0.0000

> <Gold.Chemscore.DEClash.Weighted>
0.0854

> <Gold.Chemscore.DEInternal.Weighted>
0.7268

> <Gold.Chemscore.Rot.Weighted>
4.8598

> <Gold.Chemscore.Internal.Correction.Weighted>
   9.000000E+99

> <Gold.Protein.RotatedTorsions>
[ 6907 6896 6895 6894 ] final  119.45 input  -60.11 | X-H torsion
[ 7974 7965 7964 7962 ] final  107.25 input  175.53 | X-H torsion
[ 8008 7997 7996 7995 ] final -112.44 input   59.86 | X-H torsion
[ 10167 10162 10161 10158 ] final -155.76 input  -65.29 | X-H torsion
[ 10718 10713 10712 10709 ] final -149.92 input   66.30 | X-H torsion
[ 10763 10752 10751 10750 ] final  153.19 input  -60.55 | X-H torsion
[ 11005 11000 10999 10996 ] final  110.15 input  -57.11 | X-H torsion

> <Gold.Protein.ActiveResidues>
 VAL166  LYS551  ARG553  GLY616  TRP617  ASP618  TYR619  PRO620  LYS621  CYS622 
 ASP623  PHE694  ASN695  SER759  ASP760  ASP761  ALA762  ILE779  LEU786  VAL792 
 PHE793  MET794  SER795  GLU796  ALA797  LYS798  CYS799  TRP800  GLU811  SER814 

> <Gold.Protein.RotatedAtoms>
  152.4470  133.7556  159.6717 H   0  0  0  0  0  0  0  0  0  0  0  0  # atno 6907 bound_to 6896
  150.8373  133.7983  159.3081 H   0  0  0  0  0  0  0  0  0  0  0  0  # atno 6908 bound_to 6896
  151.5619  135.1068  160.0026 H   0  0  0  0  0  0  0  0  0  0  0  0  # atno 6909 bound_to 6896
  145.2960  139.2585  143.3839 H   0  0  0  0  0  0  0  0  0  0  0  0  # atno 7974 bound_to 7965
  155.0052  140.0394  157.2377 H   0  0  0  0  0  0  0  0  0  0  0  0  # atno 8008 bound_to 7997
  154.7508  140.2766  155.6271 H   0  0  0  0  0  0  0  0  0  0  0  0  # atno 8009 bound_to 7997
  156.2884  140.2647  156.2261 H   0  0  0  0  0  0  0  0  0  0  0  0  # atno 8010 bound_to 7997
  139.6905  143.9428  152.2382 H   0  0  0  0  0  0  0  0  0  0  0  0  # atno 10167 bound_to 10162
  156.4393  130.8114  151.2343 H   0  0  0  0  0  0  0  0  0  0  0  0  # atno 10718 bound_to 10713
  154.1322  135.2826  155.3182 H   0  0  0  0  0  0  0  0  0  0  0  0  # atno 10763 bound_to 10752
  154.6347  135.5423  153.7724 H   0  0  0  0  0  0  0  0  0  0  0  0  # atno 10764 bound_to 10752
  153.0277  135.6471  154.1472 H   0  0  0  0  0  0  0  0  0  0  0  0  # atno 10765 bound_to 10752
  139.8876  134.9476  156.6234 H   0  0  0  0  0  0  0  0  0  0  0  0  # atno 11005 bound_to 11000
  146.3168  140.3463  142.8652 LP  0  0  0  0  0  0  0  0  0  0  0  0  # atno 17320 bound_to 7965
  144.9133  140.7783  143.5794 LP  0  0  0  0  0  0  0  0  0  0  0  0  # atno 17321 bound_to 7965
  139.9243  144.6780  150.8429 LP  0  0  0  0  0  0  0  0  0  0  0  0  # atno 17342 bound_to 10162
  140.7681  143.3353  151.2323 LP  0  0  0  0  0  0  0  0  0  0  0  0  # atno 17343 bound_to 10162
  157.7506  131.0173  150.3580 LP  0  0  0  0  0  0  0  0  0  0  0  0  # atno 17370 bound_to 10713
  156.3934  130.3902  149.7013 LP  0  0  0  0  0  0  0  0  0  0  0  0  # atno 17371 bound_to 10713
  140.7721  133.8729  155.8500 LP  0  0  0  0  0  0  0  0  0  0  0  0  # atno 17394 bound_to 11000
  140.9833  134.1377  157.4475 LP  0  0  0  0  0  0  0  0  0  0  0  0  # atno 17395 bound_to 11000

$$$$
