AV-unprocessed.smi:124|AV-procd|sdf|1147|dock9
  -GOLD-   2262018283D 1   1.00000     0.00000
 Structure written by MMmdl.
 52 56  0  0  0  0  0  0  0  0  1 V2000
  153.9818  139.4824  158.5901 O   0  0  0  0  0  0  0  0  0  0  0  0
  152.9142  139.9234  159.0194 C   0  0  0  0  0  0  0  0  0  0  0  0
  152.2397  139.2151  160.2099 C   0  0  0  0  0  0  0  0  0  0  0  0
  153.1796  138.8027  161.2477 N   0  0  0  0  0  0  0  0  0  0  0  0
  153.9003  139.8174  161.9256 C   0  0  0  0  0  0  0  0  0  0  0  0
  153.7514  141.0130  161.6660 O   0  0  0  0  0  0  0  0  0  0  0  0
  154.8375  139.3255  162.9280 C   0  0  0  0  0  0  0  0  0  0  0  0
  155.6069  140.1967  163.6024 F   0  0  0  0  0  0  0  0  0  0  0  0
  154.9582  138.0046  163.1816 C   0  0  0  0  0  0  0  0  0  0  0  0
  154.2055  137.0340  162.5400 N   0  0  0  0  0  0  0  0  0  0  0  0
  154.4474  135.5581  162.7814 C   0  0  2  0  0  0  0  0  0  0  0  0
  153.9883  135.0644  164.1648 C   0  0  0  0  0  0  0  0  0  0  0  0
  155.3029  134.8763  164.8969 C   0  0  0  0  0  0  0  0  0  0  0  0
  156.2440  134.5117  163.7555 C   0  0  0  0  0  0  0  0  0  0  0  0
  155.8214  135.3353  162.6768 O   0  0  0  0  0  0  0  0  0  0  0  0
  153.3322  137.4164  161.4955 C   0  0  0  0  0  0  0  0  0  0  0  0
  152.7314  136.5711  160.8278 O   0  0  0  0  0  0  0  0  0  0  0  0
  152.2232  141.1044  158.4840 C   0  0  0  0  0  0  0  0  0  0  0  0
  151.6125  141.1293  157.2443 C   0  0  0  0  0  0  0  0  0  0  0  0
  151.4412  140.1128  156.2125 C   0  0  0  0  0  0  0  0  0  0  0  0
  152.3447  139.0327  156.1188 C   0  0  0  0  0  0  0  0  0  0  0  0
  152.1858  138.0531  155.1194 C   0  0  0  0  0  0  0  0  0  0  0  0
  151.1222  138.1489  154.2022 C   0  0  0  0  0  0  0  0  0  0  0  0
  150.2188  139.2253  154.2859 C   0  0  0  0  0  0  0  0  0  0  0  0
  150.3796  140.2033  155.2864 C   0  0  0  0  0  0  0  0  0  0  0  0
  151.0894  142.3870  157.0150 N   0  0  0  0  0  0  0  0  0  0  0  0
  151.3119  143.2149  158.0900 C   0  0  0  0  0  0  0  0  0  0  0  0
  150.9622  144.5584  158.3184 C   0  0  0  0  0  0  0  0  0  0  0  0
  151.3168  145.1702  159.5321 C   0  0  0  0  0  0  0  0  0  0  0  0
  152.0161  144.4313  160.5023 C   0  0  0  0  0  0  0  0  0  0  0  0
  152.3629  143.0866  160.2618 C   0  0  0  0  0  0  0  0  0  0  0  0
  152.0254  142.4303  159.0476 C   0  0  0  0  0  0  0  0  0  0  0  0
  150.6015  142.6321  156.1654 H   0  0  0  0  0  0  0  0  0  0  0  0
  151.4993  139.8633  160.6801 H   0  0  0  0  0  0  0  0  0  0  0  0
  151.6976  138.3287  159.8782 H   0  0  0  0  0  0  0  0  0  0  0  0
  155.6893  137.7117  163.9179 H   0  0  0  0  0  0  0  0  0  0  0  0
  153.9080  135.0263  161.9962 H   0  0  0  0  0  0  0  0  0  0  0  0
  153.2826  135.7360  164.6536 H   0  0  0  0  0  0  0  0  0  0  0  0
  153.4969  134.0994  164.0338 H   0  0  0  0  0  0  0  0  0  0  0  0
  155.6230  135.8080  165.3635 H   0  0  0  0  0  0  0  0  0  0  0  0
  155.2547  134.1086  165.6693 H   0  0  0  0  0  0  0  0  0  0  0  0
  157.2923  134.6808  164.0023 H   0  0  0  0  0  0  0  0  0  0  0  0
  156.1214  133.4641  163.4764 H   0  0  0  0  0  0  0  0  0  0  0  0
  153.1632  138.9518  156.8191 H   0  0  0  0  0  0  0  0  0  0  0  0
  152.8801  137.2282  155.0568 H   0  0  0  0  0  0  0  0  0  0  0  0
  150.9996  137.3981  153.4353 H   0  0  0  0  0  0  0  0  0  0  0  0
  149.4024  139.3019  153.5831 H   0  0  0  0  0  0  0  0  0  0  0  0
  149.6827  141.0268  155.3441 H   0  0  0  0  0  0  0  0  0  0  0  0
  150.4235  145.1159  157.5666 H   0  0  0  0  0  0  0  0  0  0  0  0
  151.0528  146.2008  159.7191 H   0  0  0  0  0  0  0  0  0  0  0  0
  152.2891  144.8972  161.4378 H   0  0  0  0  0  0  0  0  0  0  0  0
  152.8960  142.5646  161.0387 H   0  0  0  0  0  0  0  0  0  0  0  0
  1  2  2  0  0  0  0
  2  3  1  0  0  0  0
  2 18  1  0  0  0  0
  3  4  1  0  0  0  0
  3 34  1  0  0  0  0
  3 35  1  0  0  0  0
  4 16  1  0  0  0  0
  4  5  1  0  0  0  0
  5  6  2  0  0  0  0
  5  7  1  0  0  0  0
  7  8  1  0  0  0  0
  7  9  2  0  0  0  0
  9 10  1  0  0  0  0
  9 36  1  0  0  0  0
 10 11  1  0  0  0  0
 10 16  1  0  0  0  0
 11 15  1  0  0  0  0
 11 12  1  0  0  0  0
 11 37  1  0  0  0  0
 12 13  1  0  0  0  0
 12 38  1  0  0  0  0
 12 39  1  0  0  0  0
 13 14  1  0  0  0  0
 13 40  1  0  0  0  0
 13 41  1  0  0  0  0
 14 15  1  0  0  0  0
 14 42  1  0  0  0  0
 14 43  1  0  0  0  0
 16 17  2  0  0  0  0
 18 32  1  0  0  0  0
 18 19  2  0  0  0  0
 19 20  1  0  0  0  0
 19 26  1  0  0  0  0
 20 25  1  0  0  0  0
 20 21  2  0  0  0  0
 21 22  1  0  0  0  0
 21 44  1  0  0  0  0
 22 23  2  0  0  0  0
 22 45  1  0  0  0  0
 23 24  1  0  0  0  0
 23 46  1  0  0  0  0
 24 25  2  0  0  0  0
 24 47  1  0  0  0  0
 25 48  1  0  0  0  0
 26 33  1  0  0  0  0
 26 27  1  0  0  0  0
 27 32  1  0  0  0  0
 27 28  2  0  0  0  0
 28 29  1  0  0  0  0
 28 49  1  0  0  0  0
 29 30  2  0  0  0  0
 29 50  1  0  0  0  0
 30 31  1  0  0  0  0
 30 51  1  0  0  0  0
 31 32  2  0  0  0  0
 31 52  1  0  0  0  0
M  END
> <s_m_source_file>
AV-unprocessed.smi

> <i_m_source_file_index>
124

> <i_lp_mmshare_version>
43012

> <i_f3d_flags>
0

> <s_epik_input>
W2NIXTFbY0hdW2NIXVtjSF1bY0hdYzEtYyhbbkhdMiljKGMoYzIzKVtjSF1bY0hdW2NIXVtjSF0zKUMoPU8pW0NIMl1uNGMoPU8pYyhGKVtjSF1uKGM0PU8pW0NAQEhdNVtDSDJdW0NIMl1bQ0gyXU81

> <s_epik_cmdline>
J2VwaWtfcHl0aG9uJywgJy1waCcsICc3LjAnLCAnLXRuJywgJzgnLCAnLW1hJywgJzIwMCcsICctbWV0YWxfYmluZGluZycsICctaW1hZScsICc8aW5maWxlLm1hZT4nLCAnLW9tYWUnLCAnPG91dGZpbGUubWFlPic=

> <r_lp_tautomer_probability>
1

> <r_epik_Ionization_Penalty>
1.43207e-08

> <r_epik_Ionization_Penalty_Charging>
5.01743e-09

> <r_epik_Ionization_Penalty_Neutral>
9.30329e-09

> <r_epik_State_Penalty>
-0

> <r_epik_Charging_Adjusted_Penalty>
5.01743e-09

> <i_epik_Tot_Q>
0

> <i_epik_Tot_abs_Q>
0

> <r_epik_Metal_State_Penalty>
-0

> <b_epik_Metal_Only>
0

> <s_epik_Chemistry_Notes>
This compound contains an acetal/aminal-like group ( X-CH(R)-Y where X, Y are N, S, or O) that may be acid/base labile, releasing an aldehyde.

> <s_lp_Force_Field>
OPLS_2005

> <r_lp_Energy>
48.315

> <b_lp_Chiralities_Consistent>
1

> <s_lp_Variant>
AV-unprocessed.smi:124-1

> <Gold.Version>
5.8.1

> <Gold.Id.Protein>
6NUR|6NUR_protein|mol2

> <Gold.PLP.Fitness>
58.1137

> <Gold.PLP.PLP>
-54.5466

> <Gold.PLP.part.hbond>
-1.7480

> <Gold.PLP.part.metal>
0.0000

> <Gold.PLP.part.buried>
-3.2643

> <Gold.PLP.part.nonpolar>
-49.1052

> <Gold.PLP.part.repulsive>
0.0523

> <Gold.PLP.ligand.clash>
0.0000

> <Gold.PLP.ligand.torsion>
1.9886

> <Gold.PLP.Chemscore.Hbond>
1.9920

> <Gold.PLP.Chemscore.CHOScore>
0.0000

> <Gold.PLP.Chemscore.Metal>
0.0000

> <Gold.Chemscore.Hbonds>
donor molecule, donor type, donor heavy atom, donor atom, acceptor molecule, acceptor atom, score
      P1  H  6896  6909       L1    17  1.00
      P1  H  7997  8008       L1     1  1.00

> <Gold.PLP.Chemscore.Internal.Correction>
1.5683

> <Gold.Rescore>
     Score         DG    S(hbond)    S(metal)    S(lipo)     H(rot)  DE(clash)    DE(int)     intcor
     21.42     -25.99       1.88        0.00     155.68       1.55       1.39       3.18       ----

> <Gold.Chemscore.Fitness>
21.4230

> <Gold.Chemscore.DG>
-25.9860

> <Gold.Chemscore.ZeroCoef>
-5.4800

> <Gold.Chemscore.Hbond>
1.8768

> <Gold.Chemscore.Metal>
0.0000

> <Gold.Chemscore.Lipo>
155.6844

> <Gold.Chemscore.Internal_Hbond>
0.0000

> <Gold.Chemscore.DEClash>
1.3879

> <Gold.Chemscore.DEInternal>
3.1751

> <Gold.Chemscore.Rot>
1.5537

> <Gold.Chemscore.Internal.Correction>
   9.000000E+99

> <Gold.Chemscore.Hbonds>
donor molecule, donor type, donor heavy atom, donor atom, acceptor molecule, acceptor atom, score
      P1  H  6896  6909       L1    17  0.98
      P1  H  7997  8008       L1     1  0.95

> <Gold.Chemscore.Hbond.Weighted>
-6.2684

> <Gold.Chemscore.Metal.Weighted>
-0.0000

> <Gold.Chemscore.Lipo.Weighted>
-18.2151

> <Gold.Chemscore.Internal_Hbond.Weighted>
0.0000

> <Gold.Chemscore.DEClash.Weighted>
1.3879

> <Gold.Chemscore.DEInternal.Weighted>
3.1751

> <Gold.Chemscore.Rot.Weighted>
3.9774

> <Gold.Chemscore.Internal.Correction.Weighted>
   9.000000E+99

> <Gold.Protein.RotatedTorsions>
[ 6907 6896 6895 6894 ] final  133.37 input  -60.11 | X-H torsion
[ 7974 7965 7964 7962 ] final   11.39 input  175.53 | X-H torsion
[ 8008 7997 7996 7995 ] final  -85.68 input   59.86 | X-H torsion
[ 10167 10162 10161 10158 ] final   82.90 input  -65.29 | X-H torsion
[ 10718 10713 10712 10709 ] final    7.67 input   66.30 | X-H torsion
[ 10763 10752 10751 10750 ] final  -55.96 input  -60.55 | X-H torsion
[ 11005 11000 10999 10996 ] final  -66.18 input  -57.11 | X-H torsion

> <Gold.Protein.ActiveResidues>
 VAL166  LYS551  ARG553  GLY616  TRP617  ASP618  TYR619  PRO620  LYS621  CYS622 
 ASP623  PHE694  ASN695  SER759  ASP760  ASP761  ALA762  ILE779  LEU786  VAL792 
 PHE793  MET794  SER795  GLU796  ALA797  LYS798  CYS799  TRP800  GLU811  SER814 

> <Gold.Protein.RotatedAtoms>
  152.3227  133.5871  159.5755 H   0  0  0  0  0  0  0  0  0  0  0  0  # atno 6907 bound_to 6896
  150.7380  133.9987  159.3640 H   0  0  0  0  0  0  0  0  0  0  0  0  # atno 6908 bound_to 6896
  151.7870  135.0747  160.0433 H   0  0  0  0  0  0  0  0  0  0  0  0  # atno 6909 bound_to 6896
  146.2372  139.9492  142.8473 H   0  0  0  0  0  0  0  0  0  0  0  0  # atno 7974 bound_to 7965
  154.6434  140.0588  156.9873 H   0  0  0  0  0  0  0  0  0  0  0  0  # atno 8008 bound_to 7997
  155.1481  140.3271  155.4418 H   0  0  0  0  0  0  0  0  0  0  0  0  # atno 8009 bound_to 7997
  156.2542  140.1952  156.6594 H   0  0  0  0  0  0  0  0  0  0  0  0  # atno 8010 bound_to 7997
  139.9239  144.6195  150.8412 H   0  0  0  0  0  0  0  0  0  0  0  0  # atno 10167 bound_to 10162
  156.9403  130.5859  149.5652 H   0  0  0  0  0  0  0  0  0  0  0  0  # atno 10718 bound_to 10713
  154.1990  135.6414  153.5081 H   0  0  0  0  0  0  0  0  0  0  0  0  # atno 10763 bound_to 10752
  153.0016  135.5447  154.6335 H   0  0  0  0  0  0  0  0  0  0  0  0  # atno 10764 bound_to 10752
  154.5743  135.2919  155.0769 H   0  0  0  0  0  0  0  0  0  0  0  0  # atno 10765 bound_to 10752
  141.1475  133.6695  156.6100 H   0  0  0  0  0  0  0  0  0  0  0  0  # atno 11005 bound_to 11000
  145.1878  140.9797  143.4229 LP  0  0  0  0  0  0  0  0  0  0  0  0  # atno 17320 bound_to 7965
  144.9885  139.3713  143.6227 LP  0  0  0  0  0  0  0  0  0  0  0  0  # atno 17321 bound_to 7965
  140.7655  143.3277  151.2479 LP  0  0  0  0  0  0  0  0  0  0  0  0  # atno 17342 bound_to 10162
  139.6838  143.9809  152.2823 LP  0  0  0  0  0  0  0  0  0  0  0  0  # atno 17343 bound_to 10162
  156.0407  130.5490  150.8764 LP  0  0  0  0  0  0  0  0  0  0  0  0  # atno 17370 bound_to 10713
  157.5789  131.0946  150.9302 LP  0  0  0  0  0  0  0  0  0  0  0  0  # atno 17371 bound_to 10713
  140.3622  134.7678  157.4541 LP  0  0  0  0  0  0  0  0  0  0  0  0  # atno 17394 bound_to 11000
  140.0776  134.5775  155.8574 LP  0  0  0  0  0  0  0  0  0  0  0  0  # atno 17395 bound_to 11000

$$$$
