#       Name:                AV-unprocessed.smi:2850
#       Creating user name   scv26
#       Creation time:       Fri Mar 27 15:42:13 2020


#       File generated by GOLD software.
#

@<TRIPOS>MOLECULE
AV-unprocessed.smi:2850
    49    50     1
SMALL
NO_CHARGES


@<TRIPOS>ATOM
      1 ****        -7.6778   1.8355  -1.3605 C.3            1 S1                 0.0000
      2 ****        -6.9157   3.4051  -0.8621 S.3            1 S1                 0.0000
      3 ****        -5.2075   3.0806  -0.5448 C.ar           1 S1                 0.0000
      4 ****        -4.3442   4.1163  -0.1452 C.ar           1 S1                 0.0000
      5 ****        -3.0000   3.7745   0.0839 C.ar           1 S1                 0.0000
      6 ****        -2.6248   2.4288  -0.1048 C.ar           1 S1                 0.0000
      7 ****        -1.2911   2.0599   0.1156 N.pl3          1 S1                 0.0000
      8 ****        -0.8254   0.7269  -0.2413 C.3            1 S1                 0.0000
      9 ****         0.6825   0.5711  -0.0008 C.3            1 S1                 0.0000
     10 ****         1.1436  -0.8871  -0.1946 C.3            1 S1                 0.0000
     11 ****         2.6152  -0.9953  -0.0331 N.4            1 S1                 1.0000
     12 ****         3.1312  -2.3831  -0.1562 C.3            1 S1                 0.0000
     13 ****         2.8495  -3.2507   1.0897 C.3            1 S1                 0.0000
     14 ****         3.5331  -2.6889   2.3476 C.3            1 S1                 0.0000
     15 ****         3.2882  -4.7025   0.8457 C.3            1 S1                 0.0000
     16 ****         3.3040  -0.0550  -0.9480 C.3            1 S1                 0.0000
     17 ****         2.7774   1.3743  -0.7447 C.3            1 S1                 0.0000
     18 ****         1.3695   1.3918  -0.9405 O.3            1 S1                 0.0000
     19 ****        -3.5173   1.4816  -0.4904 N.ar           1 S1                 0.0000
     20 ****        -4.7976   1.8023  -0.7092 N.ar           1 S1                 0.0000
     21 ****        -8.7354   1.9854  -1.5773 H              1 S1                 0.0000
     22 ****        -7.5912   1.0982  -0.5621 H              1 S1                 0.0000
     23 ****        -7.1954   1.4423  -2.2557 H              1 S1                 0.0000
     24 ****        -4.6961   5.1297  -0.0203 H              1 S1                 0.0000
     25 ****        -2.2837   4.5219   0.3923 H              1 S1                 0.0000
     26 ****        -0.6106   2.7693   0.3468 H              1 S1                 0.0000
     27 ****        -1.3684  -0.0001   0.3639 H              1 S1                 0.0000
     28 ****        -1.0631   0.5192  -1.2855 H              1 S1                 0.0000
     29 ****         0.9192   0.8940   1.0152 H              1 S1                 0.0000
     30 ****         0.6356  -1.5219   0.5305 H              1 S1                 0.0000
     31 ****         0.8579  -1.2433  -1.1858 H              1 S1                 0.0000
     32 ****         2.7082  -2.8441  -1.0502 H              1 S1                 0.0000
     33 ****         4.2107  -2.3535  -0.3134 H              1 S1                 0.0000
     34 ****         1.7760  -3.2762   1.2738 H              1 S1                 0.0000
     35 ****         4.6149  -2.6355   2.2207 H              1 S1                 0.0000
     36 ****         3.3323  -3.3170   3.2160 H              1 S1                 0.0000
     37 ****         3.1750  -1.6867   2.5838 H              1 S1                 0.0000
     38 ****         4.3625  -4.7692   0.6710 H              1 S1                 0.0000
     39 ****         2.7830  -5.1265  -0.0225 H              1 S1                 0.0000
     40 ****         3.0510  -5.3345   1.7022 H              1 S1                 0.0000
     41 ****         4.3790  -0.0773  -0.7647 H              1 S1                 0.0000
     42 ****         3.1470  -0.3683  -1.9814 H              1 S1                 0.0000
     43 ****         3.0246   1.7449   0.2514 H              1 S1                 0.0000
     44 ****         3.2420   2.0518  -1.4613 H              1 S1                 0.0000
     45 ****         2.8340  -0.6889   0.9043 H              1 S1                 0.0000
     46 ****         1.0432   2.3323  -0.8449 LP             1 S1                 0.0000
     47 ****         1.1690   1.0615  -1.8628 LP             1 S1                 0.0000
     48 ****        -3.2153   0.5361  -0.6119 LP             1 S1                 0.0000
     49 ****        -5.4494   1.0991  -0.9933 LP             1 S1                 0.0000
@<TRIPOS>BOND
    1    1    2 1     
    2    1   21 1     
    3    1   22 1     
    4    1   23 1     
    5    2    3 1     
    6    3   20 ar    
    7    3    4 ar    
    8    4    5 ar    
    9    4   24 1     
   10    5    6 ar    
   11    5   25 1     
   12    6    7 1     
   13    6   19 ar    
   14    7    8 1     
   15    7   26 1     
   16    8    9 1     
   17    8   27 1     
   18    8   28 1     
   19    9   18 1     
   20    9   10 1     
   21    9   29 1     
   22   10   11 1     
   23   10   30 1     
   24   10   31 1     
   25   11   12 1     
   26   11   16 1     
   27   11   45 1     
   28   12   13 1     
   29   12   32 1     
   30   12   33 1     
   31   13   14 1     
   32   13   15 1     
   33   13   34 1     
   34   14   35 1     
   35   14   36 1     
   36   14   37 1     
   37   15   38 1     
   38   15   39 1     
   39   15   40 1     
   40   16   17 1     
   41   16   41 1     
   42   16   42 1     
   43   17   18 1     
   44   17   43 1     
   45   17   44 1     
   46   19   20 ar    
   47   18   46 1     
   48   18   47 1     
   49   19   48 1     
   50   20   49 1     
@<TRIPOS>SUBSTRUCTURE
      1 S1             1
@<TRIPOS>SET
LONE_PAIRS      STATIC     ATOMS    <user>   **** ""
4 46 47 48 49
DONOR_HYDROGENS      STATIC     ATOMS    <user>   **** ""
2 26 45
ATOM$BLUE        STATIC     ATOMS    COLORGROUP SYSTEM
4 46 47 48 49
ATOM$RED        STATIC     ATOMS    COLORGROUP SYSTEM
2 26 45
