#       Name:                AV-unprocessed.smi:1900
#       Creating user name   scv26
#       Creation time:       Fri Mar 27 09:45:33 2020


#       File generated by GOLD software.
#

@<TRIPOS>MOLECULE
AV-unprocessed.smi:1900
    49    50     1
SMALL
NO_CHARGES


@<TRIPOS>ATOM
      1 ****        -5.3952   2.3083   1.0099 C.3            1 S1                 0.0000
      2 ****        -3.9437   2.2403   0.5234 C.3            1 S1                 0.0000
      3 ****        -3.3577   0.8204   0.6372 C.3            1 S1                 0.0000
      4 ****        -2.0016   0.7412   0.1058 N.3            1 S1                 0.0000
      5 ****        -1.4729  -0.6163   0.2316 C.3            1 S1                 0.0000
      6 ****         0.0278  -0.7651  -0.0724 C.3            1 S1                 0.0000
      7 ****         0.5299  -2.1925   0.1966 C.3            1 S1                 0.0000
      8 ****         1.9511  -2.3280  -0.1024 N.am           1 S1                 0.0000
      9 ****         2.9468  -2.0117   0.7378 C.2            1 S1                 0.0000
     10 ****         2.7655  -1.5554   1.8666 O.2            1 S1                 0.0000
     11 ****         4.1469  -2.2577   0.1876 N.am           1 S1                 0.0000
     12 ****         5.4184  -2.0759   0.7870 C.2            1 S1                 0.0000
     13 ****         5.7418  -1.5921   2.0888 C.2            1 S1                 0.0000
     14 ****         7.0533  -1.5709   2.2802 N.2            1 S1                 0.0000
     15 ****         7.5679  -2.0350   1.1193 N.pl3          1 S1                 0.0000
     16 ****         6.6085  -2.3536   0.1837 C.2            1 S1                 0.0000
     17 ****        -2.0079   1.2155  -1.2763 C.3            1 S1                 0.0000
     18 ****        -2.5976   2.6342  -1.3991 C.3            1 S1                 0.0000
     19 ****        -2.6904   3.0990  -2.8563 C.3            1 S1                 0.0000
     20 ****        -3.9090   2.6469  -0.8417 O.3            1 S1                 0.0000
     21 ****         8.5646  -2.1276   0.9829 H              1 S1                 0.0000
     22 ****        -5.4713   2.0161   2.0576 H              1 S1                 0.0000
     23 ****        -6.0375   1.6455   0.4289 H              1 S1                 0.0000
     24 ****        -5.7900   3.3202   0.9176 H              1 S1                 0.0000
     25 ****        -3.3426   2.9331   1.1150 H              1 S1                 0.0000
     26 ****        -3.3610   0.5139   1.6841 H              1 S1                 0.0000
     27 ****        -4.0026   0.1184   0.1060 H              1 S1                 0.0000
     28 ****        -1.6348  -0.9589   1.2547 H              1 S1                 0.0000
     29 ****        -2.0441  -1.2947  -0.4040 H              1 S1                 0.0000
     30 ****         0.2318  -0.5110  -1.1123 H              1 S1                 0.0000
     31 ****         0.5899  -0.0571   0.5382 H              1 S1                 0.0000
     32 ****         0.3342  -2.4791   1.2313 H              1 S1                 0.0000
     33 ****        -0.0152  -2.9004  -0.4283 H              1 S1                 0.0000
     34 ****         2.1923  -2.6952  -1.0112 H              1 S1                 0.0000
     35 ****         4.1510  -2.6254  -0.7523 H              1 S1                 0.0000
     36 ****         5.0940  -1.2630   2.8876 H              1 S1                 0.0000
     37 ****         6.8510  -2.7381  -0.7961 H              1 S1                 0.0000
     38 ****        -0.9945   1.2259  -1.6760 H              1 S1                 0.0000
     39 ****        -2.5833   0.5280  -1.8986 H              1 S1                 0.0000
     40 ****        -1.9725   3.3378  -0.8464 H              1 S1                 0.0000
     41 ****        -1.7068   3.1160  -3.3263 H              1 S1                 0.0000
     42 ****        -3.1054   4.1052  -2.9183 H              1 S1                 0.0000
     43 ****        -3.3305   2.4382  -3.4416 H              1 S1                 0.0000
     44 ****        -1.3897   1.3286   0.6355 LP             1 S1                 0.0000
     45 ****         1.8355  -1.4023   2.2006 LP             1 S1                 0.0000
     46 ****         3.5483  -1.3378   2.4496 LP             1 S1                 0.0000
     47 ****         7.5494  -1.2781   3.0976 LP             1 S1                 0.0000
     48 ****        -4.2723   3.5764  -0.9056 LP             1 S1                 0.0000
     49 ****        -4.4859   2.0263  -1.3727 LP             1 S1                 0.0000
@<TRIPOS>BOND
    1    1    2 1     
    2    1   22 1     
    3    1   23 1     
    4    1   24 1     
    5    2   20 1     
    6    2    3 1     
    7    2   25 1     
    8    3    4 1     
    9    3   26 1     
   10    3   27 1     
   11    4    5 1     
   12    4   17 1     
   13    5    6 1     
   14    5   28 1     
   15    5   29 1     
   16    6    7 1     
   17    6   30 1     
   18    6   31 1     
   19    7    8 1     
   20    7   32 1     
   21    7   33 1     
   22    8    9 am    
   23    8   34 1     
   24    9   10 2     
   25    9   11 am    
   26   11   12 1     
   27   11   35 1     
   28   12   16 2     
   29   12   13 1     
   30   13   14 2     
   31   13   36 1     
   32   14   15 1     
   33   15   21 1     
   34   15   16 1     
   35   16   37 1     
   36   17   18 1     
   37   17   38 1     
   38   17   39 1     
   39   18   19 1     
   40   18   20 1     
   41   18   40 1     
   42   19   41 1     
   43   19   42 1     
   44   19   43 1     
   45    4   44 1     
   46   10   45 1     
   47   10   46 1     
   48   14   47 1     
   49   20   48 1     
   50   20   49 1     
@<TRIPOS>SUBSTRUCTURE
      1 S1             1
@<TRIPOS>SET
LONE_PAIRS      STATIC     ATOMS    <user>   **** ""
6 44 45 46 47 48 49
DONOR_HYDROGENS      STATIC     ATOMS    <user>   **** ""
3 34 35 21
ATOM$BLUE        STATIC     ATOMS    COLORGROUP SYSTEM
6 44 45 46 47 48 49
ATOM$RED        STATIC     ATOMS    COLORGROUP SYSTEM
3 34 35 21
