AV-unprocessed.smi:111|AV-procd|sdf|1081|dock1
  -GOLD-   2262018173D 1   1.00000     0.00000
 Structure written by MMmdl.
 46 48  0  0  0  0  0  0  0  0  1 V2000
  148.2169  139.8979  156.8153 O   0  0  0  0  0  0  0  0  0  0  0  0
  149.1494  140.5792  157.2448 C   0  0  0  0  0  0  0  0  0  0  0  0
  148.9854  141.9528  157.7081 C   0  0  0  0  0  0  0  0  0  0  0  0
  147.7643  142.5139  157.7038 F   0  0  0  0  0  0  0  0  0  0  0  0
  150.0417  142.6761  158.1373 C   0  0  0  0  0  0  0  0  0  0  0  0
  151.3335  142.1782  158.1736 N   0  0  0  0  0  0  0  0  0  0  0  0
  152.4953  143.0233  158.6496 C   0  0  2  0  0  0  0  0  0  0  0  0
  153.0138  142.5040  159.9942 C   0  0  0  0  0  0  0  0  0  0  0  0
  152.2007  143.3221  160.9733 C   0  0  0  0  0  0  0  0  0  0  0  0
  152.0888  144.6561  160.2427 C   0  0  0  0  0  0  0  0  0  0  0  0
  152.0571  144.3359  158.8529 O   0  0  0  0  0  0  0  0  0  0  0  0
  151.5820  140.8489  157.7698 C   0  0  0  0  0  0  0  0  0  0  0  0
  152.7206  140.3772  157.8181 O   0  0  0  0  0  0  0  0  0  0  0  0
  150.4790  140.0904  157.3104 N   0  0  0  0  0  0  0  0  0  0  0  0
  150.7518  138.7439  156.8263 C   0  0  0  0  0  0  0  0  0  0  0  0
  150.7351  138.6172  155.2856 C   0  0  1  0  0  0  0  0  0  0  0  0
  151.8444  139.3252  154.7722 O   0  0  0  0  0  0  0  0  0  0  0  0
  150.7831  137.1632  154.7658 C   0  0  0  0  0  0  0  0  0  0  0  0
  149.5549  136.3191  155.1524 C   0  0  0  0  0  0  0  0  0  0  0  0
  149.8298  134.8246  155.1068 C   0  0  0  0  0  0  0  0  0  0  0  0
  149.1730  134.0128  154.1572 C   0  0  0  0  0  0  0  0  0  0  0  0
  149.4486  132.6333  154.0921 C   0  0  0  0  0  0  0  0  0  0  0  0
  150.3778  132.0583  154.9800 C   0  0  0  0  0  0  0  0  0  0  0  0
  151.0315  132.8633  155.9328 C   0  0  0  0  0  0  0  0  0  0  0  0
  150.7586  134.2437  155.9962 C   0  0  0  0  0  0  0  0  0  0  0  0
  149.8523  143.6863  158.4680 H   0  0  0  0  0  0  0  0  0  0  0  0
  153.2339  143.0002  157.8464 H   0  0  0  0  0  0  0  0  0  0  0  0
  152.8908  141.4257  160.1023 H   0  0  0  0  0  0  0  0  0  0  0  0
  154.0731  142.7495  160.0770 H   0  0  0  0  0  0  0  0  0  0  0  0
  151.2138  142.8777  161.1071 H   0  0  0  0  0  0  0  0  0  0  0  0
  152.6708  143.4106  161.9529 H   0  0  0  0  0  0  0  0  0  0  0  0
  151.2080  145.2243  160.5417 H   0  0  0  0  0  0  0  0  0  0  0  0
  152.9700  145.2685  160.4370 H   0  0  0  0  0  0  0  0  0  0  0  0
  151.7273  138.4700  157.2336 H   0  0  0  0  0  0  0  0  0  0  0  0
  150.0520  138.0489  157.2909 H   0  0  0  0  0  0  0  0  0  0  0  0
  149.8432  139.1142  154.9066 H   0  0  0  0  0  0  0  0  0  0  0  0
  152.5181  139.3488  155.4344 H   0  0  0  0  0  0  0  0  0  0  0  0
  150.9069  137.1644  153.6824 H   0  0  0  0  0  0  0  0  0  0  0  0
  151.6624  136.6559  155.1591 H   0  0  0  0  0  0  0  0  0  0  0  0
  149.2045  136.6022  156.1457 H   0  0  0  0  0  0  0  0  0  0  0  0
  148.7340  136.5357  154.4680 H   0  0  0  0  0  0  0  0  0  0  0  0
  148.4621  134.4478  153.4703 H   0  0  0  0  0  0  0  0  0  0  0  0
  148.9481  132.0169  153.3602 H   0  0  0  0  0  0  0  0  0  0  0  0
  150.5895  131.0004  154.9305 H   0  0  0  0  0  0  0  0  0  0  0  0
  151.7452  132.4223  156.6130 H   0  0  0  0  0  0  0  0  0  0  0  0
  151.2716  134.8557  156.7236 H   0  0  0  0  0  0  0  0  0  0  0  0
  1  2  2  0  0  0  0
  2 14  1  0  0  0  0
  2  3  1  0  0  0  0
  3  4  1  0  0  0  0
  3  5  2  0  0  0  0
  5  6  1  0  0  0  0
  5 26  1  0  0  0  0
  6  7  1  0  0  0  0
  6 12  1  0  0  0  0
  7 11  1  0  0  0  0
  7  8  1  0  0  0  0
  7 27  1  0  0  0  0
  8  9  1  0  0  0  0
  8 28  1  0  0  0  0
  8 29  1  0  0  0  0
  9 10  1  0  0  0  0
  9 30  1  0  0  0  0
  9 31  1  0  0  0  0
 10 11  1  0  0  0  0
 10 32  1  0  0  0  0
 10 33  1  0  0  0  0
 12 13  2  0  0  0  0
 12 14  1  0  0  0  0
 14 15  1  0  0  0  0
 15 16  1  0  0  0  0
 15 34  1  0  0  0  0
 15 35  1  0  0  0  0
 16 17  1  0  0  0  0
 16 18  1  0  0  0  0
 16 36  1  0  0  0  0
 17 37  1  0  0  0  0
 18 19  1  0  0  0  0
 18 38  1  0  0  0  0
 18 39  1  0  0  0  0
 19 20  1  0  0  0  0
 19 40  1  0  0  0  0
 19 41  1  0  0  0  0
 20 25  1  0  0  0  0
 20 21  2  0  0  0  0
 21 22  1  0  0  0  0
 21 42  1  0  0  0  0
 22 23  2  0  0  0  0
 22 43  1  0  0  0  0
 23 24  1  0  0  0  0
 23 44  1  0  0  0  0
 24 25  2  0  0  0  0
 24 45  1  0  0  0  0
 25 46  1  0  0  0  0
M  END
> <s_m_source_file>
AV-unprocessed.smi

> <i_m_source_file_index>
111

> <i_lp_mmshare_version>
43012

> <i_f3d_flags>
0

> <s_epik_input>
TzFbQ0gyXVtDSDJdW0NIMl1bQ0BIXTFuKFtjSF1jKEYpYzI9TyljKD1PKW4yW0NIMl1bQ0BIXShbT0hdKVtDSDJdW0NIMl1jM1tjSF1bY0hdW2NIXVtjSF1bY0hdMw==

> <s_epik_cmdline>
J2VwaWtfcHl0aG9uJywgJy1waCcsICc3LjAnLCAnLXRuJywgJzgnLCAnLW1hJywgJzIwMCcsICctbWV0YWxfYmluZGluZycsICctaW1hZScsICc8aW5maWxlLm1hZT4nLCAnLW9tYWUnLCAnPG91dGZpbGUubWFlPic=

> <r_lp_tautomer_probability>
1

> <r_epik_Ionization_Penalty>
1.88248e-07

> <r_epik_Ionization_Penalty_Charging>
4.03974e-08

> <r_epik_Ionization_Penalty_Neutral>
1.47851e-07

> <r_epik_State_Penalty>
-0

> <r_epik_Charging_Adjusted_Penalty>
4.03974e-08

> <i_epik_Tot_Q>
0

> <i_epik_Tot_abs_Q>
0

> <r_epik_Metal_State_Penalty>
-0

> <b_epik_Metal_Only>
0

> <s_epik_Chemistry_Notes>
This compound contains an acetal/aminal-like group ( X-CH(R)-Y where X, Y are N, S, or O) that may be acid/base labile, releasing an aldehyde.

> <s_lp_Force_Field>
OPLS_2005

> <r_lp_Energy>
35.2037

> <b_lp_Chiralities_Consistent>
1

> <s_lp_Variant>
AV-unprocessed.smi:111-3

> <Gold.Version>
5.8.1

> <Gold.Id.Protein>
6NUR|6NUR_protein|mol2

> <Gold.PLP.Fitness>
50.5921

> <Gold.PLP.PLP>
-45.6921

> <Gold.PLP.part.hbond>
-2.0000

> <Gold.PLP.part.metal>
0.0000

> <Gold.PLP.part.buried>
-6.2720

> <Gold.PLP.part.nonpolar>
-36.2984

> <Gold.PLP.part.repulsive>
0.0368

> <Gold.PLP.ligand.clash>
0.0000

> <Gold.PLP.ligand.torsion>
0.5106

> <Gold.PLP.Chemscore.Hbond>
1.9120

> <Gold.PLP.Chemscore.CHOScore>
0.0000

> <Gold.PLP.Chemscore.Metal>
0.0000

> <Gold.Chemscore.Hbonds>
donor molecule, donor type, donor heavy atom, donor atom, acceptor molecule, acceptor atom, score
      P1  H  7989  7998       L1    17  1.00
      P1  H  7997  8008       L1    13  0.90

> <Gold.PLP.Chemscore.Internal.Correction>
0.1852

> <Gold.Rescore>
     Score         DG    S(hbond)    S(metal)    S(lipo)     H(rot)  DE(clash)    DE(int)     intcor
     14.37     -15.82       1.75        0.00      96.89       2.67       0.27       1.18       ----

> <Gold.Chemscore.Fitness>
14.3693

> <Gold.Chemscore.DG>
-15.8169

> <Gold.Chemscore.ZeroCoef>
-5.4800

> <Gold.Chemscore.Hbond>
1.7508

> <Gold.Chemscore.Metal>
0.0000

> <Gold.Chemscore.Lipo>
96.8858

> <Gold.Chemscore.Internal_Hbond>
0.0000

> <Gold.Chemscore.DEClash>
0.2674

> <Gold.Chemscore.DEInternal>
1.1802

> <Gold.Chemscore.Rot>
2.6743

> <Gold.Chemscore.Internal.Correction>
   9.000000E+99

> <Gold.Chemscore.Hbonds>
donor molecule, donor type, donor heavy atom, donor atom, acceptor molecule, acceptor atom, score
      P1  H  7989  7998       L1    17  0.88
      P1  H  7997  8008       L1    13  0.84

> <Gold.Chemscore.Hbond.Weighted>
-5.8476

> <Gold.Chemscore.Metal.Weighted>
-0.0000

> <Gold.Chemscore.Lipo.Weighted>
-11.3356

> <Gold.Chemscore.Internal_Hbond.Weighted>
0.0000

> <Gold.Chemscore.DEClash.Weighted>
0.2674

> <Gold.Chemscore.DEInternal.Weighted>
1.1802

> <Gold.Chemscore.Rot.Weighted>
6.8463

> <Gold.Chemscore.Internal.Correction.Weighted>
   9.000000E+99

> <Gold.Protein.RotatedTorsions>
[ 6907 6896 6895 6894 ] final  -41.99 input  -60.11 | X-H torsion
[ 7974 7965 7964 7962 ] final   87.04 input  175.53 | X-H torsion
[ 8008 7997 7996 7995 ] final  -69.21 input   59.86 | X-H torsion
[ 10167 10162 10161 10158 ] final  -93.43 input  -65.29 | X-H torsion
[ 10718 10713 10712 10709 ] final  -83.97 input   66.30 | X-H torsion
[ 10763 10752 10751 10750 ] final  -88.06 input  -60.55 | X-H torsion
[ 11005 11000 10999 10996 ] final   81.79 input  -57.11 | X-H torsion

> <Gold.Protein.ActiveResidues>
 VAL166  LYS551  ARG553  GLY616  TRP617  ASP618  TYR619  PRO620  LYS621  CYS622 
 ASP623  PHE694  ASN695  SER759  ASP760  ASP761  ALA762  ILE779  LEU786  VAL792 
 PHE793  MET794  SER795  GLU796  ALA797  LYS798  CYS799  TRP800  GLU811  SER814 

> <Gold.Protein.RotatedAtoms>
  150.9604  134.8993  159.7726 H   0  0  0  0  0  0  0  0  0  0  0  0  # atno 6907 bound_to 6896
  152.5154  134.3681  159.9318 H   0  0  0  0  0  0  0  0  0  0  0  0  # atno 6908 bound_to 6896
  151.3693  133.3820  159.2732 H   0  0  0  0  0  0  0  0  0  0  0  0  # atno 6909 bound_to 6896
  145.5643  139.2307  143.2442 H   0  0  0  0  0  0  0  0  0  0  0  0  # atno 7974 bound_to 7965
  154.4923  140.0858  156.7620 H   0  0  0  0  0  0  0  0  0  0  0  0  # atno 8008 bound_to 7997
  155.4202  140.3445  155.4252 H   0  0  0  0  0  0  0  0  0  0  0  0  # atno 8009 bound_to 7997
  156.1346  140.1511  156.9002 H   0  0  0  0  0  0  0  0  0  0  0  0  # atno 8010 bound_to 7997
  140.3248  143.3028  152.0007 H   0  0  0  0  0  0  0  0  0  0  0  0  # atno 10167 bound_to 10162
  156.0012  130.4683  150.4339 H   0  0  0  0  0  0  0  0  0  0  0  0  # atno 10718 bound_to 10713
  154.6404  135.5391  153.7783 H   0  0  0  0  0  0  0  0  0  0  0  0  # atno 10763 bound_to 10752
  153.0331  135.6458  154.1168 H   0  0  0  0  0  0  0  0  0  0  0  0  # atno 10764 bound_to 10752
  154.1092  135.2928  155.3214 H   0  0  0  0  0  0  0  0  0  0  0  0  # atno 10765 bound_to 10752
  139.9086  134.8023  156.2089 H   0  0  0  0  0  0  0  0  0  0  0  0  # atno 11005 bound_to 11000
  146.1829  140.6468  142.9181 LP  0  0  0  0  0  0  0  0  0  0  0  0  # atno 17320 bound_to 7965
  144.7468  140.5088  143.6830 LP  0  0  0  0  0  0  0  0  0  0  0  0  # atno 17321 bound_to 7965
  139.4867  144.6283  151.7121 LP  0  0  0  0  0  0  0  0  0  0  0  0  # atno 17342 bound_to 10162
  140.5451  144.0516  150.6104 LP  0  0  0  0  0  0  0  0  0  0  0  0  # atno 17343 bound_to 10162
  157.2385  131.0520  151.2450 LP  0  0  0  0  0  0  0  0  0  0  0  0  # atno 17370 bound_to 10713
  157.3643  130.7147  149.6522 LP  0  0  0  0  0  0  0  0  0  0  0  0  # atno 17371 bound_to 10713
  141.0478  133.6904  156.1716 LP  0  0  0  0  0  0  0  0  0  0  0  0  # atno 17394 bound_to 11000
  140.6857  134.4720  157.5589 LP  0  0  0  0  0  0  0  0  0  0  0  0  # atno 17395 bound_to 11000

$$$$
