AV-unprocessed.smi:657|AV-procd|sdf|3225|dock7
  -GOLD-   22720 0163D 1   1.00000     0.00000
 Structure written by MMmdl.
 46 47  0  0  0  0  0  0  0  0  1 V2000
  150.7423  144.8927  159.4301 C   0  0  0  0  0  0  0  0  0  0  0  0
  151.9281  144.0043  159.0101 C   0  0  0  0  0  0  0  0  0  0  0  0
  152.8127  144.6970  157.9531 C   0  0  0  0  0  0  0  0  0  0  0  0
  151.4774  142.6521  158.6095 N   0  0  0  0  0  0  0  0  0  0  0  0
  150.7657  142.6304  157.3198 C   0  0  0  0  0  0  0  0  0  0  0  0
  150.0688  141.2779  157.0959 C   0  0  0  0  0  0  0  0  0  0  0  0
  151.0806  140.1313  157.1163 C   0  0  0  0  0  0  0  0  0  0  0  0
  151.8712  140.1844  158.4254 C   0  0  0  0  0  0  0  0  0  0  0  0
  152.5195  141.5734  158.6335 C   0  0  2  0  0  0  0  0  0  0  0  0
  153.3877  141.5403  159.9064 C   0  0  0  0  0  0  0  0  0  0  0  0
  153.2030  142.3586  160.8082 O   0  0  0  0  0  0  0  0  0  0  0  0
  154.3473  140.6028  159.9515 N   0  0  0  0  0  0  0  0  0  0  0  0
  155.2867  140.4148  161.0499 C   0  0  0  0  0  0  0  0  0  0  0  0
  154.6695  139.5802  162.1828 C   0  0  0  0  0  0  0  0  0  0  0  0
  154.4648  138.1519  161.7629 C   0  0  0  0  0  0  0  0  0  0  0  0
  153.6319  137.6595  160.7179 C   0  0  0  0  0  0  0  0  0  0  0  0
  153.6707  136.3416  160.6070 N   0  0  0  0  0  0  0  0  0  0  0  0
  154.5266  135.9484  161.5725 N   0  0  0  0  0  0  0  0  0  0  0  0
  154.8122  134.5399  161.7424 C   0  0  0  0  0  0  0  0  0  0  0  0
  155.0213  137.0189  162.2857 C   0  0  0  0  0  0  0  0  0  0  0  0
  151.1000  145.7927  159.9311 H   0  0  0  0  0  0  0  0  0  0  0  0
  150.0853  144.3721  160.1278 H   0  0  0  0  0  0  0  0  0  0  0  0
  150.1437  145.2243  158.5822 H   0  0  0  0  0  0  0  0  0  0  0  0
  152.5185  143.9190  159.9208 H   0  0  0  0  0  0  0  0  0  0  0  0
  153.1918  145.6447  158.3361 H   0  0  0  0  0  0  0  0  0  0  0  0
  152.2612  144.9199  157.0398 H   0  0  0  0  0  0  0  0  0  0  0  0
  153.6786  144.0926  157.6844 H   0  0  0  0  0  0  0  0  0  0  0  0
  150.0005  143.4026  157.2766 H   0  0  0  0  0  0  0  0  0  0  0  0
  151.4564  142.8272  156.4989 H   0  0  0  0  0  0  0  0  0  0  0  0
  149.3132  141.1204  157.8670 H   0  0  0  0  0  0  0  0  0  0  0  0
  149.5399  141.2863  156.1425 H   0  0  0  0  0  0  0  0  0  0  0  0
  150.5715  139.1723  157.0179 H   0  0  0  0  0  0  0  0  0  0  0  0
  151.7594  140.2182  156.2671 H   0  0  0  0  0  0  0  0  0  0  0  0
  151.2014  139.9533  159.2556 H   0  0  0  0  0  0  0  0  0  0  0  0
  152.6339  139.4043  158.4176 H   0  0  0  0  0  0  0  0  0  0  0  0
  153.1956  141.7413  157.7927 H   0  0  0  0  0  0  0  0  0  0  0  0
  154.4367  139.9790  159.1627 H   0  0  0  0  0  0  0  0  0  0  0  0
  156.1688  139.9102  160.6544 H   0  0  0  0  0  0  0  0  0  0  0  0
  155.6253  141.3820  161.4256 H   0  0  0  0  0  0  0  0  0  0  0  0
  155.3129  139.6273  163.0623 H   0  0  0  0  0  0  0  0  0  0  0  0
  153.7221  140.0281  162.4849 H   0  0  0  0  0  0  0  0  0  0  0  0
  153.0026  138.2188  160.0413 H   0  0  0  0  0  0  0  0  0  0  0  0
  155.5161  134.3970  162.5626 H   0  0  0  0  0  0  0  0  0  0  0  0
  155.2483  134.1386  160.8270 H   0  0  0  0  0  0  0  0  0  0  0  0
  153.8914  134.0009  161.9677 H   0  0  0  0  0  0  0  0  0  0  0  0
  155.7200  136.8884  163.0990 H   0  0  0  0  0  0  0  0  0  0  0  0
  1  2  1  0  0  0  0
  1 21  1  0  0  0  0
  1 22  1  0  0  0  0
  1 23  1  0  0  0  0
  2  3  1  0  0  0  0
  2  4  1  0  0  0  0
  2 24  1  0  0  0  0
  3 25  1  0  0  0  0
  3 26  1  0  0  0  0
  3 27  1  0  0  0  0
  4  9  1  0  0  0  0
  4  5  1  0  0  0  0
  5  6  1  0  0  0  0
  5 28  1  0  0  0  0
  5 29  1  0  0  0  0
  6  7  1  0  0  0  0
  6 30  1  0  0  0  0
  6 31  1  0  0  0  0
  7  8  1  0  0  0  0
  7 32  1  0  0  0  0
  7 33  1  0  0  0  0
  8  9  1  0  0  0  0
  8 34  1  0  0  0  0
  8 35  1  0  0  0  0
  9 10  1  0  0  0  0
  9 36  1  0  0  0  0
 10 11  2  0  0  0  0
 10 12  1  0  0  0  0
 12 13  1  0  0  0  0
 12 37  1  0  0  0  0
 13 14  1  0  0  0  0
 13 38  1  0  0  0  0
 13 39  1  0  0  0  0
 14 15  1  0  0  0  0
 14 40  1  0  0  0  0
 14 41  1  0  0  0  0
 15 20  2  0  0  0  0
 15 16  1  0  0  0  0
 16 17  2  0  0  0  0
 16 42  1  0  0  0  0
 17 18  1  0  0  0  0
 18 19  1  0  0  0  0
 18 20  1  0  0  0  0
 19 43  1  0  0  0  0
 19 44  1  0  0  0  0
 19 45  1  0  0  0  0
 20 46  1  0  0  0  0
M  END
> <s_m_source_file>
AV-unprocessed.smi

> <i_m_source_file_index>
657

> <i_lp_mmshare_version>
43012

> <i_f3d_flags>
0

> <s_epik_input>
W0NIM11bQ0hdKFtDSDNdKU4xW0NIMl1bQ0gyXVtDSDJdW0NIMl1bQ0BIXTFDKD1PKVtOSF1bQ0gyXVtDSDJdYzJbY0hdbm4oW0NIM10pW2NIXTI=

> <s_epik_cmdline>
J2VwaWtfcHl0aG9uJywgJy1waCcsICc3LjAnLCAnLXRuJywgJzgnLCAnLW1hJywgJzIwMCcsICctbWV0YWxfYmluZGluZycsICctaW1hZScsICc8aW5maWxlLm1hZT4nLCAnLW9tYWUnLCAnPG91dGZpbGUubWFlPic=

> <r_lp_tautomer_probability>
1

> <r_epik_Ionization_Penalty>
1.91154

> <r_epik_Ionization_Penalty_Charging>
0

> <r_epik_Ionization_Penalty_Neutral>
1.91154

> <r_epik_State_Penalty>
2.0331

> <r_epik_Charging_Adjusted_Penalty>
2.0331

> <i_epik_Tot_Q>
0

> <i_epik_Tot_abs_Q>
0

> <r_epik_Metal_State_Penalty>
2.04973

> <b_epik_Metal_Only>
0

> <s_lp_Force_Field>
OPLS_2005

> <r_lp_Energy>
15.3254

> <b_lp_Chiralities_Consistent>
1

> <s_lp_Variant>
AV-unprocessed.smi:657-6

> <Gold.Version>
5.8.1

> <Gold.Id.Protein>
6NUR|6NUR_protein|mol2

> <Gold.PLP.Fitness>
41.7262

> <Gold.PLP.PLP>
-39.3973

> <Gold.PLP.part.hbond>
-0.9754

> <Gold.PLP.part.metal>
0.0000

> <Gold.PLP.part.buried>
-5.6255

> <Gold.PLP.part.nonpolar>
-32.8763

> <Gold.PLP.part.repulsive>
0.1043

> <Gold.PLP.ligand.clash>
0.0000

> <Gold.PLP.ligand.torsion>
0.3841

> <Gold.PLP.Chemscore.Hbond>
0.9913

> <Gold.PLP.Chemscore.CHOScore>
0.0000

> <Gold.PLP.Chemscore.Metal>
0.0000

> <Gold.Chemscore.Hbonds>
donor molecule, donor type, donor heavy atom, donor atom, acceptor molecule, acceptor atom, score
      P1  H  6896  6908       L1    17  0.84

> <Gold.PLP.Chemscore.Internal.Correction>
0.1234

> <Gold.Rescore>
     Score         DG    S(hbond)    S(metal)    S(lipo)     H(rot)  DE(clash)    DE(int)     intcor
     15.50     -17.63       0.97        0.00     110.52       1.57       0.30       1.83       ----

> <Gold.Chemscore.Fitness>
15.4954

> <Gold.Chemscore.DG>
-17.6255

> <Gold.Chemscore.ZeroCoef>
-5.4800

> <Gold.Chemscore.Hbond>
0.9710

> <Gold.Chemscore.Metal>
0.0000

> <Gold.Chemscore.Lipo>
110.5203

> <Gold.Chemscore.Internal_Hbond>
0.0000

> <Gold.Chemscore.DEClash>
0.3031

> <Gold.Chemscore.DEInternal>
1.8271

> <Gold.Chemscore.Rot>
1.5736

> <Gold.Chemscore.Internal.Correction>
   9.000000E+99

> <Gold.Chemscore.Hbonds>
donor molecule, donor type, donor heavy atom, donor atom, acceptor molecule, acceptor atom, score
      P1  H  6896  6908       L1    17  0.70

> <Gold.Chemscore.Hbond.Weighted>
-3.2431

> <Gold.Chemscore.Metal.Weighted>
-0.0000

> <Gold.Chemscore.Lipo.Weighted>
-12.9309

> <Gold.Chemscore.Internal_Hbond.Weighted>
0.0000

> <Gold.Chemscore.DEClash.Weighted>
0.3031

> <Gold.Chemscore.DEInternal.Weighted>
1.8271

> <Gold.Chemscore.Rot.Weighted>
4.0284

> <Gold.Chemscore.Internal.Correction.Weighted>
   9.000000E+99

> <Gold.Protein.RotatedTorsions>
[ 6907 6896 6895 6894 ] final  -74.49 input  -60.11 | X-H torsion
[ 7974 7965 7964 7962 ] final   73.34 input  175.53 | X-H torsion
[ 8008 7997 7996 7995 ] final  -17.24 input   59.86 | X-H torsion
[ 10167 10162 10161 10158 ] final  111.28 input  -65.29 | X-H torsion
[ 10718 10713 10712 10709 ] final -116.34 input   66.30 | X-H torsion
[ 10763 10752 10751 10750 ] final   48.65 input  -60.55 | X-H torsion
[ 11005 11000 10999 10996 ] final   47.07 input  -57.11 | X-H torsion

> <Gold.Protein.ActiveResidues>
 VAL166  LYS551  ARG553  GLY616  TRP617  ASP618  TYR619  PRO620  LYS621  CYS622 
 ASP623  PHE694  ASN695  SER759  ASP760  ASP761  ALA762  ILE779  LEU786  VAL792 
 PHE793  MET794  SER795  GLU796  ALA797  LYS798  CYS799  TRP800  GLU811  SER814 

> <Gold.Protein.RotatedAtoms>
  150.7091  134.4861  159.5493 H   0  0  0  0  0  0  0  0  0  0  0  0  # atno 6907 bound_to 6896
  152.2488  134.8151  160.0458 H   0  0  0  0  0  0  0  0  0  0  0  0  # atno 6908 bound_to 6896
  151.8906  133.3480  159.3833 H   0  0  0  0  0  0  0  0  0  0  0  0  # atno 6909 bound_to 6896
  145.7421  139.2725  143.1480 H   0  0  0  0  0  0  0  0  0  0  0  0  # atno 7974 bound_to 7965
  154.4993  140.2148  155.9381 H   0  0  0  0  0  0  0  0  0  0  0  0  # atno 8008 bound_to 7997
  156.1412  140.3179  155.8466 H   0  0  0  0  0  0  0  0  0  0  0  0  # atno 8009 bound_to 7997
  155.4116  140.0491  157.3022 H   0  0  0  0  0  0  0  0  0  0  0  0  # atno 8010 bound_to 7997
  139.6624  144.7128  151.1841 H   0  0  0  0  0  0  0  0  0  0  0  0  # atno 10167 bound_to 10162
  156.0957  130.6130  150.9023 H   0  0  0  0  0  0  0  0  0  0  0  0  # atno 10718 bound_to 10713
  152.9790  135.5937  154.3961 H   0  0  0  0  0  0  0  0  0  0  0  0  # atno 10763 bound_to 10752
  154.3611  135.2767  155.2321 H   0  0  0  0  0  0  0  0  0  0  0  0  # atno 10764 bound_to 10752
  154.4318  135.6034  153.6128 H   0  0  0  0  0  0  0  0  0  0  0  0  # atno 10765 bound_to 10752
  140.1312  134.4703  155.8520 H   0  0  0  0  0  0  0  0  0  0  0  0  # atno 11005 bound_to 11000
  146.0438  140.8138  142.9815 LP  0  0  0  0  0  0  0  0  0  0  0  0  # atno 17320 bound_to 7965
  144.6868  140.2950  143.7272 LP  0  0  0  0  0  0  0  0  0  0  0  0  # atno 17321 bound_to 7965
  140.7585  143.5974  150.8734 LP  0  0  0  0  0  0  0  0  0  0  0  0  # atno 17342 bound_to 10162
  139.9632  143.6140  152.2996 LP  0  0  0  0  0  0  0  0  0  0  0  0  # atno 17343 bound_to 10162
  157.6117  131.0936  150.8783 LP  0  0  0  0  0  0  0  0  0  0  0  0  # atno 17370 bound_to 10713
  156.8921  130.5216  149.5286 LP  0  0  0  0  0  0  0  0  0  0  0  0  # atno 17371 bound_to 10713
  141.2170  133.6796  156.7073 LP  0  0  0  0  0  0  0  0  0  0  0  0  # atno 17394 bound_to 11000
  140.2840  134.8294  157.3958 LP  0  0  0  0  0  0  0  0  0  0  0  0  # atno 17395 bound_to 11000

$$$$
