AV-unprocessed.smi:2400|AV-procd|sdf|9501|dock9
  -GOLD-   2272013133D 1   1.00000     0.00000
 Structure written by MMmdl.
 44 45  0  0  0  0  0  0  0  0  1 V2000
  152.9000  139.5732  158.9677 C   0  0  0  0  0  0  0  0  0  0  0  0
  151.7283  140.3323  159.2122 O   0  0  0  0  0  0  0  0  0  0  0  0
  151.9499  141.6627  159.2734 C   0  0  0  0  0  0  0  0  0  0  0  0
  151.4615  142.7070  158.5378 C   0  0  0  0  0  0  0  0  0  0  0  0
  150.5505  142.7052  157.4510 N   0  0  0  0  0  0  0  0  0  0  0  0
  150.4637  141.7946  156.4688 C   0  0  0  0  0  0  0  0  0  0  0  0
  151.1566  140.7809  156.3841 O   0  0  0  0  0  0  0  0  0  0  0  0
  149.5020  142.1151  155.5919 N   0  0  0  0  0  0  0  0  0  0  0  0
  149.1306  141.3255  154.4173 C   0  0  2  0  0  0  0  0  0  0  0  0
  147.8429  141.8850  153.7794 C   0  0  0  0  0  0  0  0  0  0  0  0
  146.8199  140.7506  153.7951 C   0  0  0  0  0  0  0  0  0  0  0  0
  147.6641  139.4806  153.8273 C   0  0  0  0  0  0  0  0  0  0  0  0
  148.8687  139.8185  154.7236 C   0  0  0  0  0  0  0  0  0  0  0  0
  150.0873  138.9512  154.3557 C   0  0  0  0  0  0  0  0  0  0  0  0
  148.4943  139.5445  156.2007 C   0  0  0  0  0  0  0  0  0  0  0  0
  152.1199  143.8591  159.0505 C   0  0  0  0  0  0  0  0  0  0  0  0
  152.0054  145.2924  158.6173 C   0  0  0  0  0  0  0  0  0  0  0  0
  152.9194  143.5431  160.0633 N   0  0  0  0  0  0  0  0  0  0  0  0
  152.8104  142.1998  160.2077 N   0  0  0  0  0  0  0  0  0  0  0  0
  153.5776  141.5248  161.2342 C   0  0  0  0  0  0  0  0  0  0  0  0
  152.6515  138.5124  158.9536 H   0  0  0  0  0  0  0  0  0  0  0  0
  153.6414  139.7352  159.7511 H   0  0  0  0  0  0  0  0  0  0  0  0
  153.3494  139.8243  158.0065 H   0  0  0  0  0  0  0  0  0  0  0  0
  149.8476  143.4294  157.4630 H   0  0  0  0  0  0  0  0  0  0  0  0
  148.9799  142.9645  155.7490 H   0  0  0  0  0  0  0  0  0  0  0  0
  149.9169  141.4147  153.6647 H   0  0  0  0  0  0  0  0  0  0  0  0
  147.4582  142.7686  154.2904 H   0  0  0  0  0  0  0  0  0  0  0  0
  148.0475  142.1791  152.7491 H   0  0  0  0  0  0  0  0  0  0  0  0
  146.2099  140.8142  154.6968 H   0  0  0  0  0  0  0  0  0  0  0  0
  146.1466  140.7840  152.9384 H   0  0  0  0  0  0  0  0  0  0  0  0
  147.0988  138.6147  154.1744 H   0  0  0  0  0  0  0  0  0  0  0  0
  148.0010  139.2582  152.8135 H   0  0  0  0  0  0  0  0  0  0  0  0
  149.8772  137.8914  154.5028 H   0  0  0  0  0  0  0  0  0  0  0  0
  150.9512  139.2048  154.9706 H   0  0  0  0  0  0  0  0  0  0  0  0
  150.3768  139.0859  153.3130 H   0  0  0  0  0  0  0  0  0  0  0  0
  148.2077  138.5024  156.3465 H   0  0  0  0  0  0  0  0  0  0  0  0
  147.6574  140.1608  156.5300 H   0  0  0  0  0  0  0  0  0  0  0  0
  149.3316  139.7385  156.8721 H   0  0  0  0  0  0  0  0  0  0  0  0
  151.3025  145.4059  157.7921 H   0  0  0  0  0  0  0  0  0  0  0  0
  152.9690  145.6796  158.2859 H   0  0  0  0  0  0  0  0  0  0  0  0
  151.6562  145.9220  159.4359 H   0  0  0  0  0  0  0  0  0  0  0  0
  153.0858  140.5934  161.5161 H   0  0  0  0  0  0  0  0  0  0  0  0
  153.6625  142.1576  162.1183 H   0  0  0  0  0  0  0  0  0  0  0  0
  154.5751  141.3006  160.8562 H   0  0  0  0  0  0  0  0  0  0  0  0
  1  2  1  0  0  0  0
  1 21  1  0  0  0  0
  1 22  1  0  0  0  0
  1 23  1  0  0  0  0
  2  3  1  0  0  0  0
  3 19  1  0  0  0  0
  3  4  2  0  0  0  0
  4  5  1  0  0  0  0
  4 16  1  0  0  0  0
  5  6  1  0  0  0  0
  5 24  1  0  0  0  0
  6  7  2  0  0  0  0
  6  8  1  0  0  0  0
  8  9  1  0  0  0  0
  8 25  1  0  0  0  0
  9 13  1  0  0  0  0
  9 10  1  0  0  0  0
  9 26  1  0  0  0  0
 10 11  1  0  0  0  0
 10 27  1  0  0  0  0
 10 28  1  0  0  0  0
 11 12  1  0  0  0  0
 11 29  1  0  0  0  0
 11 30  1  0  0  0  0
 12 13  1  0  0  0  0
 12 31  1  0  0  0  0
 12 32  1  0  0  0  0
 13 14  1  0  0  0  0
 13 15  1  0  0  0  0
 14 33  1  0  0  0  0
 14 34  1  0  0  0  0
 14 35  1  0  0  0  0
 15 36  1  0  0  0  0
 15 37  1  0  0  0  0
 15 38  1  0  0  0  0
 16 17  1  0  0  0  0
 16 18  2  0  0  0  0
 17 39  1  0  0  0  0
 17 40  1  0  0  0  0
 17 41  1  0  0  0  0
 18 19  1  0  0  0  0
 19 20  1  0  0  0  0
 20 42  1  0  0  0  0
 20 43  1  0  0  0  0
 20 44  1  0  0  0  0
M  END
> <s_m_source_file>
AV-unprocessed.smi

> <i_m_source_file_index>
2400

> <i_lp_mmshare_version>
43012

> <i_f3d_flags>
0

> <s_epik_input>
W0NIM11uMW5jKFtDSDNdKWMoYzFPW0NIM10pW05IXUMoPU8pW05IXVtDQEBIXShDMihbQ0gzXSlbQ0gzXSlbQ0gyXVtDSDJdW0NIMl0y

> <s_epik_cmdline>
J2VwaWtfcHl0aG9uJywgJy1waCcsICc3LjAnLCAnLXRuJywgJzgnLCAnLW1hJywgJzIwMCcsICctbWV0YWxfYmluZGluZycsICctaW1hZScsICc8aW5maWxlLm1hZT4nLCAnLW9tYWUnLCAnPG91dGZpbGUubWFlPic=

> <r_lp_tautomer_probability>
1

> <r_epik_Ionization_Penalty>
0.000423583

> <r_epik_Ionization_Penalty_Charging>
0

> <r_epik_Ionization_Penalty_Neutral>
0.000423583

> <r_epik_State_Penalty>
-0

> <r_epik_Charging_Adjusted_Penalty>
0

> <i_epik_Tot_Q>
0

> <i_epik_Tot_abs_Q>
0

> <r_epik_Metal_State_Penalty>
-0

> <b_epik_Metal_Only>
0

> <s_lp_Force_Field>
OPLS_2005

> <r_lp_Energy>
29.9339

> <b_lp_Chiralities_Consistent>
1

> <s_lp_Variant>
AV-unprocessed.smi:2400-1

> <Gold.Version>
5.8.1

> <Gold.Id.Protein>
6NUR|6NUR_protein|mol2

> <Gold.PLP.Fitness>
43.6032

> <Gold.PLP.PLP>
-41.3121

> <Gold.PLP.part.hbond>
-1.5854

> <Gold.PLP.part.metal>
0.0000

> <Gold.PLP.part.buried>
-5.9527

> <Gold.PLP.part.nonpolar>
-33.9430

> <Gold.PLP.part.repulsive>
0.1942

> <Gold.PLP.ligand.clash>
0.0000

> <Gold.PLP.ligand.torsion>
0.3784

> <Gold.PLP.Chemscore.Hbond>
1.0155

> <Gold.PLP.Chemscore.CHOScore>
0.0000

> <Gold.PLP.Chemscore.Metal>
0.0000

> <Gold.Chemscore.Hbonds>
donor molecule, donor type, donor heavy atom, donor atom, acceptor molecule, acceptor atom, score
      L1  H     5    24       P1  8028  0.04
      L1  H     8    25       P1  8028  0.99

> <Gold.PLP.Chemscore.Internal.Correction>
0.0014

> <Gold.Rescore>
     Score         DG    S(hbond)    S(metal)    S(lipo)     H(rot)  DE(clash)    DE(int)     intcor
     16.45     -19.53       1.92        0.00      91.67       1.21       1.64       1.44       ----

> <Gold.Chemscore.Fitness>
16.4492

> <Gold.Chemscore.DG>
-19.5279

> <Gold.Chemscore.ZeroCoef>
-5.4800

> <Gold.Chemscore.Hbond>
1.9236

> <Gold.Chemscore.Metal>
0.0000

> <Gold.Chemscore.Lipo>
91.6715

> <Gold.Chemscore.Internal_Hbond>
0.0000

> <Gold.Chemscore.DEClash>
1.6351

> <Gold.Chemscore.DEInternal>
1.4437

> <Gold.Chemscore.Rot>
1.2119

> <Gold.Chemscore.Internal.Correction>
   9.000000E+99

> <Gold.Chemscore.Hbonds>
donor molecule, donor type, donor heavy atom, donor atom, acceptor molecule, acceptor atom, score
      L1  H     5    24       P1  8028  0.06
      L1  H     8    25       P1  8028  0.94

> <Gold.Chemscore.Hbond.Weighted>
-6.4247

> <Gold.Chemscore.Metal.Weighted>
-0.0000

> <Gold.Chemscore.Lipo.Weighted>
-10.7256

> <Gold.Chemscore.Internal_Hbond.Weighted>
0.0000

> <Gold.Chemscore.DEClash.Weighted>
1.6351

> <Gold.Chemscore.DEInternal.Weighted>
1.4437

> <Gold.Chemscore.Rot.Weighted>
3.1024

> <Gold.Chemscore.Internal.Correction.Weighted>
   9.000000E+99

> <Gold.Protein.RotatedTorsions>
[ 6907 6896 6895 6894 ] final   54.06 input  -60.11 | X-H torsion
[ 7974 7965 7964 7962 ] final -125.55 input  175.53 | X-H torsion
[ 8008 7997 7996 7995 ] final    9.91 input   59.86 | X-H torsion
[ 10167 10162 10161 10158 ] final -123.55 input  -65.29 | X-H torsion
[ 10718 10713 10712 10709 ] final  124.18 input   66.30 | X-H torsion
[ 10763 10752 10751 10750 ] final -124.86 input  -60.55 | X-H torsion
[ 11005 11000 10999 10996 ] final  -28.84 input  -57.11 | X-H torsion

> <Gold.Protein.ActiveResidues>
 VAL166  LYS551  ARG553  GLY616  TRP617  ASP618  TYR619  PRO620  LYS621  CYS622 
 ASP623  PHE694  ASN695  SER759  ASP760  ASP761  ALA762  ILE779  LEU786  VAL792 
 PHE793  MET794  SER795  GLU796  ALA797  LYS798  CYS799  TRP800  GLU811  SER814 

> <Gold.Protein.RotatedAtoms>
  152.3400  134.7146  160.0265 H   0  0  0  0  0  0  0  0  0  0  0  0  # atno 6907 bound_to 6896
  151.7534  133.3323  159.3406 H   0  0  0  0  0  0  0  0  0  0  0  0  # atno 6908 bound_to 6896
  150.7474  134.6103  159.6127 H   0  0  0  0  0  0  0  0  0  0  0  0  # atno 6909 bound_to 6896
  144.9965  140.7780  143.4522 H   0  0  0  0  0  0  0  0  0  0  0  0  # atno 7974 bound_to 7965
  154.7863  140.2828  155.6025 H   0  0  0  0  0  0  0  0  0  0  0  0  # atno 8008 bound_to 7997
  156.2958  140.2613  156.2628 H   0  0  0  0  0  0  0  0  0  0  0  0  # atno 8009 bound_to 7997
  154.9724  140.0376  157.2230 H   0  0  0  0  0  0  0  0  0  0  0  0  # atno 8010 bound_to 7997
  140.0023  143.5527  152.2298 H   0  0  0  0  0  0  0  0  0  0  0  0  # atno 10167 bound_to 10162
  157.5606  131.1089  150.8545 H   0  0  0  0  0  0  0  0  0  0  0  0  # atno 10718 bound_to 10713
  154.8729  135.4049  154.3175 H   0  0  0  0  0  0  0  0  0  0  0  0  # atno 10763 bound_to 10752
  153.4008  135.7018  153.6432 H   0  0  0  0  0  0  0  0  0  0  0  0  # atno 10764 bound_to 10752
  153.5176  135.3694  155.2587 H   0  0  0  0  0  0  0  0  0  0  0  0  # atno 10765 bound_to 10752
  140.9243  133.7378  156.0846 H   0  0  0  0  0  0  0  0  0  0  0  0  # atno 11005 bound_to 11000
  145.2213  139.2158  143.5091 LP  0  0  0  0  0  0  0  0  0  0  0  0  # atno 17320 bound_to 7965
  146.3443  140.2071  142.8589 LP  0  0  0  0  0  0  0  0  0  0  0  0  # atno 17321 bound_to 7965
  139.6263  144.7637  151.2632 LP  0  0  0  0  0  0  0  0  0  0  0  0  # atno 17342 bound_to 10162
  140.7414  143.6558  150.8207 LP  0  0  0  0  0  0  0  0  0  0  0  0  # atno 17343 bound_to 10162
  156.9044  130.5258  149.5282 LP  0  0  0  0  0  0  0  0  0  0  0  0  # atno 17370 bound_to 10713
  156.0659  130.5702  150.9287 LP  0  0  0  0  0  0  0  0  0  0  0  0  # atno 17371 bound_to 10713
  140.7946  134.3578  157.5456 LP  0  0  0  0  0  0  0  0  0  0  0  0  # atno 17394 bound_to 11000
  139.8782  134.9161  156.3146 LP  0  0  0  0  0  0  0  0  0  0  0  0  # atno 17395 bound_to 11000

$$$$
