AV-unprocessed.smi:3228|AV-procd|sdf|12324|dock4
  -GOLD-   2272018173D 1   1.00000     0.00000
 Structure written by MMmdl.
 30 31  0  0  0  0  0  0  0  0  2 V2000
  152.3141  140.0654  155.3904 O   0  0  0  0  0  0  0  0  0  0  0  0
  151.2031  139.6901  155.7720 C   0  0  0  0  0  0  0  0  0  0  0  0
  150.8582  139.8310  157.0585 N   0  0  0  0  0  0  0  0  0  0  0  0
  151.7052  140.4057  158.0963 C   0  0  0  0  0  0  0  0  0  0  0  0
  151.8029  141.9355  157.9451 C   0  0  1  0  0  0  0  0  0  0  0  0
  150.4680  142.6865  158.0415 C   0  0  0  0  0  0  0  0  0  0  0  0
  150.8276  144.1275  158.4350 C   0  0  0  0  0  0  0  0  0  0  0  0
  152.3136  144.1178  158.8281 C   0  0  0  0  0  0  0  0  0  0  0  0
  152.7046  142.6426  158.9674 C   0  0  1  0  0  0  0  0  0  0  0  0
  152.4273  142.2170  160.2888 O   0  0  0  0  0  0  0  0  0  0  0  0
  150.2417  139.1223  155.0084 N   0  5  0  0  0  0  0  0  0  0  0  0
  149.2308  139.8693  154.5355 C   0  0  0  0  0  0  0  0  0  0  0  0
  149.2059  141.2041  154.6254 N   0  0  0  0  0  0  0  0  0  0  0  0
  148.0573  141.7764  154.0757 C   0  0  0  0  0  0  0  0  0  0  0  0
  147.1832  140.8554  153.5627 C   0  0  0  0  0  0  0  0  0  0  0  0
  147.7798  139.2316  153.7566 S   0  0  0  0  0  0  0  0  0  0  0  0
  149.9413  139.5120  157.3351 H   0  0  0  0  0  0  0  0  0  0  0  0
  151.2966  140.1405  159.0724 H   0  0  0  0  0  0  0  0  0  0  0  0
  152.7008  139.9640  158.0325 H   0  0  0  0  0  0  0  0  0  0  0  0
  152.2205  142.1452  156.9584 H   0  0  0  0  0  0  0  0  0  0  0  0
  149.9034  142.6418  157.1097 H   0  0  0  0  0  0  0  0  0  0  0  0
  149.8464  142.2424  158.8205 H   0  0  0  0  0  0  0  0  0  0  0  0
  150.6555  144.8177  157.6084 H   0  0  0  0  0  0  0  0  0  0  0  0
  150.2059  144.4567  159.2681 H   0  0  0  0  0  0  0  0  0  0  0  0
  152.8960  144.5653  158.0216 H   0  0  0  0  0  0  0  0  0  0  0  0
  152.5147  144.6999  159.7286 H   0  0  0  0  0  0  0  0  0  0  0  0
  153.7627  142.4801  158.7593 H   0  0  0  0  0  0  0  0  0  0  0  0
  153.2403  141.9600  160.6967 H   0  0  0  0  0  0  0  0  0  0  0  0
  147.9441  142.8500  154.0939 H   0  0  0  0  0  0  0  0  0  0  0  0
  146.2303  141.0304  153.0867 H   0  0  0  0  0  0  0  0  0  0  0  0
  1  2  2  0  0  0  0
  2  3  1  0  0  0  0
  2 11  1  0  0  0  0
  3  4  1  0  0  0  0
  3 17  1  0  0  0  0
  4  5  1  0  0  0  0
  4 18  1  0  0  0  0
  4 19  1  0  0  0  0
  5  9  1  0  0  0  0
  5  6  1  0  0  0  0
  5 20  1  0  0  0  0
  6  7  1  0  0  0  0
  6 21  1  0  0  0  0
  6 22  1  0  0  0  0
  7  8  1  0  0  0  0
  7 23  1  0  0  0  0
  7 24  1  0  0  0  0
  8  9  1  0  0  0  0
  8 25  1  0  0  0  0
  8 26  1  0  0  0  0
  9 10  1  0  0  0  0
  9 27  1  0  0  0  0
 10 28  1  0  0  0  0
 11 12  1  0  0  0  0
 12 16  1  0  0  0  0
 12 13  2  0  0  0  0
 13 14  1  0  0  0  0
 14 15  2  0  0  0  0
 14 29  1  0  0  0  0
 15 16  1  0  0  0  0
 15 30  1  0  0  0  0
M  CHG  1  11  -1
M  END
> <s_m_source_file>
AV-unprocessed.smi

> <i_m_source_file_index>
3228

> <i_lp_mmshare_version>
43012

> <i_f3d_flags>
0

> <s_epik_input>
czFbY0hdW2NIXW5jMVtOSF1DKD1PKVtOSF1bQ0gyXVtDQEBIXTJbQ0gyXVtDSDJdW0NIMl1bQ0BIXTJbT0hd

> <s_epik_cmdline>
J2VwaWtfcHl0aG9uJywgJy1waCcsICc3LjAnLCAnLXRuJywgJzgnLCAnLW1hJywgJzIwMCcsICctbWV0YWxfYmluZGluZycsICctaW1hZScsICc8aW5maWxlLm1hZT4nLCAnLW9tYWUnLCAnPG91dGZpbGUubWFlPic=

> <r_lp_tautomer_probability>
0.999

> <r_epik_Ionization_Penalty>
8.49756

> <r_epik_Ionization_Penalty_Charging>
6.79645

> <r_epik_Ionization_Penalty_Neutral>
1.70111

> <r_epik_State_Penalty>
6.79662

> <r_epik_Charging_Adjusted_Penalty>
13.5931

> <i_epik_Tot_Q>
-1

> <i_epik_Tot_abs_Q>
1

> <r_epik_Metal_State_Penalty>
2.71629

> <b_epik_Metal_Only>
1

> <s_lp_Force_Field>
OPLS_2005

> <r_lp_Energy>
20.5315

> <b_lp_Chiralities_Consistent>
1

> <s_lp_Variant>
AV-unprocessed.smi:3228-6

> <Gold.Version>
5.8.1

> <Gold.Id.Protein>
6NUR|6NUR_protein|mol2

> <Gold.PLP.Fitness>
38.1261

> <Gold.PLP.PLP>
-31.2333

> <Gold.PLP.part.hbond>
-1.7642

> <Gold.PLP.part.metal>
0.0000

> <Gold.PLP.part.buried>
-3.9419

> <Gold.PLP.part.nonpolar>
-25.3785

> <Gold.PLP.part.repulsive>
0.2954

> <Gold.PLP.ligand.clash>
0.0000

> <Gold.PLP.ligand.torsion>
0.8390

> <Gold.PLP.Chemscore.Hbond>
1.2177

> <Gold.PLP.Chemscore.CHOScore>
1.6383

> <Gold.PLP.Chemscore.Metal>
0.0000

> <Gold.Chemscore.Hbonds>
donor molecule, donor type, donor heavy atom, donor atom, acceptor molecule, acceptor atom, score
      P1  H  7989  7998       L1     1  0.41
      P1  H  7997  8010       L1     1  0.65
      L1  C    14    29       P1  8028  0.89
      L1  C    15    30       P1 10175  0.66

> <Gold.PLP.Chemscore.Internal.Correction>
0.0029

> <Gold.Rescore>
     Score         DG    S(hbond)    S(metal)    S(lipo)     H(rot)  DE(clash)    DE(int)     intcor
     12.48     -13.57       1.00        0.00      80.96       1.85       0.22       0.87       ----

> <Gold.Chemscore.Fitness>
12.4764

> <Gold.Chemscore.DG>
-13.5671

> <Gold.Chemscore.ZeroCoef>
-5.4800

> <Gold.Chemscore.Hbond>
1.0017

> <Gold.Chemscore.Metal>
0.0000

> <Gold.Chemscore.Lipo>
80.9631

> <Gold.Chemscore.Internal_Hbond>
0.0000

> <Gold.Chemscore.DEClash>
0.2211

> <Gold.Chemscore.DEInternal>
0.8697

> <Gold.Chemscore.Rot>
1.8481

> <Gold.Chemscore.Internal.Correction>
   9.000000E+99

> <Gold.Chemscore.Hbonds>
donor molecule, donor type, donor heavy atom, donor atom, acceptor molecule, acceptor atom, score
      P1  H  7989  7998       L1     1  0.07
      P1  H  7997  8010       L1     1  0.65

> <Gold.Chemscore.Hbond.Weighted>
-3.3457

> <Gold.Chemscore.Metal.Weighted>
-0.0000

> <Gold.Chemscore.Lipo.Weighted>
-9.4727

> <Gold.Chemscore.Internal_Hbond.Weighted>
0.0000

> <Gold.Chemscore.DEClash.Weighted>
0.2211

> <Gold.Chemscore.DEInternal.Weighted>
0.8697

> <Gold.Chemscore.Rot.Weighted>
4.7313

> <Gold.Chemscore.Internal.Correction.Weighted>
   9.000000E+99

> <Gold.Protein.RotatedTorsions>
[ 6907 6896 6895 6894 ] final    5.33 input  -60.11 | X-H torsion
[ 7974 7965 7964 7962 ] final  -16.52 input  175.53 | X-H torsion
[ 8008 7997 7996 7995 ] final   96.94 input   59.86 | X-H torsion
[ 10167 10162 10161 10158 ] final  -41.68 input  -65.29 | X-H torsion
[ 10718 10713 10712 10709 ] final   82.47 input   66.30 | X-H torsion
[ 10763 10752 10751 10750 ] final -108.06 input  -60.55 | X-H torsion
[ 11005 11000 10999 10996 ] final   85.29 input  -57.11 | X-H torsion

> <Gold.Protein.ActiveResidues>
 VAL166  LYS551  ARG553  GLY616  TRP617  ASP618  TYR619  PRO620  LYS621  CYS622 
 ASP623  PHE694  ASN695  SER759  ASP760  ASP761  ALA762  ILE779  LEU786  VAL792 
 PHE793  MET794  SER795  GLU796  ALA797  LYS798  CYS799  TRP800  GLU811  SER814 

> <Gold.Protein.RotatedAtoms>
  151.6558  135.0996  160.0169 H   0  0  0  0  0  0  0  0  0  0  0  0  # atno 6907 bound_to 6896
  152.3975  133.6764  159.6297 H   0  0  0  0  0  0  0  0  0  0  0  0  # atno 6908 bound_to 6896
  150.7880  133.8765  159.3315 H   0  0  0  0  0  0  0  0  0  0  0  0  # atno 6909 bound_to 6896
  146.1984  140.3647  142.8432 H   0  0  0  0  0  0  0  0  0  0  0  0  # atno 7974 bound_to 7965
  156.0849  140.3265  155.7741 H   0  0  0  0  0  0  0  0  0  0  0  0  # atno 8008 bound_to 7997
  155.5092  140.0575  157.2943 H   0  0  0  0  0  0  0  0  0  0  0  0  # atno 8009 bound_to 7997
  154.4603  140.1963  156.0279 H   0  0  0  0  0  0  0  0  0  0  0  0  # atno 8010 bound_to 7997
  140.6995  143.3081  151.3101 H   0  0  0  0  0  0  0  0  0  0  0  0  # atno 10167 bound_to 10162
  157.6858  131.0049  150.2380 H   0  0  0  0  0  0  0  0  0  0  0  0  # atno 10718 bound_to 10713
  154.8113  135.4652  154.0523 H   0  0  0  0  0  0  0  0  0  0  0  0  # atno 10763 bound_to 10752
  153.1952  135.6861  153.8308 H   0  0  0  0  0  0  0  0  0  0  0  0  # atno 10764 bound_to 10752
  153.7812  135.3256  155.3343 H   0  0  0  0  0  0  0  0  0  0  0  0  # atno 10765 bound_to 10752
  139.8976  134.8276  156.2562 H   0  0  0  0  0  0  0  0  0  0  0  0  # atno 11005 bound_to 11000
  144.8629  140.7165  143.6096 LP  0  0  0  0  0  0  0  0  0  0  0  0  # atno 17320 bound_to 7965
  145.3567  139.1692  143.4405 LP  0  0  0  0  0  0  0  0  0  0  0  0  # atno 17321 bound_to 7965
  139.6494  144.0391  152.2615 LP  0  0  0  0  0  0  0  0  0  0  0  0  # atno 17342 bound_to 10162
  139.9922  144.6353  150.7804 LP  0  0  0  0  0  0  0  0  0  0  0  0  # atno 17343 bound_to 10162
  156.2999  130.3757  149.7760 LP  0  0  0  0  0  0  0  0  0  0  0  0  # atno 17370 bound_to 10713
  156.5393  130.8292  151.3263 LP  0  0  0  0  0  0  0  0  0  0  0  0  # atno 17371 bound_to 10713
  141.0192  133.7051  156.1240 LP  0  0  0  0  0  0  0  0  0  0  0  0  # atno 17394 bound_to 11000
  140.7258  134.4309  157.5571 LP  0  0  0  0  0  0  0  0  0  0  0  0  # atno 17395 bound_to 11000

$$$$
