AV-unprocessed.smi:1464|AV-procd|sdf|5939|dock8
  -GOLD-   22720 6 23D 1   1.00000     0.00000
 Structure written by MMmdl.
 40 41  0  0  0  0  0  0  0  0  2 V2000
  152.4875  144.7311  158.2385 C   0  0  0  0  0  0  0  0  0  0  0  0
  151.4421  144.1303  159.2008 C   0  0  2  0  0  0  0  0  0  0  0  0
  151.7120  144.5424  160.6623 C   0  0  0  0  0  0  0  0  0  0  0  0
  152.9293  143.8161  161.2558 C   0  0  0  0  0  0  0  0  0  0  0  0
  152.7737  142.2931  161.1448 C   0  0  0  0  0  0  0  0  0  0  0  0
  152.5073  141.8445  159.6948 C   0  0  1  0  0  0  0  0  0  0  0  0
  152.2853  140.3990  159.6842 N   0  0  0  0  0  0  0  0  0  0  0  0
  153.1073  139.4758  159.1608 C   0  0  0  0  0  0  0  0  0  0  0  0
  154.1747  139.7538  158.6115 O   0  0  0  0  0  0  0  0  0  0  0  0
  152.6267  138.0210  159.2841 C   0  0  0  0  0  0  0  0  0  0  0  0
  151.1703  137.8536  159.1705 N   0  0  0  0  0  0  0  0  0  0  0  0
  150.5804  137.0709  160.2534 N   0  5  0  0  0  0  0  0  0  0  0  0
  149.2351  136.8760  160.2731 C   0  0  0  0  0  0  0  0  0  0  0  0
  148.6657  136.2481  161.1627 O   0  0  0  0  0  0  0  0  0  0  0  0
  148.4468  137.4349  159.1873 C   0  0  0  0  0  0  0  0  0  0  0  0
  149.0216  138.1285  158.1852 C   0  0  0  0  0  0  0  0  0  0  0  0
  150.4585  138.3688  158.1276 C   0  0  0  0  0  0  0  0  0  0  0  0
  150.9910  138.9946  157.2106 O   0  0  0  0  0  0  0  0  0  0  0  0
  151.2879  142.5894  159.0913 C   0  0  2  0  0  0  0  0  0  0  0  0
  150.9513  142.1325  157.6578 C   0  0  0  0  0  0  0  0  0  0  0  0
  153.4824  144.3164  158.3981 H   0  0  0  0  0  0  0  0  0  0  0  0
  152.5594  145.8111  158.3689 H   0  0  0  0  0  0  0  0  0  0  0  0
  152.2206  144.5566  157.1965 H   0  0  0  0  0  0  0  0  0  0  0  0
  150.4844  144.5725  158.9224 H   0  0  0  0  0  0  0  0  0  0  0  0
  151.8517  145.6217  160.7316 H   0  0  0  0  0  0  0  0  0  0  0  0
  150.8339  144.3131  161.2674 H   0  0  0  0  0  0  0  0  0  0  0  0
  153.8397  144.1318  160.7456 H   0  0  0  0  0  0  0  0  0  0  0  0
  153.0536  144.0982  162.3017 H   0  0  0  0  0  0  0  0  0  0  0  0
  153.6710  141.8047  161.5274 H   0  0  0  0  0  0  0  0  0  0  0  0
  151.9516  141.9715  161.7862 H   0  0  0  0  0  0  0  0  0  0  0  0
  153.3875  142.0892  159.0988 H   0  0  0  0  0  0  0  0  0  0  0  0
  151.4296  140.0717  160.1084 H   0  0  0  0  0  0  0  0  0  0  0  0
  153.1256  137.4212  158.5210 H   0  0  0  0  0  0  0  0  0  0  0  0
  152.9778  137.6269  160.2396 H   0  0  0  0  0  0  0  0  0  0  0  0
  147.3766  137.2884  159.1830 H   0  0  0  0  0  0  0  0  0  0  0  0
  148.3975  138.5242  157.3981 H   0  0  0  0  0  0  0  0  0  0  0  0
  150.4223  142.3258  159.7017 H   0  0  0  0  0  0  0  0  0  0  0  0
  151.8089  142.2338  156.9924 H   0  0  0  0  0  0  0  0  0  0  0  0
  150.1315  142.7174  157.2403 H   0  0  0  0  0  0  0  0  0  0  0  0
  150.6438  141.0869  157.6337 H   0  0  0  0  0  0  0  0  0  0  0  0
  1  2  1  0  0  0  0
  1 21  1  0  0  0  0
  1 22  1  0  0  0  0
  1 23  1  0  0  0  0
  2 19  1  0  0  0  0
  2  3  1  0  0  0  0
  2 24  1  0  0  0  0
  3  4  1  0  0  0  0
  3 25  1  0  0  0  0
  3 26  1  0  0  0  0
  4  5  1  0  0  0  0
  4 27  1  0  0  0  0
  4 28  1  0  0  0  0
  5  6  1  0  0  0  0
  5 29  1  0  0  0  0
  5 30  1  0  0  0  0
  6  7  1  0  0  0  0
  6 19  1  0  0  0  0
  6 31  1  0  0  0  0
  7  8  1  0  0  0  0
  7 32  1  0  0  0  0
  8  9  2  0  0  0  0
  8 10  1  0  0  0  0
 10 33  1  0  0  0  0
 10 34  1  0  0  0  0
 10 11  1  0  0  0  0
 11 12  1  0  0  0  0
 11 17  1  0  0  0  0
 12 13  1  0  0  0  0
 13 14  2  0  0  0  0
 13 15  1  0  0  0  0
 15 35  1  0  0  0  0
 15 16  2  0  0  0  0
 16 36  1  0  0  0  0
 16 17  1  0  0  0  0
 17 18  2  0  0  0  0
 19 20  1  0  0  0  0
 19 37  1  0  0  0  0
 20 38  1  0  0  0  0
 20 39  1  0  0  0  0
 20 40  1  0  0  0  0
M  CHG  1  12  -1
M  END
> <s_m_source_file>
AV-unprocessed.smi

> <i_m_source_file_index>
1464

> <i_lp_mmshare_version>
43012

> <i_f3d_flags>
0

> <s_epik_input>
W0NIM11bQ0BASF0xW0NIMl1bQ0gyXVtDSDJdW0NASF0oW0NASF0xW0NIM10pW05IXUMoPU8pW0NIMl1uMltuSF1jKD1PKVtjSF1bY0hdYzI9Tw==

> <s_epik_cmdline>
J2VwaWtfcHl0aG9uJywgJy1waCcsICc3LjAnLCAnLXRuJywgJzgnLCAnLW1hJywgJzIwMCcsICctbWV0YWxfYmluZGluZycsICctaW1hZScsICc8aW5maWxlLm1hZT4nLCAnLW9tYWUnLCAnPG91dGZpbGUubWFlPic=

> <r_lp_tautomer_probability>
1

> <r_epik_Ionization_Penalty>
0.101366

> <r_epik_Ionization_Penalty_Charging>
0.101366

> <r_epik_Ionization_Penalty_Neutral>
1.90469e-08

> <r_epik_State_Penalty>
0.035861

> <r_epik_Charging_Adjusted_Penalty>
0.137227

> <i_epik_Tot_Q>
-1

> <i_epik_Tot_abs_Q>
1

> <r_epik_Metal_State_Penalty>
0.035861

> <b_epik_Metal_Only>
0

> <s_lp_Force_Field>
OPLS_2005

> <r_lp_Energy>
29.8831

> <b_lp_Chiralities_Consistent>
1

> <s_lp_Variant>
AV-unprocessed.smi:1464-5

> <Gold.Version>
5.8.1

> <Gold.Id.Protein>
6NUR|6NUR_protein|mol2

> <Gold.PLP.Fitness>
45.0159

> <Gold.PLP.PLP>
-36.9780

> <Gold.PLP.part.hbond>
-2.1909

> <Gold.PLP.part.metal>
0.0000

> <Gold.PLP.part.buried>
-5.9391

> <Gold.PLP.part.nonpolar>
-28.1355

> <Gold.PLP.part.repulsive>
0.1460

> <Gold.PLP.ligand.clash>
0.0000

> <Gold.PLP.ligand.torsion>
0.4838

> <Gold.PLP.Chemscore.Hbond>
3.0000

> <Gold.PLP.Chemscore.CHOScore>
0.0000

> <Gold.PLP.Chemscore.Metal>
0.0000

> <Gold.Chemscore.Hbonds>
donor molecule, donor type, donor heavy atom, donor atom, acceptor molecule, acceptor atom, score
      P1  H  6896  6908       L1    12  1.44
      P1  H  7997  8008       L1     9  1.00

> <Gold.PLP.Chemscore.Internal.Correction>
0.0054

> <Gold.Rescore>
     Score         DG    S(hbond)    S(metal)    S(lipo)     H(rot)  DE(clash)    DE(int)     intcor
     16.14     -17.79       1.82        0.00      89.22       1.64       0.00       1.65       ----

> <Gold.Chemscore.Fitness>
16.1429

> <Gold.Chemscore.DG>
-17.7919

> <Gold.Chemscore.ZeroCoef>
-5.4800

> <Gold.Chemscore.Hbond>
1.8207

> <Gold.Chemscore.Metal>
0.0000

> <Gold.Chemscore.Lipo>
89.2215

> <Gold.Chemscore.Internal_Hbond>
0.0000

> <Gold.Chemscore.DEClash>
0.0000

> <Gold.Chemscore.DEInternal>
1.6491

> <Gold.Chemscore.Rot>
1.6438

> <Gold.Chemscore.Internal.Correction>
   9.000000E+99

> <Gold.Chemscore.Hbonds>
donor molecule, donor type, donor heavy atom, donor atom, acceptor molecule, acceptor atom, score
      P1  H  6896  6908       L1    12  0.07
      P1  H  7997  8008       L1     9  0.93

> <Gold.Chemscore.Hbond.Weighted>
-6.0810

> <Gold.Chemscore.Metal.Weighted>
-0.0000

> <Gold.Chemscore.Lipo.Weighted>
-10.4389

> <Gold.Chemscore.Internal_Hbond.Weighted>
0.0000

> <Gold.Chemscore.DEClash.Weighted>
0.0000

> <Gold.Chemscore.DEInternal.Weighted>
1.6491

> <Gold.Chemscore.Rot.Weighted>
4.2080

> <Gold.Chemscore.Internal.Correction.Weighted>
   9.000000E+99

> <Gold.Protein.RotatedTorsions>
[ 6907 6896 6895 6894 ] final -147.56 input  -60.11 | X-H torsion
[ 7974 7965 7964 7962 ] final -143.48 input  175.53 | X-H torsion
[ 8008 7997 7996 7995 ] final -121.71 input   59.86 | X-H torsion
[ 10167 10162 10161 10158 ] final   74.18 input  -65.29 | X-H torsion
[ 10718 10713 10712 10709 ] final   74.12 input   66.30 | X-H torsion
[ 10763 10752 10751 10750 ] final  -54.97 input  -60.55 | X-H torsion
[ 11005 11000 10999 10996 ] final   82.21 input  -57.11 | X-H torsion

> <Gold.Protein.ActiveResidues>
 VAL166  LYS551  ARG553  GLY616  TRP617  ASP618  TYR619  PRO620  LYS621  CYS622 
 ASP623  PHE694  ASN695  SER759  ASP760  ASP761  ALA762  ILE779  LEU786  VAL792 
 PHE793  MET794  SER795  GLU796  ALA797  LYS798  CYS799  TRP800  GLU811  SER814 

> <Gold.Protein.RotatedAtoms>
  151.1574  133.4867  159.2594 H   0  0  0  0  0  0  0  0  0  0  0  0  # atno 6907 bound_to 6896
  151.1490  135.0217  159.8669 H   0  0  0  0  0  0  0  0  0  0  0  0  # atno 6908 bound_to 6896
  152.5463  134.1460  159.8552 H   0  0  0  0  0  0  0  0  0  0  0  0  # atno 6909 bound_to 6896
  144.8366  140.5829  143.5480 H   0  0  0  0  0  0  0  0  0  0  0  0  # atno 7974 bound_to 7965
  155.1524  140.0404  157.2824 H   0  0  0  0  0  0  0  0  0  0  0  0  # atno 8008 bound_to 7997
  154.6395  140.2543  155.7312 H   0  0  0  0  0  0  0  0  0  0  0  0  # atno 8009 bound_to 7997
  156.2525  140.2858  156.0782 H   0  0  0  0  0  0  0  0  0  0  0  0  # atno 8010 bound_to 7997
  140.0165  144.5574  150.7616 H   0  0  0  0  0  0  0  0  0  0  0  0  # atno 10167 bound_to 10162
  157.6578  130.9662  150.1166 H   0  0  0  0  0  0  0  0  0  0  0  0  # atno 10718 bound_to 10713
  154.1833  135.6440  153.5040 H   0  0  0  0  0  0  0  0  0  0  0  0  # atno 10763 bound_to 10752
  153.0053  135.5411  154.6492 H   0  0  0  0  0  0  0  0  0  0  0  0  # atno 10764 bound_to 10752
  154.5861  135.2930  155.0655 H   0  0  0  0  0  0  0  0  0  0  0  0  # atno 10765 bound_to 10752
  139.9071  134.8054  156.2144 H   0  0  0  0  0  0  0  0  0  0  0  0  # atno 11005 bound_to 11000
  145.4781  139.1497  143.3777 LP  0  0  0  0  0  0  0  0  0  0  0  0  # atno 17320 bound_to 7965
  146.2664  140.4916  142.8832 LP  0  0  0  0  0  0  0  0  0  0  0  0  # atno 17321 bound_to 7965
  140.7360  143.2748  151.3776 LP  0  0  0  0  0  0  0  0  0  0  0  0  # atno 17342 bound_to 10162
  139.6169  144.0984  152.2354 LP  0  0  0  0  0  0  0  0  0  0  0  0  # atno 17343 bound_to 10162
  156.2048  130.3662  149.8743 LP  0  0  0  0  0  0  0  0  0  0  0  0  # atno 17370 bound_to 10713
  156.6637  130.8792  151.3551 LP  0  0  0  0  0  0  0  0  0  0  0  0  # atno 17371 bound_to 10713
  141.0445  133.6920  156.1658 LP  0  0  0  0  0  0  0  0  0  0  0  0  # atno 17394 bound_to 11000
  140.6905  134.4671  157.5588 LP  0  0  0  0  0  0  0  0  0  0  0  0  # atno 17395 bound_to 11000

$$$$
