AV-unprocessed.smi:418|AV-procd|sdf|2529|dock2
  -GOLD-   2262022483D 1   1.00000     0.00000
 Structure written by MMmdl.
 40 42  0  0  0  0  0  0  0  0  1 V2000
  150.0140  135.9906  154.6137 C   0  0  0  0  0  0  0  0  0  0  0  0
  150.4452  137.3278  155.0030 N   0  0  0  0  0  0  0  0  0  0  0  0
  151.5248  137.6492  155.7538 C   0  0  0  0  0  0  0  0  0  0  0  0
  152.3298  136.8564  156.2422 O   0  0  0  0  0  0  0  0  0  0  0  0
  151.5617  138.9970  155.8784 N   0  0  0  0  0  0  0  0  0  0  0  0
  152.5479  139.7739  156.6261 C   0  0  0  0  0  0  0  0  0  0  0  0
  152.4750  139.4824  158.1386 C   0  0  1  0  0  0  0  0  0  0  0  0
  153.2217  138.3259  158.4571 O   0  0  0  0  0  0  0  0  0  0  0  0
  153.0076  140.6384  159.0014 C   0  0  0  0  0  0  0  0  0  0  0  0
  152.6194  141.8827  158.4318 O   0  0  0  0  0  0  0  0  0  0  0  0
  152.4334  142.9600  159.2717 C   0  0  0  0  0  0  0  0  0  0  0  0
  152.5273  142.8927  160.6853 C   0  0  0  0  0  0  0  0  0  0  0  0
  152.3199  144.0444  161.4694 C   0  0  0  0  0  0  0  0  0  0  0  0
  152.0179  145.2734  160.8547 C   0  0  0  0  0  0  0  0  0  0  0  0
  151.9239  145.3500  159.4529 C   0  0  0  0  0  0  0  0  0  0  0  0
  152.1306  144.1992  158.6678 C   0  0  0  0  0  0  0  0  0  0  0  0
  152.0365  144.2866  157.3193 F   0  0  0  0  0  0  0  0  0  0  0  0
  150.4666  139.5515  155.2001 C   0  0  0  0  0  0  0  0  0  0  0  0
  150.0534  140.8860  155.0428 C   0  0  0  0  0  0  0  0  0  0  0  0
  148.8779  141.1135  154.2891 C   0  0  0  0  0  0  0  0  0  0  0  0
  148.1556  140.0306  153.7230 C   0  0  0  0  0  0  0  0  0  0  0  0
  148.5934  138.6967  153.8984 C   0  0  0  0  0  0  0  0  0  0  0  0
  149.7646  138.4999  154.6500 C   0  0  0  0  0  0  0  0  0  0  0  0
  150.7512  135.2304  154.8753 H   0  0  0  0  0  0  0  0  0  0  0  0
  149.8539  135.9436  153.5363 H   0  0  0  0  0  0  0  0  0  0  0  0
  149.0769  135.7388  155.1107 H   0  0  0  0  0  0  0  0  0  0  0  0
  153.5549  139.6005  156.2421 H   0  0  0  0  0  0  0  0  0  0  0  0
  152.3419  140.8297  156.4457 H   0  0  0  0  0  0  0  0  0  0  0  0
  151.4415  139.2942  158.4322 H   0  0  0  0  0  0  0  0  0  0  0  0
  152.8982  137.6082  157.9337 H   0  0  0  0  0  0  0  0  0  0  0  0
  152.5769  140.5545  160.0003 H   0  0  0  0  0  0  0  0  0  0  0  0
  154.0925  140.5712  159.1016 H   0  0  0  0  0  0  0  0  0  0  0  0
  152.7572  141.9688  161.1935 H   0  0  0  0  0  0  0  0  0  0  0  0
  152.3927  143.9838  162.5453 H   0  0  0  0  0  0  0  0  0  0  0  0
  151.8587  146.1558  161.4569 H   0  0  0  0  0  0  0  0  0  0  0  0
  151.6926  146.2921  158.9782 H   0  0  0  0  0  0  0  0  0  0  0  0
  150.6059  141.7055  155.4784 H   0  0  0  0  0  0  0  0  0  0  0  0
  148.5249  142.1237  154.1433 H   0  0  0  0  0  0  0  0  0  0  0  0
  147.2600  140.2272  153.1523 H   0  0  0  0  0  0  0  0  0  0  0  0
  148.0484  137.8671  153.4727 H   0  0  0  0  0  0  0  0  0  0  0  0
  1  2  1  0  0  0  0
  1 24  1  0  0  0  0
  1 25  1  0  0  0  0
  1 26  1  0  0  0  0
  2 23  1  0  0  0  0
  2  3  1  0  0  0  0
  3  4  2  0  0  0  0
  3  5  1  0  0  0  0
  5  6  1  0  0  0  0
  5 18  1  0  0  0  0
  6  7  1  0  0  0  0
  6 27  1  0  0  0  0
  6 28  1  0  0  0  0
  7  8  1  0  0  0  0
  7  9  1  0  0  0  0
  7 29  1  0  0  0  0
  8 30  1  0  0  0  0
  9 10  1  0  0  0  0
  9 31  1  0  0  0  0
  9 32  1  0  0  0  0
 10 11  1  0  0  0  0
 11 16  1  0  0  0  0
 11 12  2  0  0  0  0
 12 13  1  0  0  0  0
 12 33  1  0  0  0  0
 13 14  2  0  0  0  0
 13 34  1  0  0  0  0
 14 15  1  0  0  0  0
 14 35  1  0  0  0  0
 15 16  2  0  0  0  0
 15 36  1  0  0  0  0
 16 17  1  0  0  0  0
 18 23  2  0  0  0  0
 18 19  1  0  0  0  0
 19 20  2  0  0  0  0
 19 37  1  0  0  0  0
 20 21  1  0  0  0  0
 20 38  1  0  0  0  0
 21 22  2  0  0  0  0
 21 39  1  0  0  0  0
 22 23  1  0  0  0  0
 22 40  1  0  0  0  0
M  END
> <s_m_source_file>
AV-unprocessed.smi

> <i_m_source_file_index>
418

> <i_lp_mmshare_version>
43012

> <i_f3d_flags>
0

> <s_epik_input>
W2NIXTFbY0hdW2NIXVtjSF1jKGMxMiluKFtDSDNdKWMoPU8pbjJbQ0gyXVtDQEhdKFtPSF0pW0NIMl1PYzNbY0hdW2NIXVtjSF1bY0hdYzNG

> <s_epik_cmdline>
J2VwaWtfcHl0aG9uJywgJy1waCcsICc3LjAnLCAnLXRuJywgJzgnLCAnLW1hJywgJzIwMCcsICctbWV0YWxfYmluZGluZycsICctaW1hZScsICc8aW5maWxlLm1hZT4nLCAnLW9tYWUnLCAnPG91dGZpbGUubWFlPic=

> <r_lp_tautomer_probability>
1

> <r_epik_Ionization_Penalty>
2.40171e-06

> <r_epik_Ionization_Penalty_Charging>
2.41238e-09

> <r_epik_Ionization_Penalty_Neutral>
2.3993e-06

> <r_epik_State_Penalty>
-0

> <r_epik_Charging_Adjusted_Penalty>
2.41238e-09

> <i_epik_Tot_Q>
0

> <i_epik_Tot_abs_Q>
0

> <r_epik_Metal_State_Penalty>
-0

> <b_epik_Metal_Only>
0

> <s_lp_Force_Field>
OPLS_2005

> <r_lp_Energy>
48.5553

> <b_lp_Chiralities_Consistent>
1

> <s_lp_Variant>
AV-unprocessed.smi:418-2

> <Gold.Version>
5.8.1

> <Gold.Id.Protein>
6NUR|6NUR_protein|mol2

> <Gold.PLP.Fitness>
48.4916

> <Gold.PLP.PLP>
-46.8254

> <Gold.PLP.part.hbond>
-1.0000

> <Gold.PLP.part.metal>
0.0000

> <Gold.PLP.part.buried>
3.2030

> <Gold.PLP.part.nonpolar>
-48.8750

> <Gold.PLP.part.repulsive>
0.0000

> <Gold.PLP.ligand.clash>
0.0000

> <Gold.PLP.ligand.torsion>
0.6880

> <Gold.PLP.Chemscore.Hbond>
1.0000

> <Gold.PLP.Chemscore.CHOScore>
0.0000

> <Gold.PLP.Chemscore.Metal>
0.0000

> <Gold.Chemscore.Hbonds>
donor molecule, donor type, donor heavy atom, donor atom, acceptor molecule, acceptor atom, score
      P1  H 10752 10763       L1     4  1.00

> <Gold.PLP.Chemscore.Internal.Correction>
0.0421

> <Gold.Rescore>
     Score         DG    S(hbond)    S(metal)    S(lipo)     H(rot)  DE(clash)    DE(int)     intcor
     16.54     -18.55       0.95        0.00     134.30       2.27       1.26       0.76       ----

> <Gold.Chemscore.Fitness>
16.5410

> <Gold.Chemscore.DG>
-18.5538

> <Gold.Chemscore.ZeroCoef>
-5.4800

> <Gold.Chemscore.Hbond>
0.9502

> <Gold.Chemscore.Metal>
0.0000

> <Gold.Chemscore.Lipo>
134.2996

> <Gold.Chemscore.Internal_Hbond>
0.0000

> <Gold.Chemscore.DEClash>
1.2550

> <Gold.Chemscore.DEInternal>
0.7577

> <Gold.Chemscore.Rot>
2.2706

> <Gold.Chemscore.Internal.Correction>
   9.000000E+99

> <Gold.Chemscore.Hbonds>
donor molecule, donor type, donor heavy atom, donor atom, acceptor molecule, acceptor atom, score
      P1  H 10752 10763       L1     4  0.88

> <Gold.Chemscore.Hbond.Weighted>
-3.1735

> <Gold.Chemscore.Metal.Weighted>
-0.0000

> <Gold.Chemscore.Lipo.Weighted>
-15.7130

> <Gold.Chemscore.Internal_Hbond.Weighted>
0.0000

> <Gold.Chemscore.DEClash.Weighted>
1.2550

> <Gold.Chemscore.DEInternal.Weighted>
0.7577

> <Gold.Chemscore.Rot.Weighted>
5.8128

> <Gold.Chemscore.Internal.Correction.Weighted>
   9.000000E+99

> <Gold.Protein.RotatedTorsions>
[ 6907 6896 6895 6894 ] final   73.06 input  -60.11 | X-H torsion
[ 7974 7965 7964 7962 ] final   78.61 input  175.53 | X-H torsion
[ 8008 7997 7996 7995 ] final -120.41 input   59.86 | X-H torsion
[ 10167 10162 10161 10158 ] final   40.76 input  -65.29 | X-H torsion
[ 10718 10713 10712 10709 ] final -119.74 input   66.30 | X-H torsion
[ 10763 10752 10751 10750 ] final   88.34 input  -60.55 | X-H torsion
[ 11005 11000 10999 10996 ] final  131.98 input  -57.11 | X-H torsion

> <Gold.Protein.ActiveResidues>
 VAL166  LYS551  ARG553  GLY616  TRP617  ASP618  TYR619  PRO620  LYS621  CYS622 
 ASP623  PHE694  ASN695  SER759  ASP760  ASP761  ALA762  ILE779  LEU786  VAL792 
 PHE793  MET794  SER795  GLU796  ALA797  LYS798  CYS799  TRP800  GLU811  SER814 

> <Gold.Protein.RotatedAtoms>
  152.4902  134.4479  159.9564 H   0  0  0  0  0  0  0  0  0  0  0  0  # atno 6907 bound_to 6896
  151.4467  133.3622  159.2797 H   0  0  0  0  0  0  0  0  0  0  0  0  # atno 6908 bound_to 6896
  150.9050  134.8488  159.7446 H   0  0  0  0  0  0  0  0  0  0  0  0  # atno 6909 bound_to 6896
  145.6750  139.2507  143.1847 H   0  0  0  0  0  0  0  0  0  0  0  0  # atno 7974 bound_to 7965
  155.1314  140.0400  157.2775 H   0  0  0  0  0  0  0  0  0  0  0  0  # atno 8008 bound_to 7997
  154.6540  140.2576  155.7156 H   0  0  0  0  0  0  0  0  0  0  0  0  # atno 8009 bound_to 7997
  156.2590  140.2830  156.0985 H   0  0  0  0  0  0  0  0  0  0  0  0  # atno 8010 bound_to 7997
  140.3710  144.2104  150.6133 H   0  0  0  0  0  0  0  0  0  0  0  0  # atno 10167 bound_to 10162
  156.1204  130.6318  150.9453 H   0  0  0  0  0  0  0  0  0  0  0  0  # atno 10718 bound_to 10713
  153.1759  135.4510  154.9964 H   0  0  0  0  0  0  0  0  0  0  0  0  # atno 10763 bound_to 10752
  154.7998  135.3251  154.7581 H   0  0  0  0  0  0  0  0  0  0  0  0  # atno 10764 bound_to 10752
  153.8051  135.6959  153.4904 H   0  0  0  0  0  0  0  0  0  0  0  0  # atno 10765 bound_to 10752
  139.9763  134.9562  156.9516 H   0  0  0  0  0  0  0  0  0  0  0  0  # atno 11005 bound_to 11000
  146.1013  140.7540  142.9547 LP  0  0  0  0  0  0  0  0  0  0  0  0  # atno 17320 bound_to 7965
  144.7044  140.3792  143.7129 LP  0  0  0  0  0  0  0  0  0  0  0  0  # atno 17321 bound_to 7965
  140.5033  143.2311  151.8646 LP  0  0  0  0  0  0  0  0  0  0  0  0  # atno 17342 bound_to 10162
  139.4804  144.5035  151.9029 LP  0  0  0  0  0  0  0  0  0  0  0  0  # atno 17343 bound_to 10162
  157.6387  131.0913  150.8295 LP  0  0  0  0  0  0  0  0  0  0  0  0  # atno 17370 bound_to 10713
  156.8393  130.5042  149.5323 LP  0  0  0  0  0  0  0  0  0  0  0  0  # atno 17371 bound_to 10713
  140.5189  134.0927  155.7287 LP  0  0  0  0  0  0  0  0  0  0  0  0  # atno 17394 bound_to 11000
  141.1439  133.9089  157.2261 LP  0  0  0  0  0  0  0  0  0  0  0  0  # atno 17395 bound_to 11000

$$$$
