AV-unprocessed.smi:37|AV-procd|sdf|329|dock8
  -GOLD-   2262016163D 1   1.00000     0.00000
 Structure written by MMmdl.
 43 44  0  0  0  0  0  0  0  0  2 V2000
  147.2377  133.7039  162.4275 C   0  0  0  0  0  0  0  0  0  0  0  0
  147.3711  135.2327  162.4861 C   0  0  0  0  0  0  0  0  0  0  0  0
  147.5497  135.8862  161.1140 C   0  0  0  0  0  0  0  0  0  0  0  0
  147.6247  137.1071  160.9643 O   0  0  0  0  0  0  0  0  0  0  0  0
  147.6156  134.9739  160.1376 O   0  0  0  0  0  0  0  0  0  0  0  0
  147.4142  135.3548  158.7862 C   0  0  0  0  0  0  0  0  0  0  0  0
  148.5486  134.8373  157.8822 C   0  0  2  0  0  0  0  0  0  0  0  0
  149.7609  135.5754  158.0267 O   0  0  0  0  0  0  0  0  0  0  0  0
  150.4350  135.6583  156.8004 C   0  0  2  0  0  0  0  0  0  0  0  0
  150.4264  137.0975  156.3130 N   0  0  0  0  0  0  0  0  0  0  0  0
  149.9181  138.1250  157.0924 C   0  0  0  0  0  0  0  0  0  0  0  0
  149.9148  139.4013  156.6582 C   0  0  0  0  0  0  0  0  0  0  0  0
  149.4079  140.3717  157.4382 F   0  0  0  0  0  0  0  0  0  0  0  0
  150.4629  139.7183  155.3417 C   0  0  0  0  0  0  0  0  0  0  0  0
  150.4271  140.8788  154.9364 O   0  0  0  0  0  0  0  0  0  0  0  0
  150.9994  138.6972  154.6136 N   0  5  0  0  0  0  0  0  0  0  0  0
  151.0189  137.4061  155.0568 C   0  0  0  0  0  0  0  0  0  0  0  0
  151.5311  136.4861  154.4190 O   0  0  0  0  0  0  0  0  0  0  0  0
  149.6877  134.7352  155.8185 C   0  0  1  0  0  0  0  0  0  0  0  0
  150.4604  132.9018  155.9231 Br  0  0  0  0  0  0  0  0  0  0  0  0
  148.2741  134.7159  156.3769 C   0  0  2  0  0  0  0  0  0  0  0  0
  147.5212  135.8190  155.8832 O   0  0  0  0  0  0  0  0  0  0  0  0
  147.0275  135.8084  154.6315 C   0  0  0  0  0  0  0  0  0  0  0  0
  147.0381  134.8479  153.8617 O   0  0  0  0  0  0  0  0  0  0  0  0
  146.3971  137.1407  154.2286 C   0  0  0  0  0  0  0  0  0  0  0  0
  145.8272  137.1226  152.8037 C   0  0  0  0  0  0  0  0  0  0  0  0
  147.1045  133.2928  163.4281 H   0  0  0  0  0  0  0  0  0  0  0  0
  148.1284  133.2438  161.9982 H   0  0  0  0  0  0  0  0  0  0  0  0
  146.3775  133.4006  161.8295 H   0  0  0  0  0  0  0  0  0  0  0  0
  146.4852  135.6598  162.9571 H   0  0  0  0  0  0  0  0  0  0  0  0
  148.2216  135.5037  163.1122 H   0  0  0  0  0  0  0  0  0  0  0  0
  146.4580  134.9604  158.4401 H   0  0  0  0  0  0  0  0  0  0  0  0
  147.3602  136.4421  158.7165 H   0  0  0  0  0  0  0  0  0  0  0  0
  148.7906  133.8336  158.2344 H   0  0  0  0  0  0  0  0  0  0  0  0
  151.4926  135.4176  156.9200 H   0  0  0  0  0  0  0  0  0  0  0  0
  149.5192  137.9259  158.0728 H   0  0  0  0  0  0  0  0  0  0  0  0
  149.7526  135.0606  154.7806 H   0  0  0  0  0  0  0  0  0  0  0  0
  147.7523  133.7857  156.1463 H   0  0  0  0  0  0  0  0  0  0  0  0
  145.5995  137.3696  154.9359 H   0  0  0  0  0  0  0  0  0  0  0  0
  147.1413  137.9312  154.3257 H   0  0  0  0  0  0  0  0  0  0  0  0
  145.2484  138.0254  152.6095 H   0  0  0  0  0  0  0  0  0  0  0  0
  145.1702  136.2667  152.6432 H   0  0  0  0  0  0  0  0  0  0  0  0
  146.6248  137.0811  152.0621 H   0  0  0  0  0  0  0  0  0  0  0  0
  1  2  1  0  0  0  0
  1 27  1  0  0  0  0
  1 28  1  0  0  0  0
  1 29  1  0  0  0  0
  2  3  1  0  0  0  0
  2 30  1  0  0  0  0
  2 31  1  0  0  0  0
  3  4  2  0  0  0  0
  3  5  1  0  0  0  0
  5  6  1  0  0  0  0
  6  7  1  0  0  0  0
  6 32  1  0  0  0  0
  6 33  1  0  0  0  0
  7 21  1  0  0  0  0
  7  8  1  0  0  0  0
  7 34  1  0  0  0  0
  8  9  1  0  0  0  0
  9 10  1  0  0  0  0
  9 19  1  0  0  0  0
  9 35  1  0  0  0  0
 10 17  1  0  0  0  0
 10 11  1  0  0  0  0
 11 12  2  0  0  0  0
 11 36  1  0  0  0  0
 12 13  1  0  0  0  0
 12 14  1  0  0  0  0
 14 15  2  0  0  0  0
 14 16  1  0  0  0  0
 16 17  1  0  0  0  0
 17 18  2  0  0  0  0
 19 20  1  0  0  0  0
 19 21  1  0  0  0  0
 19 37  1  0  0  0  0
 21 22  1  0  0  0  0
 21 38  1  0  0  0  0
 22 23  1  0  0  0  0
 23 24  2  0  0  0  0
 23 25  1  0  0  0  0
 25 26  1  0  0  0  0
 25 39  1  0  0  0  0
 25 40  1  0  0  0  0
 26 41  1  0  0  0  0
 26 42  1  0  0  0  0
 26 43  1  0  0  0  0
M  CHG  1  16  -1
M  END
> <s_m_source_file>
AV-unprocessed.smi

> <i_m_source_file_index>
37

> <i_lp_mmshare_version>
43012

> <i_f3d_flags>
0

> <s_epik_input>
W0NIM11bQ0gyXUMoPU8pT1tDSDJdW0NAQEhdMU9bQ0BASF0objJbY0hdYyhGKWMoPU8pW25IXWMyPU8pW0NAQEhdKEJyKVtDQEhdMU9DKD1PKVtDSDJdW0NIM10=

> <s_epik_cmdline>
J2VwaWtfcHl0aG9uJywgJy1waCcsICc3LjAnLCAnLXRuJywgJzgnLCAnLW1hJywgJzIwMCcsICctbWV0YWxfYmluZGluZycsICctaW1hZScsICc8aW5maWxlLm1hZT4nLCAnLW9tYWUnLCAnPG91dGZpbGUubWFlPic=

> <r_epik_Ionization_Penalty>
1.08158

> <r_epik_Ionization_Penalty_Charging>
9.05154e-09

> <r_epik_Ionization_Penalty_Neutral>
1.08158

> <r_epik_State_Penalty>
1.13706

> <r_epik_Charging_Adjusted_Penalty>
1.13706

> <i_epik_Tot_Q>
-1

> <i_epik_Tot_abs_Q>
1

> <r_epik_Metal_State_Penalty>
0.00343535

> <b_epik_Metal_Only>
0

> <s_epik_Chemistry_Notes>
This compound has an ester and may undergo hydrolysis at high or low pH. This compound contains an acetal/aminal-like group ( X-CH(R)-Y where X, Y are N, S, or O) that may be acid/base labile, releasing an aldehyde.

> <s_lp_Force_Field>
OPLS_2005

> <r_lp_Energy>
30.7461

> <b_lp_Chiralities_Consistent>
1

> <s_lp_Variant>
AV-unprocessed.smi:37-27

> <Gold.Version>
5.8.1

> <Gold.Id.Protein>
6NUR|6NUR_protein|mol2

> <Gold.PLP.Fitness>
42.6319

> <Gold.PLP.PLP>
-30.5070

> <Gold.PLP.part.hbond>
-5.0000

> <Gold.PLP.part.metal>
0.0000

> <Gold.PLP.part.buried>
-5.2392

> <Gold.PLP.part.nonpolar>
-21.3614

> <Gold.PLP.part.repulsive>
1.4292

> <Gold.PLP.ligand.clash>
0.0000

> <Gold.PLP.ligand.torsion>
0.9177

> <Gold.PLP.Chemscore.Hbond>
4.5920

> <Gold.PLP.Chemscore.CHOScore>
0.0000

> <Gold.PLP.Chemscore.Metal>
0.0000

> <Gold.Chemscore.Hbonds>
donor molecule, donor type, donor heavy atom, donor atom, acceptor molecule, acceptor atom, score
      P1  H  6896  6908       L1     8  0.99
      P1  H  6931  6943       L1     4  0.89
      P1  H  6934  6947       L1     4  0.94
      P1  H  7989  7998       L1    15  0.78
      P1  H 10752 10765       L1    18  1.00

> <Gold.PLP.Chemscore.Internal.Correction>
0.1843

> <Gold.Rescore>
     Score         DG    S(hbond)    S(metal)    S(lipo)     H(rot)  DE(clash)    DE(int)     intcor
     14.11     -16.43       4.20        0.00      45.07       3.27       0.11       2.20       ----

> <Gold.Chemscore.Fitness>
14.1126

> <Gold.Chemscore.DG>
-16.4257

> <Gold.Chemscore.ZeroCoef>
-5.4800

> <Gold.Chemscore.Hbond>
4.2023

> <Gold.Chemscore.Metal>
0.0000

> <Gold.Chemscore.Lipo>
45.0711

> <Gold.Chemscore.Internal_Hbond>
0.0000

> <Gold.Chemscore.DEClash>
0.1133

> <Gold.Chemscore.DEInternal>
2.1998

> <Gold.Chemscore.Rot>
3.2669

> <Gold.Chemscore.Internal.Correction>
   9.000000E+99

> <Gold.Chemscore.Hbonds>
donor molecule, donor type, donor heavy atom, donor atom, acceptor molecule, acceptor atom, score
      P1  H  6896  6908       L1     8  0.37
      P1  H  6931  6943       L1     4  0.80
      P1  H  6934  6947       L1     4  0.89
      P1  H  7989  7998       L1    15  0.35
      P1  H 10752 10765       L1    18  0.95

> <Gold.Chemscore.Hbond.Weighted>
-14.0357

> <Gold.Chemscore.Metal.Weighted>
-0.0000

> <Gold.Chemscore.Lipo.Weighted>
-5.2733

> <Gold.Chemscore.Internal_Hbond.Weighted>
0.0000

> <Gold.Chemscore.DEClash.Weighted>
0.1133

> <Gold.Chemscore.DEInternal.Weighted>
2.1998

> <Gold.Chemscore.Rot.Weighted>
8.3634

> <Gold.Chemscore.Internal.Correction.Weighted>
   9.000000E+99

> <Gold.Protein.RotatedTorsions>
[ 6907 6896 6895 6894 ] final  174.42 input  -60.11 | X-H torsion
[ 7974 7965 7964 7962 ] final  -27.92 input  175.53 | X-H torsion
[ 8008 7997 7996 7995 ] final   -5.72 input   59.86 | X-H torsion
[ 10167 10162 10161 10158 ] final   30.95 input  -65.29 | X-H torsion
[ 10718 10713 10712 10709 ] final  -64.34 input   66.30 | X-H torsion
[ 10763 10752 10751 10750 ] final -173.57 input  -60.55 | X-H torsion
[ 11005 11000 10999 10996 ] final   60.41 input  -57.11 | X-H torsion

> <Gold.Protein.ActiveResidues>
 VAL166  LYS551  ARG553  GLY616  TRP617  ASP618  TYR619  PRO620  LYS621  CYS622 
 ASP623  PHE694  ASN695  SER759  ASP760  ASP761  ALA762  ILE779  LEU786  VAL792 
 PHE793  MET794  SER795  GLU796  ALA797  LYS798  CYS799  TRP800  GLU811  SER814 

> <Gold.Protein.RotatedAtoms>
  151.7525  133.3328  159.3395 H   0  0  0  0  0  0  0  0  0  0  0  0  # atno 6907 bound_to 6896
  150.7529  134.6179  159.6130 H   0  0  0  0  0  0  0  0  0  0  0  0  # atno 6908 bound_to 6896
  152.3459  134.7074  160.0302 H   0  0  0  0  0  0  0  0  0  0  0  0  # atno 6909 bound_to 6896
  146.1324  140.5215  142.8687 H   0  0  0  0  0  0  0  0  0  0  0  0  # atno 7974 bound_to 7965
  154.6010  140.2451  155.7793 H   0  0  0  0  0  0  0  0  0  0  0  0  # atno 8008 bound_to 7997
  156.2310  140.2966  156.0142 H   0  0  0  0  0  0  0  0  0  0  0  0  # atno 8009 bound_to 7997
  155.2212  140.0400  157.2939 H   0  0  0  0  0  0  0  0  0  0  0  0  # atno 8010 bound_to 7997
  140.4632  144.0875  150.6218 H   0  0  0  0  0  0  0  0  0  0  0  0  # atno 10167 bound_to 10162
  156.0735  130.4232  150.1407 H   0  0  0  0  0  0  0  0  0  0  0  0  # atno 10718 bound_to 10713
  154.6063  135.2860  155.0481 H   0  0  0  0  0  0  0  0  0  0  0  0  # atno 10763 bound_to 10752
  154.1727  135.6470  153.5017 H   0  0  0  0  0  0  0  0  0  0  0  0  # atno 10764 bound_to 10752
  153.0177  135.5404  154.6801 H   0  0  0  0  0  0  0  0  0  0  0  0  # atno 10765 bound_to 10752
  140.0234  134.6119  155.9608 H   0  0  0  0  0  0  0  0  0  0  0  0  # atno 11005 bound_to 11000
  144.7704  140.5625  143.6674 LP  0  0  0  0  0  0  0  0  0  0  0  0  # atno 17320 bound_to 7965
  145.5231  139.1476  143.3541 LP  0  0  0  0  0  0  0  0  0  0  0  0  # atno 17321 bound_to 7965
  140.4068  143.2676  151.9881 LP  0  0  0  0  0  0  0  0  0  0  0  0  # atno 17342 bound_to 10162
  139.4809  144.5950  151.7706 LP  0  0  0  0  0  0  0  0  0  0  0  0  # atno 17343 bound_to 10162
  156.9453  130.9757  151.3508 LP  0  0  0  0  0  0  0  0  0  0  0  0  # atno 17370 bound_to 10713
  157.5818  130.8382  149.8533 LP  0  0  0  0  0  0  0  0  0  0  0  0  # atno 17371 bound_to 10713
  141.1788  133.6543  156.4934 LP  0  0  0  0  0  0  0  0  0  0  0  0  # atno 17394 bound_to 11000
  140.4349  134.7068  157.4961 LP  0  0  0  0  0  0  0  0  0  0  0  0  # atno 17395 bound_to 11000

$$$$
