#       Name:                AV-unprocessed.smi:3237
#       Creating user name   scv26
#       Creation time:       Fri Mar 27 18:22:46 2020


#       File generated by GOLD software.
#

@<TRIPOS>MOLECULE
AV-unprocessed.smi:3237
    42    44     1
SMALL
NO_CHARGES


@<TRIPOS>ATOM
      1 ****        -6.9703  -0.2051   0.5956 C.3            1 S1                 0.0000
      2 ****        -5.7016   0.5093   0.2782 C.2            1 S1                 0.0000
      3 ****        -4.4404   0.0770  -0.0210 C.2            1 S1                 0.0000
      4 ****        -3.7227   1.2939  -0.2094 C.2            1 S1                 0.0000
      5 ****        -2.3509   1.4149  -0.5493 N.am           1 S1                 0.0000
      6 ****        -1.4182   0.4495  -0.6022 C.2            1 S1                 0.0000
      7 ****        -1.6080  -0.7421  -0.3586 O.2            1 S1                 0.0000
      8 ****        -0.2217   0.9471  -0.9462 N.am           1 S1                 0.0000
      9 ****         1.0025   0.1616  -1.0645 C.3            1 S1                 0.0000
     10 ****         2.1593   0.9265  -1.7071 C.3            1 S1                 0.0000
     11 ****         3.4241   0.2993  -1.0948 C.3            1 S1                 0.0000
     12 ****         2.9768  -0.5952  -0.0009 N.4            1 S1                 1.0000
     13 ****         3.8608  -0.5983   1.1837 C.3            1 S1                 0.0000
     14 ****         5.0337  -1.5413   1.0604 C.3            1 S1                 0.0000
     15 ****         3.8556  -1.9068   1.9371 C.3            1 S1                 0.0000
     16 ****         1.5791  -0.2363   0.2940 C.3            1 S1                 0.0000
     17 ****        -4.4815   2.3625  -0.0512 N.2            1 S1                 0.0000
     18 ****        -5.7516   1.8686   0.2682 O.3            1 S1                 0.0000
     19 ****        -6.8382  -1.2849   0.5245 H              1 S1                 0.0000
     20 ****        -7.7607   0.0849  -0.0969 H              1 S1                 0.0000
     21 ****        -7.3023   0.0291   1.6071 H              1 S1                 0.0000
     22 ****        -4.1047  -0.9466  -0.0915 H              1 S1                 0.0000
     23 ****        -2.0387   2.3541  -0.7478 H              1 S1                 0.0000
     24 ****        -0.1520   1.9372  -1.1324 H              1 S1                 0.0000
     25 ****         0.8078  -0.7382  -1.6522 H              1 S1                 0.0000
     26 ****         2.1448   0.8600  -2.7957 H              1 S1                 0.0000
     27 ****         2.1128   1.9833  -1.4395 H              1 S1                 0.0000
     28 ****         3.9782  -0.2842  -1.8308 H              1 S1                 0.0000
     29 ****         4.0888   1.0808  -0.7229 H              1 S1                 0.0000
     30 ****         3.9641   0.3458   1.7160 H              1 S1                 0.0000
     31 ****         5.1570  -2.0915   0.1294 H              1 S1                 0.0000
     32 ****         5.9585  -1.2601   1.5599 H              1 S1                 0.0000
     33 ****         4.0061  -1.8672   3.0141 H              1 S1                 0.0000
     34 ****         3.1965  -2.6998   1.5885 H              1 S1                 0.0000
     35 ****         1.5516   0.6096   0.9840 H              1 S1                 0.0000
     36 ****         1.0429  -1.0678   0.7528 H              1 S1                 0.0000
     37 ****         2.9607  -1.5313  -0.3803 H              1 S1                 0.0000
     38 ****        -2.5189  -1.0597  -0.0954 LP             1 S1                 0.0000
     39 ****        -0.8512  -1.3924  -0.4238 LP             1 S1                 0.0000
     40 ****        -4.2074   3.3201  -0.1404 LP             1 S1                 0.0000
     41 ****        -6.0250   2.2019   1.1706 LP             1 S1                 0.0000
     42 ****        -6.4137   2.1759  -0.4153 LP             1 S1                 0.0000
@<TRIPOS>BOND
    1    1    2 1     
    2    1   19 1     
    3    1   20 1     
    4    1   21 1     
    5    2   18 1     
    6    2    3 2     
    7    3    4 1     
    8    3   22 1     
    9    4    5 1     
   10    4   17 2     
   11    5    6 am    
   12    5   23 1     
   13    6    7 2     
   14    6    8 am    
   15    8    9 1     
   16    8   24 1     
   17    9   16 1     
   18    9   10 1     
   19    9   25 1     
   20   10   11 1     
   21   10   26 1     
   22   10   27 1     
   23   11   12 1     
   24   11   28 1     
   25   11   29 1     
   26   12   13 1     
   27   12   16 1     
   28   12   37 1     
   29   13   15 1     
   30   13   14 1     
   31   13   30 1     
   32   14   15 1     
   33   14   31 1     
   34   14   32 1     
   35   15   33 1     
   36   15   34 1     
   37   16   35 1     
   38   16   36 1     
   39   17   18 1     
   40    7   38 1     
   41    7   39 1     
   42   17   40 1     
   43   18   41 1     
   44   18   42 1     
@<TRIPOS>SUBSTRUCTURE
      1 S1             1
@<TRIPOS>SET
LONE_PAIRS      STATIC     ATOMS    <user>   **** ""
5 38 39 40 41 42
DONOR_HYDROGENS      STATIC     ATOMS    <user>   **** ""
3 23 24 37
ATOM$BLUE        STATIC     ATOMS    COLORGROUP SYSTEM
5 38 39 40 41 42
ATOM$RED        STATIC     ATOMS    COLORGROUP SYSTEM
3 23 24 37
