AV-unprocessed.smi:2734|AV-procd|sdf|10539|dock10
  -GOLD-   2272014583D 1   1.00000     0.00000
 Structure written by MMmdl.
 41 43  0  0  0  0  0  0  0  0  2 V2000
  152.3633  143.4506  161.4851 C   0  0  0  0  0  0  0  0  0  0  0  0
  152.1854  142.7500  160.1488 C   0  0  0  0  0  0  0  0  0  0  0  0
  151.3780  143.3671  159.1666 C   0  0  0  0  0  0  0  0  0  0  0  0
  151.2372  142.7043  157.9533 C   0  0  0  0  0  0  0  0  0  0  0  0
  150.5243  143.0439  156.8011 N   0  3  0  0  0  0  0  0  0  0  0  0
  150.6929  142.0739  155.8600 C   0  0  0  0  0  0  0  0  0  0  0  0
  151.5026  141.1205  156.3954 N   0  0  0  0  0  0  0  0  0  0  0  0
  152.0071  139.8721  155.8089 C   0  0  0  0  0  0  0  0  0  0  0  0
  150.8786  138.9493  155.3089 C   0  0  2  0  0  0  0  0  0  0  0  0
  150.4432  139.3861  154.0353 O   0  0  0  0  0  0  0  0  0  0  0  0
  149.6835  138.9277  156.2747 C   0  0  0  0  0  0  0  0  0  0  0  0
  148.9046  137.2857  156.3583 S   0  0  0  0  0  0  0  0  0  0  0  0
  150.3213  136.2971  156.7269 C   0  0  0  0  0  0  0  0  0  0  0  0
  151.1235  136.4213  157.7783 N   0  0  0  0  0  0  0  0  0  0  0  0
  152.0637  135.4239  157.6018 N   0  0  0  0  0  0  0  0  0  0  0  0
  151.8361  134.7488  156.5129 N   0  0  0  0  0  0  0  0  0  0  0  0
  150.7317  135.2909  155.9447 N   0  0  0  0  0  0  0  0  0  0  0  0
  150.1956  134.7700  154.7030 C   0  0  0  0  0  0  0  0  0  0  0  0
  151.8658  141.4699  157.6996 C   0  0  0  0  0  0  0  0  0  0  0  0
  152.6630  140.8466  158.6562 C   0  0  0  0  0  0  0  0  0  0  0  0
  152.8180  141.5045  159.8975 C   0  0  0  0  0  0  0  0  0  0  0  0
  153.6828  140.8494  160.9610 C   0  0  0  0  0  0  0  0  0  0  0  0
  151.8640  144.4200  161.4972 H   0  0  0  0  0  0  0  0  0  0  0  0
  153.4201  143.6191  161.6934 H   0  0  0  0  0  0  0  0  0  0  0  0
  151.9424  142.8486  162.2906 H   0  0  0  0  0  0  0  0  0  0  0  0
  150.8927  144.3143  159.3514 H   0  0  0  0  0  0  0  0  0  0  0  0
  150.2675  142.0651  154.8667 H   0  0  0  0  0  0  0  0  0  0  0  0
  152.6956  140.1238  155.0012 H   0  0  0  0  0  0  0  0  0  0  0  0
  152.5987  139.3669  156.5739 H   0  0  0  0  0  0  0  0  0  0  0  0
  151.2655  137.9353  155.2018 H   0  0  0  0  0  0  0  0  0  0  0  0
  150.6631  138.7212  153.4002 H   0  0  0  0  0  0  0  0  0  0  0  0
  150.0193  139.1978  157.2766 H   0  0  0  0  0  0  0  0  0  0  0  0
  148.9405  139.6677  155.9738 H   0  0  0  0  0  0  0  0  0  0  0  0
  150.1513  135.5668  153.9603 H   0  0  0  0  0  0  0  0  0  0  0  0
  149.1903  134.3838  154.8725 H   0  0  0  0  0  0  0  0  0  0  0  0
  150.8253  133.9653  154.3210 H   0  0  0  0  0  0  0  0  0  0  0  0
  153.1465  139.9007  158.4619 H   0  0  0  0  0  0  0  0  0  0  0  0
  154.0257  139.8638  160.6445 H   0  0  0  0  0  0  0  0  0  0  0  0
  153.1245  140.7231  161.8888 H   0  0  0  0  0  0  0  0  0  0  0  0
  154.5628  141.4598  161.1656 H   0  0  0  0  0  0  0  0  0  0  0  0
  149.9661  143.8765  156.6627 H   0  0  0  0  0  0  0  0  0  0  0  0
  1  2  1  0  0  0  0
  1 23  1  0  0  0  0
  1 24  1  0  0  0  0
  1 25  1  0  0  0  0
  2 21  1  0  0  0  0
  2  3  2  0  0  0  0
  3  4  1  0  0  0  0
  3 26  1  0  0  0  0
  4 19  2  0  0  0  0
  4  5  1  0  0  0  0
  5  6  2  0  0  0  0
  5 41  1  0  0  0  0
  6  7  1  0  0  0  0
  6 27  1  0  0  0  0
  7  8  1  0  0  0  0
  7 19  1  0  0  0  0
  8  9  1  0  0  0  0
  8 28  1  0  0  0  0
  8 29  1  0  0  0  0
  9 10  1  0  0  0  0
  9 11  1  0  0  0  0
  9 30  1  0  0  0  0
 10 31  1  0  0  0  0
 11 12  1  0  0  0  0
 11 32  1  0  0  0  0
 11 33  1  0  0  0  0
 12 13  1  0  0  0  0
 13 17  1  0  0  0  0
 13 14  2  0  0  0  0
 14 15  1  0  0  0  0
 15 16  2  0  0  0  0
 16 17  1  0  0  0  0
 17 18  1  0  0  0  0
 18 34  1  0  0  0  0
 18 35  1  0  0  0  0
 18 36  1  0  0  0  0
 19 20  1  0  0  0  0
 20 21  2  0  0  0  0
 20 37  1  0  0  0  0
 21 22  1  0  0  0  0
 22 38  1  0  0  0  0
 22 39  1  0  0  0  0
 22 40  1  0  0  0  0
M  CHG  1   5   1
M  END
> <s_m_source_file>
AV-unprocessed.smi

> <i_m_source_file_index>
2734

> <i_lp_mmshare_version>
43012

> <i_f3d_flags>
0

> <s_epik_input>
W0NIM11jKFtjSF0xKWMoW0NIM10pW2NIXWMoYzEyKW4oW2NIXW4yKVtDSDJdW0NASF0oW09IXSlbQ0gyXVNjM25ubm4zW0NIM10=

> <s_epik_cmdline>
J2VwaWtfcHl0aG9uJywgJy1waCcsICc3LjAnLCAnLXRuJywgJzgnLCAnLW1hJywgJzIwMCcsICctbWV0YWxfYmluZGluZycsICctaW1hZScsICc8aW5maWxlLm1hZT4nLCAnLW9tYWUnLCAnPG91dGZpbGUubWFlPic=

> <r_lp_tautomer_probability>
1

> <r_epik_Ionization_Penalty>
1.07429

> <r_epik_Ionization_Penalty_Charging>
1.07429

> <r_epik_Ionization_Penalty_Neutral>
3.30514e-06

> <r_epik_State_Penalty>
1.12915

> <r_epik_Charging_Adjusted_Penalty>
2.20344

> <i_epik_Tot_Q>
1

> <i_epik_Tot_abs_Q>
1

> <r_epik_Metal_State_Penalty>
1.22002

> <b_epik_Metal_Only>
0

> <s_lp_Force_Field>
OPLS_2005

> <r_lp_Energy>
14.6731

> <b_lp_Chiralities_Consistent>
1

> <s_lp_Variant>
AV-unprocessed.smi:2734-3

> <Gold.Version>
5.8.1

> <Gold.Id.Protein>
6NUR|6NUR_protein|mol2

> <Gold.PLP.Fitness>
50.9434

> <Gold.PLP.PLP>
-40.7754

> <Gold.PLP.part.hbond>
-5.5147

> <Gold.PLP.part.metal>
0.0000

> <Gold.PLP.part.buried>
-5.0523

> <Gold.PLP.part.nonpolar>
-28.4454

> <Gold.PLP.part.repulsive>
0.0369

> <Gold.PLP.ligand.clash>
0.0000

> <Gold.PLP.ligand.torsion>
0.6910

> <Gold.PLP.Chemscore.Hbond>
3.8465

> <Gold.PLP.Chemscore.CHOScore>
0.0000

> <Gold.PLP.Chemscore.Metal>
0.0000

> <Gold.Chemscore.Hbonds>
donor molecule, donor type, donor heavy atom, donor atom, acceptor molecule, acceptor atom, score
      L1  H     5    41       P1  8028  1.92
      P1  H  7989  7998       L1    10  1.00
      P1  H 10752 10764       L1    16  0.84

> <Gold.PLP.Chemscore.Internal.Correction>
0.0106

> <Gold.Rescore>
     Score         DG    S(hbond)    S(metal)    S(lipo)     H(rot)  DE(clash)    DE(int)     intcor
     12.70     -13.47       1.16        0.00      98.91       2.92       0.07       0.70       ----

> <Gold.Chemscore.Fitness>
12.6971

> <Gold.Chemscore.DG>
-13.4731

> <Gold.Chemscore.ZeroCoef>
-5.4800

> <Gold.Chemscore.Hbond>
1.1636

> <Gold.Chemscore.Metal>
0.0000

> <Gold.Chemscore.Lipo>
98.9115

> <Gold.Chemscore.Internal_Hbond>
0.0000

> <Gold.Chemscore.DEClash>
0.0749

> <Gold.Chemscore.DEInternal>
0.7011

> <Gold.Chemscore.Rot>
2.9164

> <Gold.Chemscore.Internal.Correction>
   9.000000E+99

> <Gold.Chemscore.Hbonds>
donor molecule, donor type, donor heavy atom, donor atom, acceptor molecule, acceptor atom, score
      L1  H     5    41       P1  8028  0.92
      P1  H  7989  7998       L1    10  0.19
      P1  H 10752 10764       L1    16  0.11

> <Gold.Chemscore.Hbond.Weighted>
-3.8864

> <Gold.Chemscore.Metal.Weighted>
-0.0000

> <Gold.Chemscore.Lipo.Weighted>
-11.5726

> <Gold.Chemscore.Internal_Hbond.Weighted>
0.0000

> <Gold.Chemscore.DEClash.Weighted>
0.0749

> <Gold.Chemscore.DEInternal.Weighted>
0.7011

> <Gold.Chemscore.Rot.Weighted>
7.4660

> <Gold.Chemscore.Internal.Correction.Weighted>
   9.000000E+99

> <Gold.Protein.RotatedTorsions>
[ 6907 6896 6895 6894 ] final  136.25 input  -60.11 | X-H torsion
[ 7974 7965 7964 7962 ] final  156.87 input  175.53 | X-H torsion
[ 8008 7997 7996 7995 ] final   64.95 input   59.86 | X-H torsion
[ 10167 10162 10161 10158 ] final   76.20 input  -65.29 | X-H torsion
[ 10718 10713 10712 10709 ] final   18.12 input   66.30 | X-H torsion
[ 10763 10752 10751 10750 ] final  -16.52 input  -60.55 | X-H torsion
[ 11005 11000 10999 10996 ] final  135.32 input  -57.11 | X-H torsion

> <Gold.Protein.ActiveResidues>
 VAL166  LYS551  ARG553  GLY616  TRP617  ASP618  TYR619  PRO620  LYS621  CYS622 
 ASP623  PHE694  ASN695  SER759  ASP760  ASP761  ALA762  ILE779  LEU786  VAL792 
 PHE793  MET794  SER795  GLU796  ALA797  LYS798  CYS799  TRP800  GLU811  SER814 

> <Gold.Protein.RotatedAtoms>
  152.2914  133.5565  159.5559 H   0  0  0  0  0  0  0  0  0  0  0  0  # atno 6907 bound_to 6896
  150.7237  134.0423  159.3779 H   0  0  0  0  0  0  0  0  0  0  0  0  # atno 6908 bound_to 6896
  151.8328  135.0616  160.0490 H   0  0  0  0  0  0  0  0  0  0  0  0  # atno 6909 bound_to 6896
  144.7937  139.7263  143.6211 H   0  0  0  0  0  0  0  0  0  0  0  0  # atno 7974 bound_to 7965
  155.6540  140.3497  155.4758 H   0  0  0  0  0  0  0  0  0  0  0  0  # atno 8008 bound_to 7997
  155.9824  140.1177  157.0738 H   0  0  0  0  0  0  0  0  0  0  0  0  # atno 8009 bound_to 7997
  154.4195  140.1135  156.5439 H   0  0  0  0  0  0  0  0  0  0  0  0  # atno 8010 bound_to 7997
  139.9948  144.5730  150.7787 H   0  0  0  0  0  0  0  0  0  0  0  0  # atno 10167 bound_to 10162
  157.0918  130.6431  149.5850 H   0  0  0  0  0  0  0  0  0  0  0  0  # atno 10718 bound_to 10713
  153.5598  135.7010  153.5552 H   0  0  0  0  0  0  0  0  0  0  0  0  # atno 10763 bound_to 10752
  153.3439  135.4013  155.1593 H   0  0  0  0  0  0  0  0  0  0  0  0  # atno 10764 bound_to 10752
  154.8649  135.3749  154.5115 H   0  0  0  0  0  0  0  0  0  0  0  0  # atno 10765 bound_to 10752
  139.9972  134.9492  156.9991 H   0  0  0  0  0  0  0  0  0  0  0  0  # atno 11005 bound_to 11000
  146.2198  139.5615  142.9626 LP  0  0  0  0  0  0  0  0  0  0  0  0  # atno 17320 bound_to 7965
  145.5728  141.0392  143.2164 LP  0  0  0  0  0  0  0  0  0  0  0  0  # atno 17321 bound_to 7965
  140.7441  143.2856  151.3473 LP  0  0  0  0  0  0  0  0  0  0  0  0  # atno 17342 bound_to 10162
  139.6314  144.0714  152.2479 LP  0  0  0  0  0  0  0  0  0  0  0  0  # atno 17343 bound_to 10162
  155.9896  130.4944  150.7221 LP  0  0  0  0  0  0  0  0  0  0  0  0  # atno 17370 bound_to 10713
  157.4714  131.0893  151.0638 LP  0  0  0  0  0  0  0  0  0  0  0  0  # atno 17371 bound_to 10713
  140.4796  134.1303  155.7215 LP  0  0  0  0  0  0  0  0  0  0  0  0  # atno 17394 bound_to 11000
  141.1614  133.8786  157.1838 LP  0  0  0  0  0  0  0  0  0  0  0  0  # atno 17395 bound_to 11000

$$$$
