#       Name:                AV-unprocessed.smi:58
#       Creating user name   scv26
#       Creation time:       Thu Mar 26 16:48:30 2020


#       File generated by GOLD software.
#

@<TRIPOS>MOLECULE
AV-unprocessed.smi:58
    37    38     1
SMALL
NO_CHARGES


@<TRIPOS>ATOM
      1 ****        -4.2114   1.2770   1.3644 C.3            1 S1                 0.0000
      2 ****        -3.0905   0.3655   1.2829 N.pl3          1 S1                 0.0000
      3 ****        -3.0975  -1.0122   1.3026 C.2            1 S1                 0.0000
      4 ****        -1.7999  -1.4286   1.2081 C.2            1 S1                 0.0000
      5 ****        -1.3635  -2.7698   1.1999 N.pl3          1 S1                 0.0000
      6 ****        -1.0588  -0.2101   1.1138 C.2            1 S1                 0.0000
      7 ****         0.4415  -0.2140   1.0381 C.2            1 S1                 0.0000
      8 ****         1.0884  -0.7707   1.9257 O.2            1 S1                 0.0000
      9 ****         1.0148   0.3692  -0.0404 N.am           1 S1                 0.0000
     10 ****         0.2984   1.0716  -1.1086 C.3            1 S1                 0.0000
     11 ****         1.3421   1.4270  -2.1669 C.3            1 S1                 0.0000
     12 ****         2.6595   1.4523  -1.4041 C.3            1 S1                 0.0000
     13 ****         2.4653   0.4470  -0.2610 C.3            1 S1                 0.0000
     14 ****         3.1104  -0.9345  -0.5289 C.3            1 S1                 0.0000
     15 ****         2.6346  -1.5256  -1.7212 O.3            1 S1                 0.0000
     16 ****        -1.8402   0.8597   1.1808 N.2            1 S1                 0.0000
     17 ****        -5.1471   0.7179   1.3875 H              1 S1                 0.0000
     18 ****        -4.2150   1.9381   0.4972 H              1 S1                 0.0000
     19 ****        -4.1334   1.8760   2.2721 H              1 S1                 0.0000
     20 ****        -4.0151  -1.5758   1.3866 H              1 S1                 0.0000
     21 ****        -2.0124  -3.5413   1.2664 H              1 S1                 0.0000
     22 ****        -0.3916  -3.0146   1.0750 H              1 S1                 0.0000
     23 ****        -0.5014   0.4643  -1.5351 H              1 S1                 0.0000
     24 ****        -0.1434   1.9830  -0.7036 H              1 S1                 0.0000
     25 ****         1.3731   0.6459  -2.9272 H              1 S1                 0.0000
     26 ****         1.1277   2.3699  -2.6706 H              1 S1                 0.0000
     27 ****         3.5181   1.2277  -2.0378 H              1 S1                 0.0000
     28 ****         2.8126   2.4487  -0.9874 H              1 S1                 0.0000
     29 ****         2.9292   0.8589   0.6371 H              1 S1                 0.0000
     30 ****         4.1913  -0.8216  -0.6167 H              1 S1                 0.0000
     31 ****         2.9412  -1.6231   0.2984 H              1 S1                 0.0000
     32 ****         3.0596  -2.3624  -1.8318 H              1 S1                 0.0000
     33 ****         0.6146  -1.2139   2.6866 LP             1 S1                 0.0000
     34 ****         2.0876  -0.7795   1.8856 LP             1 S1                 0.0000
     35 ****         2.8471  -0.9340  -2.4990 LP             1 S1                 0.0000
     36 ****         1.6449  -1.6553  -1.6616 LP             1 S1                 0.0000
     37 ****        -1.5632   1.8204   1.1602 LP             1 S1                 0.0000
@<TRIPOS>BOND
    1    1    2 1     
    2    1   17 1     
    3    1   18 1     
    4    1   19 1     
    5    2   16 1     
    6    2    3 1     
    7    3    4 2     
    8    3   20 1     
    9    4    5 1     
   10    4    6 1     
   11    5   21 1     
   12    5   22 1     
   13    6    7 1     
   14    6   16 2     
   15    7    8 2     
   16    7    9 am    
   17    9   13 1     
   18    9   10 1     
   19   10   11 1     
   20   10   23 1     
   21   10   24 1     
   22   11   12 1     
   23   11   25 1     
   24   11   26 1     
   25   12   13 1     
   26   12   27 1     
   27   12   28 1     
   28   13   14 1     
   29   13   29 1     
   30   14   15 1     
   31   14   30 1     
   32   14   31 1     
   33   15   32 1     
   34    8   33 1     
   35    8   34 1     
   36   15   35 1     
   37   15   36 1     
   38   16   37 1     
@<TRIPOS>SUBSTRUCTURE
      1 S1             1
@<TRIPOS>SET
LONE_PAIRS      STATIC     ATOMS    <user>   **** ""
5 33 34 35 36 37
DONOR_HYDROGENS      STATIC     ATOMS    <user>   **** ""
3 21 22 32
ATOM$BLUE        STATIC     ATOMS    COLORGROUP SYSTEM
5 33 34 35 36 37
ATOM$RED        STATIC     ATOMS    COLORGROUP SYSTEM
3 21 22 32
