AV-unprocessed.smi:959|AV-procd|sdf|4269|dock6
  -GOLD-   22720 2173D 1   1.00000     0.00000
 Structure written by MMmdl.
 33 34  0  0  0  0  0  0  0  0  2 V2000
  152.6870  144.3409  158.6206 C   0  0  0  0  0  0  0  0  0  0  0  0
  152.2217  143.2657  159.6138 C   0  0  0  0  0  0  0  0  0  0  0  0
  152.8019  143.5071  161.0183 C   0  0  0  0  0  0  0  0  0  0  0  0
  152.5327  141.9315  159.1069 N   0  0  0  0  0  0  0  0  0  0  0  0
  153.5793  141.1408  159.4044 C   0  0  0  0  0  0  0  0  0  0  0  0
  153.6103  139.9729  158.7667 N   0  0  0  0  0  0  0  0  0  0  0  0
  152.4959  139.9927  157.9575 N   0  0  0  0  0  0  0  0  0  0  0  0
  151.9082  141.1775  158.1717 C   0  0  0  0  0  0  0  0  0  0  0  0
  150.6515  141.6003  157.4604 C   0  0  2  0  0  0  0  0  0  0  0  0
  149.4462  140.7300  157.8627 C   0  0  0  0  0  0  0  0  0  0  0  0
  148.1836  141.1755  157.1092 C   0  0  0  0  0  0  0  0  0  0  0  0
  148.4241  141.1855  155.5904 C   0  0  0  0  0  0  0  0  0  0  0  0
  149.5843  142.0378  155.2508 N   0  3  0  0  0  0  0  0  0  0  0  0
  150.8304  141.6139  155.9272 C   0  0  0  0  0  0  0  0  0  0  0  0
  152.4222  145.3389  158.9711 H   0  0  0  0  0  0  0  0  0  0  0  0
  152.2270  144.2034  157.6419 H   0  0  0  0  0  0  0  0  0  0  0  0
  153.7689  144.3124  158.4857 H   0  0  0  0  0  0  0  0  0  0  0  0
  151.1390  143.3342  159.7173 H   0  0  0  0  0  0  0  0  0  0  0  0
  152.4663  144.4651  161.4166 H   0  0  0  0  0  0  0  0  0  0  0  0
  153.8922  143.5241  161.0096 H   0  0  0  0  0  0  0  0  0  0  0  0
  152.4817  142.7333  161.7171 H   0  0  0  0  0  0  0  0  0  0  0  0
  154.3453  141.4201  160.1125 H   0  0  0  0  0  0  0  0  0  0  0  0
  150.4197  142.6250  157.7464 H   0  0  0  0  0  0  0  0  0  0  0  0
  149.6513  139.6818  157.6399 H   0  0  0  0  0  0  0  0  0  0  0  0
  149.2786  140.7925  158.9388 H   0  0  0  0  0  0  0  0  0  0  0  0
  147.3523  140.5128  157.3513 H   0  0  0  0  0  0  0  0  0  0  0  0
  147.8913  142.1726  157.4410 H   0  0  0  0  0  0  0  0  0  0  0  0
  148.6033  140.1726  155.2271 H   0  0  0  0  0  0  0  0  0  0  0  0
  147.5428  141.5601  155.0695 H   0  0  0  0  0  0  0  0  0  0  0  0
  149.7286  142.0116  154.2513 H   0  0  0  0  0  0  0  0  0  0  0  0
  151.6330  142.2961  155.6444 H   0  0  0  0  0  0  0  0  0  0  0  0
  151.1087  140.6245  155.5607 H   0  0  0  0  0  0  0  0  0  0  0  0
  149.3761  142.9874  155.5252 H   0  0  0  0  0  0  0  0  0  0  0  0
  1  2  1  0  0  0  0
  1 15  1  0  0  0  0
  1 16  1  0  0  0  0
  1 17  1  0  0  0  0
  2  3  1  0  0  0  0
  2  4  1  0  0  0  0
  2 18  1  0  0  0  0
  3 19  1  0  0  0  0
  3 20  1  0  0  0  0
  3 21  1  0  0  0  0
  4  8  1  0  0  0  0
  4  5  1  0  0  0  0
  5  6  2  0  0  0  0
  5 22  1  0  0  0  0
  6  7  1  0  0  0  0
  7  8  2  0  0  0  0
  8  9  1  0  0  0  0
  9 14  1  0  0  0  0
  9 10  1  0  0  0  0
  9 23  1  0  0  0  0
 10 11  1  0  0  0  0
 10 24  1  0  0  0  0
 10 25  1  0  0  0  0
 11 12  1  0  0  0  0
 11 26  1  0  0  0  0
 11 27  1  0  0  0  0
 12 13  1  0  0  0  0
 12 28  1  0  0  0  0
 12 29  1  0  0  0  0
 13 14  1  0  0  0  0
 13 30  1  0  0  0  0
 13 33  1  0  0  0  0
 14 31  1  0  0  0  0
 14 32  1  0  0  0  0
M  CHG  1  13   1
M  END
> <s_m_source_file>
AV-unprocessed.smi

> <i_m_source_file_index>
959

> <i_lp_mmshare_version>
43012

> <i_f3d_flags>
0

> <s_epik_input>
W0NIM11bQ0hdKFtDSDNdKW4xW2NIXW5uYzFbQ0BASF0yW0NIMl1bQ0gyXVtDSDJdW05IXVtDSDJdMg==

> <s_epik_cmdline>
J2VwaWtfcHl0aG9uJywgJy1waCcsICc3LjAnLCAnLXRuJywgJzgnLCAnLW1hJywgJzIwMCcsICctbWV0YWxfYmluZGluZycsICctaW1hZScsICc8aW5maWxlLm1hZT4nLCAnLW9tYWUnLCAnPG91dGZpbGUubWFlPic=

> <r_lp_tautomer_probability>
1

> <r_epik_Ionization_Penalty>
0.000442722

> <r_epik_Ionization_Penalty_Charging>
0.000426856

> <r_epik_Ionization_Penalty_Neutral>
1.58656e-05

> <r_epik_State_Penalty>
-0

> <r_epik_Charging_Adjusted_Penalty>
0.000426856

> <i_epik_Tot_Q>
1

> <i_epik_Tot_abs_Q>
1

> <r_epik_Metal_State_Penalty>
-0

> <b_epik_Metal_Only>
0

> <s_lp_Force_Field>
OPLS_2005

> <r_lp_Energy>
20.311

> <b_lp_Chiralities_Consistent>
1

> <s_lp_Variant>
AV-unprocessed.smi:959-1

> <Gold.Version>
5.8.1

> <Gold.Id.Protein>
6NUR|6NUR_protein|mol2

> <Gold.PLP.Fitness>
36.8084

> <Gold.PLP.PLP>
-29.1102

> <Gold.PLP.part.hbond>
-2.0000

> <Gold.PLP.part.metal>
0.0000

> <Gold.PLP.part.buried>
-4.5358

> <Gold.PLP.part.nonpolar>
-21.7460

> <Gold.PLP.part.repulsive>
0.2080

> <Gold.PLP.ligand.clash>
0.0000

> <Gold.PLP.ligand.torsion>
0.6870

> <Gold.PLP.Chemscore.Hbond>
3.0000

> <Gold.PLP.Chemscore.CHOScore>
0.0000

> <Gold.PLP.Chemscore.Metal>
0.0000

> <Gold.Chemscore.Hbonds>
donor molecule, donor type, donor heavy atom, donor atom, acceptor molecule, acceptor atom, score
      L1  H    13    33       P1  8028  2.00
      P1  H  7997  8009       L1     6  0.50

> <Gold.PLP.Chemscore.Internal.Correction>
0.0722

> <Gold.Rescore>
     Score         DG    S(hbond)    S(metal)    S(lipo)     H(rot)  DE(clash)    DE(int)     intcor
     13.67     -14.30       1.47        0.00      60.46       1.24       0.02       0.61       ----

> <Gold.Chemscore.Fitness>
13.6684

> <Gold.Chemscore.DG>
-14.3019

> <Gold.Chemscore.ZeroCoef>
-5.4800

> <Gold.Chemscore.Hbond>
1.4705

> <Gold.Chemscore.Metal>
0.0000

> <Gold.Chemscore.Lipo>
60.4587

> <Gold.Chemscore.Internal_Hbond>
0.0000

> <Gold.Chemscore.DEClash>
0.0222

> <Gold.Chemscore.DEInternal>
0.6113

> <Gold.Chemscore.Rot>
1.2357

> <Gold.Chemscore.Internal.Correction>
   9.000000E+99

> <Gold.Chemscore.Hbonds>
donor molecule, donor type, donor heavy atom, donor atom, acceptor molecule, acceptor atom, score
      L1  H    13    33       P1  8028  1.00
      P1  H  7997  8009       L1     6  0.02

> <Gold.Chemscore.Hbond.Weighted>
-4.9116

> <Gold.Chemscore.Metal.Weighted>
-0.0000

> <Gold.Chemscore.Lipo.Weighted>
-7.0737

> <Gold.Chemscore.Internal_Hbond.Weighted>
0.0000

> <Gold.Chemscore.DEClash.Weighted>
0.0222

> <Gold.Chemscore.DEInternal.Weighted>
0.6113

> <Gold.Chemscore.Rot.Weighted>
3.1634

> <Gold.Chemscore.Internal.Correction.Weighted>
   9.000000E+99

> <Gold.Protein.RotatedTorsions>
[ 6907 6896 6895 6894 ] final  -44.55 input  -60.11 | X-H torsion
[ 7974 7965 7964 7962 ] final   13.93 input  175.53 | X-H torsion
[ 8008 7997 7996 7995 ] final  142.47 input   59.86 | X-H torsion
[ 10167 10162 10161 10158 ] final   48.44 input  -65.29 | X-H torsion
[ 10718 10713 10712 10709 ] final   82.11 input   66.30 | X-H torsion
[ 10763 10752 10751 10750 ] final  -69.37 input  -60.55 | X-H torsion
[ 11005 11000 10999 10996 ] final   39.68 input  -57.11 | X-H torsion

> <Gold.Protein.ActiveResidues>
 VAL166  LYS551  ARG553  GLY616  TRP617  ASP618  TYR619  PRO620  LYS621  CYS622 
 ASP623  PHE694  ASN695  SER759  ASP760  ASP761  ALA762  ILE779  LEU786  VAL792 
 PHE793  MET794  SER795  GLU796  ALA797  LYS798  CYS799  TRP800  GLU811  SER814 

> <Gold.Protein.RotatedAtoms>
  150.9316  134.8730  159.7554 H   0  0  0  0  0  0  0  0  0  0  0  0  # atno 6907 bound_to 6896
  152.5040  134.4071  159.9446 H   0  0  0  0  0  0  0  0  0  0  0  0  # atno 6908 bound_to 6896
  151.4098  133.3691  159.2777 H   0  0  0  0  0  0  0  0  0  0  0  0  # atno 6909 bound_to 6896
  146.2317  139.9116  142.8523 H   0  0  0  0  0  0  0  0  0  0  0  0  # atno 7974 bound_to 7965
  156.2948  140.2288  156.4734 H   0  0  0  0  0  0  0  0  0  0  0  0  # atno 8008 bound_to 7997
  154.7916  140.0454  157.1226 H   0  0  0  0  0  0  0  0  0  0  0  0  # atno 8009 bound_to 7997
  154.9639  140.3058  155.5022 H   0  0  0  0  0  0  0  0  0  0  0  0  # atno 8010 bound_to 7997
  140.2932  144.3021  150.6235 H   0  0  0  0  0  0  0  0  0  0  0  0  # atno 10167 bound_to 10162
  157.6849  131.0033  150.2326 H   0  0  0  0  0  0  0  0  0  0  0  0  # atno 10718 bound_to 10713
  154.4025  135.6028  153.5905 H   0  0  0  0  0  0  0  0  0  0  0  0  # atno 10763 bound_to 10752
  152.9788  135.5910  154.4168 H   0  0  0  0  0  0  0  0  0  0  0  0  # atno 10764 bound_to 10752
  154.3968  135.2842  155.2099 H   0  0  0  0  0  0  0  0  0  0  0  0  # atno 10765 bound_to 10752
  140.2004  134.3877  155.8099 H   0  0  0  0  0  0  0  0  0  0  0  0  # atno 11005 bound_to 11000
  145.2224  140.9940  143.4038 LP  0  0  0  0  0  0  0  0  0  0  0  0  # atno 17320 bound_to 7965
  144.9599  139.3991  143.6361 LP  0  0  0  0  0  0  0  0  0  0  0  0  # atno 17321 bound_to 7965
  140.5714  143.2180  151.7592 LP  0  0  0  0  0  0  0  0  0  0  0  0  # atno 17342 bound_to 10162
  139.4933  144.4211  151.9976 LP  0  0  0  0  0  0  0  0  0  0  0  0  # atno 17343 bound_to 10162
  156.2956  130.3751  149.7799 LP  0  0  0  0  0  0  0  0  0  0  0  0  # atno 17370 bound_to 10713
  156.5445  130.8315  151.3280 LP  0  0  0  0  0  0  0  0  0  0  0  0  # atno 17371 bound_to 10713
  141.2227  133.7091  156.8249 LP  0  0  0  0  0  0  0  0  0  0  0  0  # atno 17394 bound_to 11000
  140.2060  134.8862  157.3222 LP  0  0  0  0  0  0  0  0  0  0  0  0  # atno 17395 bound_to 11000

$$$$
