AV-unprocessed.smi:446|AV-procd|sdf|2593|dock9
  -GOLD-   2262022593D 1   1.00000     0.00000
 Structure written by MMmdl.
 35 37  0  0  0  0  0  0  0  0  1 V2000
  152.3232  138.2205  155.1606 C   0  0  0  0  0  0  0  0  0  0  0  0
  151.0410  138.8897  154.7797 C   0  0  0  0  0  0  0  0  0  0  0  0
  150.0763  138.2512  154.1170 N   0  0  0  0  0  0  0  0  0  0  0  0
  149.1028  139.2231  153.9877 C   0  0  0  0  0  0  0  0  0  0  0  0
  147.8296  139.1742  153.3760 C   0  0  0  0  0  0  0  0  0  0  0  0
  146.9959  140.3119  153.3710 C   0  0  0  0  0  0  0  0  0  0  0  0
  147.4216  141.5122  153.9763 C   0  0  0  0  0  0  0  0  0  0  0  0
  148.6871  141.5830  154.5899 C   0  0  0  0  0  0  0  0  0  0  0  0
  149.5157  140.4451  154.5907 C   0  0  0  0  0  0  0  0  0  0  0  0
  150.7876  140.1853  155.0898 N   0  0  0  0  0  0  0  0  0  0  0  0
  151.6407  141.1324  155.7949 C   0  0  0  0  0  0  0  0  0  0  0  0
  150.9363  141.7678  157.0101 C   0  0  2  0  0  0  0  0  0  0  0  0
  150.5190  143.0821  156.6947 O   0  0  0  0  0  0  0  0  0  0  0  0
  151.8197  141.7255  158.2470 C   0  0  0  0  0  0  0  0  0  0  0  0
  152.4434  140.5168  158.6245 C   0  0  0  0  0  0  0  0  0  0  0  0
  153.2678  140.4690  159.7657 C   0  0  0  0  0  0  0  0  0  0  0  0
  153.4755  141.6303  160.5344 C   0  0  0  0  0  0  0  0  0  0  0  0
  154.2678  141.5841  161.6314 F   0  0  0  0  0  0  0  0  0  0  0  0
  152.8596  142.8401  160.1603 C   0  0  0  0  0  0  0  0  0  0  0  0
  152.0355  142.8888  159.0192 C   0  0  0  0  0  0  0  0  0  0  0  0
  152.3578  137.2052  154.7641 H   0  0  0  0  0  0  0  0  0  0  0  0
  152.4118  138.1680  156.2459 H   0  0  0  0  0  0  0  0  0  0  0  0
  153.1739  138.7727  154.7615 H   0  0  0  0  0  0  0  0  0  0  0  0
  147.4943  138.2595  152.9099 H   0  0  0  0  0  0  0  0  0  0  0  0
  146.0246  140.2630  152.9009 H   0  0  0  0  0  0  0  0  0  0  0  0
  146.7765  142.3786  153.9691 H   0  0  0  0  0  0  0  0  0  0  0  0
  149.0176  142.5004  155.0541 H   0  0  0  0  0  0  0  0  0  0  0  0
  152.5319  140.5962  156.1235 H   0  0  0  0  0  0  0  0  0  0  0  0
  151.9883  141.9015  155.1051 H   0  0  0  0  0  0  0  0  0  0  0  0
  150.0290  141.2017  157.2248 H   0  0  0  0  0  0  0  0  0  0  0  0
  149.5927  143.0652  156.5082 H   0  0  0  0  0  0  0  0  0  0  0  0
  152.2927  139.6209  158.0398 H   0  0  0  0  0  0  0  0  0  0  0  0
  153.7415  139.5411  160.0506 H   0  0  0  0  0  0  0  0  0  0  0  0
  153.0205  143.7316  160.7481 H   0  0  0  0  0  0  0  0  0  0  0  0
  151.5709  143.8225  158.7379 H   0  0  0  0  0  0  0  0  0  0  0  0
  1  2  1  0  0  0  0
  1 21  1  0  0  0  0
  1 22  1  0  0  0  0
  1 23  1  0  0  0  0
  2 10  1  0  0  0  0
  2  3  2  0  0  0  0
  3  4  1  0  0  0  0
  4  9  2  0  0  0  0
  4  5  1  0  0  0  0
  5  6  2  0  0  0  0
  5 24  1  0  0  0  0
  6  7  1  0  0  0  0
  6 25  1  0  0  0  0
  7  8  2  0  0  0  0
  7 26  1  0  0  0  0
  8  9  1  0  0  0  0
  8 27  1  0  0  0  0
  9 10  1  0  0  0  0
 10 11  1  0  0  0  0
 11 12  1  0  0  0  0
 11 28  1  0  0  0  0
 11 29  1  0  0  0  0
 12 13  1  0  0  0  0
 12 14  1  0  0  0  0
 12 30  1  0  0  0  0
 13 31  1  0  0  0  0
 14 20  1  0  0  0  0
 14 15  2  0  0  0  0
 15 16  1  0  0  0  0
 15 32  1  0  0  0  0
 16 17  2  0  0  0  0
 16 33  1  0  0  0  0
 17 18  1  0  0  0  0
 17 19  1  0  0  0  0
 19 20  2  0  0  0  0
 19 34  1  0  0  0  0
 20 35  1  0  0  0  0
M  END
> <s_m_source_file>
AV-unprocessed.smi

> <i_m_source_file_index>
446

> <i_lp_mmshare_version>
43012

> <i_f3d_flags>
0

> <s_epik_input>
W2NIXTFbY0hdW2NIXVtjSF1jKGMxMiluKGMobjIpW0NIM10pW0NIMl1bQ0BIXShbT0hdKWMzW2NIXVtjSF1jKEYpW2NIXVtjSF0z

> <s_epik_cmdline>
J2VwaWtfcHl0aG9uJywgJy1waCcsICc3LjAnLCAnLXRuJywgJzgnLCAnLW1hJywgJzIwMCcsICctbWV0YWxfYmluZGluZycsICctaW1hZScsICc8aW5maWxlLm1hZT4nLCAnLW9tYWUnLCAnPG91dGZpbGUubWFlPic=

> <r_epik_Ionization_Penalty>
0.129663

> <r_epik_Ionization_Penalty_Charging>
0

> <r_epik_Ionization_Penalty_Neutral>
0.129663

> <r_epik_State_Penalty>
0.119073

> <r_epik_Charging_Adjusted_Penalty>
0.119073

> <i_epik_Tot_Q>
0

> <i_epik_Tot_abs_Q>
0

> <r_epik_Metal_State_Penalty>
0.000131867

> <b_epik_Metal_Only>
0

> <s_lp_Force_Field>
OPLS_2005

> <r_lp_Energy>
11.4063

> <b_lp_Chiralities_Consistent>
1

> <s_lp_Variant>
AV-unprocessed.smi:446-1

> <Gold.Version>
5.8.1

> <Gold.Id.Protein>
6NUR|6NUR_protein|mol2

> <Gold.PLP.Fitness>
46.4559

> <Gold.PLP.PLP>
-46.2843

> <Gold.PLP.part.hbond>
-1.0000

> <Gold.PLP.part.metal>
0.0000

> <Gold.PLP.part.buried>
-1.4708

> <Gold.PLP.part.nonpolar>
-42.5710

> <Gold.PLP.part.repulsive>
0.2217

> <Gold.PLP.ligand.clash>
0.0000

> <Gold.PLP.ligand.torsion>
0.8133

> <Gold.PLP.Chemscore.Hbond>
0.5920

> <Gold.PLP.Chemscore.CHOScore>
0.0000

> <Gold.PLP.Chemscore.Metal>
0.0000

> <Gold.Chemscore.Hbonds>
donor molecule, donor type, donor heavy atom, donor atom, acceptor molecule, acceptor atom, score
      L1  H    13    31       P1  8028  0.29

> <Gold.PLP.Chemscore.Internal.Correction>
0.0223

> <Gold.Rescore>
     Score         DG    S(hbond)    S(metal)    S(lipo)     H(rot)  DE(clash)    DE(int)     intcor
     15.93     -16.97       0.89        0.00     112.09       1.79       0.13       0.92       ----

> <Gold.Chemscore.Fitness>
15.9273

> <Gold.Chemscore.DG>
-16.9721

> <Gold.Chemscore.ZeroCoef>
-5.4800

> <Gold.Chemscore.Hbond>
0.8881

> <Gold.Chemscore.Metal>
0.0000

> <Gold.Chemscore.Lipo>
112.0931

> <Gold.Chemscore.Internal_Hbond>
0.0000

> <Gold.Chemscore.DEClash>
0.1295

> <Gold.Chemscore.DEInternal>
0.9153

> <Gold.Chemscore.Rot>
1.7926

> <Gold.Chemscore.Internal.Correction>
   9.000000E+99

> <Gold.Chemscore.Hbonds>
donor molecule, donor type, donor heavy atom, donor atom, acceptor molecule, acceptor atom, score
      L1  H    13    31       P1  8028  0.29

> <Gold.Chemscore.Hbond.Weighted>
-2.9663

> <Gold.Chemscore.Metal.Weighted>
-0.0000

> <Gold.Chemscore.Lipo.Weighted>
-13.1149

> <Gold.Chemscore.Internal_Hbond.Weighted>
0.0000

> <Gold.Chemscore.DEClash.Weighted>
0.1295

> <Gold.Chemscore.DEInternal.Weighted>
0.9153

> <Gold.Chemscore.Rot.Weighted>
4.5890

> <Gold.Chemscore.Internal.Correction.Weighted>
   9.000000E+99

> <Gold.Protein.RotatedTorsions>
[ 6907 6896 6895 6894 ] final  170.51 input  -60.11 | X-H torsion
[ 7974 7965 7964 7962 ] final -144.20 input  175.53 | X-H torsion
[ 8008 7997 7996 7995 ] final  -82.69 input   59.86 | X-H torsion
[ 10167 10162 10161 10158 ] final  -24.39 input  -65.29 | X-H torsion
[ 10718 10713 10712 10709 ] final  -42.09 input   66.30 | X-H torsion
[ 10763 10752 10751 10750 ] final  -94.24 input  -60.55 | X-H torsion
[ 11005 11000 10999 10996 ] final   79.53 input  -57.11 | X-H torsion

> <Gold.Protein.ActiveResidues>
 VAL166  LYS551  ARG553  GLY616  TRP617  ASP618  TYR619  PRO620  LYS621  CYS622 
 ASP623  PHE694  ASN695  SER759  ASP760  ASP761  ALA762  ILE779  LEU786  VAL792 
 PHE793  MET794  SER795  GLU796  ALA797  LYS798  CYS799  TRP800  GLU811  SER814 

> <Gold.Protein.RotatedAtoms>
  151.8150  133.3387  159.3566 H   0  0  0  0  0  0  0  0  0  0  0  0  # atno 6907 bound_to 6896
  150.7313  134.5628  159.5860 H   0  0  0  0  0  0  0  0  0  0  0  0  # atno 6908 bound_to 6896
  152.3048  134.7570  160.0401 H   0  0  0  0  0  0  0  0  0  0  0  0  # atno 6909 bound_to 6896
  144.8315  140.5740  143.5512 H   0  0  0  0  0  0  0  0  0  0  0  0  # atno 7974 bound_to 7965
  154.6112  140.0629  156.9496 H   0  0  0  0  0  0  0  0  0  0  0  0  # atno 8008 bound_to 7997
  155.1970  140.3312  155.4331 H   0  0  0  0  0  0  0  0  0  0  0  0  # atno 8009 bound_to 7997
  156.2377  140.1871  156.7056 H   0  0  0  0  0  0  0  0  0  0  0  0  # atno 8010 bound_to 7997
  140.7288  143.4358  151.0732 H   0  0  0  0  0  0  0  0  0  0  0  0  # atno 10167 bound_to 10162
  156.2633  130.4199  149.8518 H   0  0  0  0  0  0  0  0  0  0  0  0  # atno 10718 bound_to 10713
  154.7036  135.5165  153.8563 H   0  0  0  0  0  0  0  0  0  0  0  0  # atno 10763 bound_to 10752
  153.0723  135.6605  154.0229 H   0  0  0  0  0  0  0  0  0  0  0  0  # atno 10764 bound_to 10752
  154.0083  135.3004  155.3375 H   0  0  0  0  0  0  0  0  0  0  0  0  # atno 10765 bound_to 10752
  139.9169  134.7849  156.1790 H   0  0  0  0  0  0  0  0  0  0  0  0  # atno 11005 bound_to 11000
  145.4886  139.1490  143.3722 LP  0  0  0  0  0  0  0  0  0  0  0  0  # atno 17320 bound_to 7965
  146.2617  140.5024  142.8851 LP  0  0  0  0  0  0  0  0  0  0  0  0  # atno 17321 bound_to 7965
  139.8019  143.8071  152.3164 LP  0  0  0  0  0  0  0  0  0  0  0  0  # atno 17342 bound_to 10162
  139.8091  144.7343  150.9721 LP  0  0  0  0  0  0  0  0  0  0  0  0  # atno 17343 bound_to 10162
  156.6025  130.8553  151.3435 LP  0  0  0  0  0  0  0  0  0  0  0  0  # atno 17370 bound_to 10713
  157.7258  130.9621  150.1631 LP  0  0  0  0  0  0  0  0  0  0  0  0  # atno 17371 bound_to 10713
  141.0654  133.6822  156.2034 LP  0  0  0  0  0  0  0  0  0  0  0  0  # atno 17394 bound_to 11000
  140.6594  134.4984  157.5582 LP  0  0  0  0  0  0  0  0  0  0  0  0  # atno 17395 bound_to 11000

$$$$
