AV-unprocessed.smi:2124|AV-procd|sdf|8664|dock3
  -GOLD-   2272011413D 1   1.00000     0.00000
 Structure written by MMmdl.
 47 49  0  0  0  0  0  0  0  0  1 V2000
  147.3091  139.7799  152.7623 C   0  0  0  0  0  0  0  0  0  0  0  0
  148.5259  139.9078  153.6526 C   0  0  0  0  0  0  0  0  0  0  0  0
  149.3352  138.7840  153.6553 N   0  0  0  0  0  0  0  0  0  0  0  0
  150.4837  138.8149  154.4259 C   0  0  0  0  0  0  0  0  0  0  0  0
  151.3306  137.5572  154.3428 C   0  0  0  0  0  0  0  0  0  0  0  0
  150.8010  139.9044  155.1712 C   0  0  0  0  0  0  0  0  0  0  0  0
  152.0814  139.9927  156.0028 C   0  0  0  0  0  0  0  0  0  0  0  0
  151.8665  140.4385  157.4495 C   0  0  0  0  0  0  0  0  0  0  0  0
  151.0671  139.8429  158.1707 O   0  0  0  0  0  0  0  0  0  0  0  0
  152.6276  141.4614  157.8657 N   0  0  0  0  0  0  0  0  0  0  0  0
  152.8111  141.8806  159.2504 C   0  0  2  0  0  0  0  0  0  0  0  0
  152.9708  140.6455  160.1507 C   0  0  0  0  0  0  0  0  0  0  0  0
  151.6156  142.7675  159.6724 C   0  0  1  0  0  0  0  0  0  0  0  0
  151.9035  143.7249  160.8503 C   0  0  0  0  0  0  0  0  0  0  0  0
  151.4059  145.0837  160.3209 C   0  0  1  0  0  0  0  0  0  0  0  0
  152.3992  145.6109  159.2684 C   0  0  0  0  0  0  0  0  0  0  0  0
  152.1359  144.6899  158.0633 C   0  0  0  0  0  0  0  0  0  0  0  0
  151.0508  143.7330  158.5974 C   0  0  2  0  0  0  0  0  0  0  0  0
  150.2181  144.6784  159.4560 C   0  0  0  0  0  0  0  0  0  0  0  0
  149.8864  141.0707  155.1403 C   0  0  0  0  0  0  0  0  0  0  0  0
  150.1188  142.0888  155.7903 O   0  0  0  0  0  0  0  0  0  0  0  0
  148.7419  140.9937  154.3305 N   0  0  0  0  0  0  0  0  0  0  0  0
  149.1392  137.9547  153.1134 H   0  0  0  0  0  0  0  0  0  0  0  0
  146.8551  140.7551  152.5823 H   0  0  0  0  0  0  0  0  0  0  0  0
  146.5645  139.1362  153.2311 H   0  0  0  0  0  0  0  0  0  0  0  0
  147.5817  139.3502  151.7975 H   0  0  0  0  0  0  0  0  0  0  0  0
  152.3204  137.7884  153.9493 H   0  0  0  0  0  0  0  0  0  0  0  0
  150.8783  136.8106  153.6890 H   0  0  0  0  0  0  0  0  0  0  0  0
  151.4469  137.1095  155.3299 H   0  0  0  0  0  0  0  0  0  0  0  0
  152.7614  140.6957  155.5207 H   0  0  0  0  0  0  0  0  0  0  0  0
  152.6170  139.0429  156.0059 H   0  0  0  0  0  0  0  0  0  0  0  0
  153.2310  141.8979  157.1838 H   0  0  0  0  0  0  0  0  0  0  0  0
  153.7249  142.4719  159.3296 H   0  0  0  0  0  0  0  0  0  0  0  0
  153.1290  140.9326  161.1903 H   0  0  0  0  0  0  0  0  0  0  0  0
  153.8277  140.0447  159.8436 H   0  0  0  0  0  0  0  0  0  0  0  0
  152.0869  140.0081  160.1128 H   0  0  0  0  0  0  0  0  0  0  0  0
  150.7988  142.1049  159.9655 H   0  0  0  0  0  0  0  0  0  0  0  0
  151.3430  143.4198  161.7350 H   0  0  0  0  0  0  0  0  0  0  0  0
  152.9585  143.7611  161.1248 H   0  0  0  0  0  0  0  0  0  0  0  0
  151.1809  145.8036  161.1081 H   0  0  0  0  0  0  0  0  0  0  0  0
  152.1825  146.6486  159.0118 H   0  0  0  0  0  0  0  0  0  0  0  0
  153.4329  145.5604  159.6122 H   0  0  0  0  0  0  0  0  0  0  0  0
  151.7511  145.2668  157.2213 H   0  0  0  0  0  0  0  0  0  0  0  0
  153.0340  144.1782  157.7193 H   0  0  0  0  0  0  0  0  0  0  0  0
  150.4884  143.2316  157.8090 H   0  0  0  0  0  0  0  0  0  0  0  0
  149.4264  144.1759  160.0148 H   0  0  0  0  0  0  0  0  0  0  0  0
  149.7868  145.5088  158.8940 H   0  0  0  0  0  0  0  0  0  0  0  0
  1 24  1  0  0  0  0
  1 25  1  0  0  0  0
  1 26  1  0  0  0  0
  1  2  1  0  0  0  0
  2  3  1  0  0  0  0
  2 22  2  0  0  0  0
  3  4  1  0  0  0  0
  3 23  1  0  0  0  0
  4  6  2  0  0  0  0
  4  5  1  0  0  0  0
  5 27  1  0  0  0  0
  5 28  1  0  0  0  0
  5 29  1  0  0  0  0
  6 20  1  0  0  0  0
  6  7  1  0  0  0  0
  7  8  1  0  0  0  0
  7 30  1  0  0  0  0
  7 31  1  0  0  0  0
  8  9  2  0  0  0  0
  8 10  1  0  0  0  0
 10 11  1  0  0  0  0
 10 32  1  0  0  0  0
 11 12  1  0  0  0  0
 11 13  1  0  0  0  0
 11 33  1  0  0  0  0
 12 34  1  0  0  0  0
 12 35  1  0  0  0  0
 12 36  1  0  0  0  0
 13 18  1  0  0  0  0
 13 14  1  0  0  0  0
 13 37  1  0  0  0  0
 14 15  1  0  0  0  0
 14 38  1  0  0  0  0
 14 39  1  0  0  0  0
 15 19  1  0  0  0  0
 15 16  1  0  0  0  0
 15 40  1  0  0  0  0
 16 17  1  0  0  0  0
 16 41  1  0  0  0  0
 16 42  1  0  0  0  0
 17 18  1  0  0  0  0
 17 43  1  0  0  0  0
 17 44  1  0  0  0  0
 18 19  1  0  0  0  0
 18 45  1  0  0  0  0
 19 46  1  0  0  0  0
 19 47  1  0  0  0  0
 20 21  2  0  0  0  0
 20 22  1  0  0  0  0
M  END
> <s_m_source_file>
AV-unprocessed.smi

> <i_m_source_file_index>
2124

> <i_lp_mmshare_version>
43012

> <i_f3d_flags>
0

> <s_epik_input>
W0NIM11jMW5jKFtDSDNdKWMoYyg9TylbbkhdMSlbQ0gyXUMoPU8pW05IXVtDQEhdKFtDSDNdKVtDQEhdKFtDSDJdW0NASF0yMylbQ0BIXShbQ0gyXTMpW0NIMl1bQ0gyXTI=

> <s_epik_cmdline>
J2VwaWtfcHl0aG9uJywgJy1waCcsICc3LjAnLCAnLXRuJywgJzgnLCAnLW1hJywgJzIwMCcsICctbWV0YWxfYmluZGluZycsICctaW1hZScsICc8aW5maWxlLm1hZT4nLCAnLW9tYWUnLCAnPG91dGZpbGUubWFlPic=

> <r_lp_tautomer_probability>
0.156392

> <r_epik_Ionization_Penalty>
0.0139374

> <r_epik_Ionization_Penalty_Charging>
0.0138122

> <r_epik_Ionization_Penalty_Neutral>
0.000125146

> <r_epik_State_Penalty>
1.15342

> <r_epik_Charging_Adjusted_Penalty>
1.16723

> <i_epik_Tot_Q>
0

> <i_epik_Tot_abs_Q>
0

> <r_epik_Metal_State_Penalty>
1.3173

> <b_epik_Metal_Only>
0

> <s_lp_Force_Field>
OPLS_2005

> <r_lp_Energy>
54.2082

> <b_lp_Chiralities_Consistent>
1

> <s_lp_Variant>
AV-unprocessed.smi:2124-15

> <Gold.Version>
5.8.1

> <Gold.Id.Protein>
6NUR|6NUR_protein|mol2

> <Gold.PLP.Fitness>
44.9583

> <Gold.PLP.PLP>
-43.6357

> <Gold.PLP.part.hbond>
-2.0000

> <Gold.PLP.part.metal>
0.0000

> <Gold.PLP.part.buried>
2.1743

> <Gold.PLP.part.nonpolar>
-43.7643

> <Gold.PLP.part.repulsive>
1.4325

> <Gold.PLP.ligand.clash>
0.0000

> <Gold.PLP.ligand.torsion>
0.8608

> <Gold.PLP.Chemscore.Hbond>
0.9913

> <Gold.PLP.Chemscore.CHOScore>
0.0000

> <Gold.PLP.Chemscore.Metal>
0.0000

> <Gold.Chemscore.Hbonds>
donor molecule, donor type, donor heavy atom, donor atom, acceptor molecule, acceptor atom, score
      L1  H     3    23       P1  7948  0.80

> <Gold.PLP.Chemscore.Internal.Correction>
0.0705

> <Gold.Rescore>
     Score         DG    S(hbond)    S(metal)    S(lipo)     H(rot)  DE(clash)    DE(int)     intcor
     14.93     -19.84       0.99        0.00     130.53       1.65       1.41       3.50       ----

> <Gold.Chemscore.Fitness>
14.9312

> <Gold.Chemscore.DG>
-19.8415

> <Gold.Chemscore.ZeroCoef>
-5.4800

> <Gold.Chemscore.Hbond>
0.9945

> <Gold.Chemscore.Metal>
0.0000

> <Gold.Chemscore.Lipo>
130.5340

> <Gold.Chemscore.Internal_Hbond>
0.0000

> <Gold.Chemscore.DEClash>
1.4055

> <Gold.Chemscore.DEInternal>
3.5048

> <Gold.Chemscore.Rot>
1.6534

> <Gold.Chemscore.Internal.Correction>
   9.000000E+99

> <Gold.Chemscore.Hbonds>
donor molecule, donor type, donor heavy atom, donor atom, acceptor molecule, acceptor atom, score
      L1  H     3    23       P1  7948  0.78

> <Gold.Chemscore.Hbond.Weighted>
-3.3217

> <Gold.Chemscore.Metal.Weighted>
-0.0000

> <Gold.Chemscore.Lipo.Weighted>
-15.2725

> <Gold.Chemscore.Internal_Hbond.Weighted>
0.0000

> <Gold.Chemscore.DEClash.Weighted>
1.4055

> <Gold.Chemscore.DEInternal.Weighted>
3.5048

> <Gold.Chemscore.Rot.Weighted>
4.2326

> <Gold.Chemscore.Internal.Correction.Weighted>
   9.000000E+99

> <Gold.Protein.RotatedTorsions>
[ 6907 6896 6895 6894 ] final   56.65 input  -60.11 | X-H torsion
[ 7974 7965 7964 7962 ] final  149.23 input  175.53 | X-H torsion
[ 8008 7997 7996 7995 ] final   72.03 input   59.86 | X-H torsion
[ 10167 10162 10161 10158 ] final  122.83 input  -65.29 | X-H torsion
[ 10718 10713 10712 10709 ] final  124.37 input   66.30 | X-H torsion
[ 10763 10752 10751 10750 ] final  168.59 input  -60.55 | X-H torsion
[ 11005 11000 10999 10996 ] final    1.41 input  -57.11 | X-H torsion

> <Gold.Protein.ActiveResidues>
 VAL166  LYS551  ARG553  GLY616  TRP617  ASP618  TYR619  PRO620  LYS621  CYS622 
 ASP623  PHE694  ASN695  SER759  ASP760  ASP761  ALA762  ILE779  LEU786  VAL792 
 PHE793  MET794  SER795  GLU796  ALA797  LYS798  CYS799  TRP800  GLU811  SER814 

> <Gold.Protein.RotatedAtoms>
  152.3656  134.6809  160.0192 H   0  0  0  0  0  0  0  0  0  0  0  0  # atno 6907 bound_to 6896
  151.7118  133.3307  159.3301 H   0  0  0  0  0  0  0  0  0  0  0  0  # atno 6908 bound_to 6896
  150.7636  134.6460  159.6307 H   0  0  0  0  0  0  0  0  0  0  0  0  # atno 6909 bound_to 6896
  144.8453  139.6254  143.5998 H   0  0  0  0  0  0  0  0  0  0  0  0  # atno 7974 bound_to 7965
  155.7627  140.3486  155.5206 H   0  0  0  0  0  0  0  0  0  0  0  0  # atno 8008 bound_to 7997
  155.8898  140.1016  157.1447 H   0  0  0  0  0  0  0  0  0  0  0  0  # atno 8009 bound_to 7997
  154.4032  140.1306  156.4288 H   0  0  0  0  0  0  0  0  0  0  0  0  # atno 8010 bound_to 7997
  139.5835  144.6996  151.3468 H   0  0  0  0  0  0  0  0  0  0  0  0  # atno 10167 bound_to 10162
  157.5590  131.1090  150.8571 H   0  0  0  0  0  0  0  0  0  0  0  0  # atno 10718 bound_to 10713
  154.3707  135.2753  155.2268 H   0  0  0  0  0  0  0  0  0  0  0  0  # atno 10763 bound_to 10752
  154.4416  135.5953  153.6137 H   0  0  0  0  0  0  0  0  0  0  0  0  # atno 10764 bound_to 10752
  152.9838  135.6020  154.3938 H   0  0  0  0  0  0  0  0  0  0  0  0  # atno 10765 bound_to 10752
  140.6158  133.9706  155.8200 H   0  0  0  0  0  0  0  0  0  0  0  0  # atno 11005 bound_to 11000
  146.2739  139.6704  142.9277 LP  0  0  0  0  0  0  0  0  0  0  0  0  # atno 17320 bound_to 7965
  145.4609  141.0433  143.2752 LP  0  0  0  0  0  0  0  0  0  0  0  0  # atno 17321 bound_to 7965
  140.7110  143.7390  150.7567 LP  0  0  0  0  0  0  0  0  0  0  0  0  # atno 17342 bound_to 10162
  140.0929  143.4861  152.2469 LP  0  0  0  0  0  0  0  0  0  0  0  0  # atno 17343 bound_to 10162
  156.9074  130.5268  149.5281 LP  0  0  0  0  0  0  0  0  0  0  0  0  # atno 17370 bound_to 10713
  156.0645  130.5691  150.9261 LP  0  0  0  0  0  0  0  0  0  0  0  0  # atno 17371 bound_to 10713
  141.0777  134.0110  157.3433 LP  0  0  0  0  0  0  0  0  0  0  0  0  # atno 17394 bound_to 11000
  139.9173  135.0198  156.7932 LP  0  0  0  0  0  0  0  0  0  0  0  0  # atno 17395 bound_to 11000

$$$$
