#       Name:                AV-unprocessed.smi:3209
#       Creating user name   scv26
#       Creation time:       Fri Mar 27 18:10:42 2020


#       File generated by GOLD software.
#

@<TRIPOS>MOLECULE
AV-unprocessed.smi:3209
    38    40     1
SMALL
NO_CHARGES


@<TRIPOS>ATOM
      1 ****        -3.0646   5.1313   1.2298 C.3            1 S1                 0.0000
      2 ****        -3.0219   4.0505   0.2044 C.2            1 S1                 0.0000
      3 ****        -2.5318   2.8297   0.4357 N.2            1 S1                 0.0000
      4 ****        -2.6046   1.9985  -0.6865 C.2            1 S1                 0.0000
      5 ****        -2.0958   0.5912  -0.6073 C.3            1 S1                 0.0000
      6 ****        -0.5630   0.5242  -0.6431 C.3            1 S1                 0.0000
      7 ****        -0.0924  -0.8741  -0.5807 N.4            1 S1                 1.0000
      8 ****         1.3782  -1.0302  -0.6126 C.3            1 S1                 0.0000
      9 ****         2.0856  -0.6172   0.6966 C.3            1 S1                 0.0000
     10 ****         2.9452  -1.8550   1.0209 C.3            1 S1                 0.0000
     11 ****         2.0326  -2.9697   1.5614 C.3            1 S1                 0.0000
     12 ****         1.2626  -3.4122   0.3040 C.3            1 S1                 0.0000
     13 ****         1.8370  -2.4931  -0.7965 C.3            1 S1                 0.0000
     14 ****         3.2966  -2.3871  -0.3656 C.3            1 S1                 0.0000
     15 ****        -3.1645   2.6124  -1.7792 C.2            1 S1                 0.0000
     16 ****        -3.6187   4.2593  -1.4373 S.3            1 S1                 0.0000
     17 ****        -2.4862   4.8497   2.1103 H              1 S1                 0.0000
     18 ****        -4.0952   5.3168   1.5321 H              1 S1                 0.0000
     19 ****        -2.6486   6.0514   0.8192 H              1 S1                 0.0000
     20 ****        -2.4598   0.1187   0.3060 H              1 S1                 0.0000
     21 ****        -2.5037   0.0038  -1.4309 H              1 S1                 0.0000
     22 ****        -0.1916   0.9871  -1.5584 H              1 S1                 0.0000
     23 ****        -0.1463   1.0853   0.1941 H              1 S1                 0.0000
     24 ****        -0.4445  -1.3048   0.2624 H              1 S1                 0.0000
     25 ****         1.7702  -0.4390  -1.4425 H              1 S1                 0.0000
     26 ****         2.7116   0.2603   0.5298 H              1 S1                 0.0000
     27 ****         1.3942  -0.3820   1.5070 H              1 S1                 0.0000
     28 ****         3.7988  -1.6399   1.6645 H              1 S1                 0.0000
     29 ****         2.6236  -3.7962   1.9587 H              1 S1                 0.0000
     30 ****         1.3717  -2.6205   2.3557 H              1 S1                 0.0000
     31 ****         1.4777  -4.4577   0.0789 H              1 S1                 0.0000
     32 ****         0.1827  -3.3201   0.4209 H              1 S1                 0.0000
     33 ****         1.6871  -2.8744  -1.8070 H              1 S1                 0.0000
     34 ****         3.8786  -1.6841  -0.9643 H              1 S1                 0.0000
     35 ****         3.8132  -3.3485  -0.3421 H              1 S1                 0.0000
     36 ****        -3.3385   2.1988  -2.7618 H              1 S1                 0.0000
     37 ****        -0.4760  -1.3638  -1.3765 H              1 S1                 0.0000
     38 ****        -2.1539   2.5415   1.3156 LP             1 S1                 0.0000
@<TRIPOS>BOND
    1    1    2 1     
    2    1   17 1     
    3    1   18 1     
    4    1   19 1     
    5    2   16 1     
    6    2    3 2     
    7    3    4 1     
    8    4    5 1     
    9    4   15 2     
   10    5    6 1     
   11    5   20 1     
   12    5   21 1     
   13    6    7 1     
   14    6   22 1     
   15    6   23 1     
   16    7    8 1     
   17    7   24 1     
   18    7   37 1     
   19    8   13 1     
   20    8    9 1     
   21    8   25 1     
   22    9   10 1     
   23    9   26 1     
   24    9   27 1     
   25   10   14 1     
   26   10   11 1     
   27   10   28 1     
   28   11   12 1     
   29   11   29 1     
   30   11   30 1     
   31   12   13 1     
   32   12   31 1     
   33   12   32 1     
   34   13   14 1     
   35   13   33 1     
   36   14   34 1     
   37   14   35 1     
   38   15   16 1     
   39   15   36 1     
   40    3   38 1     
@<TRIPOS>SUBSTRUCTURE
      1 S1             1
@<TRIPOS>SET
LONE_PAIRS      STATIC     ATOMS    <user>   **** ""
1 38
DONOR_HYDROGENS      STATIC     ATOMS    <user>   **** ""
2 24 37
ATOM$BLUE        STATIC     ATOMS    COLORGROUP SYSTEM
1 38
ATOM$RED        STATIC     ATOMS    COLORGROUP SYSTEM
2 24 37
