#       Name:                AV-unprocessed.smi:2784
#       Creating user name   scv26
#       Creation time:       Fri Mar 27 15:17:34 2020


#       File generated by GOLD software.
#

@<TRIPOS>MOLECULE
AV-unprocessed.smi:2784
    38    39     1
SMALL
NO_CHARGES


@<TRIPOS>ATOM
      1 ****        -2.0440   2.9731   1.1093 C.3            1 S1                 0.0000
      2 ****        -1.2729   1.8484   1.4991 O.3            1 S1                 0.0000
      3 ****         0.0170   1.8071   0.9038 C.3            1 S1                 0.0000
      4 ****         0.9772   2.8181   1.5450 C.3            1 S1                 0.0000
      5 ****         2.3487   2.1616   1.4367 C.3            1 S1                 0.0000
      6 ****         2.0662   0.6824   1.6935 C.3            1 S1                 0.0000
      7 ****         0.6597   0.4185   1.1261 C.3            1 S1                 0.0000
      8 ****         0.7528  -0.3379  -0.1203 N.am           1 S1                 0.0000
      9 ****        -0.2649  -0.9757  -0.7174 C.2            1 S1                 0.0000
     10 ****        -1.4011  -0.9852  -0.2330 O.2            1 S1                 0.0000
     11 ****         0.1727  -1.6111  -1.8688 N.2            1 S1                 0.0000
     12 ****        -0.4091  -2.7094  -2.2417 C.2            1 S1                 0.0000
     13 ****        -1.4369  -3.4697  -1.6896 N.pl3          1 S1                 0.0000
     14 ****        -1.6476  -4.5513  -2.4982 C.2            1 S1                 0.0000
     15 ****        -0.7928  -4.4790  -3.5142 C.2            1 S1                 0.0000
     16 ****        -0.0220  -3.3626  -3.3844 O.3            1 S1                 0.0000
     17 ****        -3.0197   2.9297   1.5930 H              1 S1                 0.0000
     18 ****        -2.2054   2.9846   0.0307 H              1 S1                 0.0000
     19 ****        -1.5678   3.9093   1.4022 H              1 S1                 0.0000
     20 ****        -0.0539   2.0113  -0.1669 H              1 S1                 0.0000
     21 ****         0.9407   3.7962   1.0650 H              1 S1                 0.0000
     22 ****         0.7259   2.9540   2.5979 H              1 S1                 0.0000
     23 ****         2.7420   2.2931   0.4278 H              1 S1                 0.0000
     24 ****         3.0723   2.5795   2.1368 H              1 S1                 0.0000
     25 ****         2.8355   0.0361   1.2691 H              1 S1                 0.0000
     26 ****         2.0570   0.5034   2.7695 H              1 S1                 0.0000
     27 ****         0.0924  -0.1613   1.8571 H              1 S1                 0.0000
     28 ****         1.6597  -0.3787  -0.5625 H              1 S1                 0.0000
     29 ****        -1.9594  -3.2934  -0.8432 H              1 S1                 0.0000
     30 ****        -2.4079  -5.2779  -2.2525 H              1 S1                 0.0000
     31 ****        -0.6153  -5.1138  -4.3697 H              1 S1                 0.0000
     32 ****        -1.7681   1.0199   1.2376 LP             1 S1                 0.0000
     33 ****        -1.1617   1.8707   2.4926 LP             1 S1                 0.0000
     34 ****        -1.5818  -0.5086   0.6273 LP             1 S1                 0.0000
     35 ****        -2.1402  -1.4695  -0.7012 LP             1 S1                 0.0000
     36 ****         0.9258  -1.2287  -2.4043 LP             1 S1                 0.0000
     37 ****         0.9416  -3.6216  -3.3172 LP             1 S1                 0.0000
     38 ****        -0.1524  -2.7664  -4.1766 LP             1 S1                 0.0000
@<TRIPOS>BOND
    1    1    2 1     
    2    1   17 1     
    3    1   18 1     
    4    1   19 1     
    5    2    3 1     
    6    3    7 1     
    7    3    4 1     
    8    3   20 1     
    9    4    5 1     
   10    4   21 1     
   11    4   22 1     
   12    5    6 1     
   13    5   23 1     
   14    5   24 1     
   15    6    7 1     
   16    6   25 1     
   17    6   26 1     
   18    7    8 1     
   19    7   27 1     
   20    8   28 1     
   21    8    9 am    
   22    9   11 1     
   23    9   10 2     
   24   11   12 2     
   25   12   16 1     
   26   12   13 1     
   27   13   29 1     
   28   13   14 1     
   29   14   30 1     
   30   14   15 2     
   31   15   31 1     
   32   15   16 1     
   33    2   32 1     
   34    2   33 1     
   35   10   34 1     
   36   10   35 1     
   37   11   36 1     
   38   16   37 1     
   39   16   38 1     
@<TRIPOS>SUBSTRUCTURE
      1 S1             1
@<TRIPOS>SET
LONE_PAIRS      STATIC     ATOMS    <user>   **** ""
7 32 33 34 35 36 37 38
DONOR_HYDROGENS      STATIC     ATOMS    <user>   **** ""
2 28 29
ATOM$BLUE        STATIC     ATOMS    COLORGROUP SYSTEM
7 32 33 34 35 36 37 38
ATOM$RED        STATIC     ATOMS    COLORGROUP SYSTEM
2 28 29
