AV-unprocessed.smi:2307|AV-procd|sdf|9250|dock2
  -GOLD-   2272012473D 1   1.00000     0.00000
 Structure written by MMmdl.
 38 39  0  0  0  0  0  0  0  0  1 V2000
  152.9987  142.3078  161.7690 C   0  0  0  0  0  0  0  0  0  0  0  0
  152.4463  142.4372  160.3605 C   0  0  0  0  0  0  0  0  0  0  0  0
  152.4989  141.2773  159.5825 N   0  0  0  0  0  0  0  0  0  0  0  0
  152.0547  141.2945  158.3687 C   0  0  0  0  0  0  0  0  0  0  0  0
  151.5163  142.4599  157.7950 N   0  0  0  0  0  0  0  0  0  0  0  0
  151.0627  142.3654  156.3946 C   0  0  0  0  0  0  0  0  0  0  0  0
  150.1808  141.1224  156.1265 C   0  0  2  0  0  0  0  0  0  0  0  0
  150.7245  140.4206  155.0277 O   0  0  0  0  0  0  0  0  0  0  0  0
  148.7122  141.4686  155.9199 C   0  0  0  0  0  0  0  0  0  0  0  0
  148.1106  141.3222  154.6528 C   0  0  0  0  0  0  0  0  0  0  0  0
  146.7594  141.6691  154.4655 C   0  0  0  0  0  0  0  0  0  0  0  0
  145.9856  142.1698  155.5323 C   0  0  0  0  0  0  0  0  0  0  0  0
  144.6719  142.4879  155.2531 O   0  0  0  0  0  0  0  0  0  0  0  0
  144.2717  143.7826  155.1278 C   0  0  0  0  0  0  0  0  0  0  0  0
  142.9181  143.8350  155.1007 F   0  0  0  0  0  0  0  0  0  0  0  0
  144.6750  144.5411  156.1778 F   0  0  0  0  0  0  0  0  0  0  0  0
  144.7107  144.3385  153.9705 F   0  0  0  0  0  0  0  0  0  0  0  0
  146.5947  142.3147  156.8042 C   0  0  0  0  0  0  0  0  0  0  0  0
  147.9458  141.9662  156.9937 C   0  0  0  0  0  0  0  0  0  0  0  0
  151.4185  143.6306  158.4886 C   0  0  0  0  0  0  0  0  0  0  0  0
  150.9385  144.6451  157.9795 O   0  0  0  0  0  0  0  0  0  0  0  0
  151.9287  143.5956  159.8686 C   0  0  0  0  0  0  0  0  0  0  0  0
  151.8439  144.8886  160.6697 C   0  0  0  0  0  0  0  0  0  0  0  0
  152.2207  142.5157  162.5039 H   0  0  0  0  0  0  0  0  0  0  0  0
  153.8212  143.0067  161.9232 H   0  0  0  0  0  0  0  0  0  0  0  0
  153.3756  141.3018  161.9578 H   0  0  0  0  0  0  0  0  0  0  0  0
  152.0783  140.4168  157.7209 H   0  0  0  0  0  0  0  0  0  0  0  0
  150.5134  143.2631  156.1033 H   0  0  0  0  0  0  0  0  0  0  0  0
  151.9312  142.3493  155.7334 H   0  0  0  0  0  0  0  0  0  0  0  0
  150.2519  140.4475  156.9802 H   0  0  0  0  0  0  0  0  0  0  0  0
  150.0304  139.9314  154.6130 H   0  0  0  0  0  0  0  0  0  0  0  0
  148.6858  140.9500  153.8175 H   0  0  0  0  0  0  0  0  0  0  0  0
  146.3123  141.5529  153.4890 H   0  0  0  0  0  0  0  0  0  0  0  0
  146.0468  142.6949  157.6524 H   0  0  0  0  0  0  0  0  0  0  0  0
  148.3950  142.0924  157.9680 H   0  0  0  0  0  0  0  0  0  0  0  0
  152.4198  145.6730  160.1778 H   0  0  0  0  0  0  0  0  0  0  0  0
  152.2229  144.7905  161.6855 H   0  0  0  0  0  0  0  0  0  0  0  0
  150.8077  145.2212  160.7384 H   0  0  0  0  0  0  0  0  0  0  0  0
  1  2  1  0  0  0  0
  1 24  1  0  0  0  0
  1 25  1  0  0  0  0
  1 26  1  0  0  0  0
  2 22  2  0  0  0  0
  2  3  1  0  0  0  0
  3  4  2  0  0  0  0
  4  5  1  0  0  0  0
  4 27  1  0  0  0  0
  5  6  1  0  0  0  0
  5 20  1  0  0  0  0
  6  7  1  0  0  0  0
  6 28  1  0  0  0  0
  6 29  1  0  0  0  0
  7  8  1  0  0  0  0
  7  9  1  0  0  0  0
  7 30  1  0  0  0  0
  8 31  1  0  0  0  0
  9 19  1  0  0  0  0
  9 10  2  0  0  0  0
 10 11  1  0  0  0  0
 10 32  1  0  0  0  0
 11 12  2  0  0  0  0
 11 33  1  0  0  0  0
 12 13  1  0  0  0  0
 12 18  1  0  0  0  0
 13 14  1  0  0  0  0
 14 15  1  0  0  0  0
 14 16  1  0  0  0  0
 14 17  1  0  0  0  0
 18 19  2  0  0  0  0
 18 34  1  0  0  0  0
 19 35  1  0  0  0  0
 20 21  2  0  0  0  0
 20 22  1  0  0  0  0
 22 23  1  0  0  0  0
 23 36  1  0  0  0  0
 23 37  1  0  0  0  0
 23 38  1  0  0  0  0
M  END
> <s_m_source_file>
AV-unprocessed.smi

> <i_m_source_file_index>
2307

> <i_lp_mmshare_version>
43012

> <i_f3d_flags>
0

> <s_epik_input>
W0NIM11jMW5bY0hdbihjKD1PKWMxW0NIM10pW0NIMl1bQ0BIXShbT0hdKWMyW2NIXVtjSF1jKE9DKEYpKEYpRilbY0hdW2NIXTI=

> <s_epik_cmdline>
J2VwaWtfcHl0aG9uJywgJy1waCcsICc3LjAnLCAnLXRuJywgJzgnLCAnLW1hJywgJzIwMCcsICctbWV0YWxfYmluZGluZycsICctaW1hZScsICc8aW5maWxlLm1hZT4nLCAnLW9tYWUnLCAnPG91dGZpbGUubWFlPic=

> <r_lp_tautomer_probability>
1

> <r_epik_Ionization_Penalty>
5.07003e-05

> <r_epik_Ionization_Penalty_Charging>
7.56727e-08

> <r_epik_Ionization_Penalty_Neutral>
5.06246e-05

> <r_epik_State_Penalty>
-0

> <r_epik_Charging_Adjusted_Penalty>
7.56727e-08

> <i_epik_Tot_Q>
0

> <i_epik_Tot_abs_Q>
0

> <r_epik_Metal_State_Penalty>
-0

> <b_epik_Metal_Only>
0

> <s_lp_Force_Field>
OPLS_2005

> <r_lp_Energy>
16.6377

> <b_lp_Chiralities_Consistent>
1

> <s_lp_Variant>
AV-unprocessed.smi:2307-1

> <Gold.Version>
5.8.1

> <Gold.Id.Protein>
6NUR|6NUR_protein|mol2

> <Gold.PLP.Fitness>
44.8028

> <Gold.PLP.PLP>
-44.4771

> <Gold.PLP.part.hbond>
-1.0000

> <Gold.PLP.part.metal>
0.0000

> <Gold.PLP.part.buried>
-8.2815

> <Gold.PLP.part.nonpolar>
-35.5316

> <Gold.PLP.part.repulsive>
0.4330

> <Gold.PLP.ligand.clash>
0.0000

> <Gold.PLP.ligand.torsion>
1.3052

> <Gold.PLP.Chemscore.Hbond>
0.9500

> <Gold.PLP.Chemscore.CHOScore>
0.0000

> <Gold.PLP.Chemscore.Metal>
0.0000

> <Gold.Chemscore.Hbonds>
donor molecule, donor type, donor heavy atom, donor atom, acceptor molecule, acceptor atom, score
      P1  H  7989  7998       L1     8  0.85

> <Gold.PLP.Chemscore.Internal.Correction>
0.0862

> <Gold.Rescore>
     Score         DG    S(hbond)    S(metal)    S(lipo)     H(rot)  DE(clash)    DE(int)     intcor
      9.94     -11.10       0.81        0.00      83.58       2.69       0.01       1.15       ----

> <Gold.Chemscore.Fitness>
9.9417

> <Gold.Chemscore.DG>
-11.0962

> <Gold.Chemscore.ZeroCoef>
-5.4800

> <Gold.Chemscore.Hbond>
0.8120

> <Gold.Chemscore.Metal>
0.0000

> <Gold.Chemscore.Lipo>
83.5845

> <Gold.Chemscore.Internal_Hbond>
0.0000

> <Gold.Chemscore.DEClash>
0.0076

> <Gold.Chemscore.DEInternal>
1.1469

> <Gold.Chemscore.Rot>
2.6856

> <Gold.Chemscore.Internal.Correction>
   9.000000E+99

> <Gold.Chemscore.Hbonds>
donor molecule, donor type, donor heavy atom, donor atom, acceptor molecule, acceptor atom, score
      P1  H  7989  7998       L1     8  0.14

> <Gold.Chemscore.Hbond.Weighted>
-2.7120

> <Gold.Chemscore.Metal.Weighted>
-0.0000

> <Gold.Chemscore.Lipo.Weighted>
-9.7794

> <Gold.Chemscore.Internal_Hbond.Weighted>
0.0000

> <Gold.Chemscore.DEClash.Weighted>
0.0076

> <Gold.Chemscore.DEInternal.Weighted>
1.1469

> <Gold.Chemscore.Rot.Weighted>
6.8751

> <Gold.Chemscore.Internal.Correction.Weighted>
   9.000000E+99

> <Gold.Protein.RotatedTorsions>
[ 6907 6896 6895 6894 ] final  -15.25 input  -60.11 | X-H torsion
[ 7974 7965 7964 7962 ] final  130.91 input  175.53 | X-H torsion
[ 8008 7997 7996 7995 ] final -167.90 input   59.86 | X-H torsion
[ 10167 10162 10161 10158 ] final   87.72 input  -65.29 | X-H torsion
[ 10718 10713 10712 10709 ] final  -54.12 input   66.30 | X-H torsion
[ 10763 10752 10751 10750 ] final   70.42 input  -60.55 | X-H torsion
[ 11005 11000 10999 10996 ] final  -47.66 input  -57.11 | X-H torsion

> <Gold.Protein.ActiveResidues>
 VAL166  LYS551  ARG553  GLY616  TRP617  ASP618  TYR619  PRO620  LYS621  CYS622 
 ASP623  PHE694  ASN695  SER759  ASP760  ASP761  ALA762  ILE779  LEU786  VAL792 
 PHE793  MET794  SER795  GLU796  ALA797  LYS798  CYS799  TRP800  GLU811  SER814 

> <Gold.Protein.RotatedAtoms>
  151.3269  135.0832  159.9324 H   0  0  0  0  0  0  0  0  0  0  0  0  # atno 6907 bound_to 6896
  152.5244  133.9582  159.7715 H   0  0  0  0  0  0  0  0  0  0  0  0  # atno 6908 bound_to 6896
  150.9913  133.6094  159.2738 H   0  0  0  0  0  0  0  0  0  0  0  0  # atno 6909 bound_to 6896
  145.0129  139.4203  143.5236 H   0  0  0  0  0  0  0  0  0  0  0  0  # atno 7974 bound_to 7965
  155.8840  140.1013  157.1465 H   0  0  0  0  0  0  0  0  0  0  0  0  # atno 8008 bound_to 7997
  154.4008  140.1323  156.4295 H   0  0  0  0  0  0  0  0  0  0  0  0  # atno 8009 bound_to 7997
  155.7610  140.3463  155.5200 H   0  0  0  0  0  0  0  0  0  0  0  0  # atno 8010 bound_to 7997
  139.8745  144.6474  150.8911 H   0  0  0  0  0  0  0  0  0  0  0  0  # atno 10167 bound_to 10162
  156.1477  130.4152  149.9996 H   0  0  0  0  0  0  0  0  0  0  0  0  # atno 10718 bound_to 10713
  153.0341  135.5174  154.7439 H   0  0  0  0  0  0  0  0  0  0  0  0  # atno 10763 bound_to 10752
  154.6430  135.2915  155.0083 H   0  0  0  0  0  0  0  0  0  0  0  0  # atno 10764 bound_to 10752
  154.0994  135.6638  153.4918 H   0  0  0  0  0  0  0  0  0  0  0  0  # atno 10765 bound_to 10752
  141.0654  133.6695  156.3329 H   0  0  0  0  0  0  0  0  0  0  0  0  # atno 11005 bound_to 11000
  146.3473  139.9583  142.8720 LP  0  0  0  0  0  0  0  0  0  0  0  0  # atno 17320 bound_to 7965
  145.1999  140.9850  143.4162 LP  0  0  0  0  0  0  0  0  0  0  0  0  # atno 17321 bound_to 7965
  140.7755  143.3636  151.1781 LP  0  0  0  0  0  0  0  0  0  0  0  0  # atno 17342 bound_to 10162
  139.7252  143.9159  152.3000 LP  0  0  0  0  0  0  0  0  0  0  0  0  # atno 17343 bound_to 10162
  156.7863  130.9239  151.3646 LP  0  0  0  0  0  0  0  0  0  0  0  0  # atno 17370 bound_to 10713
  157.6631  130.8983  149.9873 LP  0  0  0  0  0  0  0  0  0  0  0  0  # atno 17371 bound_to 10713
  140.5784  134.5770  157.5474 LP  0  0  0  0  0  0  0  0  0  0  0  0  # atno 17394 bound_to 11000
  139.9471  134.7682  156.0535 LP  0  0  0  0  0  0  0  0  0  0  0  0  # atno 17395 bound_to 11000

$$$$
