#       Name:                AV-unprocessed.smi:76
#       Creating user name   scv26
#       Creation time:       Thu Mar 26 17:11:14 2020


#       File generated by GOLD software.
#

@<TRIPOS>MOLECULE
AV-unprocessed.smi:76
    63    66     1
SMALL
NO_CHARGES


@<TRIPOS>ATOM
      1 ****        -2.7847   0.7244   3.0112 C.3            1 S1                 0.0000
      2 ****        -3.2042   0.0554   1.6857 C.3            1 S1                 0.0000
      3 ****        -4.7247  -0.2087   1.6912 C.3            1 S1                 0.0000
      4 ****        -5.2039  -0.8537   0.3758 C.3            1 S1                 0.0000
      5 ****        -6.7219  -1.1239   0.3754 C.3            1 S1                 0.0000
      6 ****        -7.4077   0.0131   0.4975 F              1 S1                 0.0000
      7 ****        -7.0768  -1.7215  -0.7620 F              1 S1                 0.0000
      8 ****        -7.0416  -1.9311   1.3868 F              1 S1                 0.0000
      9 ****        -4.7700   0.0367  -0.8032 C.3            1 S1                 0.0000
     10 ****        -3.2550   0.2828  -0.7758 C.3            1 S1                 0.0000
     11 ****        -2.8354   0.8488   0.5045 N.3            1 S1                 0.0000
     12 ****        -1.5490   1.2604   0.4519 C.ar           1 S1                 0.0000
     13 ****        -1.3286   2.5972   0.4175 N.ar           1 S1                 0.0000
     14 ****        -0.0777   3.0657   0.3789 C.ar           1 S1                 0.0000
     15 ****         1.0692   2.3828   0.3623 N.ar           1 S1                 0.0000
     16 ****         0.8490   1.0367   0.3817 C.ar           1 S1                 0.0000
     17 ****        -0.4196   0.3941   0.4305 C.ar           1 S1                 0.0000
     18 ****        -0.2529  -0.9848   0.4500 N.2            1 S1                 0.0000
     19 ****         1.0413  -1.1478   0.4190 C.2            1 S1                 0.0000
     20 ****         1.7810   0.0127   0.3581 N.pl3          1 S1                 0.0000
     21 ****         3.2332   0.1198   0.3192 C.3            1 S1                 0.0000
     22 ****         3.8647   0.0608  -1.1085 C.3            1 S1                 0.0000
     23 ****         3.3307   1.2146  -1.9983 C.3            1 S1                 0.0000
     24 ****         3.6335   2.4884  -1.4655 O.3            1 S1                 0.0000
     25 ****         5.4082   0.1577  -1.0138 C.3            1 S1                 0.0000
     26 ****         6.0548  -1.1157  -0.4362 C.3            1 S1                 0.0000
     27 ****         5.6715  -2.2516  -1.2011 O.3            1 S1                 0.0000
     28 ****         4.2674  -2.4758  -1.1952 C.3            1 S1                 0.0000
     29 ****         3.5482  -1.2732  -1.8308 C.3            1 S1                 0.0000
     30 ****        -3.1175   0.1363   3.8667 H              1 S1                 0.0000
     31 ****        -3.2175   1.7210   3.1055 H              1 S1                 0.0000
     32 ****        -1.7021   0.8208   3.0963 H              1 S1                 0.0000
     33 ****        -2.7006  -0.9094   1.6171 H              1 S1                 0.0000
     34 ****        -4.9797  -0.8538   2.5326 H              1 S1                 0.0000
     35 ****        -5.2576   0.7297   1.8517 H              1 S1                 0.0000
     36 ****        -4.6984  -1.8152   0.2723 H              1 S1                 0.0000
     37 ****        -5.0461  -0.4272  -1.7503 H              1 S1                 0.0000
     38 ****        -5.2946   0.9922  -0.7607 H              1 S1                 0.0000
     39 ****        -2.7280  -0.6564  -0.9504 H              1 S1                 0.0000
     40 ****        -2.9803   0.9572  -1.5886 H              1 S1                 0.0000
     41 ****         0.0179   4.1415   0.3589 H              1 S1                 0.0000
     42 ****         1.4946  -2.1283   0.4332 H              1 S1                 0.0000
     43 ****         3.5149   1.0496   0.8145 H              1 S1                 0.0000
     44 ****         3.6298  -0.6698   0.9558 H              1 S1                 0.0000
     45 ****         3.7689   1.1622  -2.9957 H              1 S1                 0.0000
     46 ****         2.2519   1.1394  -2.1358 H              1 S1                 0.0000
     47 ****         3.1662   2.5897  -0.6496 H              1 S1                 0.0000
     48 ****         5.8236   0.3261  -2.0085 H              1 S1                 0.0000
     49 ****         5.7025   1.0208  -0.4158 H              1 S1                 0.0000
     50 ****         7.1407  -1.0258  -0.4721 H              1 S1                 0.0000
     51 ****         5.7914  -1.2614   0.6116 H              1 S1                 0.0000
     52 ****         4.0576  -3.3777  -1.7702 H              1 S1                 0.0000
     53 ****         3.9182  -2.6653  -0.1800 H              1 S1                 0.0000
     54 ****         2.4751  -1.4546  -1.8761 H              1 S1                 0.0000
     55 ****         3.8728  -1.2069  -2.8704 H              1 S1                 0.0000
     56 ****        -3.3829   1.6726   0.6520 LP             1 S1                 0.0000
     57 ****        -2.1012   3.2322   0.4210 LP             1 S1                 0.0000
     58 ****         1.9754   2.8048   0.3387 LP             1 S1                 0.0000
     59 ****        -0.9614  -1.6899   0.4807 LP             1 S1                 0.0000
     60 ****         3.3488   3.1997  -2.1082 LP             1 S1                 0.0000
     61 ****         4.6174   2.5610  -1.3023 LP             1 S1                 0.0000
     62 ****         6.1248  -3.0586  -0.8227 LP             1 S1                 0.0000
     63 ****         5.9686  -2.1147  -2.1461 LP             1 S1                 0.0000
@<TRIPOS>BOND
    1    1    2 1     
    2    1   30 1     
    3    1   31 1     
    4    1   32 1     
    5    2   11 1     
    6    2    3 1     
    7    2   33 1     
    8    3    4 1     
    9    3   34 1     
   10    3   35 1     
   11    4    5 1     
   12    4    9 1     
   13    4   36 1     
   14    5    6 1     
   15    5    7 1     
   16    5    8 1     
   17    9   10 1     
   18    9   37 1     
   19    9   38 1     
   20   10   11 1     
   21   10   39 1     
   22   10   40 1     
   23   11   12 1     
   24   12   17 ar    
   25   12   13 ar    
   26   13   14 ar    
   27   14   15 ar    
   28   14   41 1     
   29   15   16 ar    
   30   16   20 1     
   31   16   17 ar    
   32   17   18 1     
   33   18   19 2     
   34   19   20 1     
   35   19   42 1     
   36   20   21 1     
   37   21   22 1     
   38   21   43 1     
   39   21   44 1     
   40   22   29 1     
   41   22   23 1     
   42   22   25 1     
   43   23   24 1     
   44   23   45 1     
   45   23   46 1     
   46   24   47 1     
   47   25   26 1     
   48   25   48 1     
   49   25   49 1     
   50   26   27 1     
   51   26   50 1     
   52   26   51 1     
   53   27   28 1     
   54   28   29 1     
   55   28   52 1     
   56   28   53 1     
   57   29   54 1     
   58   29   55 1     
   59   11   56 1     
   60   13   57 1     
   61   15   58 1     
   62   18   59 1     
   63   24   60 1     
   64   24   61 1     
   65   27   62 1     
   66   27   63 1     
@<TRIPOS>SUBSTRUCTURE
      1 S1             1
@<TRIPOS>SET
LONE_PAIRS      STATIC     ATOMS    <user>   **** ""
8 56 57 58 59 60 61 62 63
DONOR_HYDROGENS      STATIC     ATOMS    <user>   **** ""
1 47
ATOM$BLUE        STATIC     ATOMS    COLORGROUP SYSTEM
8 56 57 58 59 60 61 62 63
ATOM$RED        STATIC     ATOMS    COLORGROUP SYSTEM
1 47
