#       Name:                AV-unprocessed.smi:2182
#       Creating user name   scv26
#       Creation time:       Fri Mar 27 12:06:02 2020


#       File generated by GOLD software.
#

@<TRIPOS>MOLECULE
AV-unprocessed.smi:2182
    50    52     1
SMALL
NO_CHARGES


@<TRIPOS>ATOM
      1 ****        -4.1585  -5.1485   0.5057 N.1            1 S1                 0.0000
      2 ****        -3.6238  -4.1362   0.6758 C.1            1 S1                 0.0000
      3 ****        -2.9926  -2.8766   0.8933 C.2            1 S1                 0.0000
      4 ****        -3.7058  -1.7470   1.0810 C.2            1 S1                 0.0000
      5 ****        -3.1119  -0.5234   1.3017 N.am           1 S1                 0.0000
      6 ****        -3.8823   0.6873   1.3417 C.3            1 S1                 0.0000
      7 ****        -3.7779   1.6184   2.5338 C.3            1 S1                 0.0000
      8 ****        -5.0271   0.7980   2.3252 C.3            1 S1                 0.0000
      9 ****        -1.7062  -0.3989   1.2593 C.2            1 S1                 0.0000
     10 ****        -1.1595   0.7028   1.3568 O.2            1 S1                 0.0000
     11 ****        -0.9413  -1.5782   1.0878 N.am           1 S1                 0.0000
     12 ****         0.5338  -1.4655   1.0558 C.3            1 S1                 0.0000
     13 ****         1.0979  -1.1799  -0.3448 C.2            1 S1                 0.0000
     14 ****         0.3642  -1.1572  -1.3341 O.2            1 S1                 0.0000
     15 ****         2.4197  -0.9612  -0.4085 N.am           1 S1                 0.0000
     16 ****         3.1602  -0.6571  -1.6281 C.3            1 S1                 0.0000
     17 ****         2.9864   0.8096  -2.0601 C.3            1 S1                 0.0000
     18 ****         3.4513   1.8394  -1.0305 C.3            1 S1                 0.0000
     19 ****         3.7163   3.0415  -1.9077 C.3            1 S1                 0.0000
     20 ****         4.3093   2.3956  -3.1576 C.3            1 S1                 0.0000
     21 ****         3.7662   1.0786  -3.2213 O.3            1 S1                 0.0000
     22 ****        -1.5317  -2.8540   0.8987 C.2            1 S1                 0.0000
     23 ****        -0.8361  -3.8583   0.7384 O.2            1 S1                 0.0000
     24 ****        -4.7849  -1.8019   1.0635 H              1 S1                 0.0000
     25 ****        -4.0383   1.1693   0.3780 H              1 S1                 0.0000
     26 ****        -3.1264   1.3303   3.3567 H              1 S1                 0.0000
     27 ****        -3.8384   2.6874   2.3403 H              1 S1                 0.0000
     28 ****        -5.9226   1.3207   1.9954 H              1 S1                 0.0000
     29 ****        -5.1980  -0.0313   3.0089 H              1 S1                 0.0000
     30 ****         0.8751  -0.6820   1.7346 H              1 S1                 0.0000
     31 ****         1.0067  -2.3708   1.4395 H              1 S1                 0.0000
     32 ****         2.9504  -0.9999   0.4495 H              1 S1                 0.0000
     33 ****         4.2142  -0.8680  -1.4453 H              1 S1                 0.0000
     34 ****         2.8479  -1.3266  -2.4313 H              1 S1                 0.0000
     35 ****         1.9440   1.0066  -2.3156 H              1 S1                 0.0000
     36 ****         2.7095   2.0310  -0.2545 H              1 S1                 0.0000
     37 ****         4.3760   1.5158  -0.5504 H              1 S1                 0.0000
     38 ****         2.7767   3.5395  -2.1515 H              1 S1                 0.0000
     39 ****         4.3822   3.7722  -1.4478 H              1 S1                 0.0000
     40 ****         4.0837   2.9621  -4.0613 H              1 S1                 0.0000
     41 ****         5.3934   2.3173  -3.0695 H              1 S1                 0.0000
     42 ****        -4.6205  -6.0231   0.3587 LP             1 S1                 0.0000
     43 ****        -1.7136   1.5278   1.4681 LP             1 S1                 0.0000
     44 ****        -0.1624   0.7707   1.3245 LP             1 S1                 0.0000
     45 ****        -0.6163  -1.3264  -1.2335 LP             1 S1                 0.0000
     46 ****         0.7490  -0.9696  -2.2379 LP             1 S1                 0.0000
     47 ****         3.1876   0.9991  -4.0331 LP             1 S1                 0.0000
     48 ****         4.5130   0.4160  -3.2781 LP             1 S1                 0.0000
     49 ****        -1.2687  -4.7485   0.5950 LP             1 S1                 0.0000
     50 ****         0.1609  -3.7833   0.7516 LP             1 S1                 0.0000
@<TRIPOS>BOND
    1    1    2 3     
    2    2    3 1     
    3    3   22 1     
    4    3    4 2     
    5    4    5 1     
    6    4   24 1     
    7    5    6 1     
    8    5    9 am    
    9    6    8 1     
   10    6    7 1     
   11    6   25 1     
   12    7    8 1     
   13    7   26 1     
   14    7   27 1     
   15    8   28 1     
   16    8   29 1     
   17    9   10 2     
   18    9   11 am    
   19   11   12 1     
   20   11   22 am    
   21   12   13 1     
   22   12   30 1     
   23   12   31 1     
   24   13   14 2     
   25   13   15 am    
   26   15   16 1     
   27   15   32 1     
   28   16   17 1     
   29   16   33 1     
   30   16   34 1     
   31   17   21 1     
   32   17   18 1     
   33   17   35 1     
   34   18   19 1     
   35   18   36 1     
   36   18   37 1     
   37   19   20 1     
   38   19   38 1     
   39   19   39 1     
   40   20   21 1     
   41   20   40 1     
   42   20   41 1     
   43   22   23 2     
   44    1   42 1     
   45   10   43 1     
   46   10   44 1     
   47   14   45 1     
   48   14   46 1     
   49   21   47 1     
   50   21   48 1     
   51   23   49 1     
   52   23   50 1     
@<TRIPOS>SUBSTRUCTURE
      1 S1             1
@<TRIPOS>SET
LONE_PAIRS      STATIC     ATOMS    <user>   **** ""
9 42 43 44 45 46 47 48 49 50
DONOR_HYDROGENS      STATIC     ATOMS    <user>   **** ""
1 32
ATOM$BLUE        STATIC     ATOMS    COLORGROUP SYSTEM
9 42 43 44 45 46 47 48 49 50
ATOM$RED        STATIC     ATOMS    COLORGROUP SYSTEM
1 32
