AV-unprocessed.smi:3126|AV-procd|sdf|11911|dock6
  -GOLD-   2272017293D 1   1.00000     0.00000
 Structure written by MMmdl.
 42 43  0  0  0  0  0  0  0  0  2 V2000
  153.0254  138.4076  154.5158 C   0  0  0  0  0  0  0  0  0  0  0  0
  151.6003  137.8504  154.3929 C   0  0  0  0  0  0  0  0  0  0  0  0
  150.5225  138.9250  154.1419 C   0  0  1  0  0  0  0  0  0  0  0  0
  149.1146  138.2971  154.1415 C   0  0  0  0  0  0  0  0  0  0  0  0
  148.0247  139.3479  153.8836 C   0  0  0  0  0  0  0  0  0  0  0  0
  148.1017  140.4872  154.9095 C   0  0  0  0  0  0  0  0  0  0  0  0
  149.4948  141.1415  154.9173 C   0  0  1  0  0  0  0  0  0  0  0  0
  149.5339  142.2160  155.9346 N   0  3  0  0  0  0  0  0  0  0  0  0
  150.8631  142.4824  156.5231 C   0  0  0  0  0  0  0  0  0  0  0  0
  150.9099  142.0455  157.9928 C   0  0  0  0  0  0  0  0  0  0  0  0
  151.2807  143.1910  158.9139 C   0  0  0  0  0  0  0  0  0  0  0  0
  152.1865  143.0009  159.9781 C   0  0  0  0  0  0  0  0  0  0  0  0
  152.5051  144.0977  160.8017 C   0  0  0  0  0  0  0  0  0  0  0  0
  151.9026  145.3414  160.5256 C   0  0  0  0  0  0  0  0  0  0  0  0
  151.0347  145.5348  159.5091 N   0  0  0  0  0  0  0  0  0  0  0  0
  150.7337  144.4781  158.7247 C   0  0  0  0  0  0  0  0  0  0  0  0
  150.5875  140.0785  155.1676 C   0  0  0  0  0  0  0  0  0  0  0  0
  153.7463  137.5968  154.6225 H   0  0  0  0  0  0  0  0  0  0  0  0
  153.1351  139.0555  155.3847 H   0  0  0  0  0  0  0  0  0  0  0  0
  153.3022  138.9800  153.6301 H   0  0  0  0  0  0  0  0  0  0  0  0
  151.5907  137.1372  153.5678 H   0  0  0  0  0  0  0  0  0  0  0  0
  151.3531  137.2768  155.2871 H   0  0  0  0  0  0  0  0  0  0  0  0
  150.6951  139.3437  153.1491 H   0  0  0  0  0  0  0  0  0  0  0  0
  149.0527  137.5189  153.3798 H   0  0  0  0  0  0  0  0  0  0  0  0
  148.9285  137.8066  155.0980 H   0  0  0  0  0  0  0  0  0  0  0  0
  148.1348  139.7519  152.8762 H   0  0  0  0  0  0  0  0  0  0  0  0
  147.0411  138.8791  153.9223 H   0  0  0  0  0  0  0  0  0  0  0  0
  147.3385  141.2330  154.6835 H   0  0  0  0  0  0  0  0  0  0  0  0
  147.8682  140.0967  155.9014 H   0  0  0  0  0  0  0  0  0  0  0  0
  149.6577  141.5949  153.9382 H   0  0  0  0  0  0  0  0  0  0  0  0
  149.2292  143.0688  155.4871 H   0  0  0  0  0  0  0  0  0  0  0  0
  151.6306  141.9508  155.9603 H   0  0  0  0  0  0  0  0  0  0  0  0
  151.0845  143.5477  156.4462 H   0  0  0  0  0  0  0  0  0  0  0  0
  149.9413  141.6456  158.2967 H   0  0  0  0  0  0  0  0  0  0  0  0
  151.6318  141.2381  158.1228 H   0  0  0  0  0  0  0  0  0  0  0  0
  152.6321  142.0339  160.1603 H   0  0  0  0  0  0  0  0  0  0  0  0
  153.1955  143.9896  161.6252 H   0  0  0  0  0  0  0  0  0  0  0  0
  152.1257  146.2041  161.1358 H   0  0  0  0  0  0  0  0  0  0  0  0
  150.0388  144.6666  157.9195 H   0  0  0  0  0  0  0  0  0  0  0  0
  150.4842  139.6768  156.1769 H   0  0  0  0  0  0  0  0  0  0  0  0
  151.5698  140.5460  155.1214 H   0  0  0  0  0  0  0  0  0  0  0  0
  148.8814  141.9919  156.6722 H   0  0  0  0  0  0  0  0  0  0  0  0
  1  2  1  0  0  0  0
  1 18  1  0  0  0  0
  1 19  1  0  0  0  0
  1 20  1  0  0  0  0
  2  3  1  0  0  0  0
  2 21  1  0  0  0  0
  2 22  1  0  0  0  0
  3 17  1  0  0  0  0
  3  4  1  0  0  0  0
  3 23  1  0  0  0  0
  4  5  1  0  0  0  0
  4 24  1  0  0  0  0
  4 25  1  0  0  0  0
  5  6  1  0  0  0  0
  5 26  1  0  0  0  0
  5 27  1  0  0  0  0
  6  7  1  0  0  0  0
  6 28  1  0  0  0  0
  6 29  1  0  0  0  0
  7  8  1  0  0  0  0
  7 17  1  0  0  0  0
  7 30  1  0  0  0  0
  8  9  1  0  0  0  0
  8 31  1  0  0  0  0
  8 42  1  0  0  0  0
  9 10  1  0  0  0  0
  9 32  1  0  0  0  0
  9 33  1  0  0  0  0
 10 11  1  0  0  0  0
 10 34  1  0  0  0  0
 10 35  1  0  0  0  0
 11 16  1  0  0  0  0
 11 12  2  0  0  0  0
 12 13  1  0  0  0  0
 12 36  1  0  0  0  0
 13 14  2  0  0  0  0
 13 37  1  0  0  0  0
 14 15  1  0  0  0  0
 14 38  1  0  0  0  0
 15 16  2  0  0  0  0
 16 39  1  0  0  0  0
 17 40  1  0  0  0  0
 17 41  1  0  0  0  0
M  CHG  1   8   1
M  END
> <s_m_source_file>
AV-unprocessed.smi

> <i_m_source_file_index>
3126

> <i_lp_mmshare_version>
43012

> <i_f3d_flags>
0

> <s_epik_input>
W0NIM11bQ0gyXVtDQEBIXTFbQ0gyXVtDSDJdW0NIMl1bQ0BIXShbQ0gyXTEpW05IXVtDSDJdW0NIMl1jMltjSF1bY0hdW2NIXW5bY0hdMg==

> <s_epik_cmdline>
J2VwaWtfcHl0aG9uJywgJy1waCcsICc3LjAnLCAnLXRuJywgJzgnLCAnLW1hJywgJzIwMCcsICctbWV0YWxfYmluZGluZycsICctaW1hZScsICc8aW5maWxlLm1hZT4nLCAnLW9tYWUnLCAnPG91dGZpbGUubWFlPic=

> <r_lp_tautomer_probability>
1

> <r_epik_Ionization_Penalty>
0.000947364

> <r_epik_Ionization_Penalty_Charging>
0.000286103

> <r_epik_Ionization_Penalty_Neutral>
0.000661261

> <r_epik_State_Penalty>
-0

> <r_epik_Charging_Adjusted_Penalty>
0.000286103

> <i_epik_Tot_Q>
1

> <i_epik_Tot_abs_Q>
1

> <r_epik_Metal_State_Penalty>
-0

> <b_epik_Metal_Only>
0

> <s_lp_Force_Field>
OPLS_2005

> <r_lp_Energy>
13.7456

> <b_lp_Chiralities_Consistent>
1

> <s_lp_Variant>
AV-unprocessed.smi:3126-2

> <Gold.Version>
5.8.1

> <Gold.Id.Protein>
6NUR|6NUR_protein|mol2

> <Gold.PLP.Fitness>
44.5958

> <Gold.PLP.PLP>
-38.2311

> <Gold.PLP.part.hbond>
-1.7904

> <Gold.PLP.part.metal>
0.0000

> <Gold.PLP.part.buried>
-1.0689

> <Gold.PLP.part.nonpolar>
-34.9625

> <Gold.PLP.part.repulsive>
0.3092

> <Gold.PLP.ligand.clash>
0.0000

> <Gold.PLP.ligand.torsion>
1.3645

> <Gold.PLP.Chemscore.Hbond>
1.9200

> <Gold.PLP.Chemscore.CHOScore>
1.1080

> <Gold.PLP.Chemscore.Metal>
0.0000

> <Gold.Chemscore.Hbonds>
donor molecule, donor type, donor heavy atom, donor atom, acceptor molecule, acceptor atom, score
      L1  H     8    31       P1  8028  1.92
      L1  C    16    39       P1  8028  0.65
      L1  C    16    39       P1  8029  0.46

> <Gold.PLP.Chemscore.Internal.Correction>
0.0097

> <Gold.Rescore>
     Score         DG    S(hbond)    S(metal)    S(lipo)     H(rot)  DE(clash)    DE(int)     intcor
     18.87     -20.21       0.94        0.00     128.48       1.35       0.12       1.22       ----

> <Gold.Chemscore.Fitness>
18.8651

> <Gold.Chemscore.DG>
-20.2064

> <Gold.Chemscore.ZeroCoef>
-5.4800

> <Gold.Chemscore.Hbond>
0.9436

> <Gold.Chemscore.Metal>
0.0000

> <Gold.Chemscore.Lipo>
128.4847

> <Gold.Chemscore.Internal_Hbond>
0.0000

> <Gold.Chemscore.DEClash>
0.1213

> <Gold.Chemscore.DEInternal>
1.2201

> <Gold.Chemscore.Rot>
1.3507

> <Gold.Chemscore.Internal.Correction>
   9.000000E+99

> <Gold.Chemscore.Hbonds>
donor molecule, donor type, donor heavy atom, donor atom, acceptor molecule, acceptor atom, score
      L1  H     8    31       P1  8028  0.92

> <Gold.Chemscore.Hbond.Weighted>
-3.1516

> <Gold.Chemscore.Metal.Weighted>
-0.0000

> <Gold.Chemscore.Lipo.Weighted>
-15.0327

> <Gold.Chemscore.Internal_Hbond.Weighted>
0.0000

> <Gold.Chemscore.DEClash.Weighted>
0.1213

> <Gold.Chemscore.DEInternal.Weighted>
1.2201

> <Gold.Chemscore.Rot.Weighted>
3.4579

> <Gold.Chemscore.Internal.Correction.Weighted>
   9.000000E+99

> <Gold.Protein.RotatedTorsions>
[ 6907 6896 6895 6894 ] final  172.19 input  -60.11 | X-H torsion
[ 7974 7965 7964 7962 ] final   82.85 input  175.53 | X-H torsion
[ 8008 7997 7996 7995 ] final -144.89 input   59.86 | X-H torsion
[ 10167 10162 10161 10158 ] final   73.52 input  -65.29 | X-H torsion
[ 10718 10713 10712 10709 ] final  116.90 input   66.30 | X-H torsion
[ 10763 10752 10751 10750 ] final -109.76 input  -60.55 | X-H torsion
[ 11005 11000 10999 10996 ] final  155.36 input  -57.11 | X-H torsion

> <Gold.Protein.ActiveResidues>
 VAL166  LYS551  ARG553  GLY616  TRP617  ASP618  TYR619  PRO620  LYS621  CYS622 
 ASP623  PHE694  ASN695  SER759  ASP760  ASP761  ALA762  ILE779  LEU786  VAL792 
 PHE793  MET794  SER795  GLU796  ALA797  LYS798  CYS799  TRP800  GLU811  SER814 

> <Gold.Protein.RotatedAtoms>
  151.7882  133.3356  159.3491 H   0  0  0  0  0  0  0  0  0  0  0  0  # atno 6907 bound_to 6896
  150.7401  134.5867  159.5976 H   0  0  0  0  0  0  0  0  0  0  0  0  # atno 6908 bound_to 6896
  152.3228  134.7360  160.0360 H   0  0  0  0  0  0  0  0  0  0  0  0  # atno 6909 bound_to 6896
  145.6196  139.2383  143.2146 H   0  0  0  0  0  0  0  0  0  0  0  0  # atno 7974 bound_to 7965
  155.5344  140.0602  157.2882 H   0  0  0  0  0  0  0  0  0  0  0  0  # atno 8008 bound_to 7997
  154.4473  140.1930  156.0571 H   0  0  0  0  0  0  0  0  0  0  0  0  # atno 8009 bound_to 7997
  156.0629  140.3270  155.7487 H   0  0  0  0  0  0  0  0  0  0  0  0  # atno 8010 bound_to 7997
  140.0236  144.5521  150.7562 H   0  0  0  0  0  0  0  0  0  0  0  0  # atno 10167 bound_to 10162
  157.6131  131.1031  150.7538 H   0  0  0  0  0  0  0  0  0  0  0  0  # atno 10718 bound_to 10713
  154.8211  135.4589  154.0781 H   0  0  0  0  0  0  0  0  0  0  0  0  # atno 10763 bound_to 10752
  153.2134  135.6885  153.8093 H   0  0  0  0  0  0  0  0  0  0  0  0  # atno 10764 bound_to 10752
  153.7536  135.3294  155.3302 H   0  0  0  0  0  0  0  0  0  0  0  0  # atno 10765 bound_to 10752
  140.1575  134.8633  157.2532 H   0  0  0  0  0  0  0  0  0  0  0  0  # atno 11005 bound_to 11000
  146.1441  140.7017  142.9353 LP  0  0  0  0  0  0  0  0  0  0  0  0  # atno 17320 bound_to 7965
  144.7236  140.4454  143.6989 LP  0  0  0  0  0  0  0  0  0  0  0  0  # atno 17321 bound_to 7965
  140.7332  143.2714  151.3875 LP  0  0  0  0  0  0  0  0  0  0  0  0  # atno 17342 bound_to 10162
  139.6123  144.1073  152.2311 LP  0  0  0  0  0  0  0  0  0  0  0  0  # atno 17343 bound_to 10162
  156.7912  130.4890  149.5384 LP  0  0  0  0  0  0  0  0  0  0  0  0  # atno 17370 bound_to 10713
  156.1242  130.6131  151.0238 LP  0  0  0  0  0  0  0  0  0  0  0  0  # atno 17371 bound_to 10713
  140.2530  134.3660  155.7435 LP  0  0  0  0  0  0  0  0  0  0  0  0  # atno 17394 bound_to 11000
  141.2206  133.7327  156.8965 LP  0  0  0  0  0  0  0  0  0  0  0  0  # atno 17395 bound_to 11000

$$$$
