AV-unprocessed.smi:696|AV-procd|sdf|3388|dock3
  -GOLD-   22720 0363D 1   1.00000     0.00000
 Structure written by MMmdl.
 37 38  0  0  0  0  0  0  0  0  2 V2000
  152.7838  139.0196  157.2460 O   0  0  0  0  0  0  0  0  0  0  0  0
  152.0869  139.6802  158.0173 C   0  0  0  0  0  0  0  0  0  0  0  0
  151.0097  139.1828  158.6447 N   0  0  0  0  0  0  0  0  0  0  0  0
  150.5179  137.8161  158.5134 C   0  0  0  0  0  0  0  0  0  0  0  0
  148.9949  137.7410  158.7256 C   0  0  0  0  0  0  0  0  0  0  0  0
  148.6340  136.7093  159.7592 C   0  0  0  0  0  0  0  0  0  0  0  0
  148.9202  135.4618  159.7136 N   0  0  0  0  0  0  0  0  0  0  0  0
  148.3795  134.9864  160.8476 N   0  0  0  0  0  0  0  0  0  0  0  0
  147.7804  135.9484  161.5534 C   0  0  0  0  0  0  0  0  0  0  0  0
  147.2145  135.7517  162.6266 O   0  0  0  0  0  0  0  0  0  0  0  0
  147.9340  137.0911  160.8610 N   0  5  0  0  0  0  0  0  0  0  0  0
  152.4301  141.1504  158.3008 C   0  0  0  0  0  0  0  0  0  0  0  0
  152.6208  141.3687  159.8200 C   0  0  0  0  0  0  0  0  0  0  0  0
  153.3757  142.6677  160.1505 C   0  0  0  0  0  0  0  0  0  0  0  0
  152.5011  143.9277  160.2806 C   0  0  0  0  0  0  0  0  0  0  0  0
  151.3263  144.0582  159.2947 C   0  0  0  0  0  0  0  0  0  0  0  0
  151.6083  143.5768  157.8624 C   0  0  0  0  0  0  0  0  0  0  0  0
  151.3584  142.0694  157.6770 C   0  0  0  0  0  0  0  0  0  0  0  0
  148.4541  134.0058  161.0746 H   0  0  0  0  0  0  0  0  0  0  0  0
  150.4941  139.7936  159.2615 H   0  0  0  0  0  0  0  0  0  0  0  0
  150.7747  137.4657  157.5129 H   0  0  0  0  0  0  0  0  0  0  0  0
  151.0395  137.1615  159.2143 H   0  0  0  0  0  0  0  0  0  0  0  0
  148.6141  138.7141  159.0383 H   0  0  0  0  0  0  0  0  0  0  0  0
  148.4992  137.5104  157.7814 H   0  0  0  0  0  0  0  0  0  0  0  0
  153.3800  141.3617  157.8063 H   0  0  0  0  0  0  0  0  0  0  0  0
  151.6662  141.3336  160.3471 H   0  0  0  0  0  0  0  0  0  0  0  0
  153.2084  140.5406  160.2202 H   0  0  0  0  0  0  0  0  0  0  0  0
  153.9101  142.5353  161.0919 H   0  0  0  0  0  0  0  0  0  0  0  0
  154.1532  142.8376  159.4050 H   0  0  0  0  0  0  0  0  0  0  0  0
  152.0986  143.9791  161.2930 H   0  0  0  0  0  0  0  0  0  0  0  0
  153.1486  144.7999  160.1816 H   0  0  0  0  0  0  0  0  0  0  0  0
  150.4577  143.5298  159.6898 H   0  0  0  0  0  0  0  0  0  0  0  0
  151.0311  145.1077  159.2641 H   0  0  0  0  0  0  0  0  0  0  0  0
  150.9298  144.1063  157.1927 H   0  0  0  0  0  0  0  0  0  0  0  0
  152.6146  143.8528  157.5450 H   0  0  0  0  0  0  0  0  0  0  0  0
  151.3118  141.8660  156.6058 H   0  0  0  0  0  0  0  0  0  0  0  0
  150.3701  141.8172  158.0647 H   0  0  0  0  0  0  0  0  0  0  0  0
  1  2  2  0  0  0  0
  2  3  1  0  0  0  0
  2 12  1  0  0  0  0
  3  4  1  0  0  0  0
  3 20  1  0  0  0  0
  4  5  1  0  0  0  0
  4 21  1  0  0  0  0
  4 22  1  0  0  0  0
  5  6  1  0  0  0  0
  5 23  1  0  0  0  0
  5 24  1  0  0  0  0
  6 11  1  0  0  0  0
  6  7  2  0  0  0  0
  7  8  1  0  0  0  0
  8 19  1  0  0  0  0
  8  9  1  0  0  0  0
  9 10  2  0  0  0  0
  9 11  1  0  0  0  0
 12 18  1  0  0  0  0
 12 13  1  0  0  0  0
 12 25  1  0  0  0  0
 13 14  1  0  0  0  0
 13 26  1  0  0  0  0
 13 27  1  0  0  0  0
 14 15  1  0  0  0  0
 14 28  1  0  0  0  0
 14 29  1  0  0  0  0
 15 16  1  0  0  0  0
 15 30  1  0  0  0  0
 15 31  1  0  0  0  0
 16 17  1  0  0  0  0
 16 32  1  0  0  0  0
 16 33  1  0  0  0  0
 17 18  1  0  0  0  0
 17 34  1  0  0  0  0
 17 35  1  0  0  0  0
 18 36  1  0  0  0  0
 18 37  1  0  0  0  0
M  CHG  1  11  -1
M  END
> <s_m_source_file>
AV-unprocessed.smi

> <i_m_source_file_index>
696

> <i_lp_mmshare_version>
43012

> <i_f3d_flags>
0

> <s_epik_input>
W0NIMl0xW0NIMl1bQ0gyXVtDSDJdW0NIMl1bQ0gyXVtDSF0xQyg9TylbTkhdW0NIMl1bQ0gyXWMybltuSF1jKD1PKVtuSF0y

> <s_epik_cmdline>
J2VwaWtfcHl0aG9uJywgJy1waCcsICc3LjAnLCAnLXRuJywgJzgnLCAnLW1hJywgJzIwMCcsICctbWV0YWxfYmluZGluZycsICctaW1hZScsICc8aW5maWxlLm1hZT4nLCAnLW9tYWUnLCAnPG91dGZpbGUubWFlPic=

> <r_lp_tautomer_probability>
1

> <r_epik_Ionization_Penalty>
13.715

> <r_epik_Ionization_Penalty_Charging>
13.715

> <r_epik_Ionization_Penalty_Neutral>
5.16152e-06

> <r_epik_State_Penalty>
4.03036

> <r_epik_Charging_Adjusted_Penalty>
17.7454

> <i_epik_Tot_Q>
-1

> <i_epik_Tot_abs_Q>
1

> <r_epik_Metal_State_Penalty>
0.449398

> <b_epik_Metal_Only>
1

> <s_lp_Force_Field>
OPLS_2005

> <r_lp_Energy>
29.0226

> <b_lp_Chiralities_Consistent>
1

> <s_lp_Variant>
AV-unprocessed.smi:696-3

> <Gold.Version>
5.8.1

> <Gold.Id.Protein>
6NUR|6NUR_protein|mol2

> <Gold.PLP.Fitness>
48.1126

> <Gold.PLP.PLP>
-33.0198

> <Gold.PLP.part.hbond>
-4.0000

> <Gold.PLP.part.metal>
0.0000

> <Gold.PLP.part.buried>
-4.7098

> <Gold.PLP.part.nonpolar>
-25.1211

> <Gold.PLP.part.repulsive>
0.2468

> <Gold.PLP.ligand.clash>
0.0000

> <Gold.PLP.ligand.torsion>
0.6436

> <Gold.PLP.Chemscore.Hbond>
5.4473

> <Gold.PLP.Chemscore.CHOScore>
0.0000

> <Gold.PLP.Chemscore.Metal>
0.0000

> <Gold.Chemscore.Hbonds>
donor molecule, donor type, donor heavy atom, donor atom, acceptor molecule, acceptor atom, score
      P1  H  6896  6909       L1     7  1.00
      P1  H  6931  6943       L1    11  1.86
      P1  H  6934  6947       L1    11  1.46
      P1  H  7997  8008       L1     1  1.00

> <Gold.PLP.Chemscore.Internal.Correction>
0.0382

> <Gold.Rescore>
     Score         DG    S(hbond)    S(metal)    S(lipo)     H(rot)  DE(clash)    DE(int)     intcor
     17.64     -18.26       2.77        0.00      79.43       2.25       0.02       0.60       ----

> <Gold.Chemscore.Fitness>
17.6444

> <Gold.Chemscore.DG>
-18.2593

> <Gold.Chemscore.ZeroCoef>
-5.4800

> <Gold.Chemscore.Hbond>
2.7685

> <Gold.Chemscore.Metal>
0.0000

> <Gold.Chemscore.Lipo>
79.4260

> <Gold.Chemscore.Internal_Hbond>
0.0000

> <Gold.Chemscore.DEClash>
0.0199

> <Gold.Chemscore.DEInternal>
0.5950

> <Gold.Chemscore.Rot>
2.2501

> <Gold.Chemscore.Internal.Correction>
   9.000000E+99

> <Gold.Chemscore.Hbonds>
donor molecule, donor type, donor heavy atom, donor atom, acceptor molecule, acceptor atom, score
      P1  H  6896  6909       L1     7  0.48
      P1  H  6931  6943       L1    11  0.38
      P1  H  6934  6947       L1    11  0.66
      P1  H  7997  8008       L1     1  0.75

> <Gold.Chemscore.Hbond.Weighted>
-9.2468

> <Gold.Chemscore.Metal.Weighted>
-0.0000

> <Gold.Chemscore.Lipo.Weighted>
-9.2928

> <Gold.Chemscore.Internal_Hbond.Weighted>
0.0000

> <Gold.Chemscore.DEClash.Weighted>
0.0199

> <Gold.Chemscore.DEInternal.Weighted>
0.5950

> <Gold.Chemscore.Rot.Weighted>
5.7603

> <Gold.Chemscore.Internal.Correction.Weighted>
   9.000000E+99

> <Gold.Protein.RotatedTorsions>
[ 6907 6896 6895 6894 ] final   53.65 input  -60.11 | X-H torsion
[ 7974 7965 7964 7962 ] final  -27.53 input  175.53 | X-H torsion
[ 8008 7997 7996 7995 ] final  -62.09 input   59.86 | X-H torsion
[ 10167 10162 10161 10158 ] final   29.22 input  -65.29 | X-H torsion
[ 10718 10713 10712 10709 ] final  -77.75 input   66.30 | X-H torsion
[ 10763 10752 10751 10750 ] final   59.70 input  -60.55 | X-H torsion
[ 11005 11000 10999 10996 ] final  157.88 input  -57.11 | X-H torsion

> <Gold.Protein.ActiveResidues>
 VAL166  LYS551  ARG553  GLY616  TRP617  ASP618  TYR619  PRO620  LYS621  CYS622 
 ASP623  PHE694  ASN695  SER759  ASP760  ASP761  ALA762  ILE779  LEU786  VAL792 
 PHE793  MET794  SER795  GLU796  ALA797  LYS798  CYS799  TRP800  GLU811  SER814 

> <Gold.Protein.RotatedAtoms>
  152.3359  134.7199  160.0276 H   0  0  0  0  0  0  0  0  0  0  0  0  # atno 6907 bound_to 6896
  151.7600  133.3327  159.3423 H   0  0  0  0  0  0  0  0  0  0  0  0  # atno 6908 bound_to 6896
  150.7450  134.6047  159.6099 H   0  0  0  0  0  0  0  0  0  0  0  0  # atno 6909 bound_to 6896
  146.1351  140.5164  142.8676 H   0  0  0  0  0  0  0  0  0  0  0  0  # atno 7974 bound_to 7965
  154.4481  140.1003  156.6533 H   0  0  0  0  0  0  0  0  0  0  0  0  # atno 8008 bound_to 7997
  155.5374  140.3483  155.4421 H   0  0  0  0  0  0  0  0  0  0  0  0  # atno 8009 bound_to 7997
  156.0622  140.1329  156.9917 H   0  0  0  0  0  0  0  0  0  0  0  0  # atno 8010 bound_to 7997
  140.4785  144.0653  150.6258 H   0  0  0  0  0  0  0  0  0  0  0  0  # atno 10167 bound_to 10162
  156.0136  130.4499  150.3392 H   0  0  0  0  0  0  0  0  0  0  0  0  # atno 10718 bound_to 10713
  152.9901  135.5562  154.5755 H   0  0  0  0  0  0  0  0  0  0  0  0  # atno 10763 bound_to 10752
  154.5147  135.2804  155.1315 H   0  0  0  0  0  0  0  0  0  0  0  0  # atno 10764 bound_to 10752
  154.2693  135.6366  153.5357 H   0  0  0  0  0  0  0  0  0  0  0  0  # atno 10765 bound_to 10752
  140.1812  134.8474  157.2805 H   0  0  0  0  0  0  0  0  0  0  0  0  # atno 11005 bound_to 11000
  144.7731  140.5681  143.6656 LP  0  0  0  0  0  0  0  0  0  0  0  0  # atno 17320 bound_to 7965
  145.5174  139.1477  143.3571 LP  0  0  0  0  0  0  0  0  0  0  0  0  # atno 17321 bound_to 7965
  140.3888  143.2763  152.0084 LP  0  0  0  0  0  0  0  0  0  0  0  0  # atno 17342 bound_to 10162
  139.4829  144.6094  151.7461 LP  0  0  0  0  0  0  0  0  0  0  0  0  # atno 17343 bound_to 10162
  157.1488  131.0315  151.2894 LP  0  0  0  0  0  0  0  0  0  0  0  0  # atno 17370 bound_to 10713
  157.4409  130.7544  149.7069 LP  0  0  0  0  0  0  0  0  0  0  0  0  # atno 17371 bound_to 10713
  140.2265  134.3960  155.7541 LP  0  0  0  0  0  0  0  0  0  0  0  0  # atno 17394 bound_to 11000
  141.2223  133.7193  156.8573 LP  0  0  0  0  0  0  0  0  0  0  0  0  # atno 17395 bound_to 11000

$$$$
