AV-unprocessed.smi:3269|AV-procd|sdf|12510|dock8
  -GOLD-   2272018423D 1   1.00000     0.00000
 Structure written by MMmdl.
 39 40  0  0  0  0  0  0  0  0  1 V2000
  154.0368  140.6231  160.7604 C   0  0  0  0  0  0  0  0  0  0  0  0
  153.2053  141.5725  159.9469 C   0  0  0  0  0  0  0  0  0  0  0  0
  153.2642  142.8695  160.1998 N   0  0  0  0  0  0  0  0  0  0  0  0
  152.4214  143.4317  159.3103 N   0  0  0  0  0  0  0  0  0  0  0  0
  152.2418  144.8705  159.3113 C   0  0  0  0  0  0  0  0  0  0  0  0
  151.8303  142.4877  158.4930 C   0  0  0  0  0  0  0  0  0  0  0  0
  150.8610  142.8587  157.4175 C   0  0  0  0  0  0  0  0  0  0  0  0
  152.3088  141.2650  158.8820 C   0  0  0  0  0  0  0  0  0  0  0  0
  151.9783  139.9000  158.3275 C   0  0  0  0  0  0  0  0  0  0  0  0
  151.6688  139.9546  156.8266 C   0  0  0  0  0  0  0  0  0  0  0  0
  152.5714  139.9495  155.9882 O   0  0  0  0  0  0  0  0  0  0  0  0
  150.3678  140.0102  156.5043 N   0  0  0  0  0  0  0  0  0  0  0  0
  149.8331  140.0376  155.1461 C   0  0  0  0  0  0  0  0  0  0  0  0
  148.8839  141.2273  154.9048 C   0  0  2  0  0  0  0  0  0  0  0  0
  147.6196  141.2580  155.7683 C   0  0  0  0  0  0  0  0  0  0  0  0
  146.6998  142.1069  154.9205 C   0  0  0  0  0  0  0  0  0  0  0  0
  147.0503  141.6317  153.5134 C   0  0  0  0  0  0  0  0  0  0  0  0
  148.4273  141.2679  153.5547 O   0  0  0  0  0  0  0  0  0  0  0  0
  154.5566  139.9138  160.1171 H   0  0  0  0  0  0  0  0  0  0  0  0
  153.4136  140.0523  161.4488 H   0  0  0  0  0  0  0  0  0  0  0  0
  154.7907  141.1469  161.3490 H   0  0  0  0  0  0  0  0  0  0  0  0
  151.1849  145.1074  159.4366 H   0  0  0  0  0  0  0  0  0  0  0  0
  152.5904  145.2836  158.3647 H   0  0  0  0  0  0  0  0  0  0  0  0
  152.8042  145.3295  160.1258 H   0  0  0  0  0  0  0  0  0  0  0  0
  150.6577  142.0136  156.7602 H   0  0  0  0  0  0  0  0  0  0  0  0
  151.2532  143.6680  156.8015 H   0  0  0  0  0  0  0  0  0  0  0  0
  149.9146  143.1871  157.8472 H   0  0  0  0  0  0  0  0  0  0  0  0
  152.8074  139.2097  158.4880 H   0  0  0  0  0  0  0  0  0  0  0  0
  151.1209  139.4617  158.8387 H   0  0  0  0  0  0  0  0  0  0  0  0
  149.6948  140.0136  157.2568 H   0  0  0  0  0  0  0  0  0  0  0  0
  150.6776  140.1061  154.4600 H   0  0  0  0  0  0  0  0  0  0  0  0
  149.3277  139.0993  154.9113 H   0  0  0  0  0  0  0  0  0  0  0  0
  149.4350  142.1539  155.0725 H   0  0  0  0  0  0  0  0  0  0  0  0
  147.1894  140.2632  155.8878 H   0  0  0  0  0  0  0  0  0  0  0  0
  147.7933  141.6752  156.7605 H   0  0  0  0  0  0  0  0  0  0  0  0
  145.6454  141.9754  155.1649 H   0  0  0  0  0  0  0  0  0  0  0  0
  146.9505  143.1622  155.0355 H   0  0  0  0  0  0  0  0  0  0  0  0
  146.4674  140.7469  153.2569 H   0  0  0  0  0  0  0  0  0  0  0  0
  146.8604  142.3927  152.7564 H   0  0  0  0  0  0  0  0  0  0  0  0
  1  2  1  0  0  0  0
  1 19  1  0  0  0  0
  1 20  1  0  0  0  0
  1 21  1  0  0  0  0
  2  8  1  0  0  0  0
  2  3  2  0  0  0  0
  3  4  1  0  0  0  0
  4  5  1  0  0  0  0
  4  6  1  0  0  0  0
  5 22  1  0  0  0  0
  5 23  1  0  0  0  0
  5 24  1  0  0  0  0
  6  7  1  0  0  0  0
  6  8  2  0  0  0  0
  7 25  1  0  0  0  0
  7 26  1  0  0  0  0
  7 27  1  0  0  0  0
  8  9  1  0  0  0  0
  9 10  1  0  0  0  0
  9 28  1  0  0  0  0
  9 29  1  0  0  0  0
 10 11  2  0  0  0  0
 10 12  1  0  0  0  0
 12 13  1  0  0  0  0
 12 30  1  0  0  0  0
 13 14  1  0  0  0  0
 13 31  1  0  0  0  0
 13 32  1  0  0  0  0
 14 18  1  0  0  0  0
 14 15  1  0  0  0  0
 14 33  1  0  0  0  0
 15 16  1  0  0  0  0
 15 34  1  0  0  0  0
 15 35  1  0  0  0  0
 16 17  1  0  0  0  0
 16 36  1  0  0  0  0
 16 37  1  0  0  0  0
 17 18  1  0  0  0  0
 17 38  1  0  0  0  0
 17 39  1  0  0  0  0
M  END
> <s_m_source_file>
AV-unprocessed.smi

> <i_m_source_file_index>
3269

> <i_lp_mmshare_version>
43012

> <i_f3d_flags>
0

> <s_epik_input>
W0NIM11jMW5uKFtDSDNdKWMoW0NIM10pYzFbQ0gyXUMoPU8pW05IXVtDSDJdW0NAQEhdMltDSDJdW0NIMl1bQ0gyXU8y

> <s_epik_cmdline>
J2VwaWtfcHl0aG9uJywgJy1waCcsICc3LjAnLCAnLXRuJywgJzgnLCAnLW1hJywgJzIwMCcsICctbWV0YWxfYmluZGluZycsICctaW1hZScsICc8aW5maWxlLm1hZT4nLCAnLW9tYWUnLCAnPG91dGZpbGUubWFlPic=

> <r_lp_tautomer_probability>
1

> <r_epik_Ionization_Penalty>
0.00306713

> <r_epik_Ionization_Penalty_Charging>
0

> <r_epik_Ionization_Penalty_Neutral>
0.00306713

> <r_epik_State_Penalty>
0.00215672

> <r_epik_Charging_Adjusted_Penalty>
0.00215672

> <i_epik_Tot_Q>
0

> <i_epik_Tot_abs_Q>
0

> <r_epik_Metal_State_Penalty>
-0

> <b_epik_Metal_Only>
0

> <s_lp_Force_Field>
OPLS_2005

> <r_lp_Energy>
13.6043

> <b_lp_Chiralities_Consistent>
1

> <s_lp_Variant>
AV-unprocessed.smi:3269-1

> <Gold.Version>
5.8.1

> <Gold.Id.Protein>
6NUR|6NUR_protein|mol2

> <Gold.PLP.Fitness>
41.1986

> <Gold.PLP.PLP>
-37.2514

> <Gold.PLP.part.hbond>
-2.0000

> <Gold.PLP.part.metal>
0.0000

> <Gold.PLP.part.buried>
-4.2888

> <Gold.PLP.part.nonpolar>
-31.0418

> <Gold.PLP.part.repulsive>
1.5602

> <Gold.PLP.ligand.clash>
0.0000

> <Gold.PLP.ligand.torsion>
0.7186

> <Gold.PLP.Chemscore.Hbond>
1.7930

> <Gold.PLP.Chemscore.CHOScore>
0.0000

> <Gold.PLP.Chemscore.Metal>
0.0000

> <Gold.Chemscore.Hbonds>
donor molecule, donor type, donor heavy atom, donor atom, acceptor molecule, acceptor atom, score
      P1  H  7997  8010       L1    11  1.00
      P1  H  8011  8017       L1    18  0.56

> <Gold.PLP.Chemscore.Internal.Correction>
0.0055

> <Gold.Rescore>
     Score         DG    S(hbond)    S(metal)    S(lipo)     H(rot)  DE(clash)    DE(int)     intcor
     15.43     -18.27       1.65        0.00      95.03       1.50       1.28       1.56       ----

> <Gold.Chemscore.Fitness>
15.4254

> <Gold.Chemscore.DG>
-18.2659

> <Gold.Chemscore.ZeroCoef>
-5.4800

> <Gold.Chemscore.Hbond>
1.6480

> <Gold.Chemscore.Metal>
0.0000

> <Gold.Chemscore.Lipo>
95.0300

> <Gold.Chemscore.Internal_Hbond>
0.0000

> <Gold.Chemscore.DEClash>
1.2769

> <Gold.Chemscore.DEInternal>
1.5635

> <Gold.Chemscore.Rot>
1.4989

> <Gold.Chemscore.Internal.Correction>
   9.000000E+99

> <Gold.Chemscore.Hbonds>
donor molecule, donor type, donor heavy atom, donor atom, acceptor molecule, acceptor atom, score
      P1  H  7997  8010       L1    11  1.00
      P1  H  8011  8017       L1    18  0.41

> <Gold.Chemscore.Hbond.Weighted>
-5.5044

> <Gold.Chemscore.Metal.Weighted>
-0.0000

> <Gold.Chemscore.Lipo.Weighted>
-11.1185

> <Gold.Chemscore.Internal_Hbond.Weighted>
0.0000

> <Gold.Chemscore.DEClash.Weighted>
1.2769

> <Gold.Chemscore.DEInternal.Weighted>
1.5635

> <Gold.Chemscore.Rot.Weighted>
3.8371

> <Gold.Chemscore.Internal.Correction.Weighted>
   9.000000E+99

> <Gold.Protein.RotatedTorsions>
[ 6907 6896 6895 6894 ] final  -76.20 input  -60.11 | X-H torsion
[ 7974 7965 7964 7962 ] final -111.08 input  175.53 | X-H torsion
[ 8008 7997 7996 7995 ] final   83.52 input   59.86 | X-H torsion
[ 10167 10162 10161 10158 ] final -144.56 input  -65.29 | X-H torsion
[ 10718 10713 10712 10709 ] final -124.34 input   66.30 | X-H torsion
[ 10763 10752 10751 10750 ] final -106.17 input  -60.55 | X-H torsion
[ 11005 11000 10999 10996 ] final   70.54 input  -57.11 | X-H torsion

> <Gold.Protein.ActiveResidues>
 VAL166  LYS551  ARG553  GLY616  TRP617  ASP618  TYR619  PRO620  LYS621  CYS622 
 ASP623  PHE694  ASN695  SER759  ASP760  ASP761  ALA762  ILE779  LEU786  VAL792 
 PHE793  MET794  SER795  GLU796  ALA797  LYS798  CYS799  TRP800  GLU811  SER814 

> <Gold.Protein.RotatedAtoms>
  150.7035  134.4607  159.5379 H   0  0  0  0  0  0  0  0  0  0  0  0  # atno 6907 bound_to 6896
  152.2282  134.8344  160.0486 H   0  0  0  0  0  0  0  0  0  0  0  0  # atno 6908 bound_to 6896
  151.9170  133.3540  159.3920 H   0  0  0  0  0  0  0  0  0  0  0  0  # atno 6909 bound_to 6896
  145.1604  140.8875  143.3594 H   0  0  0  0  0  0  0  0  0  0  0  0  # atno 7974 bound_to 7965
  155.9249  140.3419  155.6203 H   0  0  0  0  0  0  0  0  0  0  0  0  # atno 8008 bound_to 7997
  155.7228  140.0785  157.2342 H   0  0  0  0  0  0  0  0  0  0  0  0  # atno 8009 bound_to 7997
  154.4075  140.1602  156.2408 H   0  0  0  0  0  0  0  0  0  0  0  0  # atno 8010 bound_to 7997
  139.7887  143.7996  152.2647 H   0  0  0  0  0  0  0  0  0  0  0  0  # atno 10167 bound_to 10162
  156.1580  130.6581  151.0009 H   0  0  0  0  0  0  0  0  0  0  0  0  # atno 10718 bound_to 10713
  154.7995  135.4722  154.0241 H   0  0  0  0  0  0  0  0  0  0  0  0  # atno 10763 bound_to 10752
  153.1758  135.6832  153.8552 H   0  0  0  0  0  0  0  0  0  0  0  0  # atno 10764 bound_to 10752
  153.8119  135.3216  155.3379 H   0  0  0  0  0  0  0  0  0  0  0  0  # atno 10765 bound_to 10752
  139.9592  134.7091  156.0684 H   0  0  0  0  0  0  0  0  0  0  0  0  # atno 11005 bound_to 11000
  145.0336  139.3319  143.6012 LP  0  0  0  0  0  0  0  0  0  0  0  0  # atno 17320 bound_to 7965
  146.3483  139.9683  142.8709 LP  0  0  0  0  0  0  0  0  0  0  0  0  # atno 17321 bound_to 7965
  139.8081  144.7347  150.9734 LP  0  0  0  0  0  0  0  0  0  0  0  0  # atno 17342 bound_to 10162
  140.7820  143.4278  151.0742 LP  0  0  0  0  0  0  0  0  0  0  0  0  # atno 17343 bound_to 10162
  157.6710  131.0861  150.7612 LP  0  0  0  0  0  0  0  0  0  0  0  0  # atno 17370 bound_to 10713
  156.7677  130.4819  149.5424 LP  0  0  0  0  0  0  0  0  0  0  0  0  # atno 17371 bound_to 10713
  141.1267  133.6597  156.3355 LP  0  0  0  0  0  0  0  0  0  0  0  0  # atno 17394 bound_to 11000
  140.5539  134.6000  157.5415 LP  0  0  0  0  0  0  0  0  0  0  0  0  # atno 17395 bound_to 11000

$$$$
