AV-unprocessed.smi:1027|AV-procd|sdf|4470|dock2
  -GOLD-   22720 2443D 1   1.00000     0.00000
 Structure written by MMmdl.
 35 36  0  0  0  0  0  0  0  0  1 V2000
  147.7839  132.9736  152.9154 C   0  0  0  0  0  0  0  0  0  0  0  0
  149.0361  132.5390  153.7024 C   0  0  0  0  0  0  0  0  0  0  0  0
  148.8709  131.0780  154.1586 C   0  0  0  0  0  0  0  0  0  0  0  0
  149.3508  133.4942  154.8844 C   0  0  1  0  0  0  0  0  0  0  0  0
  150.6141  133.0944  155.6705 C   0  0  0  0  0  0  0  0  0  0  0  0
  149.5119  134.8646  154.3986 N   0  0  0  0  0  0  0  0  0  0  0  0
  150.0108  135.8892  155.1061 C   0  0  0  0  0  0  0  0  0  0  0  0
  150.4163  135.7826  156.2637 O   0  0  0  0  0  0  0  0  0  0  0  0
  150.0054  137.0247  154.3859 N   0  0  0  0  0  0  0  0  0  0  0  0
  150.4442  138.3169  154.7781 C   0  0  0  0  0  0  0  0  0  0  0  0
  151.6668  138.7995  154.5170 N   0  0  0  0  0  0  0  0  0  0  0  0
  151.8319  140.0860  155.0099 N   0  0  0  0  0  0  0  0  0  0  0  0
  150.7347  140.5376  155.6290 C   0  0  0  0  0  0  0  0  0  0  0  0
  150.6702  141.8963  156.2428 C   0  0  0  0  0  0  0  0  0  0  0  0
  151.3556  142.1818  157.5593 C   0  0  0  0  0  0  0  0  0  0  0  0
  149.8504  142.1672  157.4855 C   0  0  0  0  0  0  0  0  0  0  0  0
  149.3863  139.4056  155.6586 S   0  0  0  0  0  0  0  0  0  0  0  0
  146.9063  133.0146  153.5612 H   0  0  0  0  0  0  0  0  0  0  0  0
  147.5665  132.2753  152.1067 H   0  0  0  0  0  0  0  0  0  0  0  0
  147.9082  133.9559  152.4595 H   0  0  0  0  0  0  0  0  0  0  0  0
  149.8785  132.5694  153.0098 H   0  0  0  0  0  0  0  0  0  0  0  0
  148.0833  130.9832  154.9068 H   0  0  0  0  0  0  0  0  0  0  0  0
  149.7900  130.6787  154.5860 H   0  0  0  0  0  0  0  0  0  0  0  0
  148.6086  130.4327  153.3198 H   0  0  0  0  0  0  0  0  0  0  0  0
  148.5013  133.4645  155.5695 H   0  0  0  0  0  0  0  0  0  0  0  0
  150.4978  132.1275  156.1587 H   0  0  0  0  0  0  0  0  0  0  0  0
  150.8345  133.8174  156.4566 H   0  0  0  0  0  0  0  0  0  0  0  0
  151.4863  133.0390  155.0185 H   0  0  0  0  0  0  0  0  0  0  0  0
  149.2070  135.0462  153.4536 H   0  0  0  0  0  0  0  0  0  0  0  0
  149.6444  136.9576  153.4459 H   0  0  0  0  0  0  0  0  0  0  0  0
  150.6995  142.6666  155.4744 H   0  0  0  0  0  0  0  0  0  0  0  0
  151.8406  141.3507  158.0679 H   0  0  0  0  0  0  0  0  0  0  0  0
  151.8453  143.1470  157.6707 H   0  0  0  0  0  0  0  0  0  0  0  0
  149.3353  143.1237  157.5482 H   0  0  0  0  0  0  0  0  0  0  0  0
  149.3392  141.3315  157.9589 H   0  0  0  0  0  0  0  0  0  0  0  0
  1  2  1  0  0  0  0
  1 18  1  0  0  0  0
  1 19  1  0  0  0  0
  1 20  1  0  0  0  0
  2  3  1  0  0  0  0
  2  4  1  0  0  0  0
  2 21  1  0  0  0  0
  3 22  1  0  0  0  0
  3 23  1  0  0  0  0
  3 24  1  0  0  0  0
  4  5  1  0  0  0  0
  4  6  1  0  0  0  0
  4 25  1  0  0  0  0
  5 26  1  0  0  0  0
  5 27  1  0  0  0  0
  5 28  1  0  0  0  0
  6  7  1  0  0  0  0
  6 29  1  0  0  0  0
  7  8  2  0  0  0  0
  7  9  1  0  0  0  0
  9 10  1  0  0  0  0
  9 30  1  0  0  0  0
 10 17  1  0  0  0  0
 10 11  2  0  0  0  0
 11 12  1  0  0  0  0
 12 13  2  0  0  0  0
 13 14  1  0  0  0  0
 13 17  1  0  0  0  0
 14 16  1  0  0  0  0
 14 15  1  0  0  0  0
 14 31  1  0  0  0  0
 15 16  1  0  0  0  0
 15 32  1  0  0  0  0
 15 33  1  0  0  0  0
 16 34  1  0  0  0  0
 16 35  1  0  0  0  0
M  END
> <s_m_source_file>
AV-unprocessed.smi

> <i_m_source_file_index>
1027

> <i_lp_mmshare_version>
43012

> <i_f3d_flags>
0

> <s_epik_input>
W0NIM11bQ0hdKFtDSDNdKVtDQEhdKFtDSDNdKVtOSF1DKD1PKVtOSF1jMW5uYyhzMSlbQ0hdMltDSDJdW0NIMl0y

> <s_epik_cmdline>
J2VwaWtfcHl0aG9uJywgJy1waCcsICc3LjAnLCAnLXRuJywgJzgnLCAnLW1hJywgJzIwMCcsICctbWV0YWxfYmluZGluZycsICctaW1hZScsICc8aW5maWxlLm1hZT4nLCAnLW9tYWUnLCAnPG91dGZpbGUubWFlPic=

> <r_lp_tautomer_probability>
1

> <r_epik_Ionization_Penalty>
0.000943246

> <r_epik_Ionization_Penalty_Charging>
0

> <r_epik_Ionization_Penalty_Neutral>
0.000943246

> <r_epik_State_Penalty>
-0

> <r_epik_Charging_Adjusted_Penalty>
0

> <i_epik_Tot_Q>
0

> <i_epik_Tot_abs_Q>
0

> <r_epik_Metal_State_Penalty>
0.281646

> <b_epik_Metal_Only>
0

> <s_lp_Force_Field>
OPLS_2005

> <r_lp_Energy>
3.72906

> <b_lp_Chiralities_Consistent>
1

> <s_lp_Variant>
AV-unprocessed.smi:1027-2

> <Gold.Version>
5.8.1

> <Gold.Id.Protein>
6NUR|6NUR_protein|mol2

> <Gold.PLP.Fitness>
35.8127

> <Gold.PLP.PLP>
-30.9605

> <Gold.PLP.part.hbond>
-3.6800

> <Gold.PLP.part.metal>
0.0000

> <Gold.PLP.part.buried>
-4.5452

> <Gold.PLP.part.nonpolar>
-23.1855

> <Gold.PLP.part.repulsive>
0.2577

> <Gold.PLP.ligand.clash>
0.0000

> <Gold.PLP.ligand.torsion>
1.5014

> <Gold.PLP.Chemscore.Hbond>
2.5668

> <Gold.PLP.Chemscore.CHOScore>
0.0000

> <Gold.PLP.Chemscore.Metal>
0.0000

> <Gold.Chemscore.Hbonds>
donor molecule, donor type, donor heavy atom, donor atom, acceptor molecule, acceptor atom, score
      L1  H     6    29       P1  7948  0.85
      L1  H     9    30       P1  7948  1.00
      P1  H  7989  7998       L1    12  0.73

> <Gold.PLP.Chemscore.Internal.Correction>
0.1546

> <Gold.Rescore>
     Score         DG    S(hbond)    S(metal)    S(lipo)     H(rot)  DE(clash)    DE(int)     intcor
     12.12     -14.76       1.96        0.00      53.78       1.39       0.02       2.62       ----

> <Gold.Chemscore.Fitness>
12.1194

> <Gold.Chemscore.DG>
-14.7626

> <Gold.Chemscore.ZeroCoef>
-5.4800

> <Gold.Chemscore.Hbond>
1.9601

> <Gold.Chemscore.Metal>
0.0000

> <Gold.Chemscore.Lipo>
53.7760

> <Gold.Chemscore.Internal_Hbond>
0.0000

> <Gold.Chemscore.DEClash>
0.0195

> <Gold.Chemscore.DEInternal>
2.6238

> <Gold.Chemscore.Rot>
1.3890

> <Gold.Chemscore.Internal.Correction>
   9.000000E+99

> <Gold.Chemscore.Hbonds>
donor molecule, donor type, donor heavy atom, donor atom, acceptor molecule, acceptor atom, score
      L1  H     6    29       P1  7948  0.14
      L1  H     9    30       P1  7948  0.70
      P1  H  7989  7998       L1    12  0.03

> <Gold.Chemscore.Hbond.Weighted>
-6.5467

> <Gold.Chemscore.Metal.Weighted>
-0.0000

> <Gold.Chemscore.Lipo.Weighted>
-6.2918

> <Gold.Chemscore.Internal_Hbond.Weighted>
0.0000

> <Gold.Chemscore.DEClash.Weighted>
0.0195

> <Gold.Chemscore.DEInternal.Weighted>
2.6238

> <Gold.Chemscore.Rot.Weighted>
3.5559

> <Gold.Chemscore.Internal.Correction.Weighted>
   9.000000E+99

> <Gold.Protein.RotatedTorsions>
[ 6907 6896 6895 6894 ] final -135.05 input  -60.11 | X-H torsion
[ 7974 7965 7964 7962 ] final  140.36 input  175.53 | X-H torsion
[ 8008 7997 7996 7995 ] final   68.12 input   59.86 | X-H torsion
[ 10167 10162 10161 10158 ] final  -15.09 input  -65.29 | X-H torsion
[ 10718 10713 10712 10709 ] final   19.97 input   66.30 | X-H torsion
[ 10763 10752 10751 10750 ] final  -31.27 input  -60.55 | X-H torsion
[ 11005 11000 10999 10996 ] final  139.69 input  -57.11 | X-H torsion

> <Gold.Protein.ActiveResidues>
 VAL166  LYS551  ARG553  GLY616  TRP617  ASP618  TYR619  PRO620  LYS621  CYS622 
 ASP623  PHE694  ASN695  SER759  ASP760  ASP761  ALA762  ILE779  LEU786  VAL792 
 PHE793  MET794  SER795  GLU796  ALA797  LYS798  CYS799  TRP800  GLU811  SER814 

> <Gold.Protein.RotatedAtoms>
  150.9932  133.6129  159.2705 H   0  0  0  0  0  0  0  0  0  0  0  0  # atno 6907 bound_to 6896
  151.3342  135.0847  159.9358 H   0  0  0  0  0  0  0  0  0  0  0  0  # atno 6908 bound_to 6896
  152.5252  133.9556  159.7747 H   0  0  0  0  0  0  0  0  0  0  0  0  # atno 6909 bound_to 6896
  144.9194  139.5188  143.5670 H   0  0  0  0  0  0  0  0  0  0  0  0  # atno 7974 bound_to 7965
  155.7034  140.3495  155.4943 H   0  0  0  0  0  0  0  0  0  0  0  0  # atno 8008 bound_to 7997
  155.9420  140.1103  157.1070 H   0  0  0  0  0  0  0  0  0  0  0  0  # atno 8009 bound_to 7997
  154.4104  140.1211  156.4926 H   0  0  0  0  0  0  0  0  0  0  0  0  # atno 8010 bound_to 7997
  140.7212  143.5254  150.9583 H   0  0  0  0  0  0  0  0  0  0  0  0  # atno 10167 bound_to 10162
  157.1179  130.6537  149.5915 H   0  0  0  0  0  0  0  0  0  0  0  0  # atno 10718 bound_to 10713
  153.7945  135.6895  153.4866 H   0  0  0  0  0  0  0  0  0  0  0  0  # atno 10763 bound_to 10752
  153.1728  135.4536  154.9923 H   0  0  0  0  0  0  0  0  0  0  0  0  # atno 10764 bound_to 10752
  154.8031  135.3346  154.7439 H   0  0  0  0  0  0  0  0  0  0  0  0  # atno 10765 bound_to 10752
  140.0273  134.9369  157.0593 H   0  0  0  0  0  0  0  0  0  0  0  0  # atno 11005 bound_to 11000
  146.3197  139.8062  142.8955 LP  0  0  0  0  0  0  0  0  0  0  0  0  # atno 17320 bound_to 7965
  145.3321  141.0269  143.3440 LP  0  0  0  0  0  0  0  0  0  0  0  0  # atno 17321 bound_to 7965
  139.8972  143.6880  152.3137 LP  0  0  0  0  0  0  0  0  0  0  0  0  # atno 17342 bound_to 10162
  139.7217  144.7601  151.0945 LP  0  0  0  0  0  0  0  0  0  0  0  0  # atno 17343 bound_to 10162
  155.9835  130.4855  150.6936 LP  0  0  0  0  0  0  0  0  0  0  0  0  # atno 17370 bound_to 10713
  157.4502  131.0871  151.0854 LP  0  0  0  0  0  0  0  0  0  0  0  0  # atno 17371 bound_to 10713
  140.4286  134.1805  155.7167 LP  0  0  0  0  0  0  0  0  0  0  0  0  # atno 17394 bound_to 11000
  141.1810  133.8414  157.1258 LP  0  0  0  0  0  0  0  0  0  0  0  0  # atno 17395 bound_to 11000

$$$$
