AV-unprocessed.smi:1295|AV-procd|sdf|5401|dock6
  -GOLD-   22720 4563D 1   1.00000     0.00000
 Structure written by MMmdl.
 43 44  0  0  0  0  0  0  0  0  1 V2000
  150.9943  134.6250  154.4778 C   0  0  0  0  0  0  0  0  0  0  0  0
  151.4724  135.9751  154.9687 C   0  0  0  0  0  0  0  0  0  0  0  0
  152.3867  136.1322  155.8685 N   0  0  0  0  0  0  0  0  0  0  0  0
  152.7495  137.4342  156.2399 C   0  0  0  0  0  0  0  0  0  0  0  0
  153.8358  137.5361  157.2968 C   0  0  0  0  0  0  0  0  0  0  0  0
  152.1589  138.5299  155.6786 C   0  0  0  0  0  0  0  0  0  0  0  0
  152.5376  139.9600  156.0601 C   0  0  0  0  0  0  0  0  0  0  0  0
  151.9045  140.4891  157.3492 C   0  0  0  0  0  0  0  0  0  0  0  0
  151.1607  139.7682  158.0144 O   0  0  0  0  0  0  0  0  0  0  0  0
  152.2064  141.7538  157.6821 N   0  0  0  0  0  0  0  0  0  0  0  0
  151.6898  142.4851  158.8380 C   0  0  2  0  0  0  0  0  0  0  0  0
  150.7875  143.6281  158.3326 C   0  0  0  0  0  0  0  0  0  0  0  0
  150.2552  144.4864  159.4889 C   0  0  0  0  0  0  0  0  0  0  0  0
  151.4091  145.0391  160.3361 C   0  0  0  0  0  0  0  0  0  0  0  0
  152.3007  143.9032  160.8595 C   0  0  0  0  0  0  0  0  0  0  0  0
  152.8485  143.0249  159.7156 C   0  0  1  0  0  0  0  0  0  0  0  0
  153.7386  141.9027  160.2797 C   0  0  0  0  0  0  0  0  0  0  0  0
  151.1142  138.3386  154.6538 C   0  0  0  0  0  0  0  0  0  0  0  0
  150.5210  139.2523  154.0826 O   0  0  0  0  0  0  0  0  0  0  0  0
  150.8311  137.0506  154.3564 N   0  0  0  0  0  0  0  0  0  0  0  0
  150.1249  136.8672  153.6586 H   0  0  0  0  0  0  0  0  0  0  0  0
  151.8263  134.0670  154.0470 H   0  0  0  0  0  0  0  0  0  0  0  0
  150.2192  134.7241  153.7165 H   0  0  0  0  0  0  0  0  0  0  0  0
  150.5860  134.0470  155.3073 H   0  0  0  0  0  0  0  0  0  0  0  0
  153.4536  138.0246  158.1931 H   0  0  0  0  0  0  0  0  0  0  0  0
  154.6848  138.1090  156.9236 H   0  0  0  0  0  0  0  0  0  0  0  0
  154.2019  136.5499  157.5849 H   0  0  0  0  0  0  0  0  0  0  0  0
  153.6197  140.0616  156.1479 H   0  0  0  0  0  0  0  0  0  0  0  0
  152.2647  140.6181  155.2344 H   0  0  0  0  0  0  0  0  0  0  0  0
  152.8320  142.2604  157.0725 H   0  0  0  0  0  0  0  0  0  0  0  0
  151.0732  141.8273  159.4535 H   0  0  0  0  0  0  0  0  0  0  0  0
  151.3454  144.2626  157.6420 H   0  0  0  0  0  0  0  0  0  0  0  0
  149.9500  143.2192  157.7657 H   0  0  0  0  0  0  0  0  0  0  0  0
  149.6544  145.3075  159.0971 H   0  0  0  0  0  0  0  0  0  0  0  0
  149.5919  143.8884  160.1152 H   0  0  0  0  0  0  0  0  0  0  0  0
  152.0065  145.7282  159.7380 H   0  0  0  0  0  0  0  0  0  0  0  0
  151.0138  145.6168  161.1721 H   0  0  0  0  0  0  0  0  0  0  0  0
  153.1267  144.3268  161.4319 H   0  0  0  0  0  0  0  0  0  0  0  0
  151.7295  143.2866  161.5551 H   0  0  0  0  0  0  0  0  0  0  0  0
  153.4796  143.6582  159.0901 H   0  0  0  0  0  0  0  0  0  0  0  0
  153.1580  141.2045  160.8834 H   0  0  0  0  0  0  0  0  0  0  0  0
  154.5294  142.3092  160.9107 H   0  0  0  0  0  0  0  0  0  0  0  0
  154.2221  141.3332  159.4861 H   0  0  0  0  0  0  0  0  0  0  0  0
  1  2  1  0  0  0  0
  1 22  1  0  0  0  0
  1 23  1  0  0  0  0
  1 24  1  0  0  0  0
  2 20  1  0  0  0  0
  2  3  2  0  0  0  0
  3  4  1  0  0  0  0
  4  5  1  0  0  0  0
  4  6  2  0  0  0  0
  5 25  1  0  0  0  0
  5 26  1  0  0  0  0
  5 27  1  0  0  0  0
  6  7  1  0  0  0  0
  6 18  1  0  0  0  0
  7  8  1  0  0  0  0
  7 28  1  0  0  0  0
  7 29  1  0  0  0  0
  8  9  2  0  0  0  0
  8 10  1  0  0  0  0
 10 11  1  0  0  0  0
 10 30  1  0  0  0  0
 11 16  1  0  0  0  0
 11 12  1  0  0  0  0
 11 31  1  0  0  0  0
 12 13  1  0  0  0  0
 12 32  1  0  0  0  0
 12 33  1  0  0  0  0
 13 14  1  0  0  0  0
 13 34  1  0  0  0  0
 13 35  1  0  0  0  0
 14 15  1  0  0  0  0
 14 36  1  0  0  0  0
 14 37  1  0  0  0  0
 15 16  1  0  0  0  0
 15 38  1  0  0  0  0
 15 39  1  0  0  0  0
 16 17  1  0  0  0  0
 16 40  1  0  0  0  0
 17 41  1  0  0  0  0
 17 42  1  0  0  0  0
 17 43  1  0  0  0  0
 18 19  2  0  0  0  0
 18 20  1  0  0  0  0
 20 21  1  0  0  0  0
M  END
> <s_m_source_file>
AV-unprocessed.smi

> <i_m_source_file_index>
1295

> <i_lp_mmshare_version>
43012

> <i_f3d_flags>
0

> <s_epik_input>
W0NIM11jMW5jKFtDSDNdKWMoYyg9TylbbkhdMSlbQ0gyXUMoPU8pW05IXVtDQEBIXTJbQ0gyXVtDSDJdW0NIMl1bQ0gyXVtDQEhdMltDSDNd

> <s_epik_cmdline>
J2VwaWtfcHl0aG9uJywgJy1waCcsICc3LjAnLCAnLXRuJywgJzgnLCAnLW1hJywgJzIwMCcsICctbWV0YWxfYmluZGluZycsICctaW1hZScsICc8aW5maWxlLm1hZT4nLCAnLW9tYWUnLCAnPG91dGZpbGUubWFlPic=

> <r_lp_tautomer_probability>
0.839158

> <r_epik_Ionization_Penalty>
0.00037085

> <r_epik_Ionization_Penalty_Charging>
0.000336002

> <r_epik_Ionization_Penalty_Neutral>
3.48485e-05

> <r_epik_State_Penalty>
0.09125

> <r_epik_Charging_Adjusted_Penalty>
0.091586

> <i_epik_Tot_Q>
0

> <i_epik_Tot_abs_Q>
0

> <r_epik_Metal_State_Penalty>
0.251445

> <b_epik_Metal_Only>
0

> <s_lp_Force_Field>
OPLS_2005

> <r_lp_Energy>
11.9109

> <b_lp_Chiralities_Consistent>
1

> <s_lp_Variant>
AV-unprocessed.smi:1295-1

> <Gold.Version>
5.8.1

> <Gold.Id.Protein>
6NUR|6NUR_protein|mol2

> <Gold.PLP.Fitness>
44.6484

> <Gold.PLP.PLP>
-37.4630

> <Gold.PLP.part.hbond>
-3.2691

> <Gold.PLP.part.metal>
0.0000

> <Gold.PLP.part.buried>
-2.4093

> <Gold.PLP.part.nonpolar>
-32.0504

> <Gold.PLP.part.repulsive>
0.6146

> <Gold.PLP.ligand.clash>
0.0000

> <Gold.PLP.ligand.torsion>
0.3240

> <Gold.PLP.Chemscore.Hbond>
2.6095

> <Gold.PLP.Chemscore.CHOScore>
0.0000

> <Gold.PLP.Chemscore.Metal>
0.0000

> <Gold.Chemscore.Hbonds>
donor molecule, donor type, donor heavy atom, donor atom, acceptor molecule, acceptor atom, score
      L1  H    20    21       P1  7948  0.54
      P1  H  7989  7998       L1    19  0.98
      P1  H 10752 10764       L1     3  0.08

> <Gold.PLP.Chemscore.Internal.Correction>
0.0048

> <Gold.Rescore>
     Score         DG    S(hbond)    S(metal)    S(lipo)     H(rot)  DE(clash)    DE(int)     intcor
     18.57     -19.18       1.74        0.00      99.74       1.48       0.13       0.48       ----

> <Gold.Chemscore.Fitness>
18.5749

> <Gold.Chemscore.DG>
-19.1806

> <Gold.Chemscore.ZeroCoef>
-5.4800

> <Gold.Chemscore.Hbond>
1.7425

> <Gold.Chemscore.Metal>
0.0000

> <Gold.Chemscore.Lipo>
99.7418

> <Gold.Chemscore.Internal_Hbond>
0.0000

> <Gold.Chemscore.DEClash>
0.1282

> <Gold.Chemscore.DEInternal>
0.4775

> <Gold.Chemscore.Rot>
1.4801

> <Gold.Chemscore.Internal.Correction>
   9.000000E+99

> <Gold.Chemscore.Hbonds>
donor molecule, donor type, donor heavy atom, donor atom, acceptor molecule, acceptor atom, score
      L1  H    20    21       P1  7948  0.10
      P1  H  7989  7998       L1    19  0.86

> <Gold.Chemscore.Hbond.Weighted>
-5.8199

> <Gold.Chemscore.Metal.Weighted>
-0.0000

> <Gold.Chemscore.Lipo.Weighted>
-11.6698

> <Gold.Chemscore.Internal_Hbond.Weighted>
0.0000

> <Gold.Chemscore.DEClash.Weighted>
0.1282

> <Gold.Chemscore.DEInternal.Weighted>
0.4775

> <Gold.Chemscore.Rot.Weighted>
3.7891

> <Gold.Chemscore.Internal.Correction.Weighted>
   9.000000E+99

> <Gold.Protein.RotatedTorsions>
[ 6907 6896 6895 6894 ] final  169.24 input  -60.11 | X-H torsion
[ 7974 7965 7964 7962 ] final -158.46 input  175.53 | X-H torsion
[ 8008 7997 7996 7995 ] final  -79.35 input   59.86 | X-H torsion
[ 10167 10162 10161 10158 ] final   52.76 input  -65.29 | X-H torsion
[ 10718 10713 10712 10709 ] final   56.76 input   66.30 | X-H torsion
[ 10763 10752 10751 10750 ] final  -32.11 input  -60.55 | X-H torsion
[ 11005 11000 10999 10996 ] final   -7.02 input  -57.11 | X-H torsion

> <Gold.Protein.ActiveResidues>
 VAL166  LYS551  ARG553  GLY616  TRP617  ASP618  TYR619  PRO620  LYS621  CYS622 
 ASP623  PHE694  ASN695  SER759  ASP760  ASP761  ALA762  ILE779  LEU786  VAL792 
 PHE793  MET794  SER795  GLU796  ALA797  LYS798  CYS799  TRP800  GLU811  SER814 

> <Gold.Protein.RotatedAtoms>
  151.8349  133.3414  159.3624 H   0  0  0  0  0  0  0  0  0  0  0  0  # atno 6907 bound_to 6896
  150.7252  134.5447  159.5774 H   0  0  0  0  0  0  0  0  0  0  0  0  # atno 6908 bound_to 6896
  152.2908  134.7724  160.0429 H   0  0  0  0  0  0  0  0  0  0  0  0  # atno 6909 bound_to 6896
  144.7505  140.3825  143.6052 H   0  0  0  0  0  0  0  0  0  0  0  0  # atno 7974 bound_to 7965
  154.5777  140.0680  156.9058 H   0  0  0  0  0  0  0  0  0  0  0  0  # atno 8008 bound_to 7997
  155.2520  140.3352  155.4263 H   0  0  0  0  0  0  0  0  0  0  0  0  # atno 8009 bound_to 7997
  156.2166  140.1781  156.7560 H   0  0  0  0  0  0  0  0  0  0  0  0  # atno 8010 bound_to 7997
  140.2480  144.3511  150.6358 H   0  0  0  0  0  0  0  0  0  0  0  0  # atno 10167 bound_to 10162
  157.5458  130.8729  149.8888 H   0  0  0  0  0  0  0  0  0  0  0  0  # atno 10718 bound_to 10713
  153.8084  135.6884  153.4844 H   0  0  0  0  0  0  0  0  0  0  0  0  # atno 10763 bound_to 10752
  153.1644  135.4567  154.9814 H   0  0  0  0  0  0  0  0  0  0  0  0  # atno 10764 bound_to 10752
  154.7977  135.3325  154.7567 H   0  0  0  0  0  0  0  0  0  0  0  0  # atno 10765 bound_to 10752
  140.7083  133.8931  155.8732 H   0  0  0  0  0  0  0  0  0  0  0  0  # atno 11005 bound_to 11000
  145.6963  139.1650  143.2618 LP  0  0  0  0  0  0  0  0  0  0  0  0  # atno 17320 bound_to 7965
  146.1448  140.7008  142.9350 LP  0  0  0  0  0  0  0  0  0  0  0  0  # atno 17321 bound_to 7965
  140.6063  143.2168  151.6975 LP  0  0  0  0  0  0  0  0  0  0  0  0  # atno 17342 bound_to 10162
  139.5055  144.3713  152.0467 LP  0  0  0  0  0  0  0  0  0  0  0  0  # atno 17343 bound_to 10162
  156.0534  130.3713  150.1147 LP  0  0  0  0  0  0  0  0  0  0  0  0  # atno 17370 bound_to 10713
  156.9324  130.9718  151.3530 LP  0  0  0  0  0  0  0  0  0  0  0  0  # atno 17371 bound_to 10713
  141.0106  134.1025  157.4225 LP  0  0  0  0  0  0  0  0  0  0  0  0  # atno 17394 bound_to 11000
  139.8878  135.0093  156.6584 LP  0  0  0  0  0  0  0  0  0  0  0  0  # atno 17395 bound_to 11000

$$$$
