AV-unprocessed.smi:1999|AV-procd|sdf|8097|dock6
  -GOLD-   2272010313D 1   1.00000     0.00000
 Structure written by MMmdl.
 37 38  0  0  0  0  0  0  0  0  2 V2000
  145.0879  134.7711  162.2403 C   0  0  0  0  0  0  0  0  0  0  0  0
  146.2013  135.3860  161.4637 C   0  0  0  0  0  0  0  0  0  0  0  0
  146.4737  136.6926  161.5016 N   0  0  0  0  0  0  0  0  0  0  0  0
  147.5511  137.0254  160.6933 N   0  0  0  0  0  0  0  0  0  0  0  0
  148.0721  135.9706  160.0505 C   0  0  0  0  0  0  0  0  0  0  0  0
  149.1235  136.0796  159.2217 N   0  5  0  0  0  0  0  0  0  0  0  0
  149.6907  137.2883  159.0051 C   0  0  0  0  0  0  0  0  0  0  0  0
  149.0944  138.3477  158.7976 O   0  0  0  0  0  0  0  0  0  0  0  0
  151.0312  137.2675  159.0305 N   0  0  0  0  0  0  0  0  0  0  0  0
  151.9180  138.4095  158.8130 C   0  0  1  0  0  0  0  0  0  0  0  0
  153.0713  138.3816  159.8280 C   0  0  0  0  0  0  0  0  0  0  0  0
  152.4496  138.3941  157.3649 C   0  0  0  0  0  0  0  0  0  0  0  0
  151.4588  138.6610  156.3199 N   0  0  0  0  0  0  0  0  0  0  0  0
  151.0542  140.0640  156.2664 C   0  0  0  0  0  0  0  0  0  0  0  0
  150.0324  140.3237  155.1456 C   0  0  0  0  0  0  0  0  0  0  0  0
  150.5689  139.8977  153.8971 O   0  0  0  0  0  0  0  0  0  0  0  0
  150.9280  138.5200  153.8975 C   0  0  0  0  0  0  0  0  0  0  0  0
  151.9576  138.2581  155.0099 C   0  0  0  0  0  0  0  0  0  0  0  0
  147.2592  134.4501  160.4212 S   0  0  0  0  0  0  0  0  0  0  0  0
  144.1526  134.8673  161.6889 H   0  0  0  0  0  0  0  0  0  0  0  0
  144.9800  135.2663  163.2058 H   0  0  0  0  0  0  0  0  0  0  0  0
  145.2869  133.7133  162.4123 H   0  0  0  0  0  0  0  0  0  0  0  0
  151.4746  136.3765  159.1990 H   0  0  0  0  0  0  0  0  0  0  0  0
  151.3635  139.3349  158.9720 H   0  0  0  0  0  0  0  0  0  0  0  0
  153.7392  139.2311  159.6845 H   0  0  0  0  0  0  0  0  0  0  0  0
  153.6636  137.4710  159.7314 H   0  0  0  0  0  0  0  0  0  0  0  0
  152.6978  138.4281  160.8515 H   0  0  0  0  0  0  0  0  0  0  0  0
  153.2706  139.1071  157.2767 H   0  0  0  0  0  0  0  0  0  0  0  0
  152.8899  137.4124  157.1840 H   0  0  0  0  0  0  0  0  0  0  0  0
  150.6097  140.3664  157.2140 H   0  0  0  0  0  0  0  0  0  0  0  0
  151.9292  140.6971  156.1128 H   0  0  0  0  0  0  0  0  0  0  0  0
  149.0985  139.7962  155.3464 H   0  0  0  0  0  0  0  0  0  0  0  0
  149.7947  141.3858  155.0878 H   0  0  0  0  0  0  0  0  0  0  0  0
  150.0390  137.9037  154.0402 H   0  0  0  0  0  0  0  0  0  0  0  0
  151.3458  138.2599  152.9249 H   0  0  0  0  0  0  0  0  0  0  0  0
  152.8783  138.7977  154.7822 H   0  0  0  0  0  0  0  0  0  0  0  0
  152.2121  137.1977  155.0209 H   0  0  0  0  0  0  0  0  0  0  0  0
  1  2  1  0  0  0  0
  1 20  1  0  0  0  0
  1 21  1  0  0  0  0
  1 22  1  0  0  0  0
  2 19  1  0  0  0  0
  2  3  2  0  0  0  0
  3  4  1  0  0  0  0
  4  5  2  0  0  0  0
  5  6  1  0  0  0  0
  5 19  1  0  0  0  0
  6  7  1  0  0  0  0
  7  8  2  0  0  0  0
  7  9  1  0  0  0  0
  9 10  1  0  0  0  0
  9 23  1  0  0  0  0
 10 11  1  0  0  0  0
 10 12  1  0  0  0  0
 10 24  1  0  0  0  0
 11 25  1  0  0  0  0
 11 26  1  0  0  0  0
 11 27  1  0  0  0  0
 12 13  1  0  0  0  0
 12 28  1  0  0  0  0
 12 29  1  0  0  0  0
 13 18  1  0  0  0  0
 13 14  1  0  0  0  0
 14 15  1  0  0  0  0
 14 30  1  0  0  0  0
 14 31  1  0  0  0  0
 15 16  1  0  0  0  0
 15 32  1  0  0  0  0
 15 33  1  0  0  0  0
 16 17  1  0  0  0  0
 17 18  1  0  0  0  0
 17 34  1  0  0  0  0
 17 35  1  0  0  0  0
 18 36  1  0  0  0  0
 18 37  1  0  0  0  0
M  CHG  1   6  -1
M  END
> <s_m_source_file>
AV-unprocessed.smi

> <i_m_source_file_index>
1999

> <i_lp_mmshare_version>
43012

> <i_f3d_flags>
0

> <s_epik_input>
W0NIM11jMW5uYyhzMSlbTkhdQyg9TylbTkhdW0NASF0oW0NIM10pW0NIMl1OMltDSDJdW0NIMl1PW0NIMl1bQ0gyXTI=

> <s_epik_cmdline>
J2VwaWtfcHl0aG9uJywgJy1waCcsICc3LjAnLCAnLXRuJywgJzgnLCAnLW1hJywgJzIwMCcsICctbWV0YWxfYmluZGluZycsICctaW1hZScsICc8aW5maWxlLm1hZT4nLCAnLW9tYWUnLCAnPG91dGZpbGUubWFlPic=

> <r_lp_tautomer_probability>
1

> <r_epik_Ionization_Penalty>
3.74165

> <r_epik_Ionization_Penalty_Charging>
3.28066

> <r_epik_Ionization_Penalty_Neutral>
0.460988

> <r_epik_State_Penalty>
3.48767

> <r_epik_Charging_Adjusted_Penalty>
6.76834

> <i_epik_Tot_Q>
-1

> <i_epik_Tot_abs_Q>
1

> <r_epik_Metal_State_Penalty>
0.700129

> <b_epik_Metal_Only>
1

> <s_lp_Force_Field>
OPLS_2005

> <r_lp_Energy>
23.1918

> <b_lp_Chiralities_Consistent>
1

> <s_lp_Variant>
AV-unprocessed.smi:1999-6

> <Gold.Version>
5.8.1

> <Gold.Id.Protein>
6NUR|6NUR_protein|mol2

> <Gold.PLP.Fitness>
41.6294

> <Gold.PLP.PLP>
-29.9500

> <Gold.PLP.part.hbond>
-5.8123

> <Gold.PLP.part.metal>
0.0000

> <Gold.PLP.part.buried>
-3.7213

> <Gold.PLP.part.nonpolar>
-21.1042

> <Gold.PLP.part.repulsive>
0.7577

> <Gold.PLP.ligand.clash>
0.0000

> <Gold.PLP.ligand.torsion>
0.7808

> <Gold.PLP.Chemscore.Hbond>
4.3831

> <Gold.PLP.Chemscore.CHOScore>
0.0000

> <Gold.PLP.Chemscore.Metal>
0.0000

> <Gold.Chemscore.Hbonds>
donor molecule, donor type, donor heavy atom, donor atom, acceptor molecule, acceptor atom, score
      P1  H  6896  6908       L1     6  1.43
      P1  H  6931  6943       L1     4  0.35
      P1  H  6934  6947       L1     4  0.59
      P1  H  7989  7998       L1    16  0.88

> <Gold.PLP.Chemscore.Internal.Correction>
0.0917

> <Gold.Rescore>
     Score         DG    S(hbond)    S(metal)    S(lipo)     H(rot)  DE(clash)    DE(int)     intcor
     15.48     -17.67       2.73        0.00      60.29       1.56       0.13       2.07       ----

> <Gold.Chemscore.Fitness>
15.4761

> <Gold.Chemscore.DG>
-17.6715

> <Gold.Chemscore.ZeroCoef>
-5.4800

> <Gold.Chemscore.Hbond>
2.7304

> <Gold.Chemscore.Metal>
0.0000

> <Gold.Chemscore.Lipo>
60.2934

> <Gold.Chemscore.Internal_Hbond>
0.0000

> <Gold.Chemscore.DEClash>
0.1284

> <Gold.Chemscore.DEInternal>
2.0671

> <Gold.Chemscore.Rot>
1.5556

> <Gold.Chemscore.Internal.Correction>
   9.000000E+99

> <Gold.Chemscore.Hbonds>
donor molecule, donor type, donor heavy atom, donor atom, acceptor molecule, acceptor atom, score
      P1  H  6896  6908       L1     6  0.35
      P1  H  6931  6943       L1     4  0.21
      P1  H  6934  6947       L1     4  0.04
      P1  H  7989  7998       L1    16  0.55

> <Gold.Chemscore.Hbond.Weighted>
-9.1194

> <Gold.Chemscore.Metal.Weighted>
-0.0000

> <Gold.Chemscore.Lipo.Weighted>
-7.0543

> <Gold.Chemscore.Internal_Hbond.Weighted>
0.0000

> <Gold.Chemscore.DEClash.Weighted>
0.1284

> <Gold.Chemscore.DEInternal.Weighted>
2.0671

> <Gold.Chemscore.Rot.Weighted>
3.9823

> <Gold.Chemscore.Internal.Correction.Weighted>
   9.000000E+99

> <Gold.Protein.RotatedTorsions>
[ 6907 6896 6895 6894 ] final  179.21 input  -60.11 | X-H torsion
[ 7974 7965 7964 7962 ] final  178.80 input  175.53 | X-H torsion
[ 8008 7997 7996 7995 ] final   36.50 input   59.86 | X-H torsion
[ 10167 10162 10161 10158 ] final  146.65 input  -65.29 | X-H torsion
[ 10718 10713 10712 10709 ] final  -44.91 input   66.30 | X-H torsion
[ 10763 10752 10751 10750 ] final  -31.34 input  -60.55 | X-H torsion
[ 11005 11000 10999 10996 ] final  155.47 input  -57.11 | X-H torsion

> <Gold.Protein.ActiveResidues>
 VAL166  LYS551  ARG553  GLY616  TRP617  ASP618  TYR619  PRO620  LYS621  CYS622 
 ASP623  PHE694  ASN695  SER759  ASP760  ASP761  ALA762  ILE779  LEU786  VAL792 
 PHE793  MET794  SER795  GLU796  ALA797  LYS798  CYS799  TRP800  GLU811  SER814 

> <Gold.Protein.RotatedAtoms>
  151.6753  133.3313  159.3206 H   0  0  0  0  0  0  0  0  0  0  0  0  # atno 6907 bound_to 6896
  150.7848  134.6827  159.6462 H   0  0  0  0  0  0  0  0  0  0  0  0  # atno 6908 bound_to 6896
  152.3915  134.6437  160.0158 H   0  0  0  0  0  0  0  0  0  0  0  0  # atno 6909 bound_to 6896
  144.7152  140.0452  143.6436 H   0  0  0  0  0  0  0  0  0  0  0  0  # atno 7974 bound_to 7965
  155.1884  140.3306  155.4363 H   0  0  0  0  0  0  0  0  0  0  0  0  # atno 8008 bound_to 7997
  156.2451  140.1914  156.6928 H   0  0  0  0  0  0  0  0  0  0  0  0  # atno 8009 bound_to 7997
  154.6223  140.0594  156.9616 H   0  0  0  0  0  0  0  0  0  0  0  0  # atno 8010 bound_to 7997
  139.4903  144.5814  151.6864 H   0  0  0  0  0  0  0  0  0  0  0  0  # atno 10167 bound_to 10162
  156.2337  130.4174  149.8844 H   0  0  0  0  0  0  0  0  0  0  0  0  # atno 10718 bound_to 10713
  153.7958  135.6894  153.4864 H   0  0  0  0  0  0  0  0  0  0  0  0  # atno 10763 bound_to 10752
  153.1720  135.4539  154.9914 H   0  0  0  0  0  0  0  0  0  0  0  0  # atno 10764 bound_to 10752
  154.8026  135.3344  154.7450 H   0  0  0  0  0  0  0  0  0  0  0  0  # atno 10765 bound_to 10752
  140.1585  134.8626  157.2544 H   0  0  0  0  0  0  0  0  0  0  0  0  # atno 11005 bound_to 11000
  145.9990  139.3076  143.0939 LP  0  0  0  0  0  0  0  0  0  0  0  0  # atno 17320 bound_to 7965
  145.8815  140.9360  143.0599 LP  0  0  0  0  0  0  0  0  0  0  0  0  # atno 17321 bound_to 7965
  140.5421  144.0563  150.6092 LP  0  0  0  0  0  0  0  0  0  0  0  0  # atno 17342 bound_to 10162
  140.3588  143.2920  152.0406 LP  0  0  0  0  0  0  0  0  0  0  0  0  # atno 17343 bound_to 10162
  156.6449  130.8720  151.3521 LP  0  0  0  0  0  0  0  0  0  0  0  0  # atno 17370 bound_to 10713
  157.7145  130.9480  150.1204 LP  0  0  0  0  0  0  0  0  0  0  0  0  # atno 17371 bound_to 10713
  140.2518  134.3674  155.7439 LP  0  0  0  0  0  0  0  0  0  0  0  0  # atno 17394 bound_to 11000
  141.2207  133.7321  156.8947 LP  0  0  0  0  0  0  0  0  0  0  0  0  # atno 17395 bound_to 11000

$$$$
