AV-unprocessed.smi:2397|AV-procd|sdf|9493|dock4
  -GOLD-   2272013123D 1   1.00000     0.00000
 Structure written by MMmdl.
 36 37  0  0  0  0  0  0  0  0  1 V2000
  151.8664  144.3636  161.0344 C   0  0  0  0  0  0  0  0  0  0  0  0
  152.4173  144.0836  159.6274 C   0  0  0  0  0  0  0  0  0  0  0  0
  151.6145  144.7800  158.5180 C   0  0  0  0  0  0  0  0  0  0  0  0
  152.5765  142.5920  159.3643 C   0  0  0  0  0  0  0  0  0  0  0  0
  153.3554  141.9097  160.2091 N   0  0  0  0  0  0  0  0  0  0  0  0
  153.4947  140.5877  159.9773 C   0  0  0  0  0  0  0  0  0  0  0  0
  152.8540  139.9500  158.8967 C   0  0  0  0  0  0  0  0  0  0  0  0
  152.0589  140.7678  158.0573 C   0  0  0  0  0  0  0  0  0  0  0  0
  151.3520  140.2703  156.9437 N   0  0  0  0  0  0  0  0  0  0  0  0
  152.2534  139.6836  155.9541 C   0  0  0  0  0  0  0  0  0  0  0  0
  151.4603  138.9488  154.8641 C   0  0  0  0  0  0  0  0  0  0  0  0
  150.5246  139.8463  154.2827 O   0  0  0  0  0  0  0  0  0  0  0  0
  149.5728  140.2978  155.2386 C   0  0  0  0  0  0  0  0  0  0  0  0
  150.2715  141.0873  156.3708 C   0  0  1  0  0  0  0  0  0  0  0  0
  149.1943  141.5347  157.3762 C   0  0  0  0  0  0  0  0  0  0  0  0
  148.9974  142.8488  157.5080 N   0  0  0  0  0  0  0  0  0  0  0  0
  148.5418  140.7096  158.0136 O   0  0  0  0  0  0  0  0  0  0  0  0
  151.9240  142.0895  158.3109 N   0  0  0  0  0  0  0  0  0  0  0  0
  152.5018  143.9166  161.7994 H   0  0  0  0  0  0  0  0  0  0  0  0
  150.8616  143.9582  161.1568 H   0  0  0  0  0  0  0  0  0  0  0  0
  151.8169  145.4348  161.2302 H   0  0  0  0  0  0  0  0  0  0  0  0
  153.4162  144.5231  159.6000 H   0  0  0  0  0  0  0  0  0  0  0  0
  152.0735  144.6180  157.5425 H   0  0  0  0  0  0  0  0  0  0  0  0
  151.5660  145.8562  158.6858 H   0  0  0  0  0  0  0  0  0  0  0  0
  150.5915  144.4056  158.4713 H   0  0  0  0  0  0  0  0  0  0  0  0
  154.1196  140.0325  160.6609 H   0  0  0  0  0  0  0  0  0  0  0  0
  152.9739  138.8895  158.7356 H   0  0  0  0  0  0  0  0  0  0  0  0
  152.8572  140.4738  155.5052 H   0  0  0  0  0  0  0  0  0  0  0  0
  152.9456  138.9830  156.4235 H   0  0  0  0  0  0  0  0  0  0  0  0
  152.1345  138.5865  154.0880 H   0  0  0  0  0  0  0  0  0  0  0  0
  150.9466  138.0771  155.2733 H   0  0  0  0  0  0  0  0  0  0  0  0
  148.8484  140.9304  154.7238 H   0  0  0  0  0  0  0  0  0  0  0  0
  149.0187  139.4437  155.6336 H   0  0  0  0  0  0  0  0  0  0  0  0
  150.7240  141.9743  155.9241 H   0  0  0  0  0  0  0  0  0  0  0  0
  148.3025  143.1933  158.1544 H   0  0  0  0  0  0  0  0  0  0  0  0
  149.5464  143.4940  156.9587 H   0  0  0  0  0  0  0  0  0  0  0  0
  1  2  1  0  0  0  0
  1 19  1  0  0  0  0
  1 20  1  0  0  0  0
  1 21  1  0  0  0  0
  2  3  1  0  0  0  0
  2  4  1  0  0  0  0
  2 22  1  0  0  0  0
  3 23  1  0  0  0  0
  3 24  1  0  0  0  0
  3 25  1  0  0  0  0
  4 18  1  0  0  0  0
  4  5  2  0  0  0  0
  5  6  1  0  0  0  0
  6  7  2  0  0  0  0
  6 26  1  0  0  0  0
  7  8  1  0  0  0  0
  7 27  1  0  0  0  0
  8  9  1  0  0  0  0
  8 18  2  0  0  0  0
  9 14  1  0  0  0  0
  9 10  1  0  0  0  0
 10 11  1  0  0  0  0
 10 28  1  0  0  0  0
 10 29  1  0  0  0  0
 11 12  1  0  0  0  0
 11 30  1  0  0  0  0
 11 31  1  0  0  0  0
 12 13  1  0  0  0  0
 13 14  1  0  0  0  0
 13 32  1  0  0  0  0
 13 33  1  0  0  0  0
 14 15  1  0  0  0  0
 14 34  1  0  0  0  0
 15 16  1  0  0  0  0
 15 17  2  0  0  0  0
 16 35  1  0  0  0  0
 16 36  1  0  0  0  0
M  END
> <s_m_source_file>
AV-unprocessed.smi

> <i_m_source_file_index>
2397

> <i_lp_mmshare_version>
43012

> <i_f3d_flags>
0

> <s_epik_input>
W0NIM11bQ0hdKFtDSDNdKWMxbltjSF1bY0hdYyhuMSlOMltDSDJdW0NIMl1PW0NIMl1bQ0BIXTJDKD1PKVtOSDJd

> <s_epik_cmdline>
J2VwaWtfcHl0aG9uJywgJy1waCcsICc3LjAnLCAnLXRuJywgJzgnLCAnLW1hJywgJzIwMCcsICctbWV0YWxfYmluZGluZycsICctaW1hZScsICc8aW5maWxlLm1hZT4nLCAnLW9tYWUnLCAnPG91dGZpbGUubWFlPic=

> <r_lp_tautomer_probability>
1

> <r_epik_Ionization_Penalty>
0.0323151

> <r_epik_Ionization_Penalty_Charging>
0

> <r_epik_Ionization_Penalty_Neutral>
0.0323151

> <r_epik_State_Penalty>
0.0267324

> <r_epik_Charging_Adjusted_Penalty>
0.0267324

> <i_epik_Tot_Q>
0

> <i_epik_Tot_abs_Q>
0

> <r_epik_Metal_State_Penalty>
0.0253461

> <b_epik_Metal_Only>
0

> <s_lp_Force_Field>
OPLS_2005

> <r_lp_Energy>
6.33426

> <b_lp_Chiralities_Consistent>
1

> <s_lp_Variant>
AV-unprocessed.smi:2397-1

> <Gold.Version>
5.8.1

> <Gold.Id.Protein>
6NUR|6NUR_protein|mol2

> <Gold.PLP.Fitness>
41.8805

> <Gold.PLP.PLP>
-37.6576

> <Gold.PLP.part.hbond>
-2.5653

> <Gold.PLP.part.metal>
0.0000

> <Gold.PLP.part.buried>
-5.1862

> <Gold.PLP.part.nonpolar>
-30.5036

> <Gold.PLP.part.repulsive>
0.1953

> <Gold.PLP.ligand.clash>
0.0000

> <Gold.PLP.ligand.torsion>
0.2734

> <Gold.PLP.Chemscore.Hbond>
1.4800

> <Gold.PLP.Chemscore.CHOScore>
0.0000

> <Gold.PLP.Chemscore.Metal>
0.0000

> <Gold.Chemscore.Hbonds>
donor molecule, donor type, donor heavy atom, donor atom, acceptor molecule, acceptor atom, score
      L1  H    16    36       P1  8028  0.53
      P1  H  7989  7998       L1    12  0.90

> <Gold.PLP.Chemscore.Internal.Correction>
0.3297

> <Gold.Rescore>
     Score         DG    S(hbond)    S(metal)    S(lipo)     H(rot)  DE(clash)    DE(int)     intcor
     13.50     -15.50       1.46        0.00      81.97       1.74       0.61       1.40       ----

> <Gold.Chemscore.Fitness>
13.4978

> <Gold.Chemscore.DG>
-15.5015

> <Gold.Chemscore.ZeroCoef>
-5.4800

> <Gold.Chemscore.Hbond>
1.4646

> <Gold.Chemscore.Metal>
0.0000

> <Gold.Chemscore.Lipo>
81.9720

> <Gold.Chemscore.Internal_Hbond>
0.0000

> <Gold.Chemscore.DEClash>
0.6064

> <Gold.Chemscore.DEInternal>
1.3973

> <Gold.Chemscore.Rot>
1.7426

> <Gold.Chemscore.Internal.Correction>
   9.000000E+99

> <Gold.Chemscore.Hbonds>
donor molecule, donor type, donor heavy atom, donor atom, acceptor molecule, acceptor atom, score
      L1  H    16    36       P1  8028  0.50
      P1  H  7989  7998       L1    12  0.18

> <Gold.Chemscore.Hbond.Weighted>
-4.8918

> <Gold.Chemscore.Metal.Weighted>
-0.0000

> <Gold.Chemscore.Lipo.Weighted>
-9.5907

> <Gold.Chemscore.Internal_Hbond.Weighted>
0.0000

> <Gold.Chemscore.DEClash.Weighted>
0.6064

> <Gold.Chemscore.DEInternal.Weighted>
1.3973

> <Gold.Chemscore.Rot.Weighted>
4.4610

> <Gold.Chemscore.Internal.Correction.Weighted>
   9.000000E+99

> <Gold.Protein.RotatedTorsions>
[ 6907 6896 6895 6894 ] final    7.23 input  -60.11 | X-H torsion
[ 7974 7965 7964 7962 ] final -108.12 input  175.53 | X-H torsion
[ 8008 7997 7996 7995 ] final   20.88 input   59.86 | X-H torsion
[ 10167 10162 10161 10158 ] final   -1.34 input  -65.29 | X-H torsion
[ 10718 10713 10712 10709 ] final   67.73 input   66.30 | X-H torsion
[ 10763 10752 10751 10750 ] final   87.78 input  -60.55 | X-H torsion
[ 11005 11000 10999 10996 ] final  114.90 input  -57.11 | X-H torsion

> <Gold.Protein.ActiveResidues>
 VAL166  LYS551  ARG553  GLY616  TRP617  ASP618  TYR619  PRO620  LYS621  CYS622 
 ASP623  PHE694  ASN695  SER759  ASP760  ASP761  ALA762  ILE779  LEU786  VAL792 
 PHE793  MET794  SER795  GLU796  ALA797  LYS798  CYS799  TRP800  GLU811  SER814 

> <Gold.Protein.RotatedAtoms>
  151.6866  135.0953  160.0225 H   0  0  0  0  0  0  0  0  0  0  0  0  # atno 6907 bound_to 6896
  152.3804  133.6534  159.6165 H   0  0  0  0  0  0  0  0  0  0  0  0  # atno 6908 bound_to 6896
  150.7742  133.9040  159.3391 H   0  0  0  0  0  0  0  0  0  0  0  0  # atno 6909 bound_to 6896
  145.1968  140.9039  143.3392 H   0  0  0  0  0  0  0  0  0  0  0  0  # atno 7974 bound_to 7965
  154.9422  140.3054  155.5115 H   0  0  0  0  0  0  0  0  0  0  0  0  # atno 8008 bound_to 7997
  156.2995  140.2334  156.4430 H   0  0  0  0  0  0  0  0  0  0  0  0  # atno 8009 bound_to 7997
  154.8134  140.0427  157.1348 H   0  0  0  0  0  0  0  0  0  0  0  0  # atno 8010 bound_to 7997
  140.6806  143.6787  150.8124 H   0  0  0  0  0  0  0  0  0  0  0  0  # atno 10167 bound_to 10162
  157.6247  130.9336  150.0282 H   0  0  0  0  0  0  0  0  0  0  0  0  # atno 10718 bound_to 10713
  153.1702  135.4531  154.9892 H   0  0  0  0  0  0  0  0  0  0  0  0  # atno 10763 bound_to 10752
  154.7961  135.3238  154.7666 H   0  0  0  0  0  0  0  0  0  0  0  0  # atno 10764 bound_to 10752
  153.8144  135.6952  153.4891 H   0  0  0  0  0  0  0  0  0  0  0  0  # atno 10765 bound_to 10752
  139.8994  134.9575  156.6963 H   0  0  0  0  0  0  0  0  0  0  0  0  # atno 11005 bound_to 11000
  144.9987  139.3619  143.6178 LP  0  0  0  0  0  0  0  0  0  0  0  0  # atno 17320 bound_to 7965
  146.3425  139.9201  142.8768 LP  0  0  0  0  0  0  0  0  0  0  0  0  # atno 17321 bound_to 7965
  140.0487  143.5272  152.2684 LP  0  0  0  0  0  0  0  0  0  0  0  0  # atno 17342 bound_to 10162
  139.6126  144.7612  151.2918 LP  0  0  0  0  0  0  0  0  0  0  0  0  # atno 17343 bound_to 10162
  156.1413  130.3642  149.9578 LP  0  0  0  0  0  0  0  0  0  0  0  0  # atno 17370 bound_to 10713
  156.7618  130.9154  151.3641 LP  0  0  0  0  0  0  0  0  0  0  0  0  # atno 17371 bound_to 10713
  140.7186  133.9161  155.8131 LP  0  0  0  0  0  0  0  0  0  0  0  0  # atno 17394 bound_to 11000
  141.0245  134.0842  157.4083 LP  0  0  0  0  0  0  0  0  0  0  0  0  # atno 17395 bound_to 11000

$$$$
