#       Name:                AV-unprocessed.smi:3124
#       Creating user name   scv26
#       Creation time:       Fri Mar 27 17:28:58 2020


#       File generated by GOLD software.
#

@<TRIPOS>MOLECULE
AV-unprocessed.smi:3124
    25    25     1
SMALL
NO_CHARGES


@<TRIPOS>ATOM
      1 ****        -1.5196   3.5799   0.8520 C.3            1 S1                 0.0000
      2 ****        -1.4856   2.1561   0.3791 C.2            1 S1                 0.0000
      3 ****        -0.4610   1.1858   0.5814 C.2            1 S1                 0.0000
      4 ****        -0.9229   0.0642  -0.0524 C.2            1 S1                 0.0000
      5 ****        -0.3515  -1.3109  -0.2171 C.3            1 S1                 0.0000
      6 ****         1.1566  -1.4298   0.0800 C.3            1 S1                 0.0000
      7 ****         1.6295  -2.8892   0.0331 C.3            1 S1                 0.0000
      8 ****         1.9455  -0.6120  -0.8606 N.4            1 S1                 1.0000
      9 ****        -2.1528   0.4021  -0.5699 N.pl3          1 S1                 0.0000
     10 ****        -2.5029   1.6769  -0.3196 N.2            1 S1                 0.0000
     11 ****        -2.7567  -0.2180  -1.0911 H              1 S1                 0.0000
     12 ****        -0.8322   3.7343   1.6839 H              1 S1                 0.0000
     13 ****        -2.5165   3.8627   1.1916 H              1 S1                 0.0000
     14 ****        -1.2329   4.2636   0.0527 H              1 S1                 0.0000
     15 ****         0.4705   1.3025   1.1153 H              1 S1                 0.0000
     16 ****        -0.8962  -1.9865   0.4434 H              1 S1                 0.0000
     17 ****        -0.5501  -1.6643  -1.2301 H              1 S1                 0.0000
     18 ****         1.3485  -1.0498   1.0842 H              1 S1                 0.0000
     19 ****         1.0868  -3.5009   0.7546 H              1 S1                 0.0000
     20 ****         2.6909  -2.9676   0.2711 H              1 S1                 0.0000
     21 ****         1.4761  -3.3263  -0.9543 H              1 S1                 0.0000
     22 ****         1.8039  -0.9476  -1.8026 H              1 S1                 0.0000
     23 ****         2.9255  -0.6757  -0.6244 H              1 S1                 0.0000
     24 ****         1.6469   0.3513  -0.7996 H              1 S1                 0.0000
     25 ****        -3.3379   2.1521  -0.5970 LP             1 S1                 0.0000
@<TRIPOS>BOND
    1    1    2 1     
    2    1   12 1     
    3    1   13 1     
    4    1   14 1     
    5    2   10 2     
    6    2    3 1     
    7    3    4 2     
    8    3   15 1     
    9    4    5 1     
   10    4    9 1     
   11    5    6 1     
   12    5   16 1     
   13    5   17 1     
   14    6    7 1     
   15    6    8 1     
   16    6   18 1     
   17    7   19 1     
   18    7   20 1     
   19    7   21 1     
   20    8   22 1     
   21    8   23 1     
   22    8   24 1     
   23    9   11 1     
   24    9   10 1     
   25   10   25 1     
@<TRIPOS>SUBSTRUCTURE
      1 S1             1
@<TRIPOS>SET
LONE_PAIRS      STATIC     ATOMS    <user>   **** ""
1 25
DONOR_HYDROGENS      STATIC     ATOMS    <user>   **** ""
4 22 23 24 11
ATOM$BLUE        STATIC     ATOMS    COLORGROUP SYSTEM
1 25
ATOM$RED        STATIC     ATOMS    COLORGROUP SYSTEM
4 22 23 24 11
