AV-unprocessed.smi:113|AV-procd|sdf|1096|dock3
  -GOLD-   2262018203D 1   1.00000     0.00000
 Structure written by MMmdl.
 52 55  0  0  0  0  0  0  0  0  1 V2000
  154.3210  139.4371  160.8202 C   0  0  0  0  0  0  0  0  0  0  0  0
  153.4124  140.4959  160.2308 C   0  0  0  0  0  0  0  0  0  0  0  0
  152.7611  140.2806  159.0033 C   0  0  0  0  0  0  0  0  0  0  0  0
  151.9224  141.2937  158.4849 C   0  0  0  0  0  0  0  0  0  0  0  0
  151.1885  141.1092  157.1521 C   0  0  0  0  0  0  0  0  0  0  0  0
  151.0618  139.7462  156.6557 N   0  0  0  0  0  0  0  0  0  0  0  0
  151.8692  139.3665  155.5555 C   0  0  0  0  0  0  0  0  0  0  0  0
  152.6622  140.1539  155.0347 O   0  0  0  0  0  0  0  0  0  0  0  0
  151.6970  137.9832  155.1054 C   0  0  0  0  0  0  0  0  0  0  0  0
  152.4978  137.5162  153.9000 C   0  0  0  0  0  0  0  0  0  0  0  0
  150.8411  137.1641  155.7621 C   0  0  0  0  0  0  0  0  0  0  0  0
  150.0969  137.5499  156.8640 N   0  0  0  0  0  0  0  0  0  0  0  0
  149.1733  136.5771  157.5609 C   0  0  1  0  0  0  0  0  0  0  0  0
  149.4708  136.5255  159.0604 C   0  0  0  0  0  0  0  0  0  0  0  0
  148.0778  136.4012  159.6410 C   0  0  1  0  0  0  0  0  0  0  0  0
  148.0412  136.8875  160.9671 O   0  0  0  0  0  0  0  0  0  0  0  0
  147.2568  137.2586  158.6731 C   0  0  2  0  0  0  0  0  0  0  0  0
  145.7604  136.9148  158.6148 C   0  0  0  0  0  0  0  0  0  0  0  0
  145.0987  137.7415  157.6813 O   0  0  0  0  0  0  0  0  0  0  0  0
  147.8511  137.0040  157.4018 O   0  0  0  0  0  0  0  0  0  0  0  0
  150.1779  138.8767  157.3341 C   0  0  0  0  0  0  0  0  0  0  0  0
  149.5095  139.2519  158.3003 O   0  0  0  0  0  0  0  0  0  0  0  0
  151.7796  142.4899  159.2388 C   0  0  0  0  0  0  0  0  0  0  0  0
  150.9562  143.5519  158.7923 C   0  0  0  0  0  0  0  0  0  0  0  0
  150.8305  144.7286  159.5520 C   0  0  0  0  0  0  0  0  0  0  0  0
  151.5263  144.8566  160.7654 C   0  0  0  0  0  0  0  0  0  0  0  0
  152.3453  143.8059  161.2164 C   0  0  0  0  0  0  0  0  0  0  0  0
  152.4857  142.6153  160.4715 C   0  0  0  0  0  0  0  0  0  0  0  0
  153.2817  141.6311  160.9444 N   0  0  0  0  0  0  0  0  0  0  0  0
  154.1026  138.4553  160.3986 H   0  0  0  0  0  0  0  0  0  0  0  0
  154.1946  139.3748  161.9017 H   0  0  0  0  0  0  0  0  0  0  0  0
  155.3632  139.6765  160.6085 H   0  0  0  0  0  0  0  0  0  0  0  0
  152.9132  139.3485  158.4801 H   0  0  0  0  0  0  0  0  0  0  0  0
  150.1833  141.5287  157.2154 H   0  0  0  0  0  0  0  0  0  0  0  0
  151.6748  141.6940  156.3700 H   0  0  0  0  0  0  0  0  0  0  0  0
  152.2605  136.4874  153.6280 H   0  0  0  0  0  0  0  0  0  0  0  0
  153.5667  137.5684  154.1102 H   0  0  0  0  0  0  0  0  0  0  0  0
  152.2877  138.1456  153.0344 H   0  0  0  0  0  0  0  0  0  0  0  0
  150.7353  136.1535  155.3980 H   0  0  0  0  0  0  0  0  0  0  0  0
  149.2690  135.6113  157.0631 H   0  0  0  0  0  0  0  0  0  0  0  0
  150.1308  135.6930  159.3058 H   0  0  0  0  0  0  0  0  0  0  0  0
  149.9414  137.4595  159.3736 H   0  0  0  0  0  0  0  0  0  0  0  0
  147.7517  135.3604  159.6106 H   0  0  0  0  0  0  0  0  0  0  0  0
  147.9416  136.1538  161.5546 H   0  0  0  0  0  0  0  0  0  0  0  0
  147.3948  138.3180  158.8964 H   0  0  0  0  0  0  0  0  0  0  0  0
  145.6278  135.8788  158.3021 H   0  0  0  0  0  0  0  0  0  0  0  0
  145.2943  137.0176  159.5951 H   0  0  0  0  0  0  0  0  0  0  0  0
  145.6976  137.9388  156.9771 H   0  0  0  0  0  0  0  0  0  0  0  0
  150.4081  143.4862  157.8650 H   0  0  0  0  0  0  0  0  0  0  0  0
  150.1997  145.5328  159.2026 H   0  0  0  0  0  0  0  0  0  0  0  0
  151.4323  145.7595  161.3506 H   0  0  0  0  0  0  0  0  0  0  0  0
  152.8749  143.9160  162.1515 H   0  0  0  0  0  0  0  0  0  0  0  0
  1  2  1  0  0  0  0
  1 30  1  0  0  0  0
  1 31  1  0  0  0  0
  1 32  1  0  0  0  0
  2 29  1  0  0  0  0
  2  3  2  0  0  0  0
  3  4  1  0  0  0  0
  3 33  1  0  0  0  0
  4  5  1  0  0  0  0
  4 23  2  0  0  0  0
  5  6  1  0  0  0  0
  5 34  1  0  0  0  0
  5 35  1  0  0  0  0
  6 21  1  0  0  0  0
  6  7  1  0  0  0  0
  7  8  2  0  0  0  0
  7  9  1  0  0  0  0
  9 10  1  0  0  0  0
  9 11  2  0  0  0  0
 10 36  1  0  0  0  0
 10 37  1  0  0  0  0
 10 38  1  0  0  0  0
 11 12  1  0  0  0  0
 11 39  1  0  0  0  0
 12 13  1  0  0  0  0
 12 21  1  0  0  0  0
 13 20  1  0  0  0  0
 13 14  1  0  0  0  0
 13 40  1  0  0  0  0
 14 15  1  0  0  0  0
 14 41  1  0  0  0  0
 14 42  1  0  0  0  0
 15 16  1  0  0  0  0
 15 17  1  0  0  0  0
 15 43  1  0  0  0  0
 16 44  1  0  0  0  0
 17 18  1  0  0  0  0
 17 20  1  0  0  0  0
 17 45  1  0  0  0  0
 18 19  1  0  0  0  0
 18 46  1  0  0  0  0
 18 47  1  0  0  0  0
 19 48  1  0  0  0  0
 21 22  2  0  0  0  0
 23 28  1  0  0  0  0
 23 24  1  0  0  0  0
 24 25  2  0  0  0  0
 24 49  1  0  0  0  0
 25 26  1  0  0  0  0
 25 50  1  0  0  0  0
 26 27  2  0  0  0  0
 26 51  1  0  0  0  0
 27 28  1  0  0  0  0
 27 52  1  0  0  0  0
 28 29  2  0  0  0  0
M  END
> <s_m_source_file>
AV-unprocessed.smi

> <i_m_source_file_index>
113

> <i_lp_mmshare_version>
43012

> <i_f3d_flags>
0

> <s_epik_input>
W2NIXTFbY0hdW2NIXVtjSF1jKGMxMiluYyhbQ0gzXSlbY0hdYzJbQ0gyXW4zYyg9TyljKFtDSDNdKVtjSF1uKGMzPU8pW0NAQEhdNFtDSDJdW0NAQEhdKFtPSF0pW0NASF0oTzQpW0NIMl1bT0hd

> <s_epik_cmdline>
J2VwaWtfcHl0aG9uJywgJy1waCcsICc3LjAnLCAnLXRuJywgJzgnLCAnLW1hJywgJzIwMCcsICctbWV0YWxfYmluZGluZycsICctaW1hZScsICc8aW5maWxlLm1hZT4nLCAnLW9tYWUnLCAnPG91dGZpbGUubWFlPic=

> <r_lp_tautomer_probability>
1

> <r_epik_Ionization_Penalty>
0.214728

> <r_epik_Ionization_Penalty_Charging>
3.04883e-08

> <r_epik_Ionization_Penalty_Neutral>
0.214728

> <r_epik_State_Penalty>
0.204913

> <r_epik_Charging_Adjusted_Penalty>
0.204913

> <i_epik_Tot_Q>
0

> <i_epik_Tot_abs_Q>
0

> <r_epik_Metal_State_Penalty>
0.000244761

> <b_epik_Metal_Only>
0

> <s_epik_Chemistry_Notes>
This compound contains an acetal/aminal-like group ( X-CH(R)-Y where X, Y are N, S, or O) that may be acid/base labile, releasing an aldehyde.

> <s_lp_Force_Field>
OPLS_2005

> <r_lp_Energy>
37.2315

> <b_lp_Chiralities_Consistent>
1

> <s_lp_Variant>
AV-unprocessed.smi:113-6

> <Gold.Version>
5.8.1

> <Gold.Id.Protein>
6NUR|6NUR_protein|mol2

> <Gold.PLP.Fitness>
52.7230

> <Gold.PLP.PLP>
-43.7207

> <Gold.PLP.part.hbond>
-4.0460

> <Gold.PLP.part.metal>
0.0000

> <Gold.PLP.part.buried>
-1.1711

> <Gold.PLP.part.nonpolar>
-39.1090

> <Gold.PLP.part.repulsive>
0.0209

> <Gold.PLP.ligand.clash>
0.0000

> <Gold.PLP.ligand.torsion>
0.4514

> <Gold.PLP.Chemscore.Hbond>
3.2953

> <Gold.PLP.Chemscore.CHOScore>
0.0000

> <Gold.PLP.Chemscore.Metal>
0.0000

> <Gold.Chemscore.Hbonds>
donor molecule, donor type, donor heavy atom, donor atom, acceptor molecule, acceptor atom, score
      P1  H  6931  6943       L1    16  1.00
      P1  H  6934  6947       L1    16  0.27
      P1  H  7989  7998       L1     8  0.45
      P1  H  7997  8010       L1     8  1.00

> <Gold.PLP.Chemscore.Internal.Correction>
0.0193

> <Gold.Rescore>
     Score         DG    S(hbond)    S(metal)    S(lipo)     H(rot)  DE(clash)    DE(int)     intcor
     16.32     -20.40       2.15        0.00     130.54       2.95       1.73       2.36       ----

> <Gold.Chemscore.Fitness>
16.3178

> <Gold.Chemscore.DG>
-20.4039

> <Gold.Chemscore.ZeroCoef>
-5.4800

> <Gold.Chemscore.Hbond>
2.1541

> <Gold.Chemscore.Metal>
0.0000

> <Gold.Chemscore.Lipo>
130.5407

> <Gold.Chemscore.Internal_Hbond>
0.0000

> <Gold.Chemscore.DEClash>
1.7266

> <Gold.Chemscore.DEInternal>
2.3596

> <Gold.Chemscore.Rot>
2.9469

> <Gold.Chemscore.Internal.Correction>
   9.000000E+99

> <Gold.Chemscore.Hbonds>
donor molecule, donor type, donor heavy atom, donor atom, acceptor molecule, acceptor atom, score
      P1  H  6931  6943       L1    16  0.63
      P1  H  6934  6947       L1    16  0.17
      P1  H  7989  7998       L1     8  0.23
      P1  H  7997  8010       L1     8  0.83

> <Gold.Chemscore.Hbond.Weighted>
-7.1946

> <Gold.Chemscore.Metal.Weighted>
-0.0000

> <Gold.Chemscore.Lipo.Weighted>
-15.2733

> <Gold.Chemscore.Internal_Hbond.Weighted>
0.0000

> <Gold.Chemscore.DEClash.Weighted>
1.7266

> <Gold.Chemscore.DEInternal.Weighted>
2.3596

> <Gold.Chemscore.Rot.Weighted>
7.5439

> <Gold.Chemscore.Internal.Correction.Weighted>
   9.000000E+99

> <Gold.Protein.RotatedTorsions>
[ 6907 6896 6895 6894 ] final  136.66 input  -60.11 | X-H torsion
[ 7974 7965 7964 7962 ] final  127.48 input  175.53 | X-H torsion
[ 8008 7997 7996 7995 ] final  101.08 input   59.86 | X-H torsion
[ 10167 10162 10161 10158 ] final  -35.45 input  -65.29 | X-H torsion
[ 10718 10713 10712 10709 ] final   -9.92 input   66.30 | X-H torsion
[ 10763 10752 10751 10750 ] final   29.53 input  -60.55 | X-H torsion
[ 11005 11000 10999 10996 ] final  104.03 input  -57.11 | X-H torsion

> <Gold.Protein.ActiveResidues>
 VAL166  LYS551  ARG553  GLY616  TRP617  ASP618  TYR619  PRO620  LYS621  CYS622 
 ASP623  PHE694  ASN695  SER759  ASP760  ASP761  ALA762  ILE779  LEU786  VAL792 
 PHE793  MET794  SER795  GLU796  ALA797  LYS798  CYS799  TRP800  GLU811  SER814 

> <Gold.Protein.RotatedAtoms>
  152.2868  133.5523  159.5532 H   0  0  0  0  0  0  0  0  0  0  0  0  # atno 6907 bound_to 6896
  150.7218  134.0485  159.3799 H   0  0  0  0  0  0  0  0  0  0  0  0  # atno 6908 bound_to 6896
  151.8393  135.0596  160.0497 H   0  0  0  0  0  0  0  0  0  0  0  0  # atno 6909 bound_to 6896
  145.0501  139.3890  143.5058 H   0  0  0  0  0  0  0  0  0  0  0  0  # atno 7974 bound_to 7965
  156.1265  140.3203  155.8285 H   0  0  0  0  0  0  0  0  0  0  0  0  # atno 8008 bound_to 7997
  155.4410  140.0525  157.3027 H   0  0  0  0  0  0  0  0  0  0  0  0  # atno 8009 bound_to 7997
  154.4866  140.2075  155.9654 H   0  0  0  0  0  0  0  0  0  0  0  0  # atno 8010 bound_to 7997
  140.7165  143.3476  151.2223 H   0  0  0  0  0  0  0  0  0  0  0  0  # atno 10167 bound_to 10162
  156.6810  130.5037  149.5971 H   0  0  0  0  0  0  0  0  0  0  0  0  # atno 10718 bound_to 10713
  153.0425  135.6486  154.0905 H   0  0  0  0  0  0  0  0  0  0  0  0  # atno 10763 bound_to 10752
  154.0609  135.2888  155.3326 H   0  0  0  0  0  0  0  0  0  0  0  0  # atno 10764 bound_to 10752
  154.6658  135.5374  153.8141 H   0  0  0  0  0  0  0  0  0  0  0  0  # atno 10765 bound_to 10752
  139.8788  134.9285  156.5300 H   0  0  0  0  0  0  0  0  0  0  0  0  # atno 11005 bound_to 11000
  146.3517  140.0147  142.8664 LP  0  0  0  0  0  0  0  0  0  0  0  0  # atno 17320 bound_to 7965
  145.1538  140.9637  143.4417 LP  0  0  0  0  0  0  0  0  0  0  0  0  # atno 17321 bound_to 7965
  139.6999  143.9550  152.2901 LP  0  0  0  0  0  0  0  0  0  0  0  0  # atno 17342 bound_to 10162
  139.9239  144.6783  150.8432 LP  0  0  0  0  0  0  0  0  0  0  0  0  # atno 17343 bound_to 10162
  156.1868  130.6534  151.1015 LP  0  0  0  0  0  0  0  0  0  0  0  0  # atno 17370 bound_to 10713
  157.7044  131.0763  150.6717 LP  0  0  0  0  0  0  0  0  0  0  0  0  # atno 17371 bound_to 10713
  140.8387  133.8222  155.9054 LP  0  0  0  0  0  0  0  0  0  0  0  0  # atno 17394 bound_to 11000
  140.9258  134.2084  157.4897 LP  0  0  0  0  0  0  0  0  0  0  0  0  # atno 17395 bound_to 11000

$$$$
